REMARK SMILES CC(C)C[C@H](NC(=O)CNC(=O)[C@@H]([NH3+])C(C)C)C(=O)OCCOC(=O)c1ccc(-c2c3nc(c(-c4c(F)cc(S(=O)(=O)[O-])cc4F)c4ccc([nH]4)c(-c4c(F)cc(S(=O)(=O)[O-])cc4F)c4nc(c(-c5c(F)cc(S(=O)(=O)[O-])cc5F)c5ccc2[nH]5)C=C4)C=C3)cc1
REMARK SMILES IDX 21 1 20 2 18 3 19 4 5 5 4 6 2 7 1 8 3 9 6 10 7 11 8 13 9 14
REMARK SMILES IDX 10 15 11 16 12 18 13 19 14 20 15 24 16 25 17 26 22 27 23 28
REMARK SMILES IDX 24 29 25 30 26 31 27 32 91 33 28 34 90 35 29 36 30 37 31 38
REMARK SMILES IDX 84 39 32 40 89 41 83 42 85 43 33 44 88 45 82 46 81 47 34 49
REMARK SMILES IDX 68 50 47 51 67 52 48 53 51 54 66 55 86 56 49 57 50 58 65 60
REMARK SMILES IDX 87 61 52 62 35 63 36 64 45 65 37 66 38 67 44 68 46 69 39 70
REMARK SMILES IDX 40 71 41 72 42 73 43 74 69 75 70 76 79 77 71 78 72 79 78 80
REMARK SMILES IDX 80 81 73 82 74 83 75 84 76 85 77 86 53 87 54 88 63 89 55 90
REMARK SMILES IDX 56 91 62 92 64 93 57 94 58 95 59 96 60 97 61 98
REMARK H PARENT 6 12 10 17 14 21 14 22 14 23 85 48 51 59
REMARK Flexibility Score: inf
ROOT
ATOM      1  C   UNL     1      -5.186  -1.391  -1.545  1.00  0.00     0.274 C 
ENDROOT
BRANCH   1   2
ATOM      2  O   UNL     1      -3.744  -1.348  -1.541  1.00  0.00    -0.461 OA
BRANCH   2   3
ATOM      3  C   UNL     1      -3.206  -0.196  -2.035  1.00  0.00     0.328 C 
ATOM      4  O   UNL     1      -3.875   0.735  -2.472  1.00  0.00    -0.250 OA
BRANCH   3   5
ATOM      5  C   UNL     1      -1.668  -0.217  -2.100  1.00  0.00     0.192 C 
BRANCH   5   6
ATOM      6  C   UNL     1      -1.175  -0.523  -3.528  1.00  0.00     0.040 C 
BRANCH   6   7
ATOM      7  C   UNL     1      -1.732   0.326  -4.692  1.00  0.00    -0.015 C 
ATOM      8  C   UNL     1      -1.641   1.835  -4.483  1.00  0.00     0.007 C 
ATOM      9  C   UNL     1      -0.986  -0.031  -5.983  1.00  0.00     0.007 C 
ENDBRANCH   6   7
ENDBRANCH   5   6
BRANCH   5  10
ATOM     10  N   UNL     1      -1.050  -1.171  -1.171  1.00  0.00    -0.341 N 
ATOM     11  C   UNL     1       0.078  -1.026  -0.411  1.00  0.00     0.240 C 
ATOM     12  H   UNL     1      -1.512  -2.036  -1.082  1.00  0.00     0.164 HD
ATOM     13  O   UNL     1       0.470  -2.001   0.235  1.00  0.00    -0.273 OA
BRANCH  11  14
ATOM     14  C   UNL     1       0.821   0.325  -0.338  1.00  0.00     0.216 C 
BRANCH  14  15
ATOM     15  N   UNL     1       1.424   0.691  -1.607  1.00  0.00    -0.342 N 
ATOM     16  C   UNL     1       1.460   1.873  -2.279  1.00  0.00     0.278 C 
ATOM     17  H   UNL     1       1.890  -0.047  -2.061  1.00  0.00     0.164 HD
ATOM     18  O   UNL     1       2.022   1.857  -3.381  1.00  0.00    -0.268 OA
BRANCH  16  19
ATOM     19  C   UNL     1       0.860   3.200  -1.731  1.00  0.00     0.273 C 
BRANCH  19  20
ATOM     20  N   UNL     1      -0.542   3.006  -1.308  1.00  0.00    -0.347 N 
ATOM     21  H   UNL     1      -0.575   2.339  -0.537  1.00  0.00     0.345 HD
ATOM     22  H   UNL     1      -1.087   2.648  -2.091  1.00  0.00     0.345 HD
ATOM     23  H   UNL     1      -0.931   3.898  -1.002  1.00  0.00     0.345 HD
ENDBRANCH  19  20
BRANCH  19  24
ATOM     24  C   UNL     1       1.733   3.857  -0.639  1.00  0.00     0.051 C 
ATOM     25  C   UNL     1       3.107   4.227  -1.211  1.00  0.00     0.014 C 
ATOM     26  C   UNL     1       1.097   5.139  -0.082  1.00  0.00     0.014 C 
ENDBRANCH  19  24
ENDBRANCH  16  19
ENDBRANCH  14  15
ENDBRANCH  11  14
ENDBRANCH   5  10
ENDBRANCH   3   5
ENDBRANCH   2   3
ENDBRANCH   1   2
BRANCH   1  27
ATOM     27  C   UNL     1      -5.794  -1.103  -0.168  1.00  0.00     0.275 C 
BRANCH  27  28
ATOM     28  O   UNL     1      -5.423   0.192   0.341  1.00  0.00    -0.458 OA
BRANCH  28  29
ATOM     29  C   UNL     1      -4.313   0.177   1.118  1.00  0.00     0.338 C 
ATOM     30  O   UNL     1      -3.657  -0.807   1.419  1.00  0.00    -0.246 OA
BRANCH  29  31
ATOM     31  C   UNL     1      -3.870   1.547   1.449  1.00  0.00     0.060 A 
ATOM     32  C   UNL     1      -2.507   1.802   1.308  1.00  0.00     0.016 A 
ATOM     33  C   UNL     1      -4.715   2.534   1.965  1.00  0.00     0.016 A 
ATOM     34  C   UNL     1      -1.975   3.032   1.684  1.00  0.00     0.010 A 
ATOM     35  C   UNL     1      -4.176   3.774   2.354  1.00  0.00     0.010 A 
ATOM     36  C   UNL     1      -2.800   4.026   2.222  1.00  0.00    -0.014 A 
BRANCH  36  37
ATOM     37  C   UNL     1      -2.157   5.256   2.752  1.00  0.00     0.031 A 
ATOM     38  C   UNL     1      -1.588   5.236   4.144  1.00  0.00     0.074 A 
ATOM     39  C   UNL     1      -1.964   6.333   1.969  1.00  0.00     0.049 A 
ATOM     40  N   UNL     1      -0.899   6.152   4.772  1.00  0.00    -0.248 NA
ATOM     41  C   UNL     1      -1.818   4.010   4.923  1.00  0.00     0.031 C 
ATOM     42  C   UNL     1      -2.384   6.450   0.574  1.00  0.00     0.029 A 
ATOM     43  N   UNL     1      -1.320   7.520   2.226  1.00  0.00    -0.354 N 
ATOM     44  C   UNL     1      -0.620   5.622   6.026  1.00  0.00     0.074 A 
ATOM     45  C   UNL     1      -1.211   4.300   6.064  1.00  0.00     0.031 C 
ATOM     46  C   UNL     1      -1.954   7.629   0.087  1.00  0.00     0.029 A 
ATOM     47  C   UNL     1      -1.261   8.366   1.144  1.00  0.00     0.049 A 
ATOM     48  H   UNL     1      -0.935   7.743   3.105  1.00  0.00     0.167 HD
ATOM     49  C   UNL     1       0.050   6.186   7.059  1.00  0.00     0.037 A 
ATOM     50  C   UNL     1      -0.713   9.593   1.023  1.00  0.00     0.037 A 
ATOM     51  C   UNL     1       0.615   7.510   7.041  1.00  0.00     0.049 A 
ATOM     52  C   UNL     1      -0.033  10.229   2.211  1.00  0.00     0.074 A 
ATOM     53  C   UNL     1       1.268   8.181   8.060  1.00  0.00     0.029 A 
ATOM     54  N   UNL     1       0.585   8.369   5.953  1.00  0.00    -0.354 N 
ATOM     55  N   UNL     1       0.206   9.723   3.398  1.00  0.00    -0.248 NA
ATOM     56  C   UNL     1       0.441  11.612   2.044  1.00  0.00     0.031 C 
ATOM     57  C   UNL     1       1.593   9.464   7.603  1.00  0.00     0.029 A 
ATOM     58  C   UNL     1       1.187   9.572   6.282  1.00  0.00     0.049 A 
ATOM     59  H   UNL     1       0.192   8.155   5.076  1.00  0.00     0.167 HD
ATOM     60  C   UNL     1       0.880  10.715   4.107  1.00  0.00     0.074 A 
ATOM     61  C   UNL     1       1.021  11.845   3.214  1.00  0.00     0.031 C 
ATOM     62  C   UNL     1       1.338  10.690   5.384  1.00  0.00     0.037 A 
BRANCH  49  63
ATOM     63  C   UNL     1       0.130   5.389   8.328  1.00  0.00     0.058 A 
ATOM     64  C   UNL     1       0.980   4.280   8.459  1.00  0.00     0.135 A 
ATOM     65  C   UNL     1      -0.683   5.729   9.421  1.00  0.00     0.135 A 
ATOM     66  F   UNL     1       1.760   3.902   7.434  1.00  0.00    -0.206 F 
ATOM     67  C   UNL     1       0.991   3.509   9.617  1.00  0.00     0.059 A 
ATOM     68  C   UNL     1      -0.672   4.986  10.597  1.00  0.00     0.059 A 
ATOM     69  F   UNL     1      -1.515   6.779   9.344  1.00  0.00    -0.206 F 
ATOM     70  C   UNL     1       0.152   3.864  10.676  1.00  0.00     0.060 A 
BRANCH  70  71
ATOM     71  S   UNL     1       0.135   2.831  12.155  1.00  0.00     0.124 S 
ATOM     72  O   UNL     1      -0.641   1.683  11.697  1.00  0.00    -0.237 OA
ATOM     73  O   UNL     1       1.555   2.585  12.384  1.00  0.00    -0.237 OA
ATOM     74  O   UNL     1      -0.520   3.674  13.150  1.00  0.00    -0.744 OA
ENDBRANCH  70  71
ENDBRANCH  49  63
BRANCH  50  75
ATOM     75  C   UNL     1      -0.779  10.323  -0.273  1.00  0.00     0.058 A 
ATOM     76  C   UNL     1       0.383  10.581  -1.017  1.00  0.00     0.135 A 
ATOM     77  C   UNL     1      -1.996  10.810  -0.774  1.00  0.00     0.135 A 
ATOM     78  F   UNL     1       1.573  10.149  -0.571  1.00  0.00    -0.206 F 
ATOM     79  C   UNL     1       0.345  11.309  -2.202  1.00  0.00     0.059 A 
ATOM     80  C   UNL     1      -2.063  11.519  -1.970  1.00  0.00     0.059 A 
ATOM     81  F   UNL     1      -3.137  10.589  -0.103  1.00  0.00    -0.206 F 
ATOM     82  C   UNL     1      -0.885  11.775  -2.670  1.00  0.00     0.060 A 
BRANCH  82  83
ATOM     83  S   UNL     1      -0.934  12.687  -4.229  1.00  0.00     0.124 S 
ATOM     84  O   UNL     1      -0.416  13.988  -3.823  1.00  0.00    -0.237 OA
ATOM     85  O   UNL     1      -0.060  11.887  -5.081  1.00  0.00    -0.237 OA
ATOM     86  O   UNL     1      -2.349  12.653  -4.588  1.00  0.00    -0.744 OA
ENDBRANCH  82  83
ENDBRANCH  50  75
BRANCH  62  87
ATOM     87  C   UNL     1       2.074  11.903   5.890  1.00  0.00     0.058 A 
ATOM     88  C   UNL     1       1.410  13.101   6.193  1.00  0.00     0.135 A 
ATOM     89  C   UNL     1       3.458  11.845   6.127  1.00  0.00     0.135 A 
ATOM     90  F   UNL     1       0.088  13.213   5.984  1.00  0.00    -0.206 F 
ATOM     91  C   UNL     1       2.094  14.208   6.690  1.00  0.00     0.059 A 
ATOM     92  C   UNL     1       4.158  12.931   6.646  1.00  0.00     0.059 A 
ATOM     93  F   UNL     1       4.142  10.720   5.867  1.00  0.00    -0.206 F 
ATOM     94  C   UNL     1       3.469  14.113   6.913  1.00  0.00     0.060 A 
BRANCH  94  95
ATOM     95  S   UNL     1       4.343  15.543   7.588  1.00  0.00     0.124 S 
ATOM     96  O   UNL     1       4.443  16.406   6.416  1.00  0.00    -0.237 OA
ATOM     97  O   UNL     1       3.436  16.000   8.637  1.00  0.00    -0.237 OA
ATOM     98  O   UNL     1       5.603  14.977   8.061  1.00  0.00    -0.744 OA
ENDBRANCH  94  95
ENDBRANCH  62  87
ENDBRANCH  36  37
ENDBRANCH  29  31
ENDBRANCH  28  29
ENDBRANCH  27  28
ENDBRANCH   1  27
TORSDOF 22
