REMARK SMILES CCc1ccnc(C(=O)c2[nH]c3ccc(OC(F)(F)F)cc3c2CC(=O)OCCOC(=O)c2ccc(-c3c4nc(c(-c5c(F)cc(S(=O)(=O)[O-])cc5F)c5ccc([nH]5)c(-c5c(F)cc(S(=O)(=O)[O-])cc5F)c5nc(c(-c6c(F)cc(S(=O)(=O)[O-])cc6F)c6ccc3[nH]6)C=C5)C=C4)cc2)c1
REMARK SMILES IDX 28 1 27 2 25 3 26 4 24 5 23 6 10 7 11 8 12 9 22 11 13 12
REMARK SMILES IDX 21 13 14 14 15 15 8 16 9 17 7 18 3 19 4 20 99 21 5 22 6 23
REMARK SMILES IDX 2 24 1 25 16 26 17 27 18 28 19 29 20 30 29 31 30 32 31 33
REMARK SMILES IDX 32 34 33 35 34 36 98 37 35 38 97 39 36 40 37 41 38 42 91 43
REMARK SMILES IDX 39 44 96 45 90 46 92 47 40 48 95 49 89 50 88 51 41 53 75 54
REMARK SMILES IDX 54 55 74 56 55 57 58 58 73 59 93 60 56 61 57 62 72 64 94 65
REMARK SMILES IDX 59 66 42 67 43 68 52 69 44 70 45 71 51 72 53 73 46 74 47 75
REMARK SMILES IDX 48 76 49 77 50 78 76 79 77 80 86 81 78 82 79 83 85 84 87 85
REMARK SMILES IDX 80 86 81 87 82 88 83 89 84 90 60 91 61 92 70 93 62 94 63 95
REMARK SMILES IDX 69 96 71 97 64 98 65 99 66 100 67 101 68 102
REMARK H PARENT 11 10 92 52 58 63
REMARK Flexibility Score: inf
ROOT
ATOM      1  C   UNL     1      -0.403  10.420  -1.366  1.00  0.00     0.274 C 
ENDROOT
BRANCH   1   2
ATOM      2  O   UNL     1      -0.590   9.303  -0.469  1.00  0.00    -0.462 OA
BRANCH   2   3
ATOM      3  C   UNL     1      -1.715   8.566  -0.646  1.00  0.00     0.310 C 
ATOM      4  O   UNL     1      -2.656   8.911  -1.358  1.00  0.00    -0.252 OA
BRANCH   3   5
ATOM      5  C   UNL     1      -1.669   7.186  -0.021  1.00  0.00     0.161 C 
BRANCH   5   6
ATOM      6  C   UNL     1      -0.857   6.995   1.224  1.00  0.00     0.000 A 
ATOM      7  C   UNL     1       0.449   6.519   1.343  1.00  0.00     0.093 A 
ATOM      8  N   UNL     1       0.753   6.500   2.682  1.00  0.00    -0.352 N 
ATOM      9  C   UNL     1      -0.339   6.819   3.441  1.00  0.00     0.046 A 
ATOM     10  H   UNL     1       1.641   6.285   3.049  1.00  0.00     0.167 HD
ATOM     11  C   UNL     1      -1.348   7.197   2.563  1.00  0.00     0.008 A 
ATOM     12  C   UNL     1      -0.493   6.810   4.827  1.00  0.00     0.030 A 
ATOM     13  C   UNL     1      -2.570   7.643   3.115  1.00  0.00     0.057 A 
ATOM     14  C   UNL     1      -1.720   7.232   5.347  1.00  0.00     0.049 A 
ATOM     15  C   UNL     1      -2.748   7.665   4.509  1.00  0.00     0.130 A 
BRANCH   7  16
ATOM     16  C   UNL     1       1.482   6.145   0.387  1.00  0.00     0.227 C 
ATOM     17  O   UNL     1       2.524   6.798   0.327  1.00  0.00    -0.285 OA
BRANCH  16  18
ATOM     18  C   UNL     1       1.412   4.806  -0.310  1.00  0.00     0.113 A 
ATOM     19  C   UNL     1       0.918   2.438  -0.248  1.00  0.00    -0.044 A 
ATOM     20  C   UNL     1       1.752   2.290  -1.358  1.00  0.00     0.024 A 
ATOM     21  C   UNL     1       0.722   3.734   0.260  1.00  0.00     0.036 A 
ATOM     22  C   UNL     1       2.369   3.412  -1.888  1.00  0.00     0.112 A 
ATOM     23  N   UNL     1       2.230   4.654  -1.385  1.00  0.00    -0.253 NA
BRANCH  19  24
ATOM     24  C   UNL     1       0.252   1.270   0.443  1.00  0.00     0.032 C 
ATOM     25  C   UNL     1       0.771  -0.120   0.088  1.00  0.00     0.009 C 
ENDBRANCH  19  24
ENDBRANCH  16  18
ENDBRANCH   7  16
BRANCH  15  26
ATOM     26  O   UNL     1      -3.970   8.128   4.915  1.00  0.00    -0.406 OA
BRANCH  26  27
ATOM     27  C   UNL     1      -4.219   8.188   6.308  1.00  0.00     0.573 C 
ATOM     28  F   UNL     1      -4.188   6.957   6.864  1.00  0.00    -0.132 F 
ATOM     29  F   UNL     1      -3.328   8.987   6.937  1.00  0.00    -0.132 F 
ATOM     30  F   UNL     1      -5.452   8.706   6.510  1.00  0.00    -0.132 F 
ENDBRANCH  26  27
ENDBRANCH  15  26
ENDBRANCH   5   6
ENDBRANCH   3   5
ENDBRANCH   2   3
ENDBRANCH   1   2
BRANCH   1  31
ATOM     31  C   UNL     1       0.657  10.107  -2.432  1.00  0.00     0.275 C 
BRANCH  31  32
ATOM     32  O   UNL     1       0.198   9.145  -3.405  1.00  0.00    -0.458 OA
BRANCH  32  33
ATOM     33  C   UNL     1       0.366   7.866  -3.013  1.00  0.00     0.338 C 
ATOM     34  O   UNL     1       0.795   7.482  -1.935  1.00  0.00    -0.246 OA
BRANCH  33  35
ATOM     35  C   UNL     1      -0.110   6.897  -3.990  1.00  0.00     0.060 A 
ATOM     36  C   UNL     1      -1.351   6.291  -3.774  1.00  0.00     0.016 A 
ATOM     37  C   UNL     1       0.777   6.410  -4.949  1.00  0.00     0.016 A 
ATOM     38  C   UNL     1      -1.697   5.160  -4.505  1.00  0.00     0.010 A 
ATOM     39  C   UNL     1       0.409   5.302  -5.709  1.00  0.00     0.010 A 
ATOM     40  C   UNL     1      -0.821   4.662  -5.479  1.00  0.00    -0.014 A 
BRANCH  40  41
ATOM     41  C   UNL     1      -1.192   3.490  -6.300  1.00  0.00     0.031 A 
ATOM     42  C   UNL     1      -0.483   2.182  -6.127  1.00  0.00     0.074 A 
ATOM     43  C   UNL     1      -2.142   3.638  -7.239  1.00  0.00     0.049 A 
ATOM     44  N   UNL     1      -0.492   1.127  -6.898  1.00  0.00    -0.248 NA
ATOM     45  C   UNL     1       0.353   2.045  -4.926  1.00  0.00     0.031 C 
ATOM     46  C   UNL     1      -2.931   4.852  -7.455  1.00  0.00     0.029 A 
ATOM     47  N   UNL     1      -2.586   2.771  -8.201  1.00  0.00    -0.354 N 
ATOM     48  C   UNL     1       0.361   0.210  -6.297  1.00  0.00     0.074 A 
ATOM     49  C   UNL     1       0.867   0.833  -5.091  1.00  0.00     0.031 C 
ATOM     50  C   UNL     1      -3.758   4.657  -8.492  1.00  0.00     0.029 A 
ATOM     51  C   UNL     1      -3.505   3.334  -9.052  1.00  0.00     0.049 A 
ATOM     52  H   UNL     1      -2.278   1.839  -8.275  1.00  0.00     0.167 HD
ATOM     53  C   UNL     1       0.693  -1.031  -6.726  1.00  0.00     0.037 A 
ATOM     54  C   UNL     1      -4.042   2.857 -10.188  1.00  0.00     0.037 A 
ATOM     55  C   UNL     1       0.168  -1.630  -7.927  1.00  0.00     0.049 A 
ATOM     56  C   UNL     1      -3.624   1.503 -10.676  1.00  0.00     0.074 A 
ATOM     57  C   UNL     1       0.454  -2.868  -8.475  1.00  0.00     0.029 A 
ATOM     58  N   UNL     1      -0.763  -1.028  -8.763  1.00  0.00    -0.354 N 
ATOM     59  N   UNL     1      -2.762   0.669 -10.142  1.00  0.00    -0.248 NA
ATOM     60  C   UNL     1      -4.233   1.030 -11.924  1.00  0.00     0.031 C 
ATOM     61  C   UNL     1      -0.291  -3.007  -9.653  1.00  0.00     0.029 A 
ATOM     62  C   UNL     1      -1.062  -1.867  -9.823  1.00  0.00     0.049 A 
ATOM     63  H   UNL     1      -1.153  -0.135  -8.624  1.00  0.00     0.167 HD
ATOM     64  C   UNL     1      -2.734  -0.435 -10.982  1.00  0.00     0.074 A 
ATOM     65  C   UNL     1      -3.669  -0.164 -12.058  1.00  0.00     0.031 C 
ATOM     66  C   UNL     1      -2.002  -1.571 -10.875  1.00  0.00     0.037 A 
BRANCH  53  67
ATOM     67  C   UNL     1       1.694  -1.802  -5.913  1.00  0.00     0.058 A 
ATOM     68  C   UNL     1       1.350  -2.399  -4.691  1.00  0.00     0.135 A 
ATOM     69  C   UNL     1       3.014  -1.953  -6.368  1.00  0.00     0.135 A 
ATOM     70  F   UNL     1       0.108  -2.269  -4.200  1.00  0.00    -0.206 F 
ATOM     71  C   UNL     1       2.287  -3.096  -3.933  1.00  0.00     0.059 A 
ATOM     72  C   UNL     1       3.964  -2.659  -5.635  1.00  0.00     0.059 A 
ATOM     73  F   UNL     1       3.396  -1.399  -7.529  1.00  0.00    -0.206 F 
ATOM     74  C   UNL     1       3.595  -3.211  -4.409  1.00  0.00     0.060 A 
BRANCH  74  75
ATOM     75  S   UNL     1       4.812  -4.084  -3.401  1.00  0.00     0.124 S 
ATOM     76  O   UNL     1       5.129  -3.073  -2.397  1.00  0.00    -0.237 OA
ATOM     77  O   UNL     1       4.058  -5.237  -2.920  1.00  0.00    -0.237 OA
ATOM     78  O   UNL     1       5.880  -4.388  -4.348  1.00  0.00    -0.744 OA
ENDBRANCH  74  75
ENDBRANCH  53  67
BRANCH  54  79
ATOM     79  C   UNL     1      -5.006   3.698 -10.938  1.00  0.00     0.058 A 
ATOM     80  C   UNL     1      -6.379   3.429 -10.886  1.00  0.00     0.135 A 
ATOM     81  C   UNL     1      -4.581   4.837 -11.639  1.00  0.00     0.135 A 
ATOM     82  F   UNL     1      -6.828   2.350 -10.227  1.00  0.00    -0.206 F 
ATOM     83  C   UNL     1      -7.305   4.268 -11.497  1.00  0.00     0.059 A 
ATOM     84  C   UNL     1      -5.489   5.701 -12.241  1.00  0.00     0.059 A 
ATOM     85  F   UNL     1      -3.276   5.144 -11.696  1.00  0.00    -0.206 F 
ATOM     86  C   UNL     1      -6.850   5.407 -12.165  1.00  0.00     0.060 A 
BRANCH  86  87
ATOM     87  S   UNL     1      -8.061   6.547 -12.868  1.00  0.00     0.124 S 
ATOM     88  O   UNL     1      -8.410   5.870 -14.112  1.00  0.00    -0.237 OA
ATOM     89  O   UNL     1      -9.098   6.572 -11.842  1.00  0.00    -0.237 OA
ATOM     90  O   UNL     1      -7.305   7.788 -13.012  1.00  0.00    -0.744 OA
ENDBRANCH  86  87
ENDBRANCH  54  79
BRANCH  66  91
ATOM     91  C   UNL     1      -2.212  -2.613 -11.931  1.00  0.00     0.058 A 
ATOM     92  C   UNL     1      -1.599  -2.515 -13.188  1.00  0.00     0.135 A 
ATOM     93  C   UNL     1      -3.000  -3.743 -11.663  1.00  0.00     0.135 A 
ATOM     94  F   UNL     1      -0.843  -1.447 -13.489  1.00  0.00    -0.206 F 
ATOM     95  C   UNL     1      -1.769  -3.500 -14.153  1.00  0.00     0.059 A 
ATOM     96  C   UNL     1      -3.173  -4.747 -12.609  1.00  0.00     0.059 A 
ATOM     97  F   UNL     1      -3.603  -3.879 -10.472  1.00  0.00    -0.206 F 
ATOM     98  C   UNL     1      -2.559  -4.612 -13.854  1.00  0.00     0.060 A 
BRANCH  98  99
ATOM     99  S   UNL     1      -2.746  -5.908 -15.098  1.00  0.00     0.124 S 
ATOM    100  O   UNL     1      -3.755  -5.327 -15.977  1.00  0.00    -0.237 OA
ATOM    101  O   UNL     1      -1.400  -6.008 -15.655  1.00  0.00    -0.237 OA
ATOM    102  O   UNL     1      -3.180  -7.063 -14.317  1.00  0.00    -0.744 OA
ENDBRANCH  98  99
ENDBRANCH  66  91
ENDBRANCH  40  41
ENDBRANCH  33  35
ENDBRANCH  32  33
ENDBRANCH  31  32
ENDBRANCH   1  31
TORSDOF 20
