REMARK SMILES CC(C)(C)c1ccc(C(=O)N/C(=C/c2ccc(O)cc2)C(=O)OCCOC(=O)c2ccc(-c3c4nc(c(-c5c(F)cc(S(=O)(=O)[O-])cc5F)c5ccc([nH]5)c(-c5c(F)cc(S(=O)(=O)[O-])cc5F)c5nc(c(-c6c(F)cc(S(=O)(=O)[O-])cc6F)c6ccc3[nH]6)C=C5)C=C4)cc2)cc1
REMARK SMILES IDX 24 1 23 2 21 3 22 4 12 5 13 6 11 7 9 8 10 9 8 11 5 12 6 13
REMARK SMILES IDX 96 14 7 15 95 16 2 17 1 18 3 19 4 20 14 21 15 22 20 23 16 24
REMARK SMILES IDX 19 25 17 26 18 27 25 29 26 30 27 31 28 32 29 33 30 34 94 35
REMARK SMILES IDX 31 36 93 37 32 38 33 39 34 40 87 41 35 42 92 43 86 44 88 45
REMARK SMILES IDX 36 46 91 47 85 48 84 49 37 51 71 52 50 53 70 54 51 55 54 56
REMARK SMILES IDX 69 57 89 58 52 59 53 60 68 62 90 63 55 64 38 65 39 66 48 67
REMARK SMILES IDX 40 68 41 69 47 70 49 71 42 72 43 73 44 74 45 75 46 76 72 77
REMARK SMILES IDX 73 78 82 79 74 80 75 81 81 82 83 83 76 84 77 85 78 86 79 87
REMARK SMILES IDX 80 88 56 89 57 90 66 91 58 92 59 93 65 94 67 95 60 96 61 97
REMARK SMILES IDX 62 98 63 99 64 100
REMARK H PARENT 11 10 18 28 88 50 54 61
REMARK Flexibility Score: inf
ROOT
ATOM      1  C   UNL     1       1.972   5.059   2.531  1.00  0.00     0.275 C 
ENDROOT
BRANCH   1   2
ATOM      2  O   UNL     1       2.025   5.273   3.957  1.00  0.00    -0.457 OA
BRANCH   2   3
ATOM      3  C   UNL     1       1.859   4.138   4.670  1.00  0.00     0.354 C 
ATOM      4  O   UNL     1       1.925   3.050   4.137  1.00  0.00    -0.244 OA
BRANCH   3   5
ATOM      5  C   UNL     1       1.599   4.231   6.141  1.00  0.00     0.128 C 
ATOM      6  C   UNL     1       1.789   5.353   6.870  1.00  0.00     0.042 C 
BRANCH   5   7
ATOM      7  N   UNL     1       1.188   3.085   6.823  1.00  0.00    -0.316 N 
ATOM      8  C   UNL     1       0.629   1.871   6.431  1.00  0.00     0.255 C 
ATOM      9  O   UNL     1       0.564   0.980   7.280  1.00  0.00    -0.269 OA
ATOM     10  H   UNL     1       1.323   3.149   7.796  1.00  0.00     0.170 HD
BRANCH   8  11
ATOM     11  C   UNL     1       0.095   1.581   5.067  1.00  0.00     0.040 A 
ATOM     12  C   UNL     1      -0.227   1.184   2.265  1.00  0.00    -0.043 A 
ATOM     13  C   UNL     1       0.419   0.235   3.053  1.00  0.00     0.005 A 
ATOM     14  C   UNL     1      -0.857   2.254   2.947  1.00  0.00     0.005 A 
ATOM     15  C   UNL     1       0.585   0.447   4.421  1.00  0.00     0.014 A 
ATOM     16  C   UNL     1      -0.722   2.442   4.340  1.00  0.00     0.014 A 
BRANCH  12  17
ATOM     17  C   UNL     1      -0.197   1.096   0.730  1.00  0.00    -0.013 C 
ATOM     18  C   UNL     1       0.562  -0.136   0.169  1.00  0.00     0.016 C 
ATOM     19  C   UNL     1       0.519   2.332   0.141  1.00  0.00     0.016 C 
ATOM     20  C   UNL     1      -1.638   1.035   0.200  1.00  0.00     0.016 C 
ENDBRANCH  12  17
ENDBRANCH   8  11
ENDBRANCH   5   7
BRANCH   6  21
ATOM     21  C   UNL     1       1.871   6.705   6.310  1.00  0.00    -0.023 A 
ATOM     22  C   UNL     1       3.060   7.434   6.231  1.00  0.00     0.012 A 
ATOM     23  C   UNL     1       0.688   7.239   5.773  1.00  0.00     0.012 A 
ATOM     24  C   UNL     1       3.070   8.659   5.555  1.00  0.00     0.047 A 
ATOM     25  C   UNL     1       0.705   8.445   5.081  1.00  0.00     0.047 A 
ATOM     26  C   UNL     1       1.904   9.136   4.961  1.00  0.00     0.115 A 
BRANCH  26  27
ATOM     27  O   UNL     1       1.972  10.289   4.236  1.00  0.00    -0.508 OA
ATOM     28  H   UNL     1       2.785  10.748   4.161  1.00  0.00     0.293 HD
ENDBRANCH  26  27
ENDBRANCH   6  21
ENDBRANCH   3   5
ENDBRANCH   2   3
ENDBRANCH   1   2
BRANCH   1  29
ATOM     29  C   UNL     1       3.235   4.449   1.873  1.00  0.00     0.275 C 
BRANCH  29  30
ATOM     30  O   UNL     1       3.473   3.045   2.163  1.00  0.00    -0.458 OA
BRANCH  30  31
ATOM     31  C   UNL     1       4.330   2.784   3.193  1.00  0.00     0.338 C 
ATOM     32  O   UNL     1       5.046   3.617   3.732  1.00  0.00    -0.246 OA
BRANCH  31  33
ATOM     33  C   UNL     1       4.145   1.405   3.760  1.00  0.00     0.060 A 
ATOM     34  C   UNL     1       4.145   1.274   5.162  1.00  0.00     0.016 A 
ATOM     35  C   UNL     1       3.930   0.265   2.984  1.00  0.00     0.016 A 
ATOM     36  C   UNL     1       3.930   0.033   5.786  1.00  0.00     0.010 A 
ATOM     37  C   UNL     1       3.737  -0.989   3.611  1.00  0.00     0.010 A 
ATOM     38  C   UNL     1       3.737  -1.122   5.020  1.00  0.00    -0.014 A 
BRANCH  38  39
ATOM     39  C   UNL     1       3.748  -2.475   5.669  1.00  0.00     0.031 A 
ATOM     40  C   UNL     1       5.061  -3.218   5.667  1.00  0.00     0.074 A 
ATOM     41  C   UNL     1       2.685  -3.056   6.272  1.00  0.00     0.049 A 
ATOM     42  N   UNL     1       5.357  -4.386   6.177  1.00  0.00    -0.248 NA
ATOM     43  C   UNL     1       6.198  -2.533   5.029  1.00  0.00     0.031 C 
ATOM     44  C   UNL     1       1.380  -2.453   6.499  1.00  0.00     0.029 A 
ATOM     45  N   UNL     1       2.535  -4.322   6.806  1.00  0.00    -0.354 N 
ATOM     46  C   UNL     1       6.718  -4.555   5.959  1.00  0.00     0.074 A 
ATOM     47  C   UNL     1       7.175  -3.407   5.207  1.00  0.00     0.031 C 
ATOM     48  C   UNL     1       0.533  -3.360   7.013  1.00  0.00     0.029 A 
ATOM     49  C   UNL     1       1.250  -4.608   7.223  1.00  0.00     0.049 A 
ATOM     50  H   UNL     1       3.278  -4.963   6.882  1.00  0.00     0.167 HD
ATOM     51  C   UNL     1       7.527  -5.558   6.373  1.00  0.00     0.037 A 
ATOM     52  C   UNL     1       0.702  -5.724   7.748  1.00  0.00     0.037 A 
ATOM     53  C   UNL     1       7.079  -6.721   7.091  1.00  0.00     0.049 A 
ATOM     54  C   UNL     1       1.595  -6.889   8.082  1.00  0.00     0.074 A 
ATOM     55  C   UNL     1       7.832  -7.791   7.544  1.00  0.00     0.029 A 
ATOM     56  N   UNL     1       5.763  -6.982   7.444  1.00  0.00    -0.354 N 
ATOM     57  N   UNL     1       2.890  -7.007   7.915  1.00  0.00    -0.248 NA
ATOM     58  C   UNL     1       0.965  -8.051   8.726  1.00  0.00     0.031 C 
ATOM     59  C   UNL     1       6.963  -8.730   8.108  1.00  0.00     0.029 A 
ATOM     60  C   UNL     1       5.679  -8.213   8.076  1.00  0.00     0.049 A 
ATOM     61  H   UNL     1       5.002  -6.382   7.270  1.00  0.00     0.167 HD
ATOM     62  C   UNL     1       3.238  -8.227   8.486  1.00  0.00     0.074 A 
ATOM     63  C   UNL     1       2.017  -8.810   8.999  1.00  0.00     0.031 C 
ATOM     64  C   UNL     1       4.464  -8.796   8.590  1.00  0.00     0.037 A 
BRANCH  51  65
ATOM     65  C   UNL     1       8.984  -5.443   6.027  1.00  0.00     0.058 A 
ATOM     66  C   UNL     1       9.814  -4.484   6.633  1.00  0.00     0.135 A 
ATOM     67  C   UNL     1       9.559  -6.304   5.080  1.00  0.00     0.135 A 
ATOM     68  F   UNL     1       9.309  -3.619   7.526  1.00  0.00    -0.206 F 
ATOM     69  C   UNL     1      11.155  -4.364   6.289  1.00  0.00     0.059 A 
ATOM     70  C   UNL     1      10.906  -6.223   4.745  1.00  0.00     0.059 A 
ATOM     71  F   UNL     1       8.809  -7.233   4.466  1.00  0.00    -0.206 F 
ATOM     72  C   UNL     1      11.693  -5.240   5.343  1.00  0.00     0.060 A 
BRANCH  72  73
ATOM     73  S   UNL     1      13.435  -5.072   4.908  1.00  0.00     0.124 S 
ATOM     74  O   UNL     1      13.429  -3.822   4.153  1.00  0.00    -0.237 OA
ATOM     75  O   UNL     1      14.079  -5.019   6.216  1.00  0.00    -0.237 OA
ATOM     76  O   UNL     1      13.709  -6.274   4.126  1.00  0.00    -0.744 OA
ENDBRANCH  72  73
ENDBRANCH  51  65
BRANCH  52  77
ATOM     77  C   UNL     1      -0.762  -5.787   8.042  1.00  0.00     0.058 A 
ATOM     78  C   UNL     1      -1.247  -5.821   9.359  1.00  0.00     0.135 A 
ATOM     79  C   UNL     1      -1.706  -5.846   7.004  1.00  0.00     0.135 A 
ATOM     80  F   UNL     1      -0.390  -5.782  10.390  1.00  0.00    -0.206 F 
ATOM     81  C   UNL     1      -2.608  -5.938   9.637  1.00  0.00     0.059 A 
ATOM     82  C   UNL     1      -3.074  -5.938   7.257  1.00  0.00     0.059 A 
ATOM     83  F   UNL     1      -1.302  -5.814   5.725  1.00  0.00    -0.206 F 
ATOM     84  C   UNL     1      -3.515  -5.996   8.578  1.00  0.00     0.060 A 
BRANCH  84  85
ATOM     85  S   UNL     1      -5.279  -6.124   8.954  1.00  0.00     0.124 S 
ATOM     86  O   UNL     1      -5.372  -7.478   9.488  1.00  0.00    -0.237 OA
ATOM     87  O   UNL     1      -5.467  -5.044   9.917  1.00  0.00    -0.237 OA
ATOM     88  O   UNL     1      -5.917  -5.915   7.657  1.00  0.00    -0.744 OA
ENDBRANCH  84  85
ENDBRANCH  52  77
BRANCH  64  89
ATOM     89  C   UNL     1       4.566 -10.103   9.331  1.00  0.00     0.058 A 
ATOM     90  C   UNL     1       4.025 -11.295   8.825  1.00  0.00     0.135 A 
ATOM     91  C   UNL     1       5.252 -10.168  10.556  1.00  0.00     0.135 A 
ATOM     92  F   UNL     1       3.357 -11.293   7.660  1.00  0.00    -0.206 F 
ATOM     93  C   UNL     1       4.127 -12.495   9.522  1.00  0.00     0.059 A 
ATOM     94  C   UNL     1       5.398 -11.364  11.253  1.00  0.00     0.059 A 
ATOM     95  F   UNL     1       5.803  -9.063  11.084  1.00  0.00    -0.206 F 
ATOM     96  C   UNL     1       4.816 -12.519  10.736  1.00  0.00     0.060 A 
BRANCH  96  97
ATOM     97  S   UNL     1       4.955 -14.086  11.622  1.00  0.00     0.124 S 
ATOM     98  O   UNL     1       3.595 -14.265  12.119  1.00  0.00    -0.237 OA
ATOM     99  O   UNL     1       5.370 -15.005  10.567  1.00  0.00    -0.237 OA
ATOM    100  O   UNL     1       5.964 -13.813  12.641  1.00  0.00    -0.744 OA
ENDBRANCH  96  97
ENDBRANCH  64  89
ENDBRANCH  38  39
ENDBRANCH  31  33
ENDBRANCH  30  31
ENDBRANCH  29  30
ENDBRANCH   1  29
TORSDOF 19
