REMARK SMILES CC1(C)C[C@@](Cc2ccccc2)(C(=O)OCCOC(=O)c2ccc(-c3c4nc(c(-c5c(F)cc(S(=O)(=O)[O-])cc5F)c5ccc([nH]5)c(-c5c(F)cc(S(=O)(=O)[O-])cc5F)c5nc(c(-c6c(F)cc(S(=O)(=O)[O-])cc6F)c6ccc3[nH]6)C=C5)C=C4)cc2)CCO1
REMARK SMILES IDX 17 1 16 2 15 3 13 4 14 5 5 6 1 7 2 8 3 9 4 10 89 11 88 12
REMARK SMILES IDX 87 13 6 14 7 15 8 16 12 17 9 18 11 19 10 20 18 21 19 22
REMARK SMILES IDX 20 23 21 24 22 25 86 26 23 27 85 28 24 29 25 30 26 31 79 32
REMARK SMILES IDX 27 33 84 34 78 35 80 36 28 37 83 38 77 39 76 40 29 42 63 43
REMARK SMILES IDX 42 44 62 45 43 46 46 47 61 48 81 49 44 50 45 51 60 53 82 54
REMARK SMILES IDX 47 55 30 56 31 57 40 58 32 59 33 60 39 61 41 62 34 63 35 64
REMARK SMILES IDX 36 65 37 66 38 67 64 68 65 69 74 70 66 71 67 72 73 73 75 74
REMARK SMILES IDX 68 75 69 76 70 77 71 78 72 79 48 80 49 81 58 82 50 83 51 84
REMARK SMILES IDX 57 85 59 86 52 87 53 88 54 89 55 90 56 91
REMARK H PARENT 80 41 46 52
REMARK Flexibility Score: inf
ROOT
ATOM      1  C   UNL     1       4.931   1.369   1.603  1.00  0.00     0.275 C 
ENDROOT
BRANCH   1   2
ATOM      2  C   UNL     1       3.475   0.988   1.335  1.00  0.00     0.274 C 
BRANCH   2   3
ATOM      3  O   UNL     1       3.060   1.365   0.001  1.00  0.00    -0.462 OA
BRANCH   3   4
ATOM      4  C   UNL     1       1.772   1.794  -0.112  1.00  0.00     0.312 C 
ATOM      5  O   UNL     1       1.048   1.979   0.860  1.00  0.00    -0.252 OA
BRANCH   4   6
ATOM      6  C   UNL     1       1.268   1.885  -1.565  1.00  0.00     0.077 C 
ATOM      7  C   UNL     1       0.341  -0.872  -0.063  1.00  0.00     0.042 C 
ATOM      8  C   UNL     1      -0.005  -0.376  -1.477  1.00  0.00     0.064 C 
ATOM      9  C   UNL     1      -1.381  -0.956  -1.841  1.00  0.00     0.042 C 
ATOM     10  C   UNL     1      -0.096   1.158  -1.616  1.00  0.00     0.054 C 
ATOM     11  O   UNL     1       0.916  -0.901  -2.442  1.00  0.00    -0.376 OA
ATOM     12  C   UNL     1       2.227  -0.343  -2.414  1.00  0.00     0.162 C 
ATOM     13  C   UNL     1       2.212   1.173  -2.568  1.00  0.00     0.047 C 
BRANCH   6  14
ATOM     14  C   UNL     1       1.072   3.352  -2.077  1.00  0.00     0.054 C 
BRANCH  14  15
ATOM     15  C   UNL     1       0.341   4.391  -1.256  1.00  0.00    -0.047 A 
ATOM     16  C   UNL     1      -0.732   5.097  -1.827  1.00  0.00     0.004 A 
ATOM     17  C   UNL     1       0.759   4.770   0.025  1.00  0.00     0.004 A 
ATOM     18  C   UNL     1      -1.401   6.095  -1.111  1.00  0.00     0.000 A 
ATOM     19  C   UNL     1       0.063   5.734   0.759  1.00  0.00     0.000 A 
ATOM     20  C   UNL     1      -1.018   6.397   0.191  1.00  0.00     0.000 A 
ENDBRANCH  14  15
ENDBRANCH   6  14
ENDBRANCH   4   6
ENDBRANCH   3   4
ENDBRANCH   2   3
ENDBRANCH   1   2
BRANCH   1  21
ATOM     21  O   UNL     1       5.121   2.776   1.389  1.00  0.00    -0.458 OA
BRANCH  21  22
ATOM     22  C   UNL     1       5.500   3.088   0.125  1.00  0.00     0.338 C 
ATOM     23  O   UNL     1       5.842   2.317  -0.753  1.00  0.00    -0.246 OA
BRANCH  22  24
ATOM     24  C   UNL     1       5.184   4.502  -0.123  1.00  0.00     0.060 A 
ATOM     25  C   UNL     1       4.266   4.758  -1.140  1.00  0.00     0.016 A 
ATOM     26  C   UNL     1       5.769   5.551   0.580  1.00  0.00     0.016 A 
ATOM     27  C   UNL     1       3.886   6.061  -1.446  1.00  0.00     0.010 A 
ATOM     28  C   UNL     1       5.430   6.866   0.240  1.00  0.00     0.010 A 
ATOM     29  C   UNL     1       4.489   7.128  -0.775  1.00  0.00    -0.014 A 
BRANCH  29  30
ATOM     30  C   UNL     1       4.257   8.515  -1.245  1.00  0.00     0.031 A 
ATOM     31  C   UNL     1       5.252   9.123  -2.188  1.00  0.00     0.074 A 
ATOM     32  C   UNL     1       3.171   9.212  -0.865  1.00  0.00     0.049 A 
ATOM     33  N   UNL     1       5.349  10.357  -2.604  1.00  0.00    -0.248 NA
ATOM     34  C   UNL     1       6.274   8.216  -2.736  1.00  0.00     0.031 C 
ATOM     35  C   UNL     1       2.090   8.693  -0.033  1.00  0.00     0.029 A 
ATOM     36  N   UNL     1       2.802  10.510  -1.119  1.00  0.00    -0.354 N 
ATOM     37  C   UNL     1       6.448  10.381  -3.452  1.00  0.00     0.074 A 
ATOM     38  C   UNL     1       6.994   9.042  -3.482  1.00  0.00     0.031 C 
ATOM     39  C   UNL     1       1.188   9.667   0.176  1.00  0.00     0.029 A 
ATOM     40  C   UNL     1       1.658  10.896  -0.459  1.00  0.00     0.049 A 
ATOM     41  H   UNL     1       3.308  11.107  -1.717  1.00  0.00     0.167 HD
ATOM     42  C   UNL     1       6.955  11.430  -4.140  1.00  0.00     0.037 A 
ATOM     43  C   UNL     1       1.089  12.113  -0.340  1.00  0.00     0.037 A 
ATOM     44  C   UNL     1       6.407  12.760  -4.094  1.00  0.00     0.049 A 
ATOM     45  C   UNL     1       1.737  13.291  -1.027  1.00  0.00     0.074 A 
ATOM     46  C   UNL     1       6.872  13.904  -4.718  1.00  0.00     0.029 A 
ATOM     47  N   UNL     1       5.270  13.125  -3.388  1.00  0.00    -0.354 N 
ATOM     48  N   UNL     1       2.806  13.317  -1.789  1.00  0.00    -0.248 NA
ATOM     49  C   UNL     1       1.111  14.606  -0.831  1.00  0.00     0.031 C 
ATOM     50  C   UNL     1       6.042  14.969  -4.354  1.00  0.00     0.029 A 
ATOM     51  C   UNL     1       5.026  14.478  -3.550  1.00  0.00     0.049 A 
ATOM     52  H   UNL     1       4.718  12.512  -2.850  1.00  0.00     0.167 HD
ATOM     53  C   UNL     1       2.959  14.641  -2.187  1.00  0.00     0.074 A 
ATOM     54  C   UNL     1       1.867  15.384  -1.594  1.00  0.00     0.031 C 
ATOM     55  C   UNL     1       3.918  15.195  -2.970  1.00  0.00     0.037 A 
BRANCH  42  56
ATOM     56  C   UNL     1       8.183  11.191  -4.969  1.00  0.00     0.058 A 
ATOM     57  C   UNL     1       8.131  10.473  -6.174  1.00  0.00     0.135 A 
ATOM     58  C   UNL     1       9.420  11.725  -4.575  1.00  0.00     0.135 A 
ATOM     59  F   UNL     1       6.979   9.917  -6.582  1.00  0.00    -0.206 F 
ATOM     60  C   UNL     1       9.266  10.285  -6.955  1.00  0.00     0.059 A 
ATOM     61  C   UNL     1      10.562  11.572  -5.353  1.00  0.00     0.059 A 
ATOM     62  F   UNL     1       9.525  12.409  -3.425  1.00  0.00    -0.206 F 
ATOM     63  C   UNL     1      10.476  10.844  -6.539  1.00  0.00     0.060 A 
BRANCH  63  64
ATOM     64  S   UNL     1      11.932  10.617  -7.582  1.00  0.00     0.124 S 
ATOM     65  O   UNL     1      12.205   9.195  -7.397  1.00  0.00    -0.237 OA
ATOM     66  O   UNL     1      11.433  11.001  -8.898  1.00  0.00    -0.237 OA
ATOM     67  O   UNL     1      12.915  11.524  -6.997  1.00  0.00    -0.744 OA
ENDBRANCH  63  64
ENDBRANCH  42  56
BRANCH  43  68
ATOM     68  C   UNL     1      -0.119  12.309   0.513  1.00  0.00     0.058 A 
ATOM     69  C   UNL     1      -1.341  12.728  -0.035  1.00  0.00     0.135 A 
ATOM     70  C   UNL     1      -0.058  12.139   1.906  1.00  0.00     0.135 A 
ATOM     71  F   UNL     1      -1.452  12.919  -1.358  1.00  0.00    -0.206 F 
ATOM     72  C   UNL     1      -2.445  13.006   0.767  1.00  0.00     0.059 A 
ATOM     73  C   UNL     1      -1.157  12.377   2.725  1.00  0.00     0.059 A 
ATOM     74  F   UNL     1       1.083  11.733   2.486  1.00  0.00    -0.206 F 
ATOM     75  C   UNL     1      -2.341  12.832   2.148  1.00  0.00     0.060 A 
BRANCH  75  76
ATOM     76  S   UNL     1      -3.777  13.194   3.182  1.00  0.00     0.124 S 
ATOM     77  O   UNL     1      -3.809  14.652   3.139  1.00  0.00    -0.237 OA
ATOM     78  O   UNL     1      -4.850  12.511   2.466  1.00  0.00    -0.237 OA
ATOM     79  O   UNL     1      -3.420  12.608   4.470  1.00  0.00    -0.744 OA
ENDBRANCH  75  76
ENDBRANCH  43  68
BRANCH  55  80
ATOM     80  C   UNL     1       3.802  16.663  -3.282  1.00  0.00     0.058 A 
ATOM     81  C   UNL     1       4.059  17.650  -2.318  1.00  0.00     0.135 A 
ATOM     82  C   UNL     1       3.489  17.086  -4.585  1.00  0.00     0.135 A 
ATOM     83  F   UNL     1       4.358  17.301  -1.057  1.00  0.00    -0.206 F 
ATOM     84  C   UNL     1       3.989  19.004  -2.629  1.00  0.00     0.059 A 
ATOM     85  C   UNL     1       3.443  18.434  -4.926  1.00  0.00     0.059 A 
ATOM     86  F   UNL     1       3.246  16.183  -5.549  1.00  0.00    -0.206 F 
ATOM     87  C   UNL     1       3.684  19.386  -3.937  1.00  0.00     0.060 A 
BRANCH  87  88
ATOM     88  S   UNL     1       3.635  21.146  -4.336  1.00  0.00     0.124 S 
ATOM     89  O   UNL     1       2.398  21.562  -3.683  1.00  0.00    -0.237 OA
ATOM     90  O   UNL     1       4.868  21.638  -3.729  1.00  0.00    -0.237 OA
ATOM     91  O   UNL     1       3.611  21.165  -5.795  1.00  0.00    -0.744 OA
ENDBRANCH  87  88
ENDBRANCH  55  80
ENDBRANCH  29  30
ENDBRANCH  22  24
ENDBRANCH  21  22
ENDBRANCH   1  21
TORSDOF 16
