REMARK SMILES O=C(OCCOC(=O)c1ccc(-c2c(F)cccc2F)cn1)c1ccc(-c2c3nc(c(-c4c(F)cc(S(=O)(=O)[O-])cc4F)c4ccc([nH]4)c(-c4c(F)cc(S(=O)(=O)[O-])cc4F)c4nc(c(-c5c(F)cc(S(=O)(=O)[O-])cc5F)c5ccc2[nH]5)C=C4)C=C3)cc1
REMARK SMILES IDX 4 1 3 2 2 3 1 4 23 5 24 6 88 7 25 8 87 9 26 10 27 11 28 12
REMARK SMILES IDX 81 13 29 14 86 15 80 16 82 17 30 18 85 19 79 20 78 21 31 23
REMARK SMILES IDX 65 24 44 25 64 26 45 27 48 28 63 29 83 30 46 31 47 32 62 34
REMARK SMILES IDX 84 35 49 36 32 37 33 38 42 39 34 40 35 41 41 42 43 43 36 44
REMARK SMILES IDX 37 45 38 46 39 47 40 48 66 49 67 50 76 51 68 52 69 53 75 54
REMARK SMILES IDX 77 55 70 56 71 57 72 58 73 59 74 60 50 61 51 62 60 63 52 64
REMARK SMILES IDX 53 65 59 66 61 67 54 68 55 69 56 70 57 71 58 72 5 73 6 74
REMARK SMILES IDX 7 75 8 76 9 77 10 78 22 79 11 80 21 81 12 82 13 83 14 84
REMARK SMILES IDX 19 85 15 86 16 87 18 88 20 89 17 90
REMARK H PARENT 82 22 48 33
REMARK Flexibility Score: inf
ROOT
ATOM      1  C   UNL     1       3.950   1.165  -1.188  1.00  0.00     0.275 C 
ENDROOT
BRANCH   1   2
ATOM      2  O   UNL     1       2.847   0.242  -1.157  1.00  0.00    -0.458 OA
BRANCH   2   3
ATOM      3  C   UNL     1       2.742  -0.947  -0.514  1.00  0.00     0.338 C 
ATOM      4  O   UNL     1       1.896  -1.757  -0.889  1.00  0.00    -0.246 OA
BRANCH   3   5
ATOM      5  C   UNL     1       3.520  -1.275   0.720  1.00  0.00     0.060 A 
ATOM      6  C   UNL     1       4.861  -0.955   0.940  1.00  0.00     0.016 A 
ATOM      7  C   UNL     1       2.848  -2.018   1.710  1.00  0.00     0.016 A 
ATOM      8  C   UNL     1       5.495  -1.300   2.135  1.00  0.00     0.010 A 
ATOM      9  C   UNL     1       3.481  -2.374   2.908  1.00  0.00     0.010 A 
ATOM     10  C   UNL     1       4.812  -2.012   3.125  1.00  0.00    -0.014 A 
BRANCH  10  11
ATOM     11  C   UNL     1       5.558  -2.455   4.324  1.00  0.00     0.031 A 
ATOM     12  C   UNL     1       6.114  -3.847   4.354  1.00  0.00     0.074 A 
ATOM     13  C   UNL     1       5.826  -1.582   5.313  1.00  0.00     0.049 A 
ATOM     14  N   UNL     1       6.910  -4.392   5.233  1.00  0.00    -0.248 NA
ATOM     15  C   UNL     1       5.762  -4.728   3.227  1.00  0.00     0.031 C 
ATOM     16  C   UNL     1       5.405  -0.183   5.329  1.00  0.00     0.029 A 
ATOM     17  N   UNL     1       6.524  -1.728   6.483  1.00  0.00    -0.354 N 
ATOM     18  C   UNL     1       7.204  -5.655   4.737  1.00  0.00     0.074 A 
ATOM     19  C   UNL     1       6.448  -5.824   3.517  1.00  0.00     0.031 C 
ATOM     20  C   UNL     1       5.815   0.394   6.470  1.00  0.00     0.029 A 
ATOM     21  C   UNL     1       6.545  -0.591   7.259  1.00  0.00     0.049 A 
ATOM     22  H   UNL     1       6.968  -2.567   6.745  1.00  0.00     0.167 HD
ATOM     23  C   UNL     1       8.059  -6.574   5.241  1.00  0.00     0.037 A 
ATOM     24  C   UNL     1       7.102  -0.372   8.466  1.00  0.00     0.037 A 
ATOM     25  C   UNL     1       8.773  -6.406   6.478  1.00  0.00     0.049 A 
ATOM     26  C   UNL     1       7.930  -1.470   9.078  1.00  0.00     0.074 A 
ATOM     27  C   UNL     1       9.629  -7.291   7.107  1.00  0.00     0.029 A 
ATOM     28  N   UNL     1       8.703  -5.275   7.280  1.00  0.00    -0.354 N 
ATOM     29  N   UNL     1       8.216  -2.653   8.586  1.00  0.00    -0.248 NA
ATOM     30  C   UNL     1       8.533  -1.201  10.389  1.00  0.00     0.031 C 
ATOM     31  C   UNL     1      10.044  -6.712   8.311  1.00  0.00     0.029 A 
ATOM     32  C   UNL     1       9.483  -5.447   8.410  1.00  0.00     0.049 A 
ATOM     33  H   UNL     1       8.177  -4.468   7.075  1.00  0.00     0.167 HD
ATOM     34  C   UNL     1       9.065  -3.253   9.507  1.00  0.00     0.074 A 
ATOM     35  C   UNL     1       9.248  -2.301  10.584  1.00  0.00     0.031 C 
ATOM     36  C   UNL     1       9.649  -4.476   9.463  1.00  0.00     0.037 A 
BRANCH  23  37
ATOM     37  C   UNL     1       8.263  -7.833   4.452  1.00  0.00     0.058 A 
ATOM     38  C   UNL     1       7.719  -9.051   4.884  1.00  0.00     0.135 A 
ATOM     39  C   UNL     1       9.028  -7.836   3.274  1.00  0.00     0.135 A 
ATOM     40  F   UNL     1       6.969  -9.099   5.996  1.00  0.00    -0.206 F 
ATOM     41  C   UNL     1       7.932 -10.235   4.182  1.00  0.00     0.059 A 
ATOM     42  C   UNL     1       9.239  -9.003   2.547  1.00  0.00     0.059 A 
ATOM     43  F   UNL     1       9.550  -6.691   2.803  1.00  0.00    -0.206 F 
ATOM     44  C   UNL     1       8.690 -10.199   3.012  1.00  0.00     0.060 A 
BRANCH  44  45
ATOM     45  S   UNL     1       8.990 -11.706   2.065  1.00  0.00     0.124 S 
ATOM     46  O   UNL     1       8.225 -11.446   0.850  1.00  0.00    -0.237 OA
ATOM     47  O   UNL     1      10.442 -11.692   1.914  1.00  0.00    -0.237 OA
ATOM     48  O   UNL     1       8.462 -12.760   2.924  1.00  0.00    -0.744 OA
ENDBRANCH  44  45
ENDBRANCH  23  37
BRANCH  24  49
ATOM     49  C   UNL     1       6.911   0.930   9.161  1.00  0.00     0.058 A 
ATOM     50  C   UNL     1       5.651   1.302   9.658  1.00  0.00     0.135 A 
ATOM     51  C   UNL     1       7.978   1.818   9.366  1.00  0.00     0.135 A 
ATOM     52  F   UNL     1       4.591   0.499   9.474  1.00  0.00    -0.206 F 
ATOM     53  C   UNL     1       5.454   2.501  10.338  1.00  0.00     0.059 A 
ATOM     54  C   UNL     1       7.811   3.012  10.063  1.00  0.00     0.059 A 
ATOM     55  F   UNL     1       9.202   1.511   8.911  1.00  0.00    -0.206 F 
ATOM     56  C   UNL     1       6.545   3.342  10.550  1.00  0.00     0.060 A 
BRANCH  56  57
ATOM     57  S   UNL     1       6.341   4.895  11.450  1.00  0.00     0.124 S 
ATOM     58  O   UNL     1       7.082   4.624  12.676  1.00  0.00    -0.237 OA
ATOM     59  O   UNL     1       6.947   5.857  10.534  1.00  0.00    -0.237 OA
ATOM     60  O   UNL     1       4.893   5.009  11.600  1.00  0.00    -0.744 OA
ENDBRANCH  56  57
ENDBRANCH  24  49
BRANCH  36  61
ATOM     61  C   UNL     1      10.559  -4.840  10.600  1.00  0.00     0.058 A 
ATOM     62  C   UNL     1      11.947  -4.913  10.402  1.00  0.00     0.135 A 
ATOM     63  C   UNL     1      10.054  -5.171  11.866  1.00  0.00     0.135 A 
ATOM     64  F   UNL     1      12.476  -4.616   9.204  1.00  0.00    -0.206 F 
ATOM     65  C   UNL     1      12.807  -5.308  11.420  1.00  0.00     0.059 A 
ATOM     66  C   UNL     1      10.898  -5.542  12.906  1.00  0.00     0.059 A 
ATOM     67  F   UNL     1       8.735  -5.109  12.105  1.00  0.00    -0.206 F 
ATOM     68  C   UNL     1      12.273  -5.610  12.672  1.00  0.00     0.060 A 
BRANCH  68  69
ATOM     69  S   UNL     1      13.352  -6.126  14.023  1.00  0.00     0.124 S 
ATOM     70  O   UNL     1      13.329  -4.947  14.883  1.00  0.00    -0.237 OA
ATOM     71  O   UNL     1      12.661  -7.303  14.541  1.00  0.00    -0.237 OA
ATOM     72  O   UNL     1      14.624  -6.394  13.360  1.00  0.00    -0.744 OA
ENDBRANCH  68  69
ENDBRANCH  36  61
ENDBRANCH  10  11
ENDBRANCH   3   5
ENDBRANCH   2   3
ENDBRANCH   1   2
BRANCH   1  73
ATOM     73  C   UNL     1       3.893   2.275  -0.136  1.00  0.00     0.275 C 
BRANCH  73  74
ATOM     74  O   UNL     1       3.470   1.817   1.154  1.00  0.00    -0.457 OA
BRANCH  74  75
ATOM     75  C   UNL     1       2.132   1.935   1.386  1.00  0.00     0.357 C 
ATOM     76  O   UNL     1       1.314   2.449   0.639  1.00  0.00    -0.244 OA
BRANCH  75  77
ATOM     77  C   UNL     1       1.800   1.276   2.676  1.00  0.00     0.148 A 
ATOM     78  C   UNL     1       2.479   1.614   3.837  1.00  0.00     0.037 A 
ATOM     79  N   UNL     1       0.802   0.357   2.632  1.00  0.00    -0.249 NA
ATOM     80  C   UNL     1       2.116   0.968   5.021  1.00  0.00     0.013 A 
ATOM     81  C   UNL     1       0.501  -0.269   3.795  1.00  0.00     0.121 A 
ATOM     82  C   UNL     1       1.112  -0.010   5.022  1.00  0.00     0.006 A 
BRANCH  82  83
ATOM     83  C   UNL     1       0.701  -0.699   6.252  1.00  0.00     0.055 A 
ATOM     84  C   UNL     1       0.314   0.021   7.392  1.00  0.00     0.134 A 
ATOM     85  C   UNL     1       0.651  -2.097   6.343  1.00  0.00     0.134 A 
ATOM     86  F   UNL     1       0.310   1.363   7.368  1.00  0.00    -0.206 F 
ATOM     87  C   UNL     1      -0.106  -0.613   8.561  1.00  0.00     0.040 A 
ATOM     88  C   UNL     1       0.238  -2.748   7.508  1.00  0.00     0.040 A 
ATOM     89  F   UNL     1       0.998  -2.853   5.290  1.00  0.00    -0.206 F 
ATOM     90  C   UNL     1      -0.145  -2.003   8.621  1.00  0.00     0.006 A 
ENDBRANCH  82  83
ENDBRANCH  75  77
ENDBRANCH  74  75
ENDBRANCH  73  74
ENDBRANCH   1  73
TORSDOF 15
