REMARK SMILES Cc1ccc(N2C(=O)N=C(OCCOC(=O)c3ccc(-c4c5nc(c(-c6c(F)cc(S(=O)(=O)[O-])cc6F)c6ccc([nH]6)c(-c6c(F)cc(S(=O)(=O)[O-])cc6F)c6nc(c(-c7c(F)cc(S(=O)(=O)[O-])cc7F)c7ccc4[nH]7)C=C6)C=C5)cc3)/C(=C\c3ccccc3OCc3cccc(C(=O)[O-])c3)C2=O)cc1
REMARK SMILES IDX 12 1 11 2 10 3 6 4 7 5 102 6 8 7 9 8 83 9 103 10 84 11 5 12
REMARK SMILES IDX 1 13 2 14 3 15 105 16 4 17 104 18 85 19 86 20 90 21 87 22
REMARK SMILES IDX 89 23 88 24 91 25 92 26 93 27 94 28 101 29 95 30 97 31 96 32
REMARK SMILES IDX 98 33 99 34 100 35 13 36 14 37 15 38 16 39 17 40 18 41 82 42
REMARK SMILES IDX 19 43 81 44 20 45 21 46 22 47 75 48 23 49 80 50 74 51 76 52
REMARK SMILES IDX 24 53 79 54 73 55 72 56 25 58 59 59 38 60 58 61 39 62 42 63
REMARK SMILES IDX 57 64 77 65 40 66 41 67 56 69 78 70 43 71 26 72 27 73 36 74
REMARK SMILES IDX 28 75 29 76 35 77 37 78 30 79 31 80 32 81 33 82 34 83 60 84
REMARK SMILES IDX 61 85 70 86 62 87 63 88 69 89 71 90 64 91 65 92 66 93 67 94
REMARK SMILES IDX 68 95 44 96 45 97 54 98 46 99 47 100 53 101 55 102 48 103
REMARK SMILES IDX 49 104 50 105 51 106 52 107
REMARK H PARENT 76 57 42 68
REMARK Flexibility Score: inf
ROOT
ATOM      1  C   UNL     1      -8.877   3.237   0.523  1.00  0.00     0.273 C 
ENDROOT
BRANCH   1   2
ATOM      2  O   UNL     1      -8.700   1.850   0.489  1.00  0.00    -0.473 OA
BRANCH   2   3
ATOM      3  C   UNL     1      -7.433   1.467   0.402  1.00  0.00     0.231 C 
ATOM      4  N   UNL     1      -3.938   0.749   0.740  1.00  0.00    -0.226 N 
ATOM      5  C   UNL     1      -5.198  -0.519   1.073  1.00  0.00     0.358 C 
ATOM      6  C   UNL     1      -4.337   2.350   0.178  1.00  0.00     0.272 C 
ATOM      7  O   UNL     1      -4.745  -1.641   1.426  1.00  0.00    -0.245 OA
ATOM      8  N   UNL     1      -7.045   0.151   0.934  1.00  0.00    -0.156 NA
ATOM      9  C   UNL     1      -6.152   2.700  -0.247  1.00  0.00     0.103 C 
ATOM     10  O   UNL     1      -3.553   3.178  -0.276  1.00  0.00    -0.268 OA
ATOM     11  C   UNL     1      -6.133   3.057  -1.574  1.00  0.00     0.031 C 
BRANCH   4  12
ATOM     12  C   UNL     1      -2.475   0.421   0.688  1.00  0.00     0.054 A 
ATOM     13  C   UNL     1       1.867  -0.158   0.076  1.00  0.00     0.044 C 
ATOM     14  C   UNL     1       0.391   0.003   0.309  1.00  0.00    -0.051 A 
ATOM     15  C   UNL     1      -0.484  -1.061   0.563  1.00  0.00     0.005 A 
ATOM     16  C   UNL     1      -0.166   1.265   0.261  1.00  0.00     0.005 A 
ATOM     17  C   UNL     1      -1.893  -0.858   0.753  1.00  0.00     0.027 A 
ATOM     18  C   UNL     1      -1.541   1.453   0.477  1.00  0.00     0.027 A 
ENDBRANCH   4  12
BRANCH  11  19
ATOM     19  C   UNL     1      -6.961   2.389  -2.602  1.00  0.00     0.018 A 
ATOM     20  C   UNL     1      -8.091   3.147  -3.025  1.00  0.00     0.012 A 
ATOM     21  C   UNL     1      -6.832   1.023  -2.953  1.00  0.00     0.127 A 
ATOM     22  C   UNL     1      -9.259   2.547  -3.488  1.00  0.00     0.001 A 
ATOM     23  C   UNL     1      -8.090   0.469  -3.385  1.00  0.00     0.047 A 
ATOM     24  C   UNL     1      -9.296   1.179  -3.540  1.00  0.00     0.004 A 
BRANCH  21  25
ATOM     25  O   UNL     1      -5.554   0.281  -2.974  1.00  0.00    -0.488 OA
BRANCH  25  26
ATOM     26  C   UNL     1      -4.502  -0.860  -2.121  1.00  0.00     0.265 C 
BRANCH  26  27
ATOM     27  C   UNL     1      -4.316  -2.497  -1.663  1.00  0.00    -0.010 A 
ATOM     28  C   UNL     1      -3.078  -3.124  -1.637  1.00  0.00     0.007 A 
ATOM     29  C   UNL     1      -5.275  -3.373  -1.073  1.00  0.00     0.017 A 
ATOM     30  C   UNL     1      -2.960  -4.478  -1.170  1.00  0.00     0.001 A 
ATOM     31  C   UNL     1      -5.374  -4.788  -0.907  1.00  0.00    -0.002 A 
ATOM     32  C   UNL     1      -4.089  -5.309  -0.856  1.00  0.00     0.010 A 
BRANCH  31  33
ATOM     33  C   UNL     1      -6.803  -5.731  -0.419  1.00  0.00     0.071 C 
ATOM     34  O   UNL     1      -6.308  -6.817   0.033  1.00  0.00    -0.545 OA
ATOM     35  O   UNL     1      -8.755  -5.339  -0.614  1.00  0.00    -0.545 OA
ENDBRANCH  31  33
ENDBRANCH  26  27
ENDBRANCH  25  26
ENDBRANCH  21  25
ENDBRANCH  11  19
ENDBRANCH   2   3
ENDBRANCH   1   2
BRANCH   1  36
ATOM     36  C   UNL     1      -7.812   4.020   1.327  1.00  0.00     0.274 C 
BRANCH  36  37
ATOM     37  O   UNL     1      -7.002   3.308   2.377  1.00  0.00    -0.458 OA
BRANCH  37  38
ATOM     38  C   UNL     1      -5.856   2.537   2.439  1.00  0.00     0.338 C 
ATOM     39  O   UNL     1      -5.003   2.735   3.297  1.00  0.00    -0.246 OA
BRANCH  38  40
ATOM     40  C   UNL     1      -5.777   1.174   1.721  1.00  0.00     0.060 A 
ATOM     41  C   UNL     1      -6.438  -0.180   2.752  1.00  0.00     0.016 A 
ATOM     42  C   UNL     1      -5.719   0.672  -0.196  1.00  0.00     0.016 A 
ATOM     43  C   UNL     1      -7.110  -1.634   1.881  1.00  0.00     0.010 A 
ATOM     44  C   UNL     1      -6.544  -0.716  -0.758  1.00  0.00     0.010 A 
ATOM     45  C   UNL     1      -7.233  -1.779   0.108  1.00  0.00    -0.014 A 
BRANCH  45  46
ATOM     46  C   UNL     1      -7.767  -2.649  -1.172  1.00  0.00     0.031 A 
ATOM     47  C   UNL     1      -7.747  -4.059  -0.865  1.00  0.00     0.074 A 
ATOM     48  C   UNL     1      -7.512  -2.586  -2.592  1.00  0.00     0.049 A 
ATOM     49  N   UNL     1      -7.717  -5.262  -2.017  1.00  0.00    -0.248 NA
ATOM     50  C   UNL     1      -8.040  -4.905   0.953  1.00  0.00     0.031 C 
ATOM     51  C   UNL     1      -8.146  -3.250  -3.756  1.00  0.00     0.029 A 
ATOM     52  N   UNL     1      -6.535  -1.893  -3.337  1.00  0.00    -0.354 N 
ATOM     53  C   UNL     1      -8.230  -6.890  -1.280  1.00  0.00     0.074 A 
ATOM     54  C   UNL     1      -8.358  -6.537   0.662  1.00  0.00     0.031 C 
ATOM     55  C   UNL     1      -7.467  -2.990  -4.912  1.00  0.00     0.029 A 
ATOM     56  C   UNL     1      -6.276  -2.178  -4.659  1.00  0.00     0.049 A 
ATOM     57  H   UNL     1      -6.020  -1.179  -2.896  1.00  0.00     0.167 HD
ATOM     58  C   UNL     1      -9.086  -7.500  -2.189  1.00  0.00     0.037 A 
ATOM     59  C   UNL     1      -5.091  -2.013  -5.383  1.00  0.00     0.037 A 
ATOM     60  C   UNL     1      -8.617  -7.132  -3.540  1.00  0.00     0.049 A 
ATOM     61  C   UNL     1      -4.718  -3.428  -5.808  1.00  0.00     0.074 A 
ATOM     62  C   UNL     1      -9.161  -6.425  -4.605  1.00  0.00     0.029 A 
ATOM     63  N   UNL     1      -7.257  -7.235  -3.825  1.00  0.00    -0.354 N 
ATOM     64  N   UNL     1      -5.422  -4.446  -5.395  1.00  0.00    -0.248 NA
ATOM     65  C   UNL     1      -3.616  -3.868  -6.662  1.00  0.00     0.031 C 
ATOM     66  C   UNL     1      -8.124  -6.149  -5.540  1.00  0.00     0.029 A 
ATOM     67  C   UNL     1      -6.940  -6.657  -5.037  1.00  0.00     0.049 A 
ATOM     68  H   UNL     1      -6.601  -7.668  -3.232  1.00  0.00     0.167 HD
ATOM     69  C   UNL     1      -4.956  -5.616  -5.892  1.00  0.00     0.074 A 
ATOM     70  C   UNL     1      -3.809  -5.206  -6.682  1.00  0.00     0.031 C 
ATOM     71  C   UNL     1      -5.585  -6.786  -5.574  1.00  0.00     0.037 A 
BRANCH  58  72
ATOM     72  C   UNL     1     -10.515  -8.015  -1.933  1.00  0.00     0.058 A 
ATOM     73  C   UNL     1     -11.377  -8.359  -3.009  1.00  0.00     0.135 A 
ATOM     74  C   UNL     1     -11.139  -8.118  -0.674  1.00  0.00     0.135 A 
ATOM     75  F   UNL     1     -10.968  -8.309  -4.283  1.00  0.00    -0.206 F 
ATOM     76  C   UNL     1     -12.707  -8.776  -2.846  1.00  0.00     0.059 A 
ATOM     77  C   UNL     1     -12.459  -8.556  -0.479  1.00  0.00     0.059 A 
ATOM     78  F   UNL     1     -10.511  -7.771   0.447  1.00  0.00    -0.206 F 
ATOM     79  C   UNL     1     -13.233  -8.905  -1.572  1.00  0.00     0.060 A 
BRANCH  79  80
ATOM     80  S   UNL     1     -14.882  -9.606  -1.363  1.00  0.00     0.124 S 
ATOM     81  O   UNL     1     -15.718  -8.663  -2.099  1.00  0.00    -0.237 OA
ATOM     82  O   UNL     1     -14.726 -10.925  -1.967  1.00  0.00    -0.237 OA
ATOM     83  O   UNL     1     -15.071  -9.604   0.086  1.00  0.00    -0.744 OA
ENDBRANCH  79  80
ENDBRANCH  58  72
BRANCH  59  84
ATOM     84  C   UNL     1      -4.088  -0.784  -5.317  1.00  0.00     0.058 A 
ATOM     85  C   UNL     1      -4.565   0.480  -5.736  1.00  0.00     0.135 A 
ATOM     86  C   UNL     1      -2.822  -0.689  -4.657  1.00  0.00     0.135 A 
ATOM     87  F   UNL     1      -5.642   0.539  -6.532  1.00  0.00    -0.206 F 
ATOM     88  C   UNL     1      -3.995   1.719  -5.344  1.00  0.00     0.059 A 
ATOM     89  C   UNL     1      -2.278   0.551  -4.166  1.00  0.00     0.059 A 
ATOM     90  F   UNL     1      -2.202  -1.805  -4.242  1.00  0.00    -0.206 F 
ATOM     91  C   UNL     1      -2.888   1.757  -4.502  1.00  0.00     0.060 A 
BRANCH  91  92
ATOM     92  S   UNL     1      -2.333   3.374  -3.838  1.00  0.00     0.124 S 
ATOM     93  O   UNL     1      -1.471   3.861  -4.909  1.00  0.00    -0.237 OA
ATOM     94  O   UNL     1      -3.589   4.106  -3.673  1.00  0.00    -0.237 OA
ATOM     95  O   UNL     1      -1.647   3.021  -2.601  1.00  0.00    -0.744 OA
ENDBRANCH  91  92
ENDBRANCH  59  84
BRANCH  71  96
ATOM     96  C   UNL     1      -5.054  -8.179  -5.785  1.00  0.00     0.058 A 
ATOM     97  C   UNL     1      -3.698  -8.490  -5.940  1.00  0.00     0.135 A 
ATOM     98  C   UNL     1      -5.929  -9.294  -5.679  1.00  0.00     0.135 A 
ATOM     99  F   UNL     1      -2.750  -7.543  -5.930  1.00  0.00    -0.206 F 
ATOM    100  C   UNL     1      -3.254  -9.803  -6.075  1.00  0.00     0.059 A 
ATOM    101  C   UNL     1      -5.494 -10.608  -5.703  1.00  0.00     0.059 A 
ATOM    102  F   UNL     1      -7.256  -9.156  -5.543  1.00  0.00    -0.206 F 
ATOM    103  C   UNL     1      -4.160 -10.853  -5.954  1.00  0.00     0.060 A 
BRANCH 103 104
ATOM    104  S   UNL     1      -3.590 -12.543  -6.143  1.00  0.00     0.124 S 
ATOM    105  O   UNL     1      -3.506 -12.652  -7.596  1.00  0.00    -0.237 OA
ATOM    106  O   UNL     1      -2.315 -12.527  -5.433  1.00  0.00    -0.237 OA
ATOM    107  O   UNL     1      -4.643 -13.331  -5.511  1.00  0.00    -0.744 OA
ENDBRANCH 103 104
ENDBRANCH  71  96
ENDBRANCH  45  46
ENDBRANCH  38  40
ENDBRANCH  37  38
ENDBRANCH  36  37
ENDBRANCH   1  36
TORSDOF 19
