REMARK SMILES NS(=O)(=O)c1ccc(-n2nc(C(F)(F)F)cc2-c2ccc(CC(=O)OCCOC(=O)c3ccc(-c4c5nc(c(-c6c(F)cc(S(=O)(=O)[O-])cc6F)c6ccc([nH]6)c(-c6c(F)cc(S(=O)(=O)[O-])cc6F)c6nc(c(-c7c(F)cc(S(=O)(=O)[O-])cc7F)c7ccc4[nH]7)C=C6)C=C5)cc3)cc2)cc1
REMARK SMILES IDX 26 1 25 2 23 3 24 4 22 5 21 6 18 7 19 8 98 9 20 10 97 11
REMARK SMILES IDX 17 12 9 13 10 14 11 15 16 16 8 17 5 18 6 19 100 20 7 21
REMARK SMILES IDX 99 22 2 23 3 24 4 25 1 26 12 29 13 30 14 31 15 32 27 33
REMARK SMILES IDX 28 34 29 35 30 36 31 37 32 38 96 39 33 40 95 41 34 42 35 43
REMARK SMILES IDX 36 44 89 45 37 46 94 47 88 48 90 49 38 50 93 51 87 52 86 53
REMARK SMILES IDX 39 55 73 56 52 57 72 58 53 59 56 60 71 61 91 62 54 63 55 64
REMARK SMILES IDX 70 66 92 67 57 68 40 69 41 70 50 71 42 72 43 73 49 74 51 75
REMARK SMILES IDX 44 76 45 77 46 78 47 79 48 80 74 81 75 82 84 83 76 84 77 85
REMARK SMILES IDX 83 86 85 87 78 88 79 89 80 90 81 91 82 92 58 93 59 94 68 95
REMARK SMILES IDX 60 96 61 97 67 98 69 99 62 100 63 101 64 102 65 103 66 104
REMARK H PARENT 1 27 1 28 90 54 56 65
REMARK Flexibility Score: inf
ROOT
ATOM      1  C   UNL     1      -4.658  -5.136  -1.630  1.00  0.00     0.274 C 
ENDROOT
BRANCH   1   2
ATOM      2  O   UNL     1      -4.179  -5.363  -2.975  1.00  0.00    -0.462 OA
BRANCH   2   3
ATOM      3  C   UNL     1      -5.021  -4.985  -3.975  1.00  0.00     0.310 C 
ATOM      4  O   UNL     1      -6.165  -4.575  -3.786  1.00  0.00    -0.252 OA
BRANCH   3   5
ATOM      5  C   UNL     1      -4.492  -5.210  -5.377  1.00  0.00     0.158 C 
BRANCH   5   6
ATOM      6  C   UNL     1      -3.006  -5.108  -5.629  1.00  0.00    -0.037 A 
ATOM      7  C   UNL     1      -0.227  -4.855  -6.073  1.00  0.00     0.000 A 
ATOM      8  C   UNL     1      -1.038  -3.722  -6.024  1.00  0.00     0.010 A 
ATOM      9  C   UNL     1      -0.818  -6.117  -5.957  1.00  0.00     0.010 A 
ATOM     10  C   UNL     1      -2.410  -3.859  -5.831  1.00  0.00     0.005 A 
ATOM     11  C   UNL     1      -2.194  -6.242  -5.717  1.00  0.00     0.005 A 
BRANCH   7  12
ATOM     12  C   UNL     1       1.215  -4.706  -6.242  1.00  0.00     0.075 A 
ATOM     13  N   UNL     1       2.050  -3.983  -5.395  1.00  0.00    -0.233 N 
ATOM     14  N   UNL     1       3.294  -3.831  -5.919  1.00  0.00    -0.163 NA
ATOM     15  C   UNL     1       3.284  -4.538  -7.065  1.00  0.00     0.167 A 
ATOM     16  C   UNL     1       1.998  -5.075  -7.314  1.00  0.00     0.064 A 
BRANCH  13  17
ATOM     17  C   UNL     1       1.740  -3.450  -4.115  1.00  0.00     0.065 A 
ATOM     18  C   UNL     1       0.975  -2.321  -1.685  1.00  0.00     0.082 A 
ATOM     19  C   UNL     1       0.583  -3.626  -1.996  1.00  0.00     0.024 A 
ATOM     20  C   UNL     1       1.773  -1.587  -2.569  1.00  0.00     0.024 A 
ATOM     21  C   UNL     1       0.955  -4.187  -3.217  1.00  0.00     0.030 A 
ATOM     22  C   UNL     1       2.182  -2.165  -3.777  1.00  0.00     0.030 A 
BRANCH  18  23
ATOM     23  S   UNL     1       0.436  -1.659  -0.137  1.00  0.00     0.238 S 
ATOM     24  O   UNL     1       1.113  -2.393   0.915  1.00  0.00    -0.207 OA
ATOM     25  O   UNL     1      -0.998  -1.517  -0.169  1.00  0.00    -0.207 OA
BRANCH  23  26
ATOM     26  N   UNL     1       1.061  -0.107  -0.080  1.00  0.00    -0.225 NA
ATOM     27  H   UNL     1       0.787   0.339   0.795  1.00  0.00     0.137 HD
ATOM     28  H   UNL     1       0.699   0.434  -0.865  1.00  0.00     0.137 HD
ENDBRANCH  23  26
ENDBRANCH  18  23
ENDBRANCH  13  17
BRANCH  15  29
ATOM     29  C   UNL     1       4.497  -4.722  -7.937  1.00  0.00     0.435 C 
ATOM     30  F   UNL     1       5.203  -3.583  -8.146  1.00  0.00    -0.164 F 
ATOM     31  F   UNL     1       5.360  -5.637  -7.412  1.00  0.00    -0.164 F 
ATOM     32  F   UNL     1       4.158  -5.200  -9.169  1.00  0.00    -0.164 F 
ENDBRANCH  15  29
ENDBRANCH   7  12
ENDBRANCH   5   6
ENDBRANCH   3   5
ENDBRANCH   2   3
ENDBRANCH   1   2
BRANCH   1  33
ATOM     33  C   UNL     1      -4.258  -3.778  -1.053  1.00  0.00     0.275 C 
BRANCH  33  34
ATOM     34  O   UNL     1      -4.812  -2.687  -1.789  1.00  0.00    -0.458 OA
BRANCH  34  35
ATOM     35  C   UNL     1      -4.002  -2.288  -2.792  1.00  0.00     0.338 C 
ATOM     36  O   UNL     1      -3.030  -2.881  -3.229  1.00  0.00    -0.246 OA
BRANCH  35  37
ATOM     37  C   UNL     1      -4.290  -0.919  -3.193  1.00  0.00     0.060 A 
ATOM     38  C   UNL     1      -3.973  -0.534  -4.500  1.00  0.00     0.016 A 
ATOM     39  C   UNL     1      -4.479   0.008  -2.168  1.00  0.00     0.016 A 
ATOM     40  C   UNL     1      -3.645   0.779  -4.745  1.00  0.00     0.010 A 
ATOM     41  C   UNL     1      -4.162   1.320  -2.414  1.00  0.00     0.010 A 
ATOM     42  C   UNL     1      -3.671   1.672  -3.675  1.00  0.00    -0.014 A 
BRANCH  42  43
ATOM     43  C   UNL     1      -3.321   3.056  -3.922  1.00  0.00     0.031 A 
ATOM     44  C   UNL     1      -4.378   3.763  -4.689  1.00  0.00     0.074 A 
ATOM     45  C   UNL     1      -2.255   3.619  -3.321  1.00  0.00     0.049 A 
ATOM     46  N   UNL     1      -4.302   4.287  -5.867  1.00  0.00    -0.248 NA
ATOM     47  C   UNL     1      -5.757   3.685  -4.165  1.00  0.00     0.031 C 
ATOM     48  C   UNL     1      -1.354   3.005  -2.338  1.00  0.00     0.029 A 
ATOM     49  N   UNL     1      -1.823   4.906  -3.355  1.00  0.00    -0.354 N 
ATOM     50  C   UNL     1      -5.561   4.838  -6.100  1.00  0.00     0.074 A 
ATOM     51  C   UNL     1      -6.455   4.219  -5.165  1.00  0.00     0.031 C 
ATOM     52  C   UNL     1      -0.664   3.976  -1.697  1.00  0.00     0.029 A 
ATOM     53  C   UNL     1      -0.980   5.257  -2.304  1.00  0.00     0.049 A 
ATOM     54  H   UNL     1      -2.084   5.538  -4.063  1.00  0.00     0.167 HD
ATOM     55  C   UNL     1      -5.700   5.990  -6.811  1.00  0.00     0.037 A 
ATOM     56  C   UNL     1      -0.655   6.522  -1.923  1.00  0.00     0.037 A 
ATOM     57  C   UNL     1      -4.525   6.248  -7.604  1.00  0.00     0.049 A 
ATOM     58  C   UNL     1      -0.988   7.416  -3.065  1.00  0.00     0.074 A 
ATOM     59  C   UNL     1      -3.866   5.577  -8.614  1.00  0.00     0.029 A 
ATOM     60  N   UNL     1      -3.637   7.177  -7.120  1.00  0.00    -0.354 N 
ATOM     61  N   UNL     1      -0.376   7.375  -4.218  1.00  0.00    -0.248 NA
ATOM     62  C   UNL     1      -2.316   8.012  -3.088  1.00  0.00     0.031 C 
ATOM     63  C   UNL     1      -2.482   5.823  -8.381  1.00  0.00     0.029 A 
ATOM     64  C   UNL     1      -2.370   6.685  -7.289  1.00  0.00     0.049 A 
ATOM     65  H   UNL     1      -3.871   8.046  -6.720  1.00  0.00     0.167 HD
ATOM     66  C   UNL     1      -1.382   7.536  -5.162  1.00  0.00     0.074 A 
ATOM     67  C   UNL     1      -2.542   8.001  -4.405  1.00  0.00     0.031 C 
ATOM     68  C   UNL     1      -1.262   6.998  -6.413  1.00  0.00     0.037 A 
BRANCH  55  69
ATOM     69  C   UNL     1      -6.688   7.082  -6.453  1.00  0.00     0.058 A 
ATOM     70  C   UNL     1      -6.810   8.193  -7.313  1.00  0.00     0.135 A 
ATOM     71  C   UNL     1      -7.292   7.234  -5.182  1.00  0.00     0.135 A 
ATOM     72  F   UNL     1      -6.276   8.165  -8.544  1.00  0.00    -0.206 F 
ATOM     73  C   UNL     1      -7.404   9.390  -6.909  1.00  0.00     0.059 A 
ATOM     74  C   UNL     1      -7.937   8.396  -4.781  1.00  0.00     0.059 A 
ATOM     75  F   UNL     1      -7.208   6.309  -4.220  1.00  0.00    -0.206 F 
ATOM     76  C   UNL     1      -7.949   9.485  -5.633  1.00  0.00     0.060 A 
BRANCH  76  77
ATOM     77  S   UNL     1      -8.622  11.054  -5.068  1.00  0.00     0.124 S 
ATOM     78  O   UNL     1      -7.416  11.867  -4.967  1.00  0.00    -0.237 OA
ATOM     79  O   UNL     1      -9.538  11.395  -6.152  1.00  0.00    -0.237 OA
ATOM     80  O   UNL     1      -9.260  10.709  -3.801  1.00  0.00    -0.744 OA
ENDBRANCH  76  77
ENDBRANCH  55  69
BRANCH  56  81
ATOM     81  C   UNL     1      -0.450   7.036  -0.539  1.00  0.00     0.058 A 
ATOM     82  C   UNL     1       0.160   8.281  -0.295  1.00  0.00     0.135 A 
ATOM     83  C   UNL     1      -1.091   6.439   0.566  1.00  0.00     0.135 A 
ATOM     84  F   UNL     1       0.765   8.940  -1.295  1.00  0.00    -0.206 F 
ATOM     85  C   UNL     1       0.116   8.905   0.959  1.00  0.00     0.059 A 
ATOM     86  C   UNL     1      -1.143   7.037   1.825  1.00  0.00     0.059 A 
ATOM     87  F   UNL     1      -1.765   5.286   0.432  1.00  0.00    -0.206 F 
ATOM     88  C   UNL     1      -0.552   8.280   2.012  1.00  0.00     0.060 A 
BRANCH  88  89
ATOM     89  S   UNL     1      -0.732   9.137   3.596  1.00  0.00     0.124 S 
ATOM     90  O   UNL     1       0.641   9.151   4.089  1.00  0.00    -0.237 OA
ATOM     91  O   UNL     1      -1.279  10.427   3.191  1.00  0.00    -0.237 OA
ATOM     92  O   UNL     1      -1.651   8.280   4.342  1.00  0.00    -0.744 OA
ENDBRANCH  88  89
ENDBRANCH  56  81
BRANCH  68  93
ATOM     93  C   UNL     1       0.095   6.508  -6.849  1.00  0.00     0.058 A 
ATOM     94  C   UNL     1       0.778   5.419  -6.277  1.00  0.00     0.135 A 
ATOM     95  C   UNL     1       0.649   7.076  -8.005  1.00  0.00     0.135 A 
ATOM     96  F   UNL     1       0.267   4.756  -5.231  1.00  0.00    -0.206 F 
ATOM     97  C   UNL     1       1.977   4.942  -6.813  1.00  0.00     0.059 A 
ATOM     98  C   UNL     1       1.824   6.597  -8.574  1.00  0.00     0.059 A 
ATOM     99  F   UNL     1       0.012   8.078  -8.633  1.00  0.00    -0.206 F 
ATOM    100  C   UNL     1       2.491   5.537  -7.965  1.00  0.00     0.060 A 
BRANCH 100 101
ATOM    101  S   UNL     1       4.001   4.877  -8.703  1.00  0.00     0.124 S 
ATOM    102  O   UNL     1       5.015   5.275  -7.733  1.00  0.00    -0.237 OA
ATOM    103  O   UNL     1       3.717   3.446  -8.776  1.00  0.00    -0.237 OA
ATOM    104  O   UNL     1       4.074   5.555  -9.996  1.00  0.00    -0.744 OA
ENDBRANCH 100 101
ENDBRANCH  68  93
ENDBRANCH  42  43
ENDBRANCH  35  37
ENDBRANCH  34  35
ENDBRANCH  33  34
ENDBRANCH   1  33
TORSDOF 20
