REMARK SMILES Cc1[nH]c2c(C(=O)N3CC[C@H](O)C[C@@H]3C(=O)OCCOC(=O)c3ccc(-c4c5nc(c(-c6c(F)cc(S(=O)(=O)[O-])cc6F)c6ccc([nH]6)c(-c6c(F)cc(S(=O)(=O)[O-])cc6F)c6nc(c(-c7c(F)cc(S(=O)(=O)[O-])cc7F)c7ccc4[nH]7)C=C6)C=C5)cc3)cccc2c1C
REMARK SMILES IDX 19 1 18 2 17 3 15 4 16 5 14 6 8 7 9 8 10 9 13 10 11 11 6 12
REMARK SMILES IDX 7 13 5 14 1 15 2 16 3 17 93 18 4 19 92 21 94 22 91 23 89 24
REMARK SMILES IDX 90 25 12 26 20 28 21 29 22 30 23 31 24 32 88 33 25 34 87 35
REMARK SMILES IDX 26 36 27 37 28 38 81 39 29 40 86 41 80 42 82 43 30 44 85 45
REMARK SMILES IDX 79 46 78 47 31 49 65 50 44 51 64 52 45 53 48 54 63 55 83 56
REMARK SMILES IDX 46 57 47 58 62 60 84 61 49 62 32 63 33 64 42 65 34 66 35 67
REMARK SMILES IDX 41 68 43 69 36 70 37 71 38 72 39 73 40 74 66 75 67 76 76 77
REMARK SMILES IDX 68 78 69 79 75 80 77 81 70 82 71 83 72 84 73 85 74 86 50 87
REMARK SMILES IDX 51 88 60 89 52 90 53 91 59 92 61 93 54 94 55 95 56 96 57 97
REMARK SMILES IDX 58 98
REMARK H PARENT 3 20 12 27 82 48 48 59
REMARK Flexibility Score: inf
ROOT
ATOM      1  C   UNL     1      -3.867  -5.045   2.297  1.00  0.00     0.275 C 
ENDROOT
BRANCH   1   2
ATOM      2  C   UNL     1      -3.174  -3.826   1.681  1.00  0.00     0.274 C 
BRANCH   2   3
ATOM      3  O   UNL     1      -2.002  -4.189   0.922  1.00  0.00    -0.461 OA
BRANCH   3   4
ATOM      4  C   UNL     1      -0.811  -4.115   1.573  1.00  0.00     0.329 C 
ATOM      5  O   UNL     1      -0.691  -3.688   2.716  1.00  0.00    -0.250 OA
BRANCH   4   6
ATOM      6  C   UNL     1       0.390  -4.521   0.701  1.00  0.00     0.198 C 
ATOM      7  N   UNL     1       0.626  -3.514  -0.333  1.00  0.00    -0.325 N 
ATOM      8  C   UNL     1      -0.042  -3.682  -1.624  1.00  0.00     0.123 C 
ATOM      9  C   UNL     1       0.131  -5.099  -2.168  1.00  0.00     0.053 C 
ATOM     10  C   UNL     1       0.437  -5.952   0.170  1.00  0.00     0.069 C 
ATOM     11  C   UNL     1      -0.299  -6.151  -1.147  1.00  0.00     0.118 C 
BRANCH   7  12
ATOM     12  C   UNL     1       1.731  -2.691  -0.167  1.00  0.00     0.256 C 
ATOM     13  O   UNL     1       2.821  -3.147   0.173  1.00  0.00    -0.269 OA
BRANCH  12  14
ATOM     14  C   UNL     1       1.551  -1.218  -0.263  1.00  0.00     0.064 A 
ATOM     15  C   UNL     1      -3.357  -0.363  -0.097  1.00  0.00     0.064 C 
ATOM     16  C   UNL     1      -1.905  -0.058  -0.109  1.00  0.00     0.016 A 
ATOM     17  N   UNL     1      -0.973  -1.060  -0.068  1.00  0.00    -0.358 N 
ATOM     18  C   UNL     1      -1.217   1.142  -0.118  1.00  0.00    -0.023 A 
ATOM     19  C   UNL     1       0.303  -0.567  -0.194  1.00  0.00     0.059 A 
ATOM     20  H   UNL     1      -1.190  -2.014   0.040  1.00  0.00     0.166 HD
ATOM     21  C   UNL     1       0.181   0.824  -0.176  1.00  0.00     0.003 A 
ATOM     22  C   UNL     1      -1.799   2.509  -0.072  1.00  0.00     0.047 C 
ATOM     23  C   UNL     1       1.354   1.608  -0.198  1.00  0.00     0.010 A 
ATOM     24  C   UNL     1       2.698  -0.404  -0.277  1.00  0.00     0.016 A 
ATOM     25  C   UNL     1       2.604   0.985  -0.242  1.00  0.00     0.002 A 
ENDBRANCH  12  14
ENDBRANCH   7  12
BRANCH  11  26
ATOM     26  O   UNL     1      -1.709  -6.102  -0.966  1.00  0.00    -0.393 OA
ATOM     27  H   UNL     1      -1.962  -5.228  -0.630  1.00  0.00     0.210 HD
ENDBRANCH  11  26
ENDBRANCH   4   6
ENDBRANCH   3   4
ENDBRANCH   2   3
ENDBRANCH   1   2
BRANCH   1  28
ATOM     28  O   UNL     1      -3.075  -5.642   3.337  1.00  0.00    -0.458 OA
BRANCH  28  29
ATOM     29  C   UNL     1      -2.230  -6.616   2.926  1.00  0.00     0.338 C 
ATOM     30  O   UNL     1      -2.124  -7.061   1.794  1.00  0.00    -0.246 OA
BRANCH  29  31
ATOM     31  C   UNL     1      -1.319  -6.963   4.030  1.00  0.00     0.060 A 
ATOM     32  C   UNL     1       0.037  -6.648   3.902  1.00  0.00     0.016 A 
ATOM     33  C   UNL     1      -1.782  -7.642   5.156  1.00  0.00     0.016 A 
ATOM     34  C   UNL     1       0.944  -7.023   4.885  1.00  0.00     0.010 A 
ATOM     35  C   UNL     1      -0.871  -8.012   6.151  1.00  0.00     0.010 A 
ATOM     36  C   UNL     1       0.497  -7.716   6.012  1.00  0.00    -0.014 A 
BRANCH  36  37
ATOM     37  C   UNL     1       1.478  -8.174   7.019  1.00  0.00     0.031 A 
ATOM     38  C   UNL     1       1.850  -9.627   7.077  1.00  0.00     0.074 A 
ATOM     39  C   UNL     1       2.043  -7.284   7.854  1.00  0.00     0.049 A 
ATOM     40  N   UNL     1       2.604 -10.253   7.940  1.00  0.00    -0.248 NA
ATOM     41  C   UNL     1       1.295 -10.490   6.021  1.00  0.00     0.031 C 
ATOM     42  C   UNL     1       1.799  -5.840   7.842  1.00  0.00     0.029 A 
ATOM     43  N   UNL     1       2.935  -7.464   8.880  1.00  0.00    -0.354 N 
ATOM     44  C   UNL     1       2.595 -11.586   7.552  1.00  0.00     0.074 A 
ATOM     45  C   UNL     1       1.752 -11.682   6.379  1.00  0.00     0.031 C 
ATOM     46  C   UNL     1       2.519  -5.266   8.820  1.00  0.00     0.029 A 
ATOM     47  C   UNL     1       3.236  -6.305   9.554  1.00  0.00     0.049 A 
ATOM     48  H   UNL     1       3.323  -8.339   9.110  1.00  0.00     0.167 HD
ATOM     49  C   UNL     1       3.232 -12.633   8.128  1.00  0.00     0.037 A 
ATOM     50  C   UNL     1       3.980  -6.112  10.660  1.00  0.00     0.037 A 
ATOM     51  C   UNL     1       4.080 -12.517   9.285  1.00  0.00     0.049 A 
ATOM     52  C   UNL     1       4.633  -7.299  11.313  1.00  0.00     0.074 A 
ATOM     53  C   UNL     1       4.783 -13.511   9.942  1.00  0.00     0.029 A 
ATOM     54  N   UNL     1       4.342 -11.331   9.957  1.00  0.00    -0.354 N 
ATOM     55  N   UNL     1       4.604  -8.559  10.948  1.00  0.00    -0.248 NA
ATOM     56  C   UNL     1       5.412  -7.042  12.531  1.00  0.00     0.031 C 
ATOM     57  C   UNL     1       5.439 -12.933  11.034  1.00  0.00     0.029 A 
ATOM     58  C   UNL     1       5.179 -11.571  11.033  1.00  0.00     0.049 A 
ATOM     59  H   UNL     1       3.984 -10.449   9.706  1.00  0.00     0.167 HD
ATOM     60  C   UNL     1       5.378  -9.243  11.879  1.00  0.00     0.074 A 
ATOM     61  C   UNL     1       5.869  -8.254  12.818  1.00  0.00     0.031 C 
ATOM     62  C   UNL     1       5.658 -10.568  11.951  1.00  0.00     0.037 A 
BRANCH  49  63
ATOM     63  C   UNL     1       3.003 -13.995   7.538  1.00  0.00     0.058 A 
ATOM     64  C   UNL     1       3.578 -14.382   6.317  1.00  0.00     0.135 A 
ATOM     65  C   UNL     1       2.213 -14.937   8.217  1.00  0.00     0.135 A 
ATOM     66  F   UNL     1       4.325 -13.514   5.617  1.00  0.00    -0.206 F 
ATOM     67  C   UNL     1       3.358 -15.647   5.779  1.00  0.00     0.059 A 
ATOM     68  C   UNL     1       1.998 -16.214   7.710  1.00  0.00     0.059 A 
ATOM     69  F   UNL     1       1.635 -14.616   9.386  1.00  0.00    -0.206 F 
ATOM     70  C   UNL     1       2.564 -16.555   6.482  1.00  0.00     0.060 A 
BRANCH  70  71
ATOM     71  S   UNL     1       2.285 -18.192   5.772  1.00  0.00     0.124 S 
ATOM     72  O   UNL     1       1.332 -17.888   4.709  1.00  0.00    -0.237 OA
ATOM     73  O   UNL     1       3.622 -18.576   5.333  1.00  0.00    -0.237 OA
ATOM     74  O   UNL     1       1.751 -18.961   6.892  1.00  0.00    -0.744 OA
ENDBRANCH  70  71
ENDBRANCH  49  63
BRANCH  50  75
ATOM     75  C   UNL     1       4.123  -4.747  11.230  1.00  0.00     0.058 A 
ATOM     76  C   UNL     1       5.344  -4.061  11.169  1.00  0.00     0.135 A 
ATOM     77  C   UNL     1       3.038  -4.097  11.840  1.00  0.00     0.135 A 
ATOM     78  F   UNL     1       6.413  -4.645  10.605  1.00  0.00    -0.206 F 
ATOM     79  C   UNL     1       5.491  -2.784  11.701  1.00  0.00     0.059 A 
ATOM     80  C   UNL     1       3.153  -2.811  12.358  1.00  0.00     0.059 A 
ATOM     81  F   UNL     1       1.844  -4.706  11.915  1.00  0.00    -0.206 F 
ATOM     82  C   UNL     1       4.387  -2.166  12.294  1.00  0.00     0.060 A 
BRANCH  82  83
ATOM     83  S   UNL     1       4.573  -0.492  12.944  1.00  0.00     0.124 S 
ATOM     84  O   UNL     1       5.304  -0.738  14.182  1.00  0.00    -0.237 OA
ATOM     85  O   UNL     1       5.322   0.172  11.882  1.00  0.00    -0.237 OA
ATOM     86  O   UNL     1       3.194  -0.040  13.103  1.00  0.00    -0.744 OA
ENDBRANCH  82  83
ENDBRANCH  50  75
BRANCH  62  87
ATOM     87  C   UNL     1       6.561 -11.017  13.064  1.00  0.00     0.058 A 
ATOM     88  C   UNL     1       6.106 -11.109  14.388  1.00  0.00     0.135 A 
ATOM     89  C   UNL     1       7.883 -11.404  12.792  1.00  0.00     0.135 A 
ATOM     90  F   UNL     1       4.853 -10.743  14.698  1.00  0.00    -0.206 F 
ATOM     91  C   UNL     1       6.939 -11.551  15.410  1.00  0.00     0.059 A 
ATOM     92  C   UNL     1       8.726 -11.871  13.795  1.00  0.00     0.059 A 
ATOM     93  F   UNL     1       8.362 -11.344  11.540  1.00  0.00    -0.206 F 
ATOM     94  C   UNL     1       8.248 -11.930  15.104  1.00  0.00     0.060 A 
BRANCH  94  95
ATOM     95  S   UNL     1       9.310 -12.534  16.433  1.00  0.00     0.124 S 
ATOM     96  O   UNL     1       9.675 -11.291  17.105  1.00  0.00    -0.237 OA
ATOM     97  O   UNL     1       8.415 -13.417  17.175  1.00  0.00    -0.237 OA
ATOM     98  O   UNL     1      10.393 -13.205  15.721  1.00  0.00    -0.744 OA
ENDBRANCH  94  95
ENDBRANCH  62  87
ENDBRANCH  36  37
ENDBRANCH  29  31
ENDBRANCH  28  29
ENDBRANCH   1  28
TORSDOF 17
