REMARK SMILES CC1(C)C(CNC(=O)[C@H]2C[C@H]2C(=O)OCCOC(=O)c2ccc(-c3c4nc(c(-c5c(F)cc(S(=O)(=O)[O-])cc5F)c5ccc([nH]5)c(-c5c(F)cc(S(=O)(=O)[O-])cc5F)c5nc(c(-c6c(F)cc(S(=O)(=O)[O-])cc6F)c6ccc3[nH]6)C=C5)C=C4)cc2)C1(C)C
REMARK SMILES IDX 15 1 14 2 12 3 13 4 11 5 9 6 10 7 7 8 6 9 8 11 5 12 4 13
REMARK SMILES IDX 1 14 2 15 3 16 86 17 87 18 88 19 16 20 17 21 18 22 19 23
REMARK SMILES IDX 20 24 21 25 85 26 22 27 84 28 23 29 24 30 25 31 78 32 26 33
REMARK SMILES IDX 83 34 77 35 79 36 27 37 82 38 76 39 75 40 28 42 62 43 41 44
REMARK SMILES IDX 61 45 42 46 45 47 60 48 80 49 43 50 44 51 59 53 81 54 46 55
REMARK SMILES IDX 29 56 30 57 39 58 31 59 32 60 38 61 40 62 33 63 34 64 35 65
REMARK SMILES IDX 36 66 37 67 63 68 64 69 73 70 65 71 66 72 72 73 74 74 67 75
REMARK SMILES IDX 68 76 69 77 70 78 71 79 47 80 48 81 57 82 49 83 50 84 56 85
REMARK SMILES IDX 58 86 51 87 52 88 53 89 54 90 55 91
REMARK H PARENT 6 10 79 41 45 52
REMARK Flexibility Score: inf
ROOT
ATOM      1  C   UNL     1      -0.205   9.432  -1.713  1.00  0.00     0.274 C 
ENDROOT
BRANCH   1   2
ATOM      2  O   UNL     1       0.721   8.394  -1.337  1.00  0.00    -0.462 OA
BRANCH   2   3
ATOM      3  C   UNL     1       1.879   8.822  -0.776  1.00  0.00     0.309 C 
ATOM      4  O   UNL     1       2.215   9.991  -0.641  1.00  0.00    -0.252 OA
BRANCH   3   5
ATOM      5  C   UNL     1       2.777   7.743  -0.290  1.00  0.00     0.112 C 
ATOM      6  C   UNL     1       2.880   6.315  -0.772  1.00  0.00     0.093 C 
ATOM      7  C   UNL     1       3.881   7.336  -1.230  1.00  0.00     0.030 C 
BRANCH   6   8
ATOM      8  C   UNL     1       1.732   5.673  -1.446  1.00  0.00     0.224 C 
ATOM      9  N   UNL     1       1.733   5.373  -2.773  1.00  0.00    -0.356 N 
ATOM     10  H   UNL     1       1.028   4.745  -3.052  1.00  0.00     0.163 HD
ATOM     11  O   UNL     1       0.794   5.281  -0.758  1.00  0.00    -0.275 OA
BRANCH   9  12
ATOM     12  C   UNL     1       2.588   5.819  -3.831  1.00  0.00     0.120 C 
BRANCH  12  13
ATOM     13  C   UNL     1       3.456   4.717  -4.341  1.00  0.00     0.021 C 
ATOM     14  C   UNL     1       3.633   2.341  -5.407  1.00  0.00     0.012 C 
ATOM     15  C   UNL     1       3.122   3.766  -5.487  1.00  0.00    -0.025 C 
ATOM     16  C   UNL     1       1.726   3.815  -6.070  1.00  0.00     0.012 C 
ATOM     17  C   UNL     1       4.143   4.915  -5.686  1.00  0.00    -0.025 C 
ATOM     18  C   UNL     1       5.639   4.676  -5.682  1.00  0.00     0.012 C 
ATOM     19  C   UNL     1       3.776   6.098  -6.560  1.00  0.00     0.012 C 
ENDBRANCH  12  13
ENDBRANCH   9  12
ENDBRANCH   6   8
ENDBRANCH   3   5
ENDBRANCH   2   3
ENDBRANCH   1   2
BRANCH   1  20
ATOM     20  C   UNL     1      -1.341   9.559  -0.698  1.00  0.00     0.275 C 
BRANCH  20  21
ATOM     21  O   UNL     1      -0.830   9.903   0.602  1.00  0.00    -0.458 OA
BRANCH  21  22
ATOM     22  C   UNL     1      -0.746   8.863   1.462  1.00  0.00     0.338 C 
ATOM     23  O   UNL     1      -1.095   7.711   1.270  1.00  0.00    -0.246 OA
BRANCH  22  24
ATOM     24  C   UNL     1      -0.110   9.287   2.713  1.00  0.00     0.060 A 
ATOM     25  C   UNL     1       1.277   9.220   2.815  1.00  0.00     0.016 A 
ATOM     26  C   UNL     1      -0.889   9.570   3.833  1.00  0.00     0.016 A 
ATOM     27  C   UNL     1       1.894   9.350   4.053  1.00  0.00     0.010 A 
ATOM     28  C   UNL     1      -0.263   9.775   5.066  1.00  0.00     0.010 A 
ATOM     29  C   UNL     1       1.131   9.628   5.193  1.00  0.00    -0.014 A 
BRANCH  29  30
ATOM     30  C   UNL     1       1.794   9.724   6.518  1.00  0.00     0.031 A 
ATOM     31  C   UNL     1       1.470   8.728   7.598  1.00  0.00     0.074 A 
ATOM     32  C   UNL     1       2.699  10.696   6.742  1.00  0.00     0.049 A 
ATOM     33  N   UNL     1       1.856   8.711   8.848  1.00  0.00    -0.248 NA
ATOM     34  C   UNL     1       0.587   7.610   7.228  1.00  0.00     0.031 C 
ATOM     35  C   UNL     1       3.118  11.701   5.762  1.00  0.00     0.029 A 
ATOM     36  N   UNL     1       3.428  11.002   7.862  1.00  0.00    -0.354 N 
ATOM     37  C   UNL     1       1.227   7.614   9.426  1.00  0.00     0.074 A 
ATOM     38  C   UNL     1       0.430   6.992   8.390  1.00  0.00     0.031 C 
ATOM     39  C   UNL     1       4.038  12.502   6.319  1.00  0.00     0.029 A 
ATOM     40  C   UNL     1       4.226  12.111   7.712  1.00  0.00     0.049 A 
ATOM     41  H   UNL     1       3.384  10.477   8.694  1.00  0.00     0.167 HD
ATOM     42  C   UNL     1       1.310   7.169  10.703  1.00  0.00     0.037 A 
ATOM     43  C   UNL     1       4.994  12.765   8.604  1.00  0.00     0.037 A 
ATOM     44  C   UNL     1       2.142   7.772  11.713  1.00  0.00     0.049 A 
ATOM     45  C   UNL     1       5.064  12.258  10.016  1.00  0.00     0.074 A 
ATOM     46  C   UNL     1       2.325   7.376  13.027  1.00  0.00     0.029 A 
ATOM     47  N   UNL     1       2.933   8.896  11.521  1.00  0.00    -0.354 N 
ATOM     48  N   UNL     1       4.457  11.225  10.549  1.00  0.00    -0.248 NA
ATOM     49  C   UNL     1       5.917  13.006  10.948  1.00  0.00     0.031 C 
ATOM     50  C   UNL     1       3.197   8.283  13.639  1.00  0.00     0.029 A 
ATOM     51  C   UNL     1       3.592   9.219  12.696  1.00  0.00     0.049 A 
ATOM     52  H   UNL     1       3.014   9.391  10.674  1.00  0.00     0.167 HD
ATOM     53  C   UNL     1       4.860  11.192  11.878  1.00  0.00     0.074 A 
ATOM     54  C   UNL     1       5.779  12.299  12.062  1.00  0.00     0.031 C 
ATOM     55  C   UNL     1       4.500  10.327  12.859  1.00  0.00     0.037 A 
BRANCH  42  56
ATOM     56  C   UNL     1       0.450   5.997  11.090  1.00  0.00     0.058 A 
ATOM     57  C   UNL     1       0.729   4.691  10.659  1.00  0.00     0.135 A 
ATOM     58  C   UNL     1      -0.662   6.184  11.928  1.00  0.00     0.135 A 
ATOM     59  F   UNL     1       1.770   4.455   9.845  1.00  0.00    -0.206 F 
ATOM     60  C   UNL     1      -0.081   3.617  11.018  1.00  0.00     0.059 A 
ATOM     61  C   UNL     1      -1.471   5.122  12.321  1.00  0.00     0.059 A 
ATOM     62  F   UNL     1      -0.974   7.412  12.371  1.00  0.00    -0.206 F 
ATOM     63  C   UNL     1      -1.182   3.844  11.847  1.00  0.00     0.060 A 
BRANCH  63  64
ATOM     64  S   UNL     1      -2.229   2.445  12.302  1.00  0.00     0.124 S 
ATOM     65  O   UNL     1      -2.976   2.226  11.067  1.00  0.00    -0.237 OA
ATOM     66  O   UNL     1      -1.251   1.416  12.641  1.00  0.00    -0.237 OA
ATOM     67  O   UNL     1      -3.010   2.955  13.425  1.00  0.00    -0.744 OA
ENDBRANCH  63  64
ENDBRANCH  42  56
BRANCH  43  68
ATOM     68  C   UNL     1       5.727  13.986   8.181  1.00  0.00     0.058 A 
ATOM     69  C   UNL     1       7.121  13.983   8.035  1.00  0.00     0.135 A 
ATOM     70  C   UNL     1       5.039  15.170   7.869  1.00  0.00     0.135 A 
ATOM     71  F   UNL     1       7.823  12.878   8.329  1.00  0.00    -0.206 F 
ATOM     72  C   UNL     1       7.809  15.109   7.595  1.00  0.00     0.059 A 
ATOM     73  C   UNL     1       5.701  16.300   7.402  1.00  0.00     0.059 A 
ATOM     74  F   UNL     1       3.702  15.219   7.978  1.00  0.00    -0.206 F 
ATOM     75  C   UNL     1       7.088  16.262   7.274  1.00  0.00     0.060 A 
BRANCH  75  76
ATOM     76  S   UNL     1       7.980  17.694   6.631  1.00  0.00     0.124 S 
ATOM     77  O   UNL     1       8.593  18.226   7.843  1.00  0.00    -0.237 OA
ATOM     78  O   UNL     1       8.893  17.084   5.669  1.00  0.00    -0.237 OA
ATOM     79  O   UNL     1       6.922  18.512   6.046  1.00  0.00    -0.744 OA
ENDBRANCH  75  76
ENDBRANCH  43  68
BRANCH  55  80
ATOM     80  C   UNL     1       5.119  10.532  14.212  1.00  0.00     0.058 A 
ATOM     81  C   UNL     1       4.711  11.576  15.056  1.00  0.00     0.135 A 
ATOM     82  C   UNL     1       6.103   9.649  14.685  1.00  0.00     0.135 A 
ATOM     83  F   UNL     1       3.780  12.451  14.646  1.00  0.00    -0.206 F 
ATOM     84  C   UNL     1       5.274  11.752  16.316  1.00  0.00     0.059 A 
ATOM     85  C   UNL     1       6.662   9.792  15.951  1.00  0.00     0.059 A 
ATOM     86  F   UNL     1       6.521   8.629  13.919  1.00  0.00    -0.206 F 
ATOM     87  C   UNL     1       6.250  10.855  16.754  1.00  0.00     0.060 A 
BRANCH  87  88
ATOM     88  S   UNL     1       6.955  11.076  18.401  1.00  0.00     0.124 S 
ATOM     89  O   UNL     1       7.863  12.197  18.183  1.00  0.00    -0.237 OA
ATOM     90  O   UNL     1       5.777  11.363  19.212  1.00  0.00    -0.237 OA
ATOM     91  O   UNL     1       7.596   9.792  18.671  1.00  0.00    -0.744 OA
ENDBRANCH  87  88
ENDBRANCH  55  80
ENDBRANCH  29  30
ENDBRANCH  22  24
ENDBRANCH  21  22
ENDBRANCH  20  21
ENDBRANCH   1  20
TORSDOF 17
