REMARK SMILES CC[NH2+][C@@]1(C(=O)OCCOC(=O)c2ccc(-c3c4nc(c(-c5c(F)cc(S(=O)(=O)[O-])cc5F)c5ccc([nH]5)c(-c5c(F)cc(S(=O)(=O)[O-])cc5F)c5nc(c(-c6c(F)cc(S(=O)(=O)[O-])cc6F)c6ccc3[nH]6)C=C5)C=C4)cc2)CCC[C@H]1CCSc1cnn(C)c1
REMARK SMILES IDX 8 1 7 2 5 3 6 4 4 5 79 6 82 7 80 8 81 9 3 10 2 13 1 14 83 15
REMARK SMILES IDX 84 16 85 17 86 18 87 19 91 20 88 21 89 22 90 23 9 24 10 25
REMARK SMILES IDX 11 26 12 27 13 28 14 29 78 30 15 31 77 32 16 33 17 34 18 35
REMARK SMILES IDX 71 36 19 37 76 38 70 39 72 40 20 41 75 42 69 43 68 44 21 46
REMARK SMILES IDX 55 47 34 48 54 49 35 50 38 51 53 52 73 53 36 54 37 55 52 57
REMARK SMILES IDX 74 58 39 59 22 60 23 61 32 62 24 63 25 64 31 65 33 66 26 67
REMARK SMILES IDX 27 68 28 69 29 70 30 71 56 72 57 73 66 74 58 75 59 76 65 77
REMARK SMILES IDX 67 78 60 79 61 80 62 81 63 82 64 83 40 84 41 85 50 86 42 87
REMARK SMILES IDX 43 88 49 89 51 90 44 91 45 92 46 93 47 94 48 95
REMARK H PARENT 3 11 3 12 72 45 38 56
REMARK Flexibility Score: inf
ROOT
ATOM      1  C   UNL     1       2.399   1.758   5.785  1.00  0.00     0.274 C 
ENDROOT
BRANCH   1   2
ATOM      2  O   UNL     1       1.215   1.471   5.010  1.00  0.00    -0.457 OA
BRANCH   2   3
ATOM      3  C   UNL     1       1.085   2.126   3.823  1.00  0.00     0.368 C 
ATOM      4  O   UNL     1       1.962   2.836   3.337  1.00  0.00    -0.245 OA
BRANCH   3   5
ATOM      5  C   UNL     1      -0.352   1.983   3.193  1.00  0.00     0.197 C 
ATOM      6  C   UNL     1      -0.991   3.382   3.386  1.00  0.00     0.081 C 
ATOM      7  C   UNL     1      -1.338   1.036   3.969  1.00  0.00     0.063 C 
ATOM      8  C   UNL     1      -1.493   3.355   4.815  1.00  0.00     0.008 C 
ATOM      9  C   UNL     1      -2.132   1.983   4.915  1.00  0.00     0.011 C 
BRANCH   5  10
ATOM     10  N   UNL     1      -0.291   1.737   1.728  1.00  0.00    -0.332 N 
ATOM     11  H   UNL     1      -1.191   1.362   1.432  1.00  0.00     0.347 HD
ATOM     12  H   UNL     1      -0.066   2.634   1.296  1.00  0.00     0.347 HD
BRANCH  10  13
ATOM     13  C   UNL     1       0.750   0.806   1.306  1.00  0.00     0.257 C 
ATOM     14  C   UNL     1       0.533   0.386  -0.138  1.00  0.00     0.071 C 
ENDBRANCH  10  13
ENDBRANCH   5  10
BRANCH   7  15
ATOM     15  C   UNL     1      -2.364   0.223   3.136  1.00  0.00     0.022 C 
BRANCH  15  16
ATOM     16  C   UNL     1      -1.886  -1.120   2.564  1.00  0.00     0.075 C 
BRANCH  16  17
ATOM     17  S   UNL     1      -2.156  -2.527   3.690  1.00  0.00    -0.123 SA
BRANCH  17  18
ATOM     18  C   UNL     1      -0.593  -2.817   4.393  1.00  0.00     0.045 A 
ATOM     19  C   UNL     1      -0.023  -2.153   5.492  1.00  0.00     0.150 A 
ATOM     20  C   UNL     1       0.274  -3.848   4.118  1.00  0.00     0.123 A 
ATOM     21  N   UNL     1       1.101  -2.734   5.918  1.00  0.00    -0.181 NA
ATOM     22  N   UNL     1       1.287  -3.737   5.032  1.00  0.00    -0.275 N 
ATOM     23  C   UNL     1       2.427  -4.610   5.177  1.00  0.00     0.173 C 
ENDBRANCH  17  18
ENDBRANCH  16  17
ENDBRANCH  15  16
ENDBRANCH   7  15
ENDBRANCH   3   5
ENDBRANCH   2   3
ENDBRANCH   1   2
BRANCH   1  24
ATOM     24  C   UNL     1       3.421   0.627   5.714  1.00  0.00     0.275 C 
BRANCH  24  25
ATOM     25  O   UNL     1       4.014   0.594   4.404  1.00  0.00    -0.458 OA
BRANCH  25  26
ATOM     26  C   UNL     1       3.853  -0.560   3.728  1.00  0.00     0.338 C 
ATOM     27  O   UNL     1       3.325  -1.589   4.133  1.00  0.00    -0.246 OA
BRANCH  26  28
ATOM     28  C   UNL     1       4.357  -0.476   2.353  1.00  0.00     0.060 A 
ATOM     29  C   UNL     1       4.101   0.649   1.583  1.00  0.00     0.016 A 
ATOM     30  C   UNL     1       4.877  -1.632   1.762  1.00  0.00     0.016 A 
ATOM     31  C   UNL     1       4.176   0.545   0.197  1.00  0.00     0.010 A 
ATOM     32  C   UNL     1       5.087  -1.680   0.383  1.00  0.00     0.010 A 
ATOM     33  C   UNL     1       4.679  -0.613  -0.427  1.00  0.00    -0.014 A 
BRANCH  33  34
ATOM     34  C   UNL     1       4.767  -0.695  -1.914  1.00  0.00     0.031 A 
ATOM     35  C   UNL     1       4.156  -1.847  -2.679  1.00  0.00     0.074 A 
ATOM     36  C   UNL     1       5.381   0.294  -2.594  1.00  0.00     0.049 A 
ATOM     37  N   UNL     1       4.312  -2.169  -3.938  1.00  0.00    -0.248 NA
ATOM     38  C   UNL     1       3.273  -2.764  -1.938  1.00  0.00     0.031 C 
ATOM     39  C   UNL     1       5.998   1.478  -1.990  1.00  0.00     0.029 A 
ATOM     40  N   UNL     1       5.564   0.482  -3.940  1.00  0.00    -0.354 N 
ATOM     41  C   UNL     1       3.617  -3.360  -4.123  1.00  0.00     0.074 A 
ATOM     42  C   UNL     1       3.011  -3.692  -2.852  1.00  0.00     0.031 C 
ATOM     43  C   UNL     1       6.394   2.313  -2.958  1.00  0.00     0.029 A 
ATOM     44  C   UNL     1       6.191   1.665  -4.246  1.00  0.00     0.049 A 
ATOM     45  H   UNL     1       5.273  -0.168  -4.620  1.00  0.00     0.167 HD
ATOM     46  C   UNL     1       3.514  -4.110  -5.248  1.00  0.00     0.037 A 
ATOM     47  C   UNL     1       6.617   2.161  -5.422  1.00  0.00     0.037 A 
ATOM     48  C   UNL     1       4.061  -3.729  -6.527  1.00  0.00     0.049 A 
ATOM     49  C   UNL     1       6.475   1.328  -6.654  1.00  0.00     0.074 A 
ATOM     50  C   UNL     1       4.012  -4.420  -7.728  1.00  0.00     0.029 A 
ATOM     51  N   UNL     1       4.730  -2.541  -6.781  1.00  0.00    -0.354 N 
ATOM     52  N   UNL     1       5.930   0.143  -6.781  1.00  0.00    -0.248 NA
ATOM     53  C   UNL     1       7.048   1.873  -7.889  1.00  0.00     0.031 C 
ATOM     54  C   UNL     1       4.669  -3.657  -8.701  1.00  0.00     0.029 A 
ATOM     55  C   UNL     1       5.101  -2.480  -8.115  1.00  0.00     0.049 A 
ATOM     56  H   UNL     1       4.914  -1.843  -6.112  1.00  0.00     0.167 HD
ATOM     57  C   UNL     1       6.128  -0.220  -8.105  1.00  0.00     0.074 A 
ATOM     58  C   UNL     1       6.803   0.892  -8.748  1.00  0.00     0.031 C 
ATOM     59  C   UNL     1       5.799  -1.378  -8.726  1.00  0.00     0.037 A 
BRANCH  46  60
ATOM     60  C   UNL     1       2.821  -5.442  -5.155  1.00  0.00     0.058 A 
ATOM     61  C   UNL     1       1.425  -5.562  -5.138  1.00  0.00     0.135 A 
ATOM     62  C   UNL     1       3.579  -6.627  -5.168  1.00  0.00     0.135 A 
ATOM     63  F   UNL     1       0.653  -4.463  -5.111  1.00  0.00    -0.206 F 
ATOM     64  C   UNL     1       0.801  -6.808  -5.133  1.00  0.00     0.059 A 
ATOM     65  C   UNL     1       2.978  -7.882  -5.180  1.00  0.00     0.059 A 
ATOM     66  F   UNL     1       4.920  -6.569  -5.184  1.00  0.00    -0.206 F 
ATOM     67  C   UNL     1       1.587  -7.963  -5.155  1.00  0.00     0.060 A 
BRANCH  67  68
ATOM     68  S   UNL     1       0.773  -9.576  -5.183  1.00  0.00     0.124 S 
ATOM     69  O   UNL     1       0.399  -9.737  -3.781  1.00  0.00    -0.237 OA
ATOM     70  O   UNL     1      -0.332  -9.359  -6.112  1.00  0.00    -0.237 OA
ATOM     71  O   UNL     1       1.819 -10.475  -5.661  1.00  0.00    -0.744 OA
ENDBRANCH  67  68
ENDBRANCH  46  60
BRANCH  47  72
ATOM     72  C   UNL     1       7.285   3.486  -5.441  1.00  0.00     0.058 A 
ATOM     73  C   UNL     1       6.618   4.619  -5.923  1.00  0.00     0.135 A 
ATOM     74  C   UNL     1       8.555   3.660  -4.868  1.00  0.00     0.135 A 
ATOM     75  F   UNL     1       5.407   4.497  -6.487  1.00  0.00    -0.206 F 
ATOM     76  C   UNL     1       7.174   5.889  -5.807  1.00  0.00     0.059 A 
ATOM     77  C   UNL     1       9.118   4.920  -4.718  1.00  0.00     0.059 A 
ATOM     78  F   UNL     1       9.221   2.603  -4.377  1.00  0.00    -0.206 F 
ATOM     79  C   UNL     1       8.418   6.031  -5.188  1.00  0.00     0.060 A 
BRANCH  79  80
ATOM     80  S   UNL     1       9.080   7.686  -4.901  1.00  0.00     0.124 S 
ATOM     81  O   UNL     1       9.781   7.942  -6.154  1.00  0.00    -0.237 OA
ATOM     82  O   UNL     1       7.874   8.476  -4.671  1.00  0.00    -0.237 OA
ATOM     83  O   UNL     1       9.926   7.500  -3.726  1.00  0.00    -0.744 OA
ENDBRANCH  79  80
ENDBRANCH  47  72
BRANCH  59  84
ATOM     84  C   UNL     1       6.192  -1.496 -10.167  1.00  0.00     0.058 A 
ATOM     85  C   UNL     1       7.513  -1.794 -10.532  1.00  0.00     0.135 A 
ATOM     86  C   UNL     1       5.250  -1.298 -11.186  1.00  0.00     0.135 A 
ATOM     87  F   UNL     1       8.450  -1.981  -9.589  1.00  0.00    -0.206 F 
ATOM     88  C   UNL     1       7.896  -1.865 -11.867  1.00  0.00     0.059 A 
ATOM     89  C   UNL     1       5.607  -1.378 -12.527  1.00  0.00     0.059 A 
ATOM     90  F   UNL     1       3.974  -1.013 -10.882  1.00  0.00    -0.206 F 
ATOM     91  C   UNL     1       6.936  -1.645 -12.857  1.00  0.00     0.060 A 
BRANCH  91  92
ATOM     92  S   UNL     1       7.441  -1.726 -14.588  1.00  0.00     0.124 S 
ATOM     93  O   UNL     1       8.061  -0.418 -14.772  1.00  0.00    -0.237 OA
ATOM     94  O   UNL     1       8.351  -2.866 -14.602  1.00  0.00    -0.237 OA
ATOM     95  O   UNL     1       6.181  -1.930 -15.297  1.00  0.00    -0.744 OA
ENDBRANCH  91  92
ENDBRANCH  59  84
ENDBRANCH  33  34
ENDBRANCH  26  28
ENDBRANCH  25  26
ENDBRANCH  24  25
ENDBRANCH   1  24
TORSDOF 20
