REMARK SMILES O=C(Nc1ccccc1)N[C@H]1C[C@@H](C(=O)OCCOC(=O)c2ccc(-c3c4nc(c(-c5c(F)cc(S(=O)(=O)[O-])cc5F)c5ccc([nH]5)c(-c5c(F)cc(S(=O)(=O)[O-])cc5F)c5nc(c(-c6c(F)cc(S(=O)(=O)[O-])cc6F)c6ccc3[nH]6)C=C5)C=C4)cc2)Nc2cc(Cl)cc(Cl)c21
REMARK SMILES IDX 18 1 17 2 16 3 14 4 15 5 13 6 11 7 12 8 96 9 89 10 94 11
REMARK SMILES IDX 88 12 90 13 93 14 95 15 91 17 92 18 10 19 1 20 2 21 3 22
REMARK SMILES IDX 4 25 5 26 9 27 6 28 8 29 7 30 19 31 20 32 21 33 22 34 23 35
REMARK SMILES IDX 87 36 24 37 86 38 25 39 26 40 27 41 80 42 28 43 85 44 79 45
REMARK SMILES IDX 81 46 29 47 84 48 78 49 77 50 30 52 64 53 43 54 63 55 44 56
REMARK SMILES IDX 47 57 62 58 82 59 45 60 46 61 61 63 83 64 48 65 31 66 32 67
REMARK SMILES IDX 41 68 33 69 34 70 40 71 42 72 35 73 36 74 37 75 38 76 39 77
REMARK SMILES IDX 65 78 66 79 75 80 67 81 68 82 74 83 76 84 69 85 70 86 71 87
REMARK SMILES IDX 72 88 73 89 49 90 50 91 59 92 51 93 52 94 58 95 60 96 53 97
REMARK SMILES IDX 54 98 55 99 56 100 57 101
REMARK H PARENT 88 16 3 23 10 24 81 51 47 62
REMARK Flexibility Score: inf
ROOT
ATOM      1  C   UNL     1       6.671  -6.423   2.418  1.00  0.00     0.275 C 
ENDROOT
BRANCH   1   2
ATOM      2  C   UNL     1       5.187  -6.789   2.417  1.00  0.00     0.274 C 
BRANCH   2   3
ATOM      3  O   UNL     1       4.412  -5.587   2.571  1.00  0.00    -0.461 OA
BRANCH   3   4
ATOM      4  C   UNL     1       3.316  -5.665   3.377  1.00  0.00     0.328 C 
ATOM      5  O   UNL     1       2.874  -6.703   3.854  1.00  0.00    -0.250 OA
BRANCH   4   6
ATOM      6  C   UNL     1       2.715  -4.276   3.625  1.00  0.00     0.192 C 
ATOM      7  C   UNL     1       1.903  -2.171   2.396  1.00  0.00     0.120 C 
ATOM      8  C   UNL     1       2.120  -3.696   2.349  1.00  0.00     0.067 C 
ATOM      9  C   UNL     1       2.263  -1.494   3.707  1.00  0.00     0.016 A 
ATOM     10  C   UNL     1       3.209  -2.115   4.535  1.00  0.00     0.043 A 
ATOM     11  C   UNL     1       1.786  -0.217   4.065  1.00  0.00     0.049 A 
ATOM     12  N   UNL     1       3.718  -3.365   4.185  1.00  0.00    -0.372 N 
ATOM     13  C   UNL     1       3.710  -1.442   5.650  1.00  0.00     0.046 A 
ATOM     14  C   UNL     1       2.258   0.430   5.208  1.00  0.00     0.041 A 
ATOM     15  Cl  UNL     1       0.620   0.628   3.109  1.00  0.00    -0.084 Cl
ATOM     16  H   UNL     1       4.663  -3.613   4.303  1.00  0.00     0.161 HD
ATOM     17  C   UNL     1       3.226  -0.184   5.992  1.00  0.00     0.044 A 
ATOM     18  Cl  UNL     1       3.832   0.610   7.391  1.00  0.00    -0.084 Cl
BRANCH   7  19
ATOM     19  N   UNL     1       2.689  -1.532   1.344  1.00  0.00    -0.331 N 
ATOM     20  O   UNL     1       0.944  -1.127  -0.061  1.00  0.00    -0.248 OA
ATOM     21  C   UNL     1       2.128  -0.982   0.235  1.00  0.00     0.319 C 
ATOM     22  N   UNL     1       2.904  -0.113  -0.474  1.00  0.00    -0.308 N 
ATOM     23  H   UNL     1       2.396   0.526  -1.024  1.00  0.00     0.171 HD
ATOM     24  H   UNL     1       3.669  -1.499   1.441  1.00  0.00     0.166 HD
BRANCH  22  25
ATOM     25  C   UNL     1       4.297   0.032  -0.560  1.00  0.00     0.042 A 
ATOM     26  C   UNL     1       4.793   1.288  -0.925  1.00  0.00     0.026 A 
ATOM     27  C   UNL     1       5.190  -1.026  -0.373  1.00  0.00     0.026 A 
ATOM     28  C   UNL     1       6.167   1.496  -1.061  1.00  0.00     0.002 A 
ATOM     29  C   UNL     1       6.564  -0.822  -0.530  1.00  0.00     0.002 A 
ATOM     30  C   UNL     1       7.053   0.439  -0.867  1.00  0.00     0.000 A 
ENDBRANCH  22  25
ENDBRANCH   7  19
ENDBRANCH   4   6
ENDBRANCH   3   4
ENDBRANCH   2   3
ENDBRANCH   1   2
BRANCH   1  31
ATOM     31  O   UNL     1       7.060  -5.913   3.710  1.00  0.00    -0.458 OA
BRANCH  31  32
ATOM     32  C   UNL     1       6.946  -4.576   3.852  1.00  0.00     0.338 C 
ATOM     33  O   UNL     1       6.584  -3.763   3.008  1.00  0.00    -0.246 OA
BRANCH  32  34
ATOM     34  C   UNL     1       7.224  -4.182   5.235  1.00  0.00     0.060 A 
ATOM     35  C   UNL     1       6.189  -4.242   6.169  1.00  0.00     0.016 A 
ATOM     36  C   UNL     1       8.434  -3.563   5.550  1.00  0.00     0.016 A 
ATOM     37  C   UNL     1       6.332  -3.589   7.393  1.00  0.00     0.010 A 
ATOM     38  C   UNL     1       8.594  -2.966   6.805  1.00  0.00     0.010 A 
ATOM     39  C   UNL     1       7.526  -2.923   7.718  1.00  0.00    -0.014 A 
BRANCH  39  40
ATOM     40  C   UNL     1       7.624  -2.125   8.974  1.00  0.00     0.031 A 
ATOM     41  C   UNL     1       7.872  -0.635   8.919  1.00  0.00     0.074 A 
ATOM     42  C   UNL     1       7.473  -2.725  10.172  1.00  0.00     0.049 A 
ATOM     43  N   UNL     1       8.114   0.199   9.900  1.00  0.00    -0.248 NA
ATOM     44  C   UNL     1       7.871  -0.004   7.589  1.00  0.00     0.031 C 
ATOM     45  C   UNL     1       7.220  -4.152  10.381  1.00  0.00     0.029 A 
ATOM     46  N   UNL     1       7.507  -2.205  11.442  1.00  0.00    -0.354 N 
ATOM     47  C   UNL     1       8.355   1.433   9.305  1.00  0.00     0.074 A 
ATOM     48  C   UNL     1       8.224   1.242   7.876  1.00  0.00     0.031 C 
ATOM     49  C   UNL     1       7.087  -4.387  11.696  1.00  0.00     0.029 A 
ATOM     50  C   UNL     1       7.303  -3.143  12.426  1.00  0.00     0.049 A 
ATOM     51  H   UNL     1       7.663  -1.252  11.630  1.00  0.00     0.167 HD
ATOM     52  C   UNL     1       8.658   2.616   9.893  1.00  0.00     0.037 A 
ATOM     53  C   UNL     1       7.309  -3.023  13.767  1.00  0.00     0.037 A 
ATOM     54  C   UNL     1       8.696   2.834  11.316  1.00  0.00     0.049 A 
ATOM     55  C   UNL     1       7.584  -1.686  14.394  1.00  0.00     0.074 A 
ATOM     56  C   UNL     1       8.942   4.014  12.000  1.00  0.00     0.029 A 
ATOM     57  N   UNL     1       8.455   1.863  12.274  1.00  0.00    -0.354 N 
ATOM     58  N   UNL     1       7.842  -0.541  13.811  1.00  0.00    -0.248 NA
ATOM     59  C   UNL     1       7.578  -1.629  15.863  1.00  0.00     0.031 C 
ATOM     60  C   UNL     1       8.864   3.752  13.373  1.00  0.00     0.029 A 
ATOM     61  C   UNL     1       8.548   2.414  13.541  1.00  0.00     0.049 A 
ATOM     62  H   UNL     1       8.248   0.920  12.082  1.00  0.00     0.167 HD
ATOM     63  C   UNL     1       8.027   0.373  14.842  1.00  0.00     0.074 A 
ATOM     64  C   UNL     1       7.828  -0.345  16.083  1.00  0.00     0.031 C 
ATOM     65  C   UNL     1       8.343   1.689  14.766  1.00  0.00     0.037 A 
BRANCH  52  66
ATOM     66  C   UNL     1       8.994   3.778   9.002  1.00  0.00     0.058 A 
ATOM     67  C   UNL     1       8.005   4.520   8.342  1.00  0.00     0.135 A 
ATOM     68  C   UNL     1      10.329   4.194   8.867  1.00  0.00     0.135 A 
ATOM     69  F   UNL     1       6.716   4.155   8.428  1.00  0.00    -0.206 F 
ATOM     70  C   UNL     1       8.328   5.631   7.568  1.00  0.00     0.059 A 
ATOM     71  C   UNL     1      10.673   5.312   8.112  1.00  0.00     0.059 A 
ATOM     72  F   UNL     1      11.314   3.517   9.479  1.00  0.00    -0.206 F 
ATOM     73  C   UNL     1       9.665   6.019   7.458  1.00  0.00     0.060 A 
BRANCH  73  74
ATOM     74  S   UNL     1      10.074   7.478   6.474  1.00  0.00     0.124 S 
ATOM     75  O   UNL     1      10.027   6.936   5.120  1.00  0.00    -0.237 OA
ATOM     76  O   UNL     1       9.003   8.406   6.822  1.00  0.00    -0.237 OA
ATOM     77  O   UNL     1      11.400   7.849   6.957  1.00  0.00    -0.744 OA
ENDBRANCH  73  74
ENDBRANCH  52  66
BRANCH  53  78
ATOM     78  C   UNL     1       7.070  -4.215  14.618  1.00  0.00     0.058 A 
ATOM     79  C   UNL     1       5.863  -4.373  15.314  1.00  0.00     0.135 A 
ATOM     80  C   UNL     1       8.045  -5.214  14.755  1.00  0.00     0.135 A 
ATOM     81  F   UNL     1       4.906  -3.438  15.217  1.00  0.00    -0.206 F 
ATOM     82  C   UNL     1       5.636  -5.473  16.134  1.00  0.00     0.059 A 
ATOM     83  C   UNL     1       7.834  -6.332  15.552  1.00  0.00     0.059 A 
ATOM     84  F   UNL     1       9.209  -5.112  14.095  1.00  0.00    -0.206 F 
ATOM     85  C   UNL     1       6.631  -6.446  16.250  1.00  0.00     0.060 A 
BRANCH  85  86
ATOM     86  S   UNL     1       6.328  -7.896  17.281  1.00  0.00     0.124 S 
ATOM     87  O   UNL     1       6.708  -7.401  18.599  1.00  0.00    -0.237 OA
ATOM     88  O   UNL     1       4.903  -8.139  17.077  1.00  0.00    -0.237 OA
ATOM     89  O   UNL     1       7.213  -8.902  16.701  1.00  0.00    -0.744 OA
ENDBRANCH  85  86
ENDBRANCH  53  78
BRANCH  65  90
ATOM     90  C   UNL     1       8.474   2.431  16.063  1.00  0.00     0.058 A 
ATOM     91  C   UNL     1       9.617   2.300  16.866  1.00  0.00     0.135 A 
ATOM     92  C   UNL     1       7.451   3.284  16.505  1.00  0.00     0.135 A 
ATOM     93  F   UNL     1      10.619   1.490  16.488  1.00  0.00    -0.206 F 
ATOM     94  C   UNL     1       9.730   2.967  18.081  1.00  0.00     0.059 A 
ATOM     95  C   UNL     1       7.550   3.974  17.709  1.00  0.00     0.059 A 
ATOM     96  F   UNL     1       6.341   3.447  15.768  1.00  0.00    -0.206 F 
ATOM     97  C   UNL     1       8.687   3.796  18.499  1.00  0.00     0.060 A 
BRANCH  97  98
ATOM     98  S   UNL     1       8.834   4.663  20.076  1.00  0.00     0.124 S 
ATOM     99  O   UNL     1       8.414   3.631  21.017  1.00  0.00    -0.237 OA
ATOM    100  O   UNL     1      10.250   5.018  20.116  1.00  0.00    -0.237 OA
ATOM    101  O   UNL     1       7.918   5.790  19.925  1.00  0.00    -0.744 OA
ENDBRANCH  97  98
ENDBRANCH  65  90
ENDBRANCH  39  40
ENDBRANCH  32  34
ENDBRANCH  31  32
ENDBRANCH   1  31
TORSDOF 16
