REMARK SMILES [NH3+][C@@H](CC(=O)OCCOC(=O)c1ccc(-c2c3nc(c(-c4c(F)cc(S(=O)(=O)[O-])cc4F)c4ccc([nH]4)c(-c4c(F)cc(S(=O)(=O)[O-])cc4F)c4nc(c(-c5c(F)cc(S(=O)(=O)[O-])cc5F)c5ccc2[nH]5)C=C4)C=C3)cc1)Cc1ccc(F)cc1
REMARK SMILES IDX 7 1 6 2 4 3 5 4 3 5 2 6 1 7 78 11 79 12 80 13 85 14 81 15
REMARK SMILES IDX 84 16 82 17 83 18 8 19 9 20 10 21 11 22 12 23 13 24 77 25
REMARK SMILES IDX 14 26 76 27 15 28 16 29 17 30 70 31 18 32 75 33 69 34 71 35
REMARK SMILES IDX 19 36 74 37 68 38 67 39 20 41 54 42 33 43 53 44 34 45 37 46
REMARK SMILES IDX 52 47 72 48 35 49 36 50 51 52 73 53 38 54 21 55 22 56 31 57
REMARK SMILES IDX 23 58 24 59 30 60 32 61 25 62 26 63 27 64 28 65 29 66 55 67
REMARK SMILES IDX 56 68 65 69 57 70 58 71 64 72 66 73 59 74 60 75 61 76 62 77
REMARK SMILES IDX 63 78 39 79 40 80 49 81 41 82 42 83 48 84 50 85 43 86 44 87
REMARK SMILES IDX 45 88 46 89 47 90
REMARK H PARENT 1 8 1 9 1 10 71 40 37 51
REMARK Flexibility Score: inf
ROOT
ATOM      1  C   UNL     1       0.610  -2.083  -3.152  1.00  0.00     0.274 C 
ENDROOT
BRANCH   1   2
ATOM      2  O   UNL     1       0.864  -1.091  -2.135  1.00  0.00    -0.462 OA
BRANCH   2   3
ATOM      3  C   UNL     1       1.400   0.079  -2.570  1.00  0.00     0.311 C 
ATOM      4  O   UNL     1       1.697   0.317  -3.736  1.00  0.00    -0.252 OA
BRANCH   3   5
ATOM      5  C   UNL     1       1.679   1.076  -1.465  1.00  0.00     0.187 C 
BRANCH   5   6
ATOM      6  C   UNL     1       1.024   0.874  -0.090  1.00  0.00     0.196 C 
BRANCH   6   7
ATOM      7  N   UNL     1       1.441  -0.396   0.526  1.00  0.00    -0.354 N 
ATOM      8  H   UNL     1       2.459  -0.455   0.529  1.00  0.00     0.344 HD
ATOM      9  H   UNL     1       1.057  -1.176  -0.008  1.00  0.00     0.344 HD
ATOM     10  H   UNL     1       1.095  -0.439   1.485  1.00  0.00     0.344 HD
ENDBRANCH   6   7
BRANCH   6  11
ATOM     11  C   UNL     1      -0.515   1.052  -0.138  1.00  0.00     0.101 C 
BRANCH  11  12
ATOM     12  C   UNL     1      -1.163   1.065   1.232  1.00  0.00    -0.042 A 
ATOM     13  C   UNL     1      -1.389   2.269   1.916  1.00  0.00     0.007 A 
ATOM     14  C   UNL     1      -1.519  -0.146   1.847  1.00  0.00     0.007 A 
ATOM     15  C   UNL     1      -1.952   2.257   3.195  1.00  0.00     0.039 A 
ATOM     16  C   UNL     1      -2.073  -0.156   3.127  1.00  0.00     0.039 A 
ATOM     17  C   UNL     1      -2.282   1.045   3.790  1.00  0.00     0.123 A 
ATOM     18  F   UNL     1      -2.805   1.034   5.024  1.00  0.00    -0.207 F 
ENDBRANCH  11  12
ENDBRANCH   6  11
ENDBRANCH   5   6
ENDBRANCH   3   5
ENDBRANCH   2   3
ENDBRANCH   1   2
BRANCH   1  19
ATOM     19  C   UNL     1      -0.857  -2.066  -3.570  1.00  0.00     0.275 C 
BRANCH  19  20
ATOM     20  O   UNL     1      -1.201  -0.759  -4.055  1.00  0.00    -0.458 OA
BRANCH  20  21
ATOM     21  C   UNL     1      -2.254  -0.161  -3.451  1.00  0.00     0.338 C 
ATOM     22  O   UNL     1      -2.977  -0.626  -2.590  1.00  0.00    -0.246 OA
BRANCH  21  23
ATOM     23  C   UNL     1      -2.430   1.180  -4.031  1.00  0.00     0.060 A 
ATOM     24  C   UNL     1      -1.401   2.123  -3.970  1.00  0.00     0.016 A 
ATOM     25  C   UNL     1      -3.655   1.502  -4.615  1.00  0.00     0.016 A 
ATOM     26  C   UNL     1      -1.596   3.400  -4.495  1.00  0.00     0.010 A 
ATOM     27  C   UNL     1      -3.829   2.762  -5.187  1.00  0.00     0.010 A 
ATOM     28  C   UNL     1      -2.803   3.720  -5.133  1.00  0.00    -0.014 A 
BRANCH  28  29
ATOM     29  C   UNL     1      -2.993   5.033  -5.795  1.00  0.00     0.031 A 
ATOM     30  C   UNL     1      -4.016   6.001  -5.275  1.00  0.00     0.074 A 
ATOM     31  C   UNL     1      -2.290   5.318  -6.908  1.00  0.00     0.049 A 
ATOM     32  N   UNL     1      -4.468   7.097  -5.825  1.00  0.00    -0.248 NA
ATOM     33  C   UNL     1      -4.613   5.690  -3.967  1.00  0.00     0.031 C 
ATOM     34  C   UNL     1      -1.251   4.467  -7.492  1.00  0.00     0.029 A 
ATOM     35  N   UNL     1      -2.361   6.390  -7.761  1.00  0.00    -0.354 N 
ATOM     36  C   UNL     1      -5.422   7.596  -4.947  1.00  0.00     0.074 A 
ATOM     37  C   UNL     1      -5.489   6.677  -3.830  1.00  0.00     0.031 C 
ATOM     38  C   UNL     1      -0.787   5.046  -8.610  1.00  0.00     0.029 A 
ATOM     39  C   UNL     1      -1.540   6.270  -8.857  1.00  0.00     0.049 A 
ATOM     40  H   UNL     1      -2.943   7.168  -7.604  1.00  0.00     0.167 HD
ATOM     41  C   UNL     1      -6.171   8.718  -5.068  1.00  0.00     0.037 A 
ATOM     42  C   UNL     1      -1.441   7.030  -9.965  1.00  0.00     0.037 A 
ATOM     43  C   UNL     1      -6.086   9.629  -6.180  1.00  0.00     0.049 A 
ATOM     44  C   UNL     1      -2.341   8.223 -10.116  1.00  0.00     0.074 A 
ATOM     45  C   UNL     1      -6.771  10.816  -6.377  1.00  0.00     0.029 A 
ATOM     46  N   UNL     1      -5.271   9.450  -7.289  1.00  0.00    -0.354 N 
ATOM     47  N   UNL     1      -3.240   8.685  -9.280  1.00  0.00    -0.248 NA
ATOM     48  C   UNL     1      -2.231   8.983 -11.368  1.00  0.00     0.031 C 
ATOM     49  C   UNL     1      -6.401  11.332  -7.625  1.00  0.00     0.029 A 
ATOM     50  C   UNL     1      -5.459  10.486  -8.189  1.00  0.00     0.049 A 
ATOM     51  H   UNL     1      -4.651   8.697  -7.417  1.00  0.00     0.167 HD
ATOM     52  C   UNL     1      -3.805   9.790  -9.904  1.00  0.00     0.074 A 
ATOM     53  C   UNL     1      -3.133   9.938 -11.180  1.00  0.00     0.031 C 
ATOM     54  C   UNL     1      -4.794  10.605  -9.463  1.00  0.00     0.037 A 
BRANCH  41  55
ATOM     55  C   UNL     1      -7.170   9.006  -3.983  1.00  0.00     0.058 A 
ATOM     56  C   UNL     1      -6.775   9.477  -2.721  1.00  0.00     0.135 A 
ATOM     57  C   UNL     1      -8.544   8.835  -4.218  1.00  0.00     0.135 A 
ATOM     58  F   UNL     1      -5.473   9.644  -2.440  1.00  0.00    -0.206 F 
ATOM     59  C   UNL     1      -7.705   9.744  -1.722  1.00  0.00     0.059 A 
ATOM     60  C   UNL     1      -9.493   9.115  -3.240  1.00  0.00     0.059 A 
ATOM     61  F   UNL     1      -8.974   8.385  -5.408  1.00  0.00    -0.206 F 
ATOM     62  C   UNL     1      -9.063   9.555  -1.989  1.00  0.00     0.060 A 
BRANCH  62  63
ATOM     63  S   UNL     1     -10.259   9.898  -0.681  1.00  0.00     0.124 S 
ATOM     64  O   UNL     1     -10.087   8.733   0.182  1.00  0.00    -0.237 OA
ATOM     65  O   UNL     1      -9.778  11.164  -0.138  1.00  0.00    -0.237 OA
ATOM     66  O   UNL     1     -11.531   9.969  -1.394  1.00  0.00    -0.744 OA
ENDBRANCH  62  63
ENDBRANCH  41  55
BRANCH  42  67
ATOM     67  C   UNL     1      -0.483   6.647 -11.033  1.00  0.00     0.058 A 
ATOM     68  C   UNL     1       0.693   7.380 -11.240  1.00  0.00     0.135 A 
ATOM     69  C   UNL     1      -0.702   5.514 -11.833  1.00  0.00     0.135 A 
ATOM     70  F   UNL     1       0.938   8.476 -10.507  1.00  0.00    -0.206 F 
ATOM     71  C   UNL     1       1.625   7.000 -12.200  1.00  0.00     0.059 A 
ATOM     72  C   UNL     1       0.225   5.102 -12.784  1.00  0.00     0.059 A 
ATOM     73  F   UNL     1      -1.809   4.775 -11.664  1.00  0.00    -0.206 F 
ATOM     74  C   UNL     1       1.386   5.855 -12.963  1.00  0.00     0.060 A 
BRANCH  74  75
ATOM     75  S   UNL     1       2.640   5.321 -14.148  1.00  0.00     0.124 S 
ATOM     76  O   UNL     1       2.425   6.258 -15.244  1.00  0.00    -0.237 OA
ATOM     77  O   UNL     1       3.875   5.496 -13.391  1.00  0.00    -0.237 OA
ATOM     78  O   UNL     1       2.273   3.934 -14.420  1.00  0.00    -0.744 OA
ENDBRANCH  74  75
ENDBRANCH  42  67
BRANCH  54  79
ATOM     79  C   UNL     1      -5.213  11.725 -10.369  1.00  0.00     0.058 A 
ATOM     80  C   UNL     1      -6.027  11.490 -11.487  1.00  0.00     0.135 A 
ATOM     81  C   UNL     1      -4.839  13.049 -10.092  1.00  0.00     0.135 A 
ATOM     82  F   UNL     1      -6.401  10.239 -11.800  1.00  0.00    -0.206 F 
ATOM     83  C   UNL     1      -6.449  12.530 -12.309  1.00  0.00     0.059 A 
ATOM     84  C   UNL     1      -5.265  14.107 -10.889  1.00  0.00     0.059 A 
ATOM     85  F   UNL     1      -4.065  13.325  -9.031  1.00  0.00    -0.206 F 
ATOM     86  C   UNL     1      -6.064  13.836 -12.000  1.00  0.00     0.060 A 
BRANCH  86  87
ATOM     87  S   UNL     1      -6.652  15.184 -13.048  1.00  0.00     0.124 S 
ATOM     88  O   UNL     1      -5.792  15.042 -14.218  1.00  0.00    -0.237 OA
ATOM     89  O   UNL     1      -8.056  14.838 -13.247  1.00  0.00    -0.237 OA
ATOM     90  O   UNL     1      -6.415  16.373 -12.235  1.00  0.00    -0.744 OA
ENDBRANCH  86  87
ENDBRANCH  54  79
ENDBRANCH  28  29
ENDBRANCH  21  23
ENDBRANCH  20  21
ENDBRANCH  19  20
ENDBRANCH   1  19
TORSDOF 18
