REMARK SMILES O=C(COc1nc(NCc2cccc(Cl)c2)nc2c1CCC2)OCCOC(=O)c1ccc(-c2c3nc(c(-c4c(F)cc(S(=O)(=O)[O-])cc4F)c4ccc([nH]4)c(-c4c(F)cc(S(=O)(=O)[O-])cc4F)c4nc(c(-c5c(F)cc(S(=O)(=O)[O-])cc5F)c5ccc2[nH]5)C=C4)C=C3)cc1
REMARK SMILES IDX 24 1 23 2 2 3 1 4 3 5 4 6 5 7 6 8 19 9 7 10 18 11 20 12
REMARK SMILES IDX 17 13 22 14 21 15 8 16 9 18 10 19 11 20 16 21 12 22 14 23
REMARK SMILES IDX 13 24 15 25 25 26 26 27 27 28 28 29 29 30 30 31 94 32 31 33
REMARK SMILES IDX 93 34 32 35 33 36 34 37 87 38 35 39 92 40 86 41 88 42 36 43
REMARK SMILES IDX 91 44 85 45 84 46 37 48 71 49 50 50 70 51 51 52 54 53 69 54
REMARK SMILES IDX 89 55 52 56 53 57 68 59 90 60 55 61 38 62 39 63 48 64 40 65
REMARK SMILES IDX 41 66 47 67 49 68 42 69 43 70 44 71 45 72 46 73 72 74 73 75
REMARK SMILES IDX 82 76 74 77 75 78 81 79 83 80 76 81 77 82 78 83 79 84 80 85
REMARK SMILES IDX 56 86 57 87 66 88 58 89 59 90 65 91 67 92 60 93 61 94 62 95
REMARK SMILES IDX 63 96 64 97
REMARK H PARENT 8 17 88 47 54 58
REMARK Flexibility Score: inf
ROOT
ATOM      1  C   UNL     1       4.501  -1.079   0.245  1.00  0.00     0.274 C 
ENDROOT
BRANCH   1   2
ATOM      2  O   UNL     1       3.147  -0.887   0.704  1.00  0.00    -0.460 OA
BRANCH   2   3
ATOM      3  C   UNL     1       2.389   0.194   0.393  1.00  0.00     0.344 C 
ATOM      4  O   UNL     1       1.169   0.153   0.545  1.00  0.00    -0.248 OA
BRANCH   3   5
ATOM      5  C   UNL     1       3.087   1.430  -0.179  1.00  0.00     0.353 C 
BRANCH   5   6
ATOM      6  O   UNL     1       4.020   2.098   0.657  1.00  0.00    -0.465 OA
BRANCH   6   7
ATOM      7  C   UNL     1       3.325   2.971   1.451  1.00  0.00     0.222 A 
ATOM      8  N   UNL     1       2.390   2.449   2.255  1.00  0.00    -0.177 NA
ATOM      9  C   UNL     1       3.558   4.303   1.348  1.00  0.00     0.036 A 
ATOM     10  C   UNL     1       1.620   3.308   2.941  1.00  0.00     0.226 A 
ATOM     11  C   UNL     1       2.740   5.100   2.106  1.00  0.00     0.053 A 
ATOM     12  C   UNL     1       4.445   5.082   0.450  1.00  0.00     0.043 C 
ATOM     13  N   UNL     1       1.769   4.643   2.912  1.00  0.00    -0.218 NA
ATOM     14  C   UNL     1       2.989   6.550   1.794  1.00  0.00     0.057 C 
ATOM     15  C   UNL     1       4.360   6.471   1.100  1.00  0.00     0.011 C 
BRANCH  10  16
ATOM     16  N   UNL     1       0.624   2.713   3.655  1.00  0.00    -0.350 N 
ATOM     17  H   UNL     1       0.548   1.733   3.611  1.00  0.00     0.164 HD
BRANCH  16  18
ATOM     18  C   UNL     1      -0.321   3.421   4.467  1.00  0.00     0.152 C 
BRANCH  18  19
ATOM     19  C   UNL     1      -1.742   3.184   4.005  1.00  0.00    -0.027 A 
ATOM     20  C   UNL     1      -2.268   1.887   3.872  1.00  0.00     0.005 A 
ATOM     21  C   UNL     1      -2.588   4.278   3.759  1.00  0.00     0.026 A 
ATOM     22  C   UNL     1      -3.600   1.690   3.497  1.00  0.00     0.002 A 
ATOM     23  C   UNL     1      -3.920   4.075   3.398  1.00  0.00     0.041 A 
ATOM     24  C   UNL     1      -4.429   2.785   3.265  1.00  0.00     0.020 A 
ATOM     25  Cl  UNL     1      -4.952   5.428   3.138  1.00  0.00    -0.084 Cl
ENDBRANCH  18  19
ENDBRANCH  16  18
ENDBRANCH  10  16
ENDBRANCH   6   7
ENDBRANCH   5   6
ENDBRANCH   3   5
ENDBRANCH   2   3
ENDBRANCH   1   2
BRANCH   1  26
ATOM     26  C   UNL     1       4.529  -1.819  -1.096  1.00  0.00     0.275 C 
BRANCH  26  27
ATOM     27  O   UNL     1       4.068  -0.957  -2.154  1.00  0.00    -0.458 OA
BRANCH  27  28
ATOM     28  C   UNL     1       2.777  -1.123  -2.543  1.00  0.00     0.338 C 
ATOM     29  O   UNL     1       2.013  -1.996  -2.171  1.00  0.00    -0.246 OA
BRANCH  28  30
ATOM     30  C   UNL     1       2.369   0.054  -3.346  1.00  0.00     0.060 A 
ATOM     31  C   UNL     1       1.111   0.623  -3.107  1.00  0.00     0.016 A 
ATOM     32  C   UNL     1       3.223   0.615  -4.301  1.00  0.00     0.016 A 
ATOM     33  C   UNL     1       0.693   1.735  -3.844  1.00  0.00     0.010 A 
ATOM     34  C   UNL     1       2.800   1.720  -5.044  1.00  0.00     0.010 A 
ATOM     35  C   UNL     1       1.523   2.269  -4.840  1.00  0.00    -0.014 A 
BRANCH  35  36
ATOM     36  C   UNL     1       1.012   3.292  -5.784  1.00  0.00     0.031 A 
ATOM     37  C   UNL     1       0.462   2.839  -7.108  1.00  0.00     0.074 A 
ATOM     38  C   UNL     1       1.041   4.602  -5.484  1.00  0.00     0.049 A 
ATOM     39  N   UNL     1       0.033   3.551  -8.118  1.00  0.00    -0.248 NA
ATOM     40  C   UNL     1       0.389   1.385  -7.317  1.00  0.00     0.031 C 
ATOM     41  C   UNL     1       1.494   5.171  -4.217  1.00  0.00     0.029 A 
ATOM     42  N   UNL     1       0.681   5.693  -6.236  1.00  0.00    -0.354 N 
ATOM     43  C   UNL     1      -0.378   2.633  -9.077  1.00  0.00     0.074 A 
ATOM     44  C   UNL     1      -0.102   1.314  -8.545  1.00  0.00     0.031 C 
ATOM     45  C   UNL     1       1.385   6.510  -4.279  1.00  0.00     0.029 A 
ATOM     46  C   UNL     1       0.886   6.893  -5.601  1.00  0.00     0.049 A 
ATOM     47  H   UNL     1       0.311   5.622  -7.146  1.00  0.00     0.167 HD
ATOM     48  C   UNL     1      -0.944   2.862 -10.286  1.00  0.00     0.037 A 
ATOM     49  C   UNL     1       0.701   8.155  -6.038  1.00  0.00     0.037 A 
ATOM     50  C   UNL     1      -1.181   4.171 -10.835  1.00  0.00     0.049 A 
ATOM     51  C   UNL     1       0.176   8.395  -7.429  1.00  0.00     0.074 A 
ATOM     52  C   UNL     1      -1.703   4.506 -12.072  1.00  0.00     0.029 A 
ATOM     53  N   UNL     1      -0.906   5.364 -10.183  1.00  0.00    -0.354 N 
ATOM     54  N   UNL     1      -0.174   7.520  -8.342  1.00  0.00    -0.248 NA
ATOM     55  C   UNL     1       0.023   9.795  -7.849  1.00  0.00     0.031 C 
ATOM     56  C   UNL     1      -1.710   5.902 -12.182  1.00  0.00     0.029 A 
ATOM     57  C   UNL     1      -1.236   6.437 -10.995  1.00  0.00     0.049 A 
ATOM     58  H   UNL     1      -0.531   5.437  -9.276  1.00  0.00     0.167 HD
ATOM     59  C   UNL     1      -0.619   8.262  -9.432  1.00  0.00     0.074 A 
ATOM     60  C   UNL     1      -0.490   9.658  -9.065  1.00  0.00     0.031 C 
ATOM     61  C   UNL     1      -1.099   7.825 -10.624  1.00  0.00     0.037 A 
BRANCH  48  62
ATOM     62  C   UNL     1      -1.312   1.653 -11.098  1.00  0.00     0.058 A 
ATOM     63  C   UNL     1      -2.389   0.827 -10.735  1.00  0.00     0.135 A 
ATOM     64  C   UNL     1      -0.564   1.294 -12.230  1.00  0.00     0.135 A 
ATOM     65  F   UNL     1      -3.123   1.114  -9.648  1.00  0.00    -0.206 F 
ATOM     66  C   UNL     1      -2.683  -0.336 -11.438  1.00  0.00     0.059 A 
ATOM     67  C   UNL     1      -0.857   0.149 -12.965  1.00  0.00     0.059 A 
ATOM     68  F   UNL     1       0.478   2.046 -12.619  1.00  0.00    -0.206 F 
ATOM     69  C   UNL     1      -1.904  -0.672 -12.546  1.00  0.00     0.060 A 
BRANCH  69  70
ATOM     70  S   UNL     1      -2.266  -2.208 -13.422  1.00  0.00     0.124 S 
ATOM     71  O   UNL     1      -1.754  -3.203 -12.484  1.00  0.00    -0.237 OA
ATOM     72  O   UNL     1      -3.717  -2.156 -13.561  1.00  0.00    -0.237 OA
ATOM     73  O   UNL     1      -1.515  -2.075 -14.666  1.00  0.00    -0.744 OA
ENDBRANCH  69  70
ENDBRANCH  48  62
BRANCH  49  74
ATOM     74  C   UNL     1       0.995   9.293  -5.129  1.00  0.00     0.058 A 
ATOM     75  C   UNL     1      -0.045  10.028  -4.543  1.00  0.00     0.135 A 
ATOM     76  C   UNL     1       2.313   9.633  -4.788  1.00  0.00     0.135 A 
ATOM     77  F   UNL     1      -1.320   9.751  -4.855  1.00  0.00    -0.206 F 
ATOM     78  C   UNL     1       0.209  11.051  -3.636  1.00  0.00     0.059 A 
ATOM     79  C   UNL     1       2.592  10.640  -3.870  1.00  0.00     0.059 A 
ATOM     80  F   UNL     1       3.342   8.955  -5.320  1.00  0.00    -0.206 F 
ATOM     81  C   UNL     1       1.532  11.340  -3.294  1.00  0.00     0.060 A 
BRANCH  81  82
ATOM     82  S   UNL     1       1.844  12.591  -2.030  1.00  0.00     0.124 S 
ATOM     83  O   UNL     1       1.485  13.818  -2.732  1.00  0.00    -0.237 OA
ATOM     84  O   UNL     1       0.940  12.176  -0.963  1.00  0.00    -0.237 OA
ATOM     85  O   UNL     1       3.264  12.423  -1.736  1.00  0.00    -0.744 OA
ENDBRANCH  81  82
ENDBRANCH  49  74
BRANCH  61  86
ATOM     86  C   UNL     1      -1.556   8.864 -11.612  1.00  0.00     0.058 A 
ATOM     87  C   UNL     1      -0.646   9.663 -12.323  1.00  0.00     0.135 A 
ATOM     88  C   UNL     1      -2.924   9.035 -11.880  1.00  0.00     0.135 A 
ATOM     89  F   UNL     1       0.673   9.543 -12.103  1.00  0.00    -0.206 F 
ATOM     90  C   UNL     1      -1.078  10.614 -13.243  1.00  0.00     0.059 A 
ATOM     91  C   UNL     1      -3.377   9.962 -12.814  1.00  0.00     0.059 A 
ATOM     92  F   UNL     1      -3.837   8.288 -11.239  1.00  0.00    -0.206 F 
ATOM     93  C   UNL     1      -2.446  10.758 -13.480  1.00  0.00     0.060 A 
BRANCH  93  94
ATOM     94  S   UNL     1      -2.993  11.986 -14.686  1.00  0.00     0.124 S 
ATOM     95  O   UNL     1      -2.780  13.231 -13.954  1.00  0.00    -0.237 OA
ATOM     96  O   UNL     1      -2.089  11.748 -15.807  1.00  0.00    -0.237 OA
ATOM     97  O   UNL     1      -4.388  11.630 -14.927  1.00  0.00    -0.744 OA
ENDBRANCH  93  94
ENDBRANCH  61  86
ENDBRANCH  35  36
ENDBRANCH  28  30
ENDBRANCH  27  28
ENDBRANCH  26  27
ENDBRANCH   1  26
TORSDOF 19
