REMARK SMILES C[C@H](O)[C@H](C)[N@H+]1Cc2ccccc2C[C@@H]1C(=O)OCCOC(=O)c1ccc(-c2c3nc(c(-c4c(F)cc(S(=O)(=O)[O-])cc4F)c4ccc([nH]4)c(-c4c(F)cc(S(=O)(=O)[O-])cc4F)c4nc(c(-c5c(F)cc(S(=O)(=O)[O-])cc5F)c5ccc2[nH]5)C=C4)C=C3)cc1
REMARK SMILES IDX 19 1 18 2 16 3 17 4 15 5 6 6 7 7 8 9 14 10 9 11 13 12 10 13
REMARK SMILES IDX 12 14 11 15 4 16 5 17 2 18 1 19 3 20 20 22 21 23 22 24 23 25
REMARK SMILES IDX 24 26 25 27 89 28 26 29 88 30 27 31 28 32 29 33 82 34 30 35
REMARK SMILES IDX 87 36 81 37 83 38 31 39 86 40 80 41 79 42 32 44 66 45 45 46
REMARK SMILES IDX 65 47 46 48 49 49 64 50 84 51 47 52 48 53 63 55 85 56 50 57
REMARK SMILES IDX 33 58 34 59 43 60 35 61 36 62 42 63 44 64 37 65 38 66 39 67
REMARK SMILES IDX 40 68 41 69 67 70 68 71 77 72 69 73 70 74 76 75 78 76 71 77
REMARK SMILES IDX 72 78 73 79 74 80 75 81 51 82 52 83 61 84 53 85 54 86 60 87
REMARK SMILES IDX 62 88 55 89 56 90 57 91 58 92 59 93
REMARK H PARENT 6 8 3 21 83 43 49 54
REMARK Flexibility Score: inf
ROOT
ATOM      1  C   UNL     1      -2.801  -0.073   5.612  1.00  0.00     0.274 C 
ENDROOT
BRANCH   1   2
ATOM      2  O   UNL     1      -2.502   0.294   4.239  1.00  0.00    -0.458 OA
BRANCH   2   3
ATOM      3  C   UNL     1      -3.554   0.749   3.491  1.00  0.00     0.365 C 
ATOM      4  O   UNL     1      -4.703   0.807   3.931  1.00  0.00    -0.245 OA
BRANCH   3   5
ATOM      5  C   UNL     1      -3.212   1.143   2.017  1.00  0.00     0.300 C 
ATOM      6  N   UNL     1      -1.734   1.355   1.796  1.00  0.00    -0.315 N 
ATOM      7  C   UNL     1      -1.342   2.737   1.411  1.00  0.00     0.300 C 
ATOM      8  H   UNL     1      -1.404   1.189   2.747  1.00  0.00     0.349 HD
ATOM      9  C   UNL     1      -2.063   3.758   2.221  1.00  0.00     0.010 A 
ATOM     10  C   UNL     1      -4.189   2.275   1.539  1.00  0.00     0.113 C 
ATOM     11  C   UNL     1      -1.317   4.810   3.465  1.00  0.00     0.010 A 
ATOM     12  C   UNL     1      -3.803   3.569   2.208  1.00  0.00    -0.033 A 
ATOM     13  C   UNL     1      -2.555   5.712   4.801  1.00  0.00     0.001 A 
ATOM     14  C   UNL     1      -4.895   4.378   3.342  1.00  0.00     0.004 A 
ATOM     15  C   UNL     1      -4.326   5.421   4.639  1.00  0.00     0.000 A 
BRANCH   6  16
ATOM     16  C   UNL     1      -1.012   0.351   0.950  1.00  0.00     0.210 C 
ATOM     17  C   UNL     1       0.507   0.575   1.158  1.00  0.00     0.078 C 
BRANCH  16  18
ATOM     18  C   UNL     1      -1.389  -1.165   1.143  1.00  0.00     0.169 C 
ATOM     19  C   UNL     1      -0.538  -2.147   0.337  1.00  0.00     0.045 C 
BRANCH  18  20
ATOM     20  O   UNL     1      -2.722  -1.445   0.681  1.00  0.00    -0.387 OA
ATOM     21  H   UNL     1      -2.769  -1.298  -0.277  1.00  0.00     0.211 HD
ENDBRANCH  18  20
ENDBRANCH  16  18
ENDBRANCH   6  16
ENDBRANCH   3   5
ENDBRANCH   2   3
ENDBRANCH   1   2
BRANCH   1  22
ATOM     22  C   UNL     1      -1.815   0.567   6.589  1.00  0.00     0.275 C 
BRANCH  22  23
ATOM     23  O   UNL     1      -1.982   1.987   6.517  1.00  0.00    -0.458 OA
BRANCH  23  24
ATOM     24  C   UNL     1      -1.032   2.602   5.792  1.00  0.00     0.338 C 
ATOM     25  O   UNL     1       0.037   2.161   5.406  1.00  0.00    -0.246 OA
BRANCH  24  26
ATOM     26  C   UNL     1      -1.522   3.914   5.401  1.00  0.00     0.060 A 
ATOM     27  C   UNL     1      -2.839   3.954   4.196  1.00  0.00     0.016 A 
ATOM     28  C   UNL     1      -0.430   5.272   5.502  1.00  0.00     0.016 A 
ATOM     29  C   UNL     1      -2.975   5.562   2.963  1.00  0.00     0.010 A 
ATOM     30  C   UNL     1      -0.559   6.699   4.465  1.00  0.00     0.010 A 
ATOM     31  C   UNL     1      -1.772   6.892   3.191  1.00  0.00    -0.014 A 
BRANCH  31  32
ATOM     32  C   UNL     1      -1.796   8.185   2.464  1.00  0.00     0.031 A 
ATOM     33  C   UNL     1      -0.518   8.778   1.931  1.00  0.00     0.074 A 
ATOM     34  C   UNL     1      -2.943   8.889   2.466  1.00  0.00     0.049 A 
ATOM     35  N   UNL     1      -0.282   9.999   1.526  1.00  0.00    -0.248 NA
ATOM     36  C   UNL     1       0.670   7.907   1.897  1.00  0.00     0.031 C 
ATOM     37  C   UNL     1      -4.194   8.431   3.055  1.00  0.00     0.029 A 
ATOM     38  N   UNL     1      -3.257  10.142   2.011  1.00  0.00    -0.354 N 
ATOM     39  C   UNL     1       1.079  10.055   1.236  1.00  0.00     0.074 A 
ATOM     40  C   UNL     1       1.630   8.758   1.555  1.00  0.00     0.031 C 
ATOM     41  C   UNL     1      -5.151   9.344   2.900  1.00  0.00     0.029 A 
ATOM     42  C   UNL     1      -4.557  10.511   2.288  1.00  0.00     0.049 A 
ATOM     43  H   UNL     1      -2.619  10.722   1.535  1.00  0.00     0.167 HD
ATOM     44  C   UNL     1       1.786  11.100   0.736  1.00  0.00     0.037 A 
ATOM     45  C   UNL     1      -5.201  11.677   2.125  1.00  0.00     0.037 A 
ATOM     46  C   UNL     1       1.167  12.363   0.407  1.00  0.00     0.049 A 
ATOM     47  C   UNL     1      -4.414  12.799   1.538  1.00  0.00     0.074 A 
ATOM     48  C   UNL     1       1.734  13.481  -0.175  1.00  0.00     0.029 A 
ATOM     49  N   UNL     1      -0.173  12.667   0.633  1.00  0.00    -0.354 N 
ATOM     50  N   UNL     1      -3.137  12.822   1.235  1.00  0.00    -0.248 NA
ATOM     51  C   UNL     1      -5.135  14.041   1.265  1.00  0.00     0.031 C 
ATOM     52  C   UNL     1       0.753  14.475  -0.253  1.00  0.00     0.029 A 
ATOM     53  C   UNL     1      -0.446  13.959   0.217  1.00  0.00     0.049 A 
ATOM     54  H   UNL     1      -0.832  12.053   1.031  1.00  0.00     0.167 HD
ATOM     55  C   UNL     1      -2.898  14.079   0.712  1.00  0.00     0.074 A 
ATOM     56  C   UNL     1      -4.174  14.777   0.724  1.00  0.00     0.031 C 
ATOM     57  C   UNL     1      -1.734  14.611   0.264  1.00  0.00     0.037 A 
BRANCH  44  58
ATOM     58  C   UNL     1       3.273  10.931   0.513  1.00  0.00     0.058 A 
ATOM     59  C   UNL     1       3.792  10.029  -0.432  1.00  0.00     0.135 A 
ATOM     60  C   UNL     1       4.202  11.716   1.222  1.00  0.00     0.135 A 
ATOM     61  F   UNL     1       2.965   9.243  -1.140  1.00  0.00    -0.206 F 
ATOM     62  C   UNL     1       5.163   9.887  -0.642  1.00  0.00     0.059 A 
ATOM     63  C   UNL     1       5.577  11.615   1.005  1.00  0.00     0.059 A 
ATOM     64  F   UNL     1       3.778  12.600   2.140  1.00  0.00    -0.206 F 
ATOM     65  C   UNL     1       6.049  10.688   0.080  1.00  0.00     0.060 A 
BRANCH  65  66
ATOM     66  S   UNL     1       7.821  10.501  -0.221  1.00  0.00     0.124 S 
ATOM     67  O   UNL     1       8.078   9.181   0.347  1.00  0.00    -0.237 OA
ATOM     68  O   UNL     1       7.900  10.589  -1.676  1.00  0.00    -0.237 OA
ATOM     69  O   UNL     1       8.412  11.620   0.505  1.00  0.00    -0.744 OA
ENDBRANCH  65  66
ENDBRANCH  44  58
BRANCH  45  70
ATOM     70  C   UNL     1      -6.634  11.791   2.511  1.00  0.00     0.058 A 
ATOM     71  C   UNL     1      -7.635  11.881   1.534  1.00  0.00     0.135 A 
ATOM     72  C   UNL     1      -7.044  11.692   3.853  1.00  0.00     0.135 A 
ATOM     73  F   UNL     1      -7.300  11.962   0.238  1.00  0.00    -0.206 F 
ATOM     74  C   UNL     1      -8.986  11.878   1.870  1.00  0.00     0.059 A 
ATOM     75  C   UNL     1      -8.388  11.653   4.211  1.00  0.00     0.059 A 
ATOM     76  F   UNL     1      -6.130  11.561   4.828  1.00  0.00    -0.206 F 
ATOM     77  C   UNL     1      -9.353  11.757   3.212  1.00  0.00     0.060 A 
BRANCH  77  78
ATOM     78  S   UNL     1     -11.110  11.704   3.627  1.00  0.00     0.124 S 
ATOM     79  O   UNL     1     -11.519  13.075   3.344  1.00  0.00    -0.237 OA
ATOM     80  O   UNL     1     -11.611  10.686   2.708  1.00  0.00    -0.237 OA
ATOM     81  O   UNL     1     -11.113  11.323   5.036  1.00  0.00    -0.744 OA
ENDBRANCH  77  78
ENDBRANCH  45  70
BRANCH  57  82
ATOM     82  C   UNL     1      -1.824  16.004  -0.278  1.00  0.00     0.058 A 
ATOM     83  C   UNL     1      -2.029  17.108   0.562  1.00  0.00     0.135 A 
ATOM     84  C   UNL     1      -1.697  16.228  -1.657  1.00  0.00     0.135 A 
ATOM     85  F   UNL     1      -2.176  16.935   1.886  1.00  0.00    -0.206 F 
ATOM     86  C   UNL     1      -2.141  18.391   0.047  1.00  0.00     0.059 A 
ATOM     87  C   UNL     1      -1.767  17.507  -2.189  1.00  0.00     0.059 A 
ATOM     88  F   UNL     1      -1.497  15.200  -2.496  1.00  0.00    -0.206 F 
ATOM     89  C   UNL     1      -2.005  18.579  -1.330  1.00  0.00     0.060 A 
BRANCH  89  90
ATOM     90  S   UNL     1      -2.126  20.255  -1.982  1.00  0.00     0.124 S 
ATOM     91  O   UNL     1      -3.552  20.524  -1.834  1.00  0.00    -0.237 OA
ATOM     92  O   UNL     1      -1.243  20.998  -1.088  1.00  0.00    -0.237 OA
ATOM     93  O   UNL     1      -1.650  20.120  -3.355  1.00  0.00    -0.744 OA
ENDBRANCH  89  90
ENDBRANCH  57  82
ENDBRANCH  31  32
ENDBRANCH  24  26
ENDBRANCH  23  24
ENDBRANCH  22  23
ENDBRANCH   1  22
TORSDOF 17
