REMARK SMILES O=C(COc1ccc(C(=O)/C=C/c2ccc(Cl)c([N+](=O)[O-])c2)cc1)OCCOC(=O)c1ccc(-c2c3nc(c(-c4c(F)cc(S(=O)(=O)[O-])cc4F)c4ccc([nH]4)c(-c4c(F)cc(S(=O)(=O)[O-])cc4F)c4nc(c(-c5c(F)cc(S(=O)(=O)[O-])cc5F)c5ccc2[nH]5)C=C4)C=C3)cc1
REMARK SMILES IDX 25 1 2 2 1 3 3 4 4 5 5 6 6 7 24 8 7 9 23 10 8 11 9 12 10 13
REMARK SMILES IDX 11 14 12 15 13 16 14 17 22 18 15 19 18 20 16 21 17 22 19 23
REMARK SMILES IDX 20 24 21 25 26 26 27 27 28 28 29 29 30 30 31 31 32 32 96 33
REMARK SMILES IDX 33 34 95 35 34 36 35 37 36 38 89 39 37 40 94 41 88 42 90 43
REMARK SMILES IDX 38 44 93 45 87 46 86 47 39 49 73 50 52 51 72 52 53 53 56 54
REMARK SMILES IDX 71 55 91 56 54 57 55 58 70 60 92 61 57 62 40 63 41 64 50 65
REMARK SMILES IDX 42 66 43 67 49 68 51 69 44 70 45 71 46 72 47 73 48 74 74 75
REMARK SMILES IDX 75 76 84 77 76 78 77 79 83 80 85 81 78 82 79 83 80 84 81 85
REMARK SMILES IDX 82 86 58 87 59 88 68 89 60 90 61 91 67 92 69 93 62 94 63 95
REMARK SMILES IDX 64 96 65 97 66 98
REMARK H PARENT 90 48 56 59
REMARK Flexibility Score: inf
ROOT
ATOM      1  O   UNL     1       3.315   0.123   0.776  1.00  0.00    -0.460 OA
ENDROOT
BRANCH   1   2
ATOM      2  C   UNL     1       2.666   0.548  -0.337  1.00  0.00     0.344 C 
ATOM      3  O   UNL     1       1.454   0.759  -0.299  1.00  0.00    -0.248 OA
BRANCH   2   4
ATOM      4  C   UNL     1       3.482   0.813  -1.600  1.00  0.00     0.351 C 
BRANCH   4   5
ATOM      5  O   UNL     1       4.451   1.855  -1.479  1.00  0.00    -0.482 OA
BRANCH   5   6
ATOM      6  C   UNL     1       3.828   3.069  -1.569  1.00  0.00     0.120 A 
ATOM      7  C   UNL     1       3.713   3.695  -2.808  1.00  0.00     0.047 A 
ATOM      8  C   UNL     1       3.328   3.663  -0.413  1.00  0.00     0.047 A 
ATOM      9  C   UNL     1       3.003   4.894  -2.906  1.00  0.00     0.016 A 
ATOM     10  C   UNL     1       2.624   4.859  -0.510  1.00  0.00     0.016 A 
ATOM     11  C   UNL     1       2.418   5.454  -1.763  1.00  0.00     0.022 A 
BRANCH  11  12
ATOM     12  C   UNL     1       1.621   6.699  -1.902  1.00  0.00     0.185 C 
ATOM     13  O   UNL     1       1.948   7.556  -2.715  1.00  0.00    -0.289 OA
BRANCH  12  14
ATOM     14  C   UNL     1       0.447   6.942  -1.017  1.00  0.00     0.053 C 
ATOM     15  C   UNL     1      -0.323   5.976  -0.494  1.00  0.00     0.012 C 
BRANCH  15  16
ATOM     16  C   UNL     1      -1.396   6.276   0.451  1.00  0.00    -0.019 A 
ATOM     17  C   UNL     1      -1.222   5.940   1.797  1.00  0.00     0.010 A 
ATOM     18  C   UNL     1      -2.584   6.888   0.043  1.00  0.00     0.095 A 
ATOM     19  C   UNL     1      -2.216   6.235   2.733  1.00  0.00     0.028 A 
ATOM     20  C   UNL     1      -3.591   7.173   0.986  1.00  0.00     0.288 A 
ATOM     21  C   UNL     1      -3.406   6.861   2.340  1.00  0.00     0.118 A 
ATOM     22  Cl  UNL     1      -4.511   7.241   3.613  1.00  0.00    -0.077 Cl
BRANCH  20  23
ATOM     23  N   UNL     1      -4.813   7.806   0.492  1.00  0.00     0.064 N 
ATOM     24  O   UNL     1      -5.882   7.566   1.067  1.00  0.00    -0.258 OA
ATOM     25  O   UNL     1      -4.708   8.528  -0.510  1.00  0.00    -0.258 OA
ENDBRANCH  20  23
ENDBRANCH  15  16
ENDBRANCH  12  14
ENDBRANCH  11  12
ENDBRANCH   5   6
ENDBRANCH   4   5
ENDBRANCH   2   4
ENDBRANCH   1   2
BRANCH   1  26
ATOM     26  C   UNL     1       4.657  -0.410   0.776  1.00  0.00     0.274 C 
BRANCH  26  27
ATOM     27  C   UNL     1       4.637  -1.934   0.643  1.00  0.00     0.275 C 
BRANCH  27  28
ATOM     28  O   UNL     1       4.184  -2.296  -0.673  1.00  0.00    -0.458 OA
BRANCH  28  29
ATOM     29  C   UNL     1       2.879  -2.656  -0.775  1.00  0.00     0.338 C 
ATOM     30  O   UNL     1       2.100  -2.837   0.143  1.00  0.00    -0.246 OA
BRANCH  29  31
ATOM     31  C   UNL     1       2.485  -2.579  -2.201  1.00  0.00     0.060 A 
ATOM     32  C   UNL     1       1.232  -2.037  -2.515  1.00  0.00     0.016 A 
ATOM     33  C   UNL     1       3.352  -2.985  -3.221  1.00  0.00     0.016 A 
ATOM     34  C   UNL     1       0.834  -1.925  -3.849  1.00  0.00     0.010 A 
ATOM     35  C   UNL     1       2.951  -2.874  -4.554  1.00  0.00     0.010 A 
ATOM     36  C   UNL     1       1.681  -2.366  -4.874  1.00  0.00    -0.014 A 
BRANCH  36  37
ATOM     37  C   UNL     1       1.194  -2.446  -6.272  1.00  0.00     0.031 A 
ATOM     38  C   UNL     1       0.665  -3.761  -6.774  1.00  0.00     0.074 A 
ATOM     39  C   UNL     1       1.249  -1.382  -7.093  1.00  0.00     0.049 A 
ATOM     40  N   UNL     1       0.242  -4.082  -7.968  1.00  0.00    -0.248 NA
ATOM     41  C   UNL     1       0.619  -4.862  -5.798  1.00  0.00     0.031 C 
ATOM     42  C   UNL     1       1.733  -0.052  -6.726  1.00  0.00     0.029 A 
ATOM     43  N   UNL     1       0.910  -1.264  -8.418  1.00  0.00    -0.354 N 
ATOM     44  C   UNL     1      -0.123  -5.421  -7.889  1.00  0.00     0.074 A 
ATOM     45  C   UNL     1       0.161  -5.859  -6.540  1.00  0.00     0.031 C 
ATOM     46  C   UNL     1       1.682   0.743  -7.810  1.00  0.00     0.029 A 
ATOM     47  C   UNL     1       1.181  -0.026  -8.950  1.00  0.00     0.049 A 
ATOM     48  H   UNL     1       0.510  -1.998  -8.939  1.00  0.00     0.167 HD
ATOM     49  C   UNL     1      -0.655  -6.212  -8.850  1.00  0.00     0.037 A 
ATOM     50  C   UNL     1       1.059   0.426 -10.214  1.00  0.00     0.037 A 
ATOM     51  C   UNL     1      -0.929  -5.781 -10.194  1.00  0.00     0.049 A 
ATOM     52  C   UNL     1       0.515  -0.487 -11.283  1.00  0.00     0.074 A 
ATOM     53  C   UNL     1      -1.497  -6.501 -11.230  1.00  0.00     0.029 A 
ATOM     54  N   UNL     1      -0.640  -4.520 -10.694  1.00  0.00    -0.354 N 
ATOM     55  N   UNL     1       0.120  -1.734 -11.181  1.00  0.00    -0.248 NA
ATOM     56  C   UNL     1       0.396   0.069 -12.640  1.00  0.00     0.031 C 
ATOM     57  C   UNL     1      -1.511  -5.690 -12.370  1.00  0.00     0.029 A 
ATOM     58  C   UNL     1      -0.993  -4.450 -12.031  1.00  0.00     0.049 A 
ATOM     59  H   UNL     1      -0.243  -3.784 -10.176  1.00  0.00     0.167 HD
ATOM     60  C   UNL     1      -0.319  -2.101 -12.450  1.00  0.00     0.074 A 
ATOM     61  C   UNL     1      -0.145  -0.945 -13.303  1.00  0.00     0.031 C 
ATOM     62  C   UNL     1      -0.824  -3.288 -12.869  1.00  0.00     0.037 A 
BRANCH  49  63
ATOM     63  C   UNL     1      -0.955  -7.634  -8.478  1.00  0.00     0.058 A 
ATOM     64  C   UNL     1      -2.033  -7.963  -7.641  1.00  0.00     0.135 A 
ATOM     65  C   UNL     1      -0.157  -8.681  -8.965  1.00  0.00     0.135 A 
ATOM     66  F   UNL     1      -2.814  -6.996  -7.133  1.00  0.00    -0.206 F 
ATOM     67  C   UNL     1      -2.291  -9.279  -7.273  1.00  0.00     0.059 A 
ATOM     68  C   UNL     1      -0.410 -10.007  -8.629  1.00  0.00     0.059 A 
ATOM     69  F   UNL     1       0.889  -8.418  -9.764  1.00  0.00    -0.206 F 
ATOM     70  C   UNL     1      -1.469 -10.294  -7.768  1.00  0.00     0.060 A 
BRANCH  70  71
ATOM     71  S   UNL     1      -1.800 -11.995  -7.266  1.00  0.00     0.124 S 
ATOM     72  O   UNL     1      -1.291 -11.998  -5.898  1.00  0.00    -0.237 OA
ATOM     73  O   UNL     1      -3.251 -12.086  -7.402  1.00  0.00    -0.237 OA
ATOM     74  O   UNL     1      -1.034 -12.786  -8.223  1.00  0.00    -0.744 OA
ENDBRANCH  70  71
ENDBRANCH  49  63
BRANCH  50  75
ATOM     75  C   UNL     1       1.472   1.815 -10.547  1.00  0.00     0.058 A 
ATOM     76  C   UNL     1       0.522   2.800 -10.851  1.00  0.00     0.135 A 
ATOM     77  C   UNL     1       2.827   2.179 -10.576  1.00  0.00     0.135 A 
ATOM     78  F   UNL     1      -0.784   2.496 -10.849  1.00  0.00    -0.206 F 
ATOM     79  C   UNL     1       0.900   4.097 -11.185  1.00  0.00     0.059 A 
ATOM     80  C   UNL     1       3.229   3.474 -10.886  1.00  0.00     0.059 A 
ATOM     81  F   UNL     1       3.773   1.274 -10.282  1.00  0.00    -0.206 F 
ATOM     82  C   UNL     1       2.257   4.424 -11.200  1.00  0.00     0.060 A 
BRANCH  82  83
ATOM     83  S   UNL     1       2.739   6.120 -11.591  1.00  0.00     0.124 S 
ATOM     84  O   UNL     1       2.548   6.152 -13.037  1.00  0.00    -0.237 OA
ATOM     85  O   UNL     1       1.790   6.899 -10.803  1.00  0.00    -0.237 OA
ATOM     86  O   UNL     1       4.125   6.186 -11.135  1.00  0.00    -0.744 OA
ENDBRANCH  82  83
ENDBRANCH  50  75
BRANCH  62  87
ATOM     87  C   UNL     1      -1.258  -3.399 -14.304  1.00  0.00     0.058 A 
ATOM     88  C   UNL     1      -0.328  -3.515 -15.348  1.00  0.00     0.135 A 
ATOM     89  C   UNL     1      -2.622  -3.471 -14.630  1.00  0.00     0.135 A 
ATOM     90  F   UNL     1       0.988  -3.448 -15.091  1.00  0.00    -0.206 F 
ATOM     91  C   UNL     1      -0.735  -3.689 -16.668  1.00  0.00     0.059 A 
ATOM     92  C   UNL     1      -3.051  -3.666 -15.939  1.00  0.00     0.059 A 
ATOM     93  F   UNL     1      -3.553  -3.375 -13.667  1.00  0.00    -0.206 F 
ATOM     94  C   UNL     1      -2.100  -3.768 -16.953  1.00  0.00     0.060 A 
BRANCH  94  95
ATOM     95  S   UNL     1      -2.616  -4.050 -18.661  1.00  0.00     0.124 S 
ATOM     96  O   UNL     1      -2.405  -2.733 -19.253  1.00  0.00    -0.237 OA
ATOM     97  O   UNL     1      -1.696  -5.096 -19.098  1.00  0.00    -0.237 OA
ATOM     98  O   UNL     1      -4.009  -4.465 -18.530  1.00  0.00    -0.744 OA
ENDBRANCH  94  95
ENDBRANCH  62  87
ENDBRANCH  36  37
ENDBRANCH  29  31
ENDBRANCH  28  29
ENDBRANCH  27  28
ENDBRANCH  26  27
ENDBRANCH   1  26
TORSDOF 20
