REMARK SMILES O=C(CC1CCN(S(=O)(=O)c2cc[nH]c2)CC1)OCCOC(=O)c1ccc(-c2c3nc(c(-c4c(F)cc(S(=O)(=O)[O-])cc4F)c4ccc([nH]4)c(-c4c(F)cc(S(=O)(=O)[O-])cc4F)c4nc(c(-c5c(F)cc(S(=O)(=O)[O-])cc5F)c5ccc2[nH]5)C=C4)C=C3)cc1
REMARK SMILES IDX 19 1 18 2 2 3 1 4 3 5 4 6 5 7 17 8 6 9 16 10 7 11 8 12 9 13
REMARK SMILES IDX 10 14 11 15 12 16 15 17 13 18 14 19 20 21 21 22 22 23 23 24
REMARK SMILES IDX 24 25 25 26 89 27 26 28 88 29 27 30 28 31 29 32 82 33 30 34
REMARK SMILES IDX 87 35 81 36 83 37 31 38 86 39 80 40 79 41 32 43 66 44 45 45
REMARK SMILES IDX 65 46 46 47 49 48 64 49 84 50 47 51 48 52 63 54 85 55 50 56
REMARK SMILES IDX 33 57 34 58 43 59 35 60 36 61 42 62 44 63 37 64 38 65 39 66
REMARK SMILES IDX 40 67 41 68 67 69 68 70 77 71 69 72 70 73 76 74 78 75 71 76
REMARK SMILES IDX 72 77 73 78 74 79 75 80 51 81 52 82 61 83 53 84 54 85 60 86
REMARK SMILES IDX 62 87 55 88 56 89 57 90 58 91 59 92
REMARK H PARENT 14 20 83 42 49 53
REMARK Flexibility Score: inf
ROOT
ATOM      1  C   UNL     1       4.431   0.512  -1.586  1.00  0.00     0.274 C 
ENDROOT
BRANCH   1   2
ATOM      2  O   UNL     1       3.070   0.016  -1.582  1.00  0.00    -0.462 OA
BRANCH   2   3
ATOM      3  C   UNL     1       2.378  -0.673  -0.652  1.00  0.00     0.306 C 
ATOM      4  O   UNL     1       1.224  -1.028  -0.903  1.00  0.00    -0.252 OA
BRANCH   3   5
ATOM      5  C   UNL     1       2.963  -1.031   0.702  1.00  0.00     0.126 C 
BRANCH   5   6
ATOM      6  C   UNL     1       4.317  -1.746   0.776  1.00  0.00     0.003 C 
ATOM      7  C   UNL     1       4.657  -2.587  -0.462  1.00  0.00     0.021 C 
ATOM      8  C   UNL     1       4.409  -2.641   2.034  1.00  0.00     0.021 C 
ATOM      9  C   UNL     1       3.808  -3.836  -0.550  1.00  0.00     0.103 C 
ATOM     10  C   UNL     1       3.685  -3.987   1.886  1.00  0.00     0.103 C 
ATOM     11  N   UNL     1       4.120  -4.661   0.632  1.00  0.00    -0.198 NA
BRANCH  11  12
ATOM     12  S   UNL     1       3.635  -6.279   0.431  1.00  0.00     0.244 S 
ATOM     13  O   UNL     1       2.223  -6.377   0.714  1.00  0.00    -0.207 OA
ATOM     14  O   UNL     1       4.202  -6.771  -0.811  1.00  0.00    -0.207 OA
BRANCH  12  15
ATOM     15  C   UNL     1       4.408  -7.224   1.650  1.00  0.00     0.100 A 
ATOM     16  C   UNL     1       4.001  -7.313   3.004  1.00  0.00     0.041 A 
ATOM     17  C   UNL     1       5.540  -8.001   1.504  1.00  0.00     0.104 A 
ATOM     18  C   UNL     1       4.912  -8.119   3.649  1.00  0.00     0.083 A 
ATOM     19  N   UNL     1       5.834  -8.544   2.726  1.00  0.00    -0.366 N 
ATOM     20  H   UNL     1       6.590  -9.147   2.913  1.00  0.00     0.165 HD
ENDBRANCH  12  15
ENDBRANCH  11  12
ENDBRANCH   5   6
ENDBRANCH   3   5
ENDBRANCH   2   3
ENDBRANCH   1   2
BRANCH   1  21
ATOM     21  C   UNL     1       4.579   1.912  -1.045  1.00  0.00     0.275 C 
BRANCH  21  22
ATOM     22  O   UNL     1       4.231   1.915   0.328  1.00  0.00    -0.458 OA
BRANCH  22  23
ATOM     23  C   UNL     1       2.937   2.234   0.535  1.00  0.00     0.338 C 
ATOM     24  O   UNL     1       2.022   2.201  -0.266  1.00  0.00    -0.246 OA
BRANCH  23  25
ATOM     25  C   UNL     1       2.811   2.812   1.863  1.00  0.00     0.060 A 
ATOM     26  C   UNL     1       1.507   3.043   2.308  1.00  0.00     0.016 A 
ATOM     27  C   UNL     1       3.939   3.429   2.417  1.00  0.00     0.016 A 
ATOM     28  C   UNL     1       1.309   4.059   3.207  1.00  0.00     0.010 A 
ATOM     29  C   UNL     1       3.737   4.486   3.260  1.00  0.00     0.010 A 
ATOM     30  C   UNL     1       2.421   4.802   3.615  1.00  0.00    -0.014 A 
BRANCH  30  31
ATOM     31  C   UNL     1       2.228   5.827   4.628  1.00  0.00     0.031 A 
ATOM     32  C   UNL     1       2.410   5.169   6.025  1.00  0.00     0.074 A 
ATOM     33  C   UNL     1       1.971   7.074   4.115  1.00  0.00     0.049 A 
ATOM     34  N   UNL     1       2.088   5.609   7.196  1.00  0.00    -0.248 NA
ATOM     35  C   UNL     1       3.003   3.792   6.150  1.00  0.00     0.031 C 
ATOM     36  C   UNL     1       1.858   7.424   2.667  1.00  0.00     0.029 A 
ATOM     37  N   UNL     1       1.757   8.308   4.681  1.00  0.00    -0.354 N 
ATOM     38  C   UNL     1       2.684   4.757   8.157  1.00  0.00     0.074 A 
ATOM     39  C   UNL     1       3.123   3.593   7.463  1.00  0.00     0.031 C 
ATOM     40  C   UNL     1       1.491   8.718   2.497  1.00  0.00     0.029 A 
ATOM     41  C   UNL     1       1.393   9.363   3.791  1.00  0.00     0.049 A 
ATOM     42  H   UNL     1       1.849   8.456   5.650  1.00  0.00     0.167 HD
ATOM     43  C   UNL     1       2.912   5.153   9.442  1.00  0.00     0.037 A 
ATOM     44  C   UNL     1       1.018  10.646   4.113  1.00  0.00     0.037 A 
ATOM     45  C   UNL     1       2.402   6.472   9.620  1.00  0.00     0.049 A 
ATOM     46  C   UNL     1       1.379  10.750   5.533  1.00  0.00     0.074 A 
ATOM     47  C   UNL     1       1.109   6.928   9.626  1.00  0.00     0.029 A 
ATOM     48  N   UNL     1       3.259   7.506   9.320  1.00  0.00    -0.354 N 
ATOM     49  N   UNL     1       2.599  10.783   5.981  1.00  0.00    -0.248 NA
ATOM     50  C   UNL     1       0.308  10.678   6.532  1.00  0.00     0.031 C 
ATOM     51  C   UNL     1       1.190   8.061   8.798  1.00  0.00     0.029 A 
ATOM     52  C   UNL     1       2.530   8.433   8.620  1.00  0.00     0.049 A 
ATOM     53  H   UNL     1       4.211   7.569   9.562  1.00  0.00     0.167 HD
ATOM     54  C   UNL     1       2.440  10.380   7.280  1.00  0.00     0.074 A 
ATOM     55  C   UNL     1       1.057  10.650   7.631  1.00  0.00     0.031 C 
ATOM     56  C   UNL     1       3.219   9.382   7.775  1.00  0.00     0.037 A 
BRANCH  43  57
ATOM     57  C   UNL     1       3.756   4.605  10.552  1.00  0.00     0.058 A 
ATOM     58  C   UNL     1       3.442   5.023  11.867  1.00  0.00     0.135 A 
ATOM     59  C   UNL     1       5.028   4.049  10.357  1.00  0.00     0.135 A 
ATOM     60  F   UNL     1       2.223   5.507  12.160  1.00  0.00    -0.206 F 
ATOM     61  C   UNL     1       4.383   5.044  12.887  1.00  0.00     0.059 A 
ATOM     62  C   UNL     1       5.978   4.019  11.384  1.00  0.00     0.059 A 
ATOM     63  F   UNL     1       5.406   3.603   9.151  1.00  0.00    -0.206 F 
ATOM     64  C   UNL     1       5.662   4.573  12.625  1.00  0.00     0.060 A 
BRANCH  64  65
ATOM     65  S   UNL     1       6.902   4.742  13.926  1.00  0.00     0.124 S 
ATOM     66  O   UNL     1       7.110   6.186  13.953  1.00  0.00    -0.237 OA
ATOM     67  O   UNL     1       6.209   4.182  15.083  1.00  0.00    -0.237 OA
ATOM     68  O   UNL     1       8.021   3.948  13.430  1.00  0.00    -0.744 OA
ENDBRANCH  64  65
ENDBRANCH  43  57
BRANCH  44  69
ATOM     69  C   UNL     1       0.318  11.867   3.532  1.00  0.00     0.058 A 
ATOM     70  C   UNL     1      -0.207  12.000   2.242  1.00  0.00     0.135 A 
ATOM     71  C   UNL     1      -0.048  12.932   4.414  1.00  0.00     0.135 A 
ATOM     72  F   UNL     1       0.163  11.162   1.264  1.00  0.00    -0.206 F 
ATOM     73  C   UNL     1      -1.159  12.995   1.916  1.00  0.00     0.059 A 
ATOM     74  C   UNL     1      -1.034  13.875   4.142  1.00  0.00     0.059 A 
ATOM     75  F   UNL     1       0.511  13.070   5.625  1.00  0.00    -0.206 F 
ATOM     76  C   UNL     1      -1.622  13.878   2.896  1.00  0.00     0.060 A 
BRANCH  76  77
ATOM     77  S   UNL     1      -3.072  14.925   2.615  1.00  0.00     0.124 S 
ATOM     78  O   UNL     1      -2.503  16.049   1.880  1.00  0.00    -0.237 OA
ATOM     79  O   UNL     1      -3.951  14.043   1.854  1.00  0.00    -0.237 OA
ATOM     80  O   UNL     1      -3.535  15.230   3.967  1.00  0.00    -0.744 OA
ENDBRANCH  76  77
ENDBRANCH  44  69
BRANCH  56  81
ATOM     81  C   UNL     1       4.583   9.202   7.114  1.00  0.00     0.058 A 
ATOM     82  C   UNL     1       5.483  10.281   7.064  1.00  0.00     0.135 A 
ATOM     83  C   UNL     1       5.028   8.025   6.483  1.00  0.00     0.135 A 
ATOM     84  F   UNL     1       5.166  11.443   7.659  1.00  0.00    -0.206 F 
ATOM     85  C   UNL     1       6.731  10.199   6.434  1.00  0.00     0.059 A 
ATOM     86  C   UNL     1       6.270   7.912   5.843  1.00  0.00     0.059 A 
ATOM     87  F   UNL     1       4.274   6.928   6.480  1.00  0.00    -0.206 F 
ATOM     88  C   UNL     1       7.123   9.007   5.829  1.00  0.00     0.060 A 
BRANCH  88  89
ATOM     89  S   UNL     1       8.766   8.895   5.081  1.00  0.00     0.124 S 
ATOM     90  O   UNL     1       8.729   9.951   4.075  1.00  0.00    -0.237 OA
ATOM     91  O   UNL     1       9.638   9.142   6.225  1.00  0.00    -0.237 OA
ATOM     92  O   UNL     1       8.812   7.535   4.546  1.00  0.00    -0.744 OA
ENDBRANCH  88  89
ENDBRANCH  56  81
ENDBRANCH  30  31
ENDBRANCH  23  25
ENDBRANCH  22  23
ENDBRANCH  21  22
ENDBRANCH   1  21
TORSDOF 17
