REMARK SMILES C[C@H]1CC=C(C2=NN=C(C(=O)OCCOC(=O)c3ccc(-c4c5nc(c(-c6c(F)cc(S(=O)(=O)[O-])cc6F)c6ccc([nH]6)c(-c6c(F)cc(S(=O)(=O)[O-])cc6F)c6nc(c(-c7c(F)cc(S(=O)(=O)[O-])cc7F)c7ccc4[nH]7)C=C6)C=C5)cc3)C2)O1
REMARK SMILES IDX 14 1 13 2 12 3 10 4 11 5 9 6 6 7 7 8 84 9 8 10 5 11 1 12
REMARK SMILES IDX 2 13 3 14 85 15 4 16 15 17 16 18 17 19 18 20 19 21 83 22
REMARK SMILES IDX 20 23 82 24 21 25 22 26 23 27 76 28 24 29 81 30 75 31 77 32
REMARK SMILES IDX 25 33 80 34 74 35 73 36 26 38 60 39 39 40 59 41 40 42 43 43
REMARK SMILES IDX 58 44 78 45 41 46 42 47 57 49 79 50 44 51 27 52 28 53 37 54
REMARK SMILES IDX 29 55 30 56 36 57 38 58 31 59 32 60 33 61 34 62 35 63 61 64
REMARK SMILES IDX 62 65 71 66 63 67 64 68 70 69 72 70 65 71 66 72 67 73 68 74
REMARK SMILES IDX 69 75 45 76 46 77 55 78 47 79 48 80 54 81 56 82 49 83 50 84
REMARK SMILES IDX 51 85 52 86 53 87
REMARK H PARENT 77 37 43 48
REMARK Flexibility Score: inf
ROOT
ATOM      1  C   UNL     1       8.690   3.303  -4.755  1.00  0.00     0.275 C 
ENDROOT
BRANCH   1   2
ATOM      2  C   UNL     1       8.951   1.804  -4.829  1.00  0.00     0.275 C 
BRANCH   2   3
ATOM      3  O   UNL     1       7.728   1.060  -4.971  1.00  0.00    -0.458 OA
BRANCH   3   4
ATOM      4  C   UNL     1       7.140   0.677  -3.822  1.00  0.00     0.355 C 
ATOM      5  O   UNL     1       7.595   0.750  -2.689  1.00  0.00    -0.245 OA
BRANCH   4   6
ATOM      6  C   UNL     1       5.730   0.208  -4.036  1.00  0.00     0.154 C 
ATOM      7  C   UNL     1       3.607  -0.325  -3.633  1.00  0.00     0.111 C 
ATOM      8  N   UNL     1       3.977  -0.922  -4.728  1.00  0.00    -0.151 NA
ATOM      9  C   UNL     1       4.663   0.558  -3.059  1.00  0.00     0.128 C 
ATOM     10  N   UNL     1       5.342  -0.580  -4.993  1.00  0.00    -0.147 NA
BRANCH   7  11
ATOM     11  C   UNL     1       2.341  -0.553  -2.917  1.00  0.00     0.139 C 
ATOM     12  C   UNL     1      -0.681   0.365  -1.485  1.00  0.00     0.053 C 
ATOM     13  C   UNL     1       0.696  -0.282  -1.435  1.00  0.00     0.174 C 
ATOM     14  C   UNL     1       0.658  -1.734  -1.929  1.00  0.00     0.076 C 
ATOM     15  O   UNL     1       1.652   0.451  -2.245  1.00  0.00    -0.489 OA
ATOM     16  C   UNL     1       1.871  -1.787  -2.765  1.00  0.00     0.025 C 
ENDBRANCH   7  11
ENDBRANCH   4   6
ENDBRANCH   3   4
ENDBRANCH   2   3
ENDBRANCH   1   2
BRANCH   1  17
ATOM     17  O   UNL     1       8.033   3.654  -3.539  1.00  0.00    -0.458 OA
BRANCH  17  18
ATOM     18  C   UNL     1       6.682   3.652  -3.615  1.00  0.00     0.338 C 
ATOM     19  O   UNL     1       5.992   3.100  -4.450  1.00  0.00    -0.246 OA
BRANCH  18  20
ATOM     20  C   UNL     1       6.135   4.604  -2.653  1.00  0.00     0.060 A 
ATOM     21  C   UNL     1       4.739   4.687  -2.579  1.00  0.00     0.016 A 
ATOM     22  C   UNL     1       6.978   5.603  -2.154  1.00  0.00     0.016 A 
ATOM     23  C   UNL     1       4.178   5.880  -2.193  1.00  0.00     0.010 A 
ATOM     24  C   UNL     1       6.418   6.799  -1.798  1.00  0.00     0.010 A 
ATOM     25  C   UNL     1       5.035   6.941  -1.907  1.00  0.00    -0.014 A 
BRANCH  25  26
ATOM     26  C   UNL     1       4.458   8.232  -1.620  1.00  0.00     0.031 A 
ATOM     27  C   UNL     1       3.879   8.284  -0.258  1.00  0.00     0.074 A 
ATOM     28  C   UNL     1       4.638   9.258  -2.473  1.00  0.00     0.049 A 
ATOM     29  N   UNL     1       2.639   8.412   0.078  1.00  0.00    -0.248 NA
ATOM     30  C   UNL     1       4.761   7.902   0.862  1.00  0.00     0.031 C 
ATOM     31  C   UNL     1       5.448   9.283  -3.696  1.00  0.00     0.029 A 
ATOM     32  N   UNL     1       4.248  10.550  -2.341  1.00  0.00    -0.354 N 
ATOM     33  C   UNL     1       2.641   8.400   1.469  1.00  0.00     0.074 A 
ATOM     34  C   UNL     1       3.890   7.814   1.865  1.00  0.00     0.031 C 
ATOM     35  C   UNL     1       5.688  10.567  -4.045  1.00  0.00     0.029 A 
ATOM     36  C   UNL     1       4.956  11.440  -3.148  1.00  0.00     0.049 A 
ATOM     37  H   UNL     1       3.529  10.835  -1.732  1.00  0.00     0.167 HD
ATOM     38  C   UNL     1       1.774   9.172   2.177  1.00  0.00     0.037 A 
ATOM     39  C   UNL     1       5.008  12.784  -2.957  1.00  0.00     0.037 A 
ATOM     40  C   UNL     1       0.662   9.579   1.353  1.00  0.00     0.049 A 
ATOM     41  C   UNL     1       3.842  13.134  -2.091  1.00  0.00     0.074 A 
ATOM     42  C   UNL     1      -0.310   8.904   0.641  1.00  0.00     0.029 A 
ATOM     43  N   UNL     1       0.680  10.858   0.848  1.00  0.00    -0.354 N 
ATOM     44  N   UNL     1       2.597  12.992  -2.469  1.00  0.00    -0.248 NA
ATOM     45  C   UNL     1       4.054  13.137  -0.649  1.00  0.00     0.031 C 
ATOM     46  C   UNL     1      -0.483   9.658  -0.556  1.00  0.00     0.029 A 
ATOM     47  C   UNL     1       0.332  10.788  -0.477  1.00  0.00     0.049 A 
ATOM     48  H   UNL     1       0.903  11.677   1.347  1.00  0.00     0.167 HD
ATOM     49  C   UNL     1       1.938  12.479  -1.357  1.00  0.00     0.074 A 
ATOM     50  C   UNL     1       2.878  12.644  -0.249  1.00  0.00     0.031 C 
ATOM     51  C   UNL     1       0.820  11.702  -1.488  1.00  0.00     0.037 A 
BRANCH  38  52
ATOM     52  C   UNL     1       2.150   9.900   3.451  1.00  0.00     0.058 A 
ATOM     53  C   UNL     1       1.145  10.607   4.142  1.00  0.00     0.135 A 
ATOM     54  C   UNL     1       3.475  10.181   3.859  1.00  0.00     0.135 A 
ATOM     55  F   UNL     1      -0.151  10.410   3.853  1.00  0.00    -0.206 F 
ATOM     56  C   UNL     1       1.439  11.594   5.083  1.00  0.00     0.059 A 
ATOM     57  C   UNL     1       3.787  11.120   4.833  1.00  0.00     0.059 A 
ATOM     58  F   UNL     1       4.551   9.639   3.279  1.00  0.00    -0.206 F 
ATOM     59  C   UNL     1       2.767  11.858   5.402  1.00  0.00     0.060 A 
BRANCH  59  60
ATOM     60  S   UNL     1       3.162  13.217   6.511  1.00  0.00     0.124 S 
ATOM     61  O   UNL     1       2.780  14.368   5.702  1.00  0.00    -0.237 OA
ATOM     62  O   UNL     1       2.308  12.925   7.658  1.00  0.00    -0.237 OA
ATOM     63  O   UNL     1       4.594  13.054   6.745  1.00  0.00    -0.744 OA
ENDBRANCH  59  60
ENDBRANCH  38  52
BRANCH  39  64
ATOM     64  C   UNL     1       6.208  13.657  -3.100  1.00  0.00     0.058 A 
ATOM     65  C   UNL     1       6.101  15.059  -3.118  1.00  0.00     0.135 A 
ATOM     66  C   UNL     1       7.514  13.141  -2.962  1.00  0.00     0.135 A 
ATOM     67  F   UNL     1       4.895  15.640  -3.216  1.00  0.00    -0.206 F 
ATOM     68  C   UNL     1       7.216  15.897  -2.975  1.00  0.00     0.059 A 
ATOM     69  C   UNL     1       8.639  13.953  -2.831  1.00  0.00     0.059 A 
ATOM     70  F   UNL     1       7.734  11.822  -2.859  1.00  0.00    -0.206 F 
ATOM     71  C   UNL     1       8.482  15.332  -2.816  1.00  0.00     0.060 A 
BRANCH  71  72
ATOM     72  S   UNL     1       9.907  16.395  -2.476  1.00  0.00     0.124 S 
ATOM     73  O   UNL     1      10.074  17.092  -3.747  1.00  0.00    -0.237 OA
ATOM     74  O   UNL     1       9.428  17.206  -1.362  1.00  0.00    -0.237 OA
ATOM     75  O   UNL     1      10.966  15.446  -2.142  1.00  0.00    -0.744 OA
ENDBRANCH  71  72
ENDBRANCH  39  64
BRANCH  51  76
ATOM     76  C   UNL     1       0.161  11.615  -2.841  1.00  0.00     0.058 A 
ATOM     77  C   UNL     1       0.750  11.028  -3.977  1.00  0.00     0.135 A 
ATOM     78  C   UNL     1      -1.188  11.984  -2.941  1.00  0.00     0.135 A 
ATOM     79  F   UNL     1       2.001  10.549  -3.932  1.00  0.00    -0.206 F 
ATOM     80  C   UNL     1       0.040  10.853  -5.168  1.00  0.00     0.059 A 
ATOM     81  C   UNL     1      -1.923  11.791  -4.106  1.00  0.00     0.059 A 
ATOM     82  F   UNL     1      -1.827  12.486  -1.871  1.00  0.00    -0.206 F 
ATOM     83  C   UNL     1      -1.299  11.238  -5.221  1.00  0.00     0.060 A 
BRANCH  83  84
ATOM     84  S   UNL     1      -2.240  10.951  -6.736  1.00  0.00     0.124 S 
ATOM     85  O   UNL     1      -1.655  11.927  -7.649  1.00  0.00    -0.237 OA
ATOM     86  O   UNL     1      -1.949   9.551  -7.031  1.00  0.00    -0.237 OA
ATOM     87  O   UNL     1      -3.620  11.220  -6.337  1.00  0.00    -0.744 OA
ENDBRANCH  83  84
ENDBRANCH  51  76
ENDBRANCH  25  26
ENDBRANCH  18  20
ENDBRANCH  17  18
ENDBRANCH   1  17
TORSDOF 15
