REMARK SMILES CCOc1c(Br)cc(CNc2cccc(C(=O)OCCOC(=O)c3ccc(-c4c5nc(c(-c6c(F)cc(S(=O)(=O)[O-])cc6F)c6ccc([nH]6)c(-c6c(F)cc(S(=O)(=O)[O-])cc6F)c6nc(c(-c7c(F)cc(S(=O)(=O)[O-])cc7F)c7ccc4[nH]7)C=C6)C=C5)cc3)c2C)cc1OC
REMARK SMILES IDX 19 1 18 2 16 3 17 4 15 5 11 6 12 7 90 8 13 9 91 10 14 11
REMARK SMILES IDX 10 12 9 14 8 15 4 16 5 17 93 18 6 19 7 20 92 21 3 22 2 23
REMARK SMILES IDX 1 24 94 25 95 26 20 27 21 28 22 29 23 30 24 31 25 32 89 33
REMARK SMILES IDX 26 34 88 35 27 36 28 37 29 38 82 39 30 40 87 41 81 42 83 43
REMARK SMILES IDX 31 44 86 45 80 46 79 47 32 49 66 50 45 51 65 52 46 53 49 54
REMARK SMILES IDX 64 55 84 56 47 57 48 58 63 60 85 61 50 62 33 63 34 64 43 65
REMARK SMILES IDX 35 66 36 67 42 68 44 69 37 70 38 71 39 72 40 73 41 74 67 75
REMARK SMILES IDX 68 76 77 77 69 78 70 79 76 80 78 81 71 82 72 83 73 84 74 85
REMARK SMILES IDX 75 86 51 87 52 88 61 89 53 90 54 91 60 92 62 93 55 94 56 95
REMARK SMILES IDX 57 96 58 97 59 98
REMARK H PARENT 10 13 83 48 49 59
REMARK Flexibility Score: inf
ROOT
ATOM      1  C   UNL     1      10.481   5.371   0.473  1.00  0.00     0.275 C 
ENDROOT
BRANCH   1   2
ATOM      2  O   UNL     1      10.407   4.053   1.049  1.00  0.00    -0.458 OA
BRANCH   2   3
ATOM      3  C   UNL     1       9.348   3.124   0.500  1.00  0.00     0.338 C 
ATOM      4  O   UNL     1       8.505   4.008   0.139  1.00  0.00    -0.246 OA
BRANCH   3   5
ATOM      5  C   UNL     1       9.365   0.972   0.417  1.00  0.00     0.065 A 
ATOM      6  C   UNL     1       8.496  -1.624  -0.316  1.00  0.00     0.038 A 
ATOM      7  C   UNL     1       9.455  -2.241   0.458  1.00  0.00     0.026 A 
ATOM      8  C   UNL     1       8.394  -0.131  -0.340  1.00  0.00    -0.013 A 
ATOM      9  C   UNL     1      10.345  -1.463   1.155  1.00  0.00     0.003 A 
ATOM     10  C   UNL     1       7.146   0.128  -1.260  1.00  0.00     0.047 C 
ATOM     11  C   UNL     1      10.302  -0.035   1.122  1.00  0.00     0.016 A 
BRANCH   6  12
ATOM     12  N   UNL     1       7.652  -2.435  -1.096  1.00  0.00    -0.381 N 
ATOM     13  H   UNL     1       7.655  -2.274  -2.067  1.00  0.00     0.160 HD
BRANCH  12  14
ATOM     14  C   UNL     1       6.772  -3.490  -0.609  1.00  0.00     0.149 C 
BRANCH  14  15
ATOM     15  C   UNL     1       5.300  -3.089  -0.638  1.00  0.00    -0.024 A 
ATOM     16  C   UNL     1       2.522  -2.391  -0.536  1.00  0.00     0.175 A 
ATOM     17  C   UNL     1       3.441  -1.912   0.415  1.00  0.00     0.064 A 
ATOM     18  C   UNL     1       2.985  -3.302  -1.502  1.00  0.00     0.162 A 
ATOM     19  Br  UNL     1       2.897  -0.976   1.980  1.00  0.00    -0.047 Br
ATOM     20  C   UNL     1       4.806  -2.224   0.340  1.00  0.00     0.025 A 
ATOM     21  C   UNL     1       4.370  -3.624  -1.550  1.00  0.00     0.056 A 
BRANCH  16  22
ATOM     22  O   UNL     1       1.191  -2.089  -0.381  1.00  0.00    -0.489 OA
BRANCH  22  23
ATOM     23  C   UNL     1       0.754  -0.946  -1.137  1.00  0.00     0.226 C 
ATOM     24  C   UNL     1       0.758   0.338  -0.323  1.00  0.00     0.049 C 
ENDBRANCH  22  23
ENDBRANCH  16  22
BRANCH  18  25
ATOM     25  O   UNL     1       2.259  -4.011  -2.429  1.00  0.00    -0.493 OA
ATOM     26  C   UNL     1       0.839  -3.989  -2.375  1.00  0.00     0.278 C 
ENDBRANCH  18  25
ENDBRANCH  14  15
ENDBRANCH  12  14
ENDBRANCH   6  12
ENDBRANCH   3   5
ENDBRANCH   2   3
ENDBRANCH   1   2
BRANCH   1  27
ATOM     27  C   UNL     1      11.201   5.282  -0.880  1.00  0.00     0.275 C 
BRANCH  27  28
ATOM     28  O   UNL     1      10.583   4.405  -1.855  1.00  0.00    -0.458 OA
BRANCH  28  29
ATOM     29  C   UNL     1      11.084   3.147  -1.992  1.00  0.00     0.338 C 
ATOM     30  O   UNL     1      11.955   2.794  -2.765  1.00  0.00    -0.246 OA
BRANCH  29  31
ATOM     31  C   UNL     1      10.407   2.245  -1.041  1.00  0.00     0.060 A 
ATOM     32  C   UNL     1       8.613   2.228  -1.148  1.00  0.00     0.016 A 
ATOM     33  C   UNL     1      11.210   2.148   0.556  1.00  0.00     0.016 A 
ATOM     34  C   UNL     1       7.583   2.118   0.397  1.00  0.00     0.010 A 
ATOM     35  C   UNL     1      10.195   2.138   2.084  1.00  0.00     0.010 A 
ATOM     36  C   UNL     1       8.389   2.111   1.993  1.00  0.00    -0.014 A 
BRANCH  36  37
ATOM     37  C   UNL     1       7.776   2.674   3.187  1.00  0.00     0.031 A 
ATOM     38  C   UNL     1       8.231   2.060   4.445  1.00  0.00     0.074 A 
ATOM     39  C   UNL     1       7.141   3.873   3.096  1.00  0.00     0.049 A 
ATOM     40  N   UNL     1       7.968   2.543   5.593  1.00  0.00    -0.248 NA
ATOM     41  C   UNL     1       9.068   0.856   4.534  1.00  0.00     0.031 C 
ATOM     42  C   UNL     1       6.910   4.884   4.129  1.00  0.00     0.029 A 
ATOM     43  N   UNL     1       6.399   4.362   2.013  1.00  0.00    -0.354 N 
ATOM     44  C   UNL     1       8.744   1.902   6.528  1.00  0.00     0.074 A 
ATOM     45  C   UNL     1       9.422   0.854   5.823  1.00  0.00     0.031 C 
ATOM     46  C   UNL     1       5.888   5.678   3.762  1.00  0.00     0.029 A 
ATOM     47  C   UNL     1       5.353   5.154   2.519  1.00  0.00     0.049 A 
ATOM     48  H   UNL     1       6.580   4.183   1.061  1.00  0.00     0.167 HD
ATOM     49  C   UNL     1       8.739   2.440   7.772  1.00  0.00     0.037 A 
ATOM     50  C   UNL     1       4.063   4.723   2.374  1.00  0.00     0.037 A 
ATOM     51  C   UNL     1       7.564   3.304   7.883  1.00  0.00     0.049 A 
ATOM     52  C   UNL     1       3.510   4.196   3.689  1.00  0.00     0.074 A 
ATOM     53  C   UNL     1       7.366   4.664   7.751  1.00  0.00     0.029 A 
ATOM     54  N   UNL     1       6.323   2.702   7.689  1.00  0.00    -0.354 N 
ATOM     55  N   UNL     1       4.263   3.783   4.681  1.00  0.00    -0.248 NA
ATOM     56  C   UNL     1       2.095   4.230   4.054  1.00  0.00     0.031 C 
ATOM     57  C   UNL     1       6.003   4.856   7.360  1.00  0.00     0.029 A 
ATOM     58  C   UNL     1       5.372   3.620   7.294  1.00  0.00     0.049 A 
ATOM     59  H   UNL     1       6.146   1.742   7.818  1.00  0.00     0.167 HD
ATOM     60  C   UNL     1       3.494   3.554   5.792  1.00  0.00     0.074 A 
ATOM     61  C   UNL     1       2.144   3.850   5.344  1.00  0.00     0.031 C 
ATOM     62  C   UNL     1       4.005   3.183   7.009  1.00  0.00     0.037 A 
BRANCH  49  63
ATOM     63  C   UNL     1       9.801   2.304   8.825  1.00  0.00     0.058 A 
ATOM     64  C   UNL     1       9.595   2.916  10.079  1.00  0.00     0.135 A 
ATOM     65  C   UNL     1      11.086   1.746   8.635  1.00  0.00     0.135 A 
ATOM     66  F   UNL     1       8.425   3.497  10.382  1.00  0.00    -0.206 F 
ATOM     67  C   UNL     1      10.583   2.988  11.059  1.00  0.00     0.059 A 
ATOM     68  C   UNL     1      12.082   1.776   9.619  1.00  0.00     0.059 A 
ATOM     69  F   UNL     1      11.453   1.192   7.472  1.00  0.00    -0.206 F 
ATOM     70  C   UNL     1      11.825   2.415  10.824  1.00  0.00     0.060 A 
BRANCH  70  71
ATOM     71  S   UNL     1      13.080   2.534  12.111  1.00  0.00     0.124 S 
ATOM     72  O   UNL     1      13.320   3.973  12.168  1.00  0.00    -0.237 OA
ATOM     73  O   UNL     1      12.393   1.958  13.262  1.00  0.00    -0.237 OA
ATOM     74  O   UNL     1      14.186   1.738  11.585  1.00  0.00    -0.744 OA
ENDBRANCH  70  71
ENDBRANCH  49  63
BRANCH  50  75
ATOM     75  C   UNL     1       3.787   4.308   0.961  1.00  0.00     0.058 A 
ATOM     76  C   UNL     1       3.863   5.339  -0.002  1.00  0.00     0.135 A 
ATOM     77  C   UNL     1       3.995   3.006   0.490  1.00  0.00     0.135 A 
ATOM     78  F   UNL     1       3.593   6.605   0.357  1.00  0.00    -0.206 F 
ATOM     79  C   UNL     1       4.362   5.125  -1.286  1.00  0.00     0.059 A 
ATOM     80  C   UNL     1       4.412   2.759  -0.832  1.00  0.00     0.059 A 
ATOM     81  F   UNL     1       3.985   1.976   1.347  1.00  0.00    -0.206 F 
ATOM     82  C   UNL     1       4.693   3.834  -1.678  1.00  0.00     0.060 A 
BRANCH  82  83
ATOM     83  S   UNL     1       5.620   3.644  -3.230  1.00  0.00     0.124 S 
ATOM     84  O   UNL     1       4.645   4.087  -4.220  1.00  0.00    -0.237 OA
ATOM     85  O   UNL     1       6.758   4.535  -3.028  1.00  0.00    -0.237 OA
ATOM     86  O   UNL     1       5.945   2.223  -3.280  1.00  0.00    -0.744 OA
ENDBRANCH  82  83
ENDBRANCH  50  75
BRANCH  62  87
ATOM     87  C   UNL     1       3.219   2.457   8.094  1.00  0.00     0.058 A 
ATOM     88  C   UNL     1       1.964   1.857   7.886  1.00  0.00     0.135 A 
ATOM     89  C   UNL     1       3.776   2.219   9.380  1.00  0.00     0.135 A 
ATOM     90  F   UNL     1       1.387   1.813   6.679  1.00  0.00    -0.206 F 
ATOM     91  C   UNL     1       1.254   1.223   8.905  1.00  0.00     0.059 A 
ATOM     92  C   UNL     1       3.130   1.497  10.377  1.00  0.00     0.059 A 
ATOM     93  F   UNL     1       4.989   2.661   9.734  1.00  0.00    -0.206 F 
ATOM     94  C   UNL     1       1.842   1.056  10.150  1.00  0.00     0.060 A 
BRANCH  94  95
ATOM     95  S   UNL     1       0.913   0.255  11.459  1.00  0.00     0.124 S 
ATOM     96  O   UNL     1      -0.012   1.317  11.844  1.00  0.00    -0.237 OA
ATOM     97  O   UNL     1       0.316  -0.883  10.766  1.00  0.00    -0.237 OA
ATOM     98  O   UNL     1       1.932  -0.083  12.446  1.00  0.00    -0.744 OA
ENDBRANCH  94  95
ENDBRANCH  62  87
ENDBRANCH  36  37
ENDBRANCH  29  31
ENDBRANCH  28  29
ENDBRANCH  27  28
ENDBRANCH   1  27
TORSDOF 20
