REMARK SMILES COc1ccccc1C(=O)N/C(=C/c1ccc2c(c1)OCO2)C(=O)Nc1ccc(C(=O)OCCOC(=O)c2ccc(-c3c4nc(c(-c5c(F)cc(S(=O)(=O)[O-])cc5F)c5ccc([nH]5)c(-c5c(F)cc(S(=O)(=O)[O-])cc5F)c5nc(c(-c6c(F)cc(S(=O)(=O)[O-])cc6F)c6ccc3[nH]6)C=C5)C=C4)cc2)cc1
REMARK SMILES IDX 33 1 32 2 30 3 31 4 29 5 26 6 27 7 105 8 28 9 104 10 25 11
REMARK SMILES IDX 23 12 24 13 12 15 13 16 11 17 9 18 10 19 8 21 3 22 4 23 5 24
REMARK SMILES IDX 7 25 6 26 2 27 1 28 14 29 15 30 19 31 16 32 18 33 17 34
REMARK SMILES IDX 20 35 22 36 21 37 34 38 35 39 36 40 37 41 38 42 39 43 103 44
REMARK SMILES IDX 40 45 102 46 41 47 42 48 43 49 96 50 44 51 101 52 95 53
REMARK SMILES IDX 97 54 45 55 100 56 94 57 93 58 46 60 80 61 59 62 79 63 60 64
REMARK SMILES IDX 63 65 78 66 98 67 61 68 62 69 77 71 99 72 64 73 47 74 48 75
REMARK SMILES IDX 57 76 49 77 50 78 56 79 58 80 51 81 52 82 53 83 54 84 55 85
REMARK SMILES IDX 81 86 82 87 91 88 83 89 84 90 90 91 92 92 85 93 86 94 87 95
REMARK SMILES IDX 88 96 89 97 65 98 66 99 75 100 67 101 68 102 74 103 76 104
REMARK SMILES IDX 69 105 70 106 71 107 72 108 73 109
REMARK H PARENT 25 14 11 20 97 59 63 70
REMARK Flexibility Score: inf
ROOT
ATOM      1  C   UNL     1      -2.835   4.670  -5.653  1.00  0.00     0.275 C 
ENDROOT
BRANCH   1   2
ATOM      2  O   UNL     1      -2.343   4.064  -4.444  1.00  0.00    -0.458 OA
BRANCH   2   3
ATOM      3  C   UNL     1      -1.978   4.893  -3.437  1.00  0.00     0.338 C 
ATOM      4  O   UNL     1      -1.935   6.109  -3.460  1.00  0.00    -0.246 OA
BRANCH   3   5
ATOM      5  C   UNL     1      -1.706   4.084  -2.233  1.00  0.00     0.060 A 
ATOM      6  C   UNL     1      -1.162   2.176   0.924  1.00  0.00     0.041 A 
ATOM      7  C   UNL     1      -1.023   3.935   0.830  1.00  0.00     0.027 A 
ATOM      8  C   UNL     1      -1.664   1.271  -0.550  1.00  0.00     0.027 A 
ATOM      9  C   UNL     1      -1.306   4.840  -0.686  1.00  0.00     0.018 A 
ATOM     10  C   UNL     1      -1.897   2.305  -2.279  1.00  0.00     0.018 A 
BRANCH   6  11
ATOM     11  N   UNL     1      -0.232   1.468   1.725  1.00  0.00    -0.321 N 
ATOM     12  C   UNL     1       0.257   0.323   1.130  1.00  0.00     0.272 C 
ATOM     13  O   UNL     1      -0.411  -0.701   1.275  1.00  0.00    -0.267 OA
ATOM     14  H   UNL     1       0.041   1.766   2.623  1.00  0.00     0.170 HD
BRANCH  12  15
ATOM     15  C   UNL     1       1.425   0.438   0.110  1.00  0.00     0.108 C 
ATOM     16  C   UNL     1       1.255   0.807  -1.200  1.00  0.00     0.040 C 
BRANCH  15  17
ATOM     17  N   UNL     1       2.738   0.152   0.505  1.00  0.00    -0.317 N 
ATOM     18  C   UNL     1       3.355  -0.514   1.560  1.00  0.00     0.259 C 
ATOM     19  O   UNL     1       4.574  -0.387   1.698  1.00  0.00    -0.269 OA
ATOM     20  H   UNL     1       3.396   0.519  -0.128  1.00  0.00     0.170 HD
BRANCH  18  21
ATOM     21  C   UNL     1       2.637  -1.405   2.500  1.00  0.00     0.082 A 
ATOM     22  C   UNL     1       1.609  -2.217   2.035  1.00  0.00     0.131 A 
ATOM     23  C   UNL     1       0.646  -2.639   2.951  1.00  0.00     0.047 A 
ATOM     24  C   UNL     1       0.893  -2.500   4.327  1.00  0.00     0.004 A 
ATOM     25  C   UNL     1       3.006  -1.462   3.848  1.00  0.00     0.018 A 
ATOM     26  C   UNL     1       2.135  -2.044   4.766  1.00  0.00     0.001 A 
BRANCH  22  27
ATOM     27  O   UNL     1       1.731  -2.531   0.716  1.00  0.00    -0.496 OA
ATOM     28  C   UNL     1       0.660  -2.952  -0.100  1.00  0.00     0.278 C 
ENDBRANCH  22  27
ENDBRANCH  18  21
ENDBRANCH  15  17
BRANCH  16  29
ATOM     29  C   UNL     1      -0.009   1.289  -1.844  1.00  0.00    -0.019 A 
ATOM     30  C   UNL     1      -1.243   0.146  -2.423  1.00  0.00     0.012 A 
ATOM     31  C   UNL     1      -0.575   2.764  -0.998  1.00  0.00     0.058 A 
ATOM     32  C   UNL     1      -3.002   0.339  -2.120  1.00  0.00     0.051 A 
ATOM     33  C   UNL     1      -2.554   2.933  -0.594  1.00  0.00     0.166 A 
ATOM     34  C   UNL     1      -3.648   1.684  -1.213  1.00  0.00     0.165 A 
ATOM     35  O   UNL     1      -3.343   3.514   0.399  1.00  0.00    -0.454 OA
ATOM     36  O   UNL     1      -4.818   1.727  -0.524  1.00  0.00    -0.454 OA
ATOM     37  C   UNL     1      -4.421   2.540   0.612  1.00  0.00     0.468 C 
ENDBRANCH  16  29
ENDBRANCH  12  15
ENDBRANCH   6  11
ENDBRANCH   3   5
ENDBRANCH   2   3
ENDBRANCH   1   2
BRANCH   1  38
ATOM     38  C   UNL     1      -4.359   4.554  -5.748  1.00  0.00     0.275 C 
BRANCH  38  39
ATOM     39  O   UNL     1      -5.005   5.217  -4.645  1.00  0.00    -0.458 OA
BRANCH  39  40
ATOM     40  C   UNL     1      -5.477   4.382  -3.689  1.00  0.00     0.338 C 
ATOM     41  O   UNL     1      -5.454   3.162  -3.708  1.00  0.00    -0.246 OA
BRANCH  40  42
ATOM     42  C   UNL     1      -5.893   5.138  -2.498  1.00  0.00     0.060 A 
ATOM     43  C   UNL     1      -4.955   5.247  -1.492  1.00  0.00     0.016 A 
ATOM     44  C   UNL     1      -7.202   5.533  -2.247  1.00  0.00     0.016 A 
ATOM     45  C   UNL     1      -5.327   5.605  -0.207  1.00  0.00     0.010 A 
ATOM     46  C   UNL     1      -7.554   6.002  -0.961  1.00  0.00     0.010 A 
ATOM     47  C   UNL     1      -6.630   5.989   0.101  1.00  0.00    -0.014 A 
BRANCH  47  48
ATOM     48  C   UNL     1      -6.969   6.270   1.536  1.00  0.00     0.031 A 
ATOM     49  C   UNL     1      -8.130   5.571   2.207  1.00  0.00     0.074 A 
ATOM     50  C   UNL     1      -6.169   7.062   2.289  1.00  0.00     0.049 A 
ATOM     51  N   UNL     1      -8.642   5.771   3.397  1.00  0.00    -0.248 NA
ATOM     52  C   UNL     1      -8.812   4.512   1.444  1.00  0.00     0.031 C 
ATOM     53  C   UNL     1      -4.953   7.737   1.819  1.00  0.00     0.029 A 
ATOM     54  N   UNL     1      -6.230   7.414   3.618  1.00  0.00    -0.354 N 
ATOM     55  C   UNL     1      -9.739   4.921   3.496  1.00  0.00     0.074 A 
ATOM     56  C   UNL     1      -9.824   4.204   2.243  1.00  0.00     0.031 C 
ATOM     57  C   UNL     1      -4.348   8.344   2.848  1.00  0.00     0.029 A 
ATOM     58  C   UNL     1      -5.207   8.247   4.017  1.00  0.00     0.049 A 
ATOM     59  H   UNL     1      -6.937   7.100   4.227  1.00  0.00     0.167 HD
ATOM     60  C   UNL     1     -10.598   4.759   4.533  1.00  0.00     0.037 A 
ATOM     61  C   UNL     1      -5.005   8.926   5.164  1.00  0.00     0.037 A 
ATOM     62  C   UNL     1     -10.478   5.448   5.796  1.00  0.00     0.049 A 
ATOM     63  C   UNL     1      -6.020   8.802   6.262  1.00  0.00     0.074 A 
ATOM     64  C   UNL     1     -11.301   5.358   6.906  1.00  0.00     0.029 A 
ATOM     65  N   UNL     1      -9.473   6.349   6.122  1.00  0.00    -0.354 N 
ATOM     66  N   UNL     1      -7.095   8.052   6.309  1.00  0.00    -0.248 NA
ATOM     67  C   UNL     1      -5.805   9.628   7.456  1.00  0.00     0.031 C 
ATOM     68  C   UNL     1     -10.839   6.258   7.871  1.00  0.00     0.029 A 
ATOM     69  C   UNL     1      -9.675   6.844   7.401  1.00  0.00     0.049 A 
ATOM     70  H   UNL     1      -8.727   6.599   5.531  1.00  0.00     0.167 HD
ATOM     71  C   UNL     1      -7.671   8.297   7.549  1.00  0.00     0.074 A 
ATOM     72  C   UNL     1      -6.811   9.244   8.229  1.00  0.00     0.031 C 
ATOM     73  C   UNL     1      -8.812   7.784   8.075  1.00  0.00     0.037 A 
BRANCH  60  74
ATOM     74  C   UNL     1     -11.787   3.850   4.333  1.00  0.00     0.058 A 
ATOM     75  C   UNL     1     -11.664   2.457   4.205  1.00  0.00     0.135 A 
ATOM     76  C   UNL     1     -13.085   4.391   4.306  1.00  0.00     0.135 A 
ATOM     77  F   UNL     1     -10.451   1.881   4.207  1.00  0.00    -0.206 F 
ATOM     78  C   UNL     1     -12.778   1.640   4.026  1.00  0.00     0.059 A 
ATOM     79  C   UNL     1     -14.215   3.590   4.167  1.00  0.00     0.059 A 
ATOM     80  F   UNL     1     -13.268   5.715   4.424  1.00  0.00    -0.206 F 
ATOM     81  C   UNL     1     -14.050   2.216   4.013  1.00  0.00     0.060 A 
BRANCH  81  82
ATOM     82  S   UNL     1     -15.484   1.141   3.789  1.00  0.00     0.124 S 
ATOM     83  O   UNL     1     -15.312   0.709   2.405  1.00  0.00    -0.237 OA
ATOM     84  O   UNL     1     -15.263   0.116   4.804  1.00  0.00    -0.237 OA
ATOM     85  O   UNL     1     -16.618   2.027   4.032  1.00  0.00    -0.744 OA
ENDBRANCH  81  82
ENDBRANCH  60  74
BRANCH  61  86
ATOM     86  C   UNL     1      -3.838   9.847   5.296  1.00  0.00     0.058 A 
ATOM     87  C   UNL     1      -2.835   9.624   6.251  1.00  0.00     0.135 A 
ATOM     88  C   UNL     1      -3.705  10.975   4.468  1.00  0.00     0.135 A 
ATOM     89  F   UNL     1      -2.918   8.572   7.079  1.00  0.00    -0.206 F 
ATOM     90  C   UNL     1      -1.753  10.490   6.389  1.00  0.00     0.059 A 
ATOM     91  C   UNL     1      -2.611  11.829   4.556  1.00  0.00     0.059 A 
ATOM     92  F   UNL     1      -4.631  11.238   3.533  1.00  0.00    -0.206 F 
ATOM     93  C   UNL     1      -1.646  11.585   5.530  1.00  0.00     0.060 A 
BRANCH  93  94
ATOM     94  S   UNL     1      -0.212  12.670   5.684  1.00  0.00     0.124 S 
ATOM     95  O   UNL     1      -0.469  13.318   6.964  1.00  0.00    -0.237 OA
ATOM     96  O   UNL     1       0.893  11.717   5.659  1.00  0.00    -0.237 OA
ATOM     97  O   UNL     1      -0.314  13.531   4.509  1.00  0.00    -0.744 OA
ENDBRANCH  93  94
ENDBRANCH  61  86
BRANCH  73  98
ATOM     98  C   UNL     1      -9.163   8.191   9.482  1.00  0.00     0.058 A 
ATOM     99  C   UNL     1      -9.536   9.505   9.811  1.00  0.00     0.135 A 
ATOM    100  C   UNL     1      -9.133   7.243  10.518  1.00  0.00     0.135 A 
ATOM    101  F   UNL     1      -9.575  10.455   8.863  1.00  0.00    -0.206 F 
ATOM    102  C   UNL     1      -9.819   9.873  11.122  1.00  0.00     0.059 A 
ATOM    103  C   UNL     1      -9.455   7.578  11.828  1.00  0.00     0.059 A 
ATOM    104  F   UNL     1      -8.793   5.969  10.261  1.00  0.00    -0.206 F 
ATOM    105  C   UNL     1      -9.777   8.901  12.124  1.00  0.00     0.060 A 
BRANCH 105 106
ATOM    106  S   UNL     1     -10.155   9.392  13.818  1.00  0.00     0.124 S 
ATOM    107  O   UNL     1      -8.992  10.206  14.156  1.00  0.00    -0.237 OA
ATOM    108  O   UNL     1     -11.412  10.116  13.658  1.00  0.00    -0.237 OA
ATOM    109  O   UNL     1     -10.257   8.119  14.527  1.00  0.00    -0.744 OA
ENDBRANCH 105 106
ENDBRANCH  73  98
ENDBRANCH  47  48
ENDBRANCH  40  42
ENDBRANCH  39  40
ENDBRANCH  38  39
ENDBRANCH   1  38
TORSDOF 20
