REMARK SMILES CC1=C2C(=O)N(C[C@H]3CCCO3)C(=O)N=C2S[C@@H]1C(=O)OCCOC(=O)c1ccc(-c2c3nc(c(-c4c(F)cc(S(=O)(=O)[O-])cc4F)c4ccc([nH]4)c(-c4c(F)cc(S(=O)(=O)[O-])cc4F)c4nc(c(-c5c(F)cc(S(=O)(=O)[O-])cc5F)c5ccc2[nH]5)C=C4)C=C3)cc1
REMARK SMILES IDX 23 1 22 2 21 3 19 4 20 5 18 6 1 7 2 8 3 9 4 10 16 11 17 12
REMARK SMILES IDX 5 13 6 14 15 15 13 16 14 17 7 18 8 19 9 20 12 21 10 22 11 23
REMARK SMILES IDX 24 24 25 25 26 26 27 27 28 28 92 29 29 30 91 31 30 32 31 33
REMARK SMILES IDX 32 34 85 35 33 36 90 37 84 38 86 39 34 40 89 41 83 42 82 43
REMARK SMILES IDX 35 45 69 46 48 47 68 48 49 49 52 50 67 51 87 52 50 53 51 54
REMARK SMILES IDX 66 56 88 57 53 58 36 59 37 60 46 61 38 62 39 63 45 64 47 65
REMARK SMILES IDX 40 66 41 67 42 68 43 69 44 70 70 71 71 72 80 73 72 74 73 75
REMARK SMILES IDX 79 76 81 77 74 78 75 79 76 80 77 81 78 82 54 83 55 84 64 85
REMARK SMILES IDX 56 86 57 87 63 88 65 89 58 90 59 91 60 92 61 93 62 94
REMARK H PARENT 86 44 52 55
REMARK Flexibility Score: inf
ROOT
ATOM      1  C   UNL     1       8.572  -6.361   3.522  1.00  0.00     0.275 C 
ENDROOT
BRANCH   1   2
ATOM      2  C   UNL     1       7.629  -5.407   2.779  1.00  0.00     0.274 C 
BRANCH   2   3
ATOM      3  O   UNL     1       6.547  -4.977   3.623  1.00  0.00    -0.461 OA
BRANCH   3   4
ATOM      4  C   UNL     1       5.408  -5.707   3.541  1.00  0.00     0.323 C 
ATOM      5  O   UNL     1       5.228  -6.597   2.712  1.00  0.00    -0.251 OA
BRANCH   4   6
ATOM      6  C   UNL     1       4.346  -5.351   4.573  1.00  0.00     0.189 C 
ATOM      7  C   UNL     1       2.452  -5.458   2.793  1.00  0.00     0.042 C 
ATOM      8  C   UNL     1       3.119  -4.751   3.934  1.00  0.00    -0.033 C 
ATOM      9  C   UNL     1       2.651  -3.653   4.540  1.00  0.00     0.073 C 
ATOM     10  C   UNL     1       1.473  -2.856   4.248  1.00  0.00     0.264 C 
ATOM     11  C   UNL     1       3.338  -3.321   5.768  1.00  0.00     0.116 C 
ATOM     12  S   UNL     1       4.861  -4.139   5.853  1.00  0.00    -0.086 SA
ATOM     13  O   UNL     1       1.181  -2.539   3.105  1.00  0.00    -0.268 OA
ATOM     14  N   UNL     1       0.828  -2.488   5.403  1.00  0.00    -0.256 N 
ATOM     15  N   UNL     1       2.864  -2.563   6.685  1.00  0.00    -0.186 NA
ATOM     16  C   UNL     1       1.550  -2.155   6.560  1.00  0.00     0.351 C 
ATOM     17  O   UNL     1       1.018  -1.524   7.471  1.00  0.00    -0.246 OA
BRANCH  14  18
ATOM     18  C   UNL     1      -0.634  -2.507   5.471  1.00  0.00     0.163 C 
BRANCH  18  19
ATOM     19  C   UNL     1      -1.462  -2.144   4.222  1.00  0.00     0.138 C 
ATOM     20  C   UNL     1      -1.553  -3.207   3.130  1.00  0.00     0.036 C 
ATOM     21  O   UNL     1      -2.832  -1.959   4.667  1.00  0.00    -0.376 OA
ATOM     22  C   UNL     1      -2.739  -4.038   3.527  1.00  0.00     0.031 C 
ATOM     23  C   UNL     1      -3.655  -3.009   4.137  1.00  0.00     0.160 C 
ENDBRANCH  18  19
ENDBRANCH  14  18
ENDBRANCH   4   6
ENDBRANCH   3   4
ENDBRANCH   2   3
ENDBRANCH   1   2
BRANCH   1  24
ATOM     24  O   UNL     1       8.005  -7.674   3.714  1.00  0.00    -0.458 OA
BRANCH  24  25
ATOM     25  C   UNL     1       7.282  -7.832   4.848  1.00  0.00     0.338 C 
ATOM     26  O   UNL     1       7.051  -6.983   5.693  1.00  0.00    -0.246 OA
BRANCH  25  27
ATOM     27  C   UNL     1       6.655  -9.162   4.886  1.00  0.00     0.060 A 
ATOM     28  C   UNL     1       5.262  -9.224   4.982  1.00  0.00     0.016 A 
ATOM     29  C   UNL     1       7.420 -10.328   4.942  1.00  0.00     0.016 A 
ATOM     30  C   UNL     1       4.624 -10.446   5.160  1.00  0.00     0.010 A 
ATOM     31  C   UNL     1       6.776 -11.559   5.107  1.00  0.00     0.010 A 
ATOM     32  C   UNL     1       5.377 -11.624   5.232  1.00  0.00    -0.014 A 
BRANCH  32  33
ATOM     33  C   UNL     1       4.690 -12.914   5.480  1.00  0.00     0.031 A 
ATOM     34  C   UNL     1       4.822 -13.589   6.815  1.00  0.00     0.074 A 
ATOM     35  C   UNL     1       3.927 -13.459   4.514  1.00  0.00     0.049 A 
ATOM     36  N   UNL     1       4.382 -14.760   7.195  1.00  0.00    -0.248 NA
ATOM     37  C   UNL     1       5.545 -12.848   7.860  1.00  0.00     0.031 C 
ATOM     38  C   UNL     1       3.687 -12.869   3.196  1.00  0.00     0.029 A 
ATOM     39  N   UNL     1       3.217 -14.632   4.491  1.00  0.00    -0.354 N 
ATOM     40  C   UNL     1       4.792 -14.910   8.514  1.00  0.00     0.074 A 
ATOM     41  C   UNL     1       5.529 -13.713   8.864  1.00  0.00     0.031 C 
ATOM     42  C   UNL     1       2.888 -13.685   2.491  1.00  0.00     0.029 A 
ATOM     43  C   UNL     1       2.603 -14.876   3.286  1.00  0.00     0.049 A 
ATOM     44  H   UNL     1       3.152 -15.240   5.262  1.00  0.00     0.167 HD
ATOM     45  C   UNL     1       4.572 -15.950   9.354  1.00  0.00     0.037 A 
ATOM     46  C   UNL     1       1.919 -15.954   2.858  1.00  0.00     0.037 A 
ATOM     47  C   UNL     1       3.829 -17.131   8.997  1.00  0.00     0.049 A 
ATOM     48  C   UNL     1       1.727 -17.117   3.790  1.00  0.00     0.074 A 
ATOM     49  C   UNL     1       3.556 -18.245   9.771  1.00  0.00     0.029 A 
ATOM     50  N   UNL     1       3.236 -17.350   7.761  1.00  0.00    -0.354 N 
ATOM     51  N   UNL     1       2.144 -17.258   5.026  1.00  0.00    -0.248 NA
ATOM     52  C   UNL     1       0.977 -18.270   3.272  1.00  0.00     0.031 C 
ATOM     53  C   UNL     1       2.825 -19.151   8.993  1.00  0.00     0.029 A 
ATOM     54  C   UNL     1       2.609 -18.584   7.747  1.00  0.00     0.049 A 
ATOM     55  H   UNL     1       3.258 -16.719   7.005  1.00  0.00     0.167 HD
ATOM     56  C   UNL     1       1.700 -18.509   5.437  1.00  0.00     0.074 A 
ATOM     57  C   UNL     1       0.966 -19.078   4.324  1.00  0.00     0.031 C 
ATOM     58  C   UNL     1       1.884 -19.132   6.628  1.00  0.00     0.037 A 
BRANCH  45  59
ATOM     59  C   UNL     1       5.174 -15.867  10.729  1.00  0.00     0.058 A 
ATOM     60  C   UNL     1       4.652 -15.015  11.714  1.00  0.00     0.135 A 
ATOM     61  C   UNL     1       6.281 -16.662  11.069  1.00  0.00     0.135 A 
ATOM     62  F   UNL     1       3.606 -14.221  11.435  1.00  0.00    -0.206 F 
ATOM     63  C   UNL     1       5.226 -14.929  12.979  1.00  0.00     0.059 A 
ATOM     64  C   UNL     1       6.856 -16.610  12.335  1.00  0.00     0.059 A 
ATOM     65  F   UNL     1       6.819 -17.493  10.163  1.00  0.00    -0.206 F 
ATOM     66  C   UNL     1       6.332 -15.727  13.278  1.00  0.00     0.060 A 
BRANCH  66  67
ATOM     67  S   UNL     1       7.078 -15.595  14.917  1.00  0.00     0.124 S 
ATOM     68  O   UNL     1       7.798 -14.330  14.806  1.00  0.00    -0.237 OA
ATOM     69  O   UNL     1       5.912 -15.586  15.794  1.00  0.00    -0.237 OA
ATOM     70  O   UNL     1       7.915 -16.788  15.005  1.00  0.00    -0.744 OA
ENDBRANCH  66  67
ENDBRANCH  45  59
BRANCH  46  71
ATOM     71  C   UNL     1       1.397 -15.988   1.467  1.00  0.00     0.058 A 
ATOM     72  C   UNL     1       0.025 -15.884   1.203  1.00  0.00     0.135 A 
ATOM     73  C   UNL     1       2.270 -16.090   0.371  1.00  0.00     0.135 A 
ATOM     74  F   UNL     1      -0.848 -15.793   2.218  1.00  0.00    -0.206 F 
ATOM     75  C   UNL     1      -0.467 -15.881  -0.098  1.00  0.00     0.059 A 
ATOM     76  C   UNL     1       1.804 -16.065  -0.939  1.00  0.00     0.059 A 
ATOM     77  F   UNL     1       3.594 -16.179   0.572  1.00  0.00    -0.206 F 
ATOM     78  C   UNL     1       0.432 -15.966  -1.163  1.00  0.00     0.060 A 
BRANCH  78  79
ATOM     79  S   UNL     1      -0.207 -15.886  -2.851  1.00  0.00     0.124 S 
ATOM     80  O   UNL     1      -0.756 -17.225  -3.020  1.00  0.00    -0.237 OA
ATOM     81  O   UNL     1      -1.181 -14.802  -2.760  1.00  0.00    -0.237 OA
ATOM     82  O   UNL     1       0.981 -15.583  -3.643  1.00  0.00    -0.744 OA
ENDBRANCH  78  79
ENDBRANCH  46  71
BRANCH  58  83
ATOM     83  C   UNL     1       1.263 -20.490   6.794  1.00  0.00     0.058 A 
ATOM     84  C   UNL     1       1.817 -21.629   6.190  1.00  0.00     0.135 A 
ATOM     85  C   UNL     1       0.129 -20.659   7.603  1.00  0.00     0.135 A 
ATOM     86  F   UNL     1       2.897 -21.518   5.401  1.00  0.00    -0.206 F 
ATOM     87  C   UNL     1       1.255 -22.889   6.366  1.00  0.00     0.059 A 
ATOM     88  C   UNL     1      -0.437 -21.913   7.811  1.00  0.00     0.059 A 
ATOM     89  F   UNL     1      -0.433 -19.602   8.209  1.00  0.00    -0.206 F 
ATOM     90  C   UNL     1       0.127 -23.021   7.179  1.00  0.00     0.060 A 
BRANCH  90  91
ATOM     91  S   UNL     1      -0.577 -24.665   7.427  1.00  0.00     0.124 S 
ATOM     92  O   UNL     1      -1.281 -24.875   6.167  1.00  0.00    -0.237 OA
ATOM     93  O   UNL     1       0.611 -25.488   7.635  1.00  0.00    -0.237 OA
ATOM     94  O   UNL     1      -1.427 -24.495   8.602  1.00  0.00    -0.744 OA
ENDBRANCH  90  91
ENDBRANCH  58  83
ENDBRANCH  32  33
ENDBRANCH  25  27
ENDBRANCH  24  25
ENDBRANCH   1  24
TORSDOF 16
