REMARK SMILES Cc1ccn2c([C@@H]3CCCC[C@@H]3C(=O)OCCOC(=O)c3ccc(-c4c5nc(c(-c6c(F)cc(S(=O)(=O)[O-])cc6F)c6ccc([nH]6)c(-c6c(F)cc(S(=O)(=O)[O-])cc6F)c6nc(c(-c7c(F)cc(S(=O)(=O)[O-])cc7F)c7ccc4[nH]7)C=C6)C=C5)cc3)nnc2c1
REMARK SMILES IDX 17 1 16 2 15 3 13 4 14 5 12 6 7 7 8 8 9 9 11 10 10 11 6 12
REMARK SMILES IDX 1 13 2 14 3 15 90 16 4 17 89 18 5 19 88 20 87 21 18 22 19 23
REMARK SMILES IDX 20 24 21 25 22 26 86 27 23 28 85 29 24 30 25 31 26 32 79 33
REMARK SMILES IDX 27 34 84 35 78 36 80 37 28 38 83 39 77 40 76 41 29 43 63 44
REMARK SMILES IDX 42 45 62 46 43 47 46 48 61 49 81 50 44 51 45 52 60 54 82 55
REMARK SMILES IDX 47 56 30 57 31 58 40 59 32 60 33 61 39 62 41 63 34 64 35 65
REMARK SMILES IDX 36 66 37 67 38 68 64 69 65 70 74 71 66 72 67 73 73 74 75 75
REMARK SMILES IDX 68 76 69 77 70 78 71 79 72 80 48 81 49 82 58 83 50 84 51 85
REMARK SMILES IDX 57 86 59 87 52 88 53 89 54 90 55 91 56 92
REMARK H PARENT 80 42 46 53
REMARK Flexibility Score: inf
ROOT
ATOM      1  C   UNL     1      -6.095   3.478   0.913  1.00  0.00     0.275 C 
ENDROOT
BRANCH   1   2
ATOM      2  C   UNL     1      -4.989   2.578   0.305  1.00  0.00     0.274 C 
BRANCH   2   3
ATOM      3  O   UNL     1      -3.735   2.769   1.000  1.00  0.00    -0.462 OA
BRANCH   3   4
ATOM      4  C   UNL     1      -2.796   3.553   0.396  1.00  0.00     0.309 C 
ATOM      5  O   UNL     1      -2.365   3.319  -0.720  1.00  0.00    -0.252 OA
BRANCH   4   6
ATOM      6  C   UNL     1      -2.440   4.781   1.264  1.00  0.00     0.110 C 
ATOM      7  C   UNL     1      -1.005   5.241   1.618  1.00  0.00     0.072 C 
ATOM      8  C   UNL     1      -0.741   5.355   3.127  1.00  0.00     0.012 C 
ATOM      9  C   UNL     1      -1.770   6.269   3.770  1.00  0.00     0.001 C 
ATOM     10  C   UNL     1      -3.442   4.897   2.435  1.00  0.00     0.016 C 
ATOM     11  C   UNL     1      -3.129   5.629   3.718  1.00  0.00     0.001 C 
BRANCH   7  12
ATOM     12  C   UNL     1       0.151   4.598   0.944  1.00  0.00     0.141 A 
ATOM     13  C   UNL     1       1.473  -0.659  -0.244  1.00  0.00     0.044 C 
ATOM     14  C   UNL     1       1.181   0.749   0.160  1.00  0.00    -0.046 A 
ATOM     15  C   UNL     1       0.056   0.934   1.073  1.00  0.00     0.022 A 
ATOM     16  C   UNL     1       1.904   1.804  -0.279  1.00  0.00     0.053 A 
ATOM     17  C   UNL     1      -0.292   2.176   1.432  1.00  0.00     0.095 A 
ATOM     18  C   UNL     1       1.520   3.120   0.092  1.00  0.00     0.161 A 
ATOM     19  N   UNL     1       0.395   3.251   0.885  1.00  0.00    -0.286 N 
ATOM     20  N   UNL     1       2.018   4.310  -0.156  1.00  0.00    -0.130 NA
ATOM     21  N   UNL     1       1.160   5.240   0.384  1.00  0.00    -0.134 NA
ENDBRANCH   7  12
ENDBRANCH   4   6
ENDBRANCH   3   4
ENDBRANCH   2   3
ENDBRANCH   1   2
BRANCH   1  22
ATOM     22  O   UNL     1      -6.074   4.747   0.236  1.00  0.00    -0.458 OA
BRANCH  22  23
ATOM     23  C   UNL     1      -6.337   5.912   0.908  1.00  0.00     0.338 C 
ATOM     24  O   UNL     1      -6.766   6.040   2.022  1.00  0.00    -0.246 OA
BRANCH  23  25
ATOM     25  C   UNL     1      -5.580   6.923   0.104  1.00  0.00     0.060 A 
ATOM     26  C   UNL     1      -5.626   6.814  -1.286  1.00  0.00     0.016 A 
ATOM     27  C   UNL     1      -4.502   7.555   0.727  1.00  0.00     0.016 A 
ATOM     28  C   UNL     1      -4.467   7.037  -2.023  1.00  0.00     0.010 A 
ATOM     29  C   UNL     1      -3.344   7.771  -0.021  1.00  0.00     0.010 A 
ATOM     30  C   UNL     1      -3.279   7.392  -1.376  1.00  0.00    -0.014 A 
BRANCH  30  31
ATOM     31  C   UNL     1      -2.093   7.709  -2.189  1.00  0.00     0.031 A 
ATOM     32  C   UNL     1      -1.960   9.171  -2.300  1.00  0.00     0.074 A 
ATOM     33  C   UNL     1      -1.195   6.953  -2.864  1.00  0.00     0.049 A 
ATOM     34  N   UNL     1      -2.639   9.899  -3.120  1.00  0.00    -0.248 NA
ATOM     35  C   UNL     1      -1.238   9.914  -1.263  1.00  0.00     0.031 C 
ATOM     36  C   UNL     1      -0.879   5.532  -2.773  1.00  0.00     0.029 A 
ATOM     37  N   UNL     1      -0.311   7.386  -3.825  1.00  0.00    -0.354 N 
ATOM     38  C   UNL     1      -2.256  11.194  -2.849  1.00  0.00     0.074 A 
ATOM     39  C   UNL     1      -1.603  11.163  -1.563  1.00  0.00     0.031 C 
ATOM     40  C   UNL     1       0.245   5.259  -3.490  1.00  0.00     0.029 A 
ATOM     41  C   UNL     1       0.624   6.440  -4.248  1.00  0.00     0.049 A 
ATOM     42  H   UNL     1      -0.336   8.300  -4.190  1.00  0.00     0.167 HD
ATOM     43  C   UNL     1      -2.275  12.143  -3.819  1.00  0.00     0.037 A 
ATOM     44  C   UNL     1       1.595   6.615  -5.188  1.00  0.00     0.037 A 
ATOM     45  C   UNL     1      -2.905  11.668  -5.027  1.00  0.00     0.049 A 
ATOM     46  C   UNL     1       1.126   7.697  -6.086  1.00  0.00     0.074 A 
ATOM     47  C   UNL     1      -4.168  11.235  -5.376  1.00  0.00     0.029 A 
ATOM     48  N   UNL     1      -2.058  11.207  -6.005  1.00  0.00    -0.354 N 
ATOM     49  N   UNL     1       0.119   7.590  -6.906  1.00  0.00    -0.248 NA
ATOM     50  C   UNL     1       1.578   9.053  -5.825  1.00  0.00     0.031 C 
ATOM     51  C   UNL     1      -3.968  10.202  -6.342  1.00  0.00     0.029 A 
ATOM     52  C   UNL     1      -2.596  10.077  -6.568  1.00  0.00     0.049 A 
ATOM     53  H   UNL     1      -1.201  11.620  -6.261  1.00  0.00     0.167 HD
ATOM     54  C   UNL     1      -0.463   8.845  -6.908  1.00  0.00     0.074 A 
ATOM     55  C   UNL     1       0.548   9.729  -6.338  1.00  0.00     0.031 C 
ATOM     56  C   UNL     1      -1.804   8.992  -7.115  1.00  0.00     0.037 A 
BRANCH  43  57
ATOM     57  C   UNL     1      -1.383  13.343  -3.792  1.00  0.00     0.058 A 
ATOM     58  C   UNL     1      -1.716  14.473  -4.554  1.00  0.00     0.135 A 
ATOM     59  C   UNL     1      -0.098  13.338  -3.207  1.00  0.00     0.135 A 
ATOM     60  F   UNL     1      -2.896  14.543  -5.191  1.00  0.00    -0.206 F 
ATOM     61  C   UNL     1      -0.829  15.534  -4.722  1.00  0.00     0.059 A 
ATOM     62  C   UNL     1       0.777  14.409  -3.307  1.00  0.00     0.059 A 
ATOM     63  F   UNL     1       0.395  12.256  -2.589  1.00  0.00    -0.206 F 
ATOM     64  C   UNL     1       0.412  15.493  -4.087  1.00  0.00     0.060 A 
BRANCH  64  65
ATOM     65  S   UNL     1       1.567  16.851  -4.329  1.00  0.00     0.124 S 
ATOM     66  O   UNL     1       1.909  16.696  -5.738  1.00  0.00    -0.237 OA
ATOM     67  O   UNL     1       0.744  18.008  -3.993  1.00  0.00    -0.237 OA
ATOM     68  O   UNL     1       2.638  16.555  -3.381  1.00  0.00    -0.744 OA
ENDBRANCH  64  65
ENDBRANCH  43  57
BRANCH  44  69
ATOM     69  C   UNL     1       3.015   6.154  -5.252  1.00  0.00     0.058 A 
ATOM     70  C   UNL     1       3.785   6.325  -6.425  1.00  0.00     0.135 A 
ATOM     71  C   UNL     1       3.742   5.890  -4.079  1.00  0.00     0.135 A 
ATOM     72  F   UNL     1       3.184   6.590  -7.596  1.00  0.00    -0.206 F 
ATOM     73  C   UNL     1       5.186   6.324  -6.417  1.00  0.00     0.059 A 
ATOM     74  C   UNL     1       5.142   5.880  -4.047  1.00  0.00     0.059 A 
ATOM     75  F   UNL     1       3.108   5.740  -2.909  1.00  0.00    -0.206 F 
ATOM     76  C   UNL     1       5.859   6.132  -5.213  1.00  0.00     0.060 A 
BRANCH  76  77
ATOM     77  S   UNL     1       7.659   6.338  -5.166  1.00  0.00     0.124 S 
ATOM     78  O   UNL     1       8.118   5.200  -5.957  1.00  0.00    -0.237 OA
ATOM     79  O   UNL     1       7.838   7.649  -5.780  1.00  0.00    -0.237 OA
ATOM     80  O   UNL     1       7.975   6.273  -3.742  1.00  0.00    -0.744 OA
ENDBRANCH  76  77
ENDBRANCH  44  69
BRANCH  56  81
ATOM     81  C   UNL     1      -2.538   7.867  -7.805  1.00  0.00     0.058 A 
ATOM     82  C   UNL     1      -2.673   6.554  -7.320  1.00  0.00     0.135 A 
ATOM     83  C   UNL     1      -3.215   8.178  -8.997  1.00  0.00     0.135 A 
ATOM     84  F   UNL     1      -2.138   6.191  -6.144  1.00  0.00    -0.206 F 
ATOM     85  C   UNL     1      -3.411   5.587  -8.012  1.00  0.00     0.059 A 
ATOM     86  C   UNL     1      -3.985   7.242  -9.682  1.00  0.00     0.059 A 
ATOM     87  F   UNL     1      -3.163   9.425  -9.494  1.00  0.00    -0.206 F 
ATOM     88  C   UNL     1      -4.068   5.943  -9.191  1.00  0.00     0.060 A 
BRANCH  88  89
ATOM     89  S   UNL     1      -5.079   4.715 -10.049  1.00  0.00     0.124 S 
ATOM     90  O   UNL     1      -4.078   3.773 -10.538  1.00  0.00    -0.237 OA
ATOM     91  O   UNL     1      -5.948   4.222  -8.984  1.00  0.00    -0.237 OA
ATOM     92  O   UNL     1      -5.758   5.492 -11.084  1.00  0.00    -0.744 OA
ENDBRANCH  88  89
ENDBRANCH  56  81
ENDBRANCH  30  31
ENDBRANCH  23  25
ENDBRANCH  22  23
ENDBRANCH   1  22
TORSDOF 15
