REMARK SMILES CCCc1cc2c(cc1Cl)C=C(C(=O)OCCOC(=O)c1ccc(-c3c4nc(c(-c5c(F)cc(S(=O)(=O)[O-])cc5F)c5ccc([nH]5)c(-c5c(F)cc(S(=O)(=O)[O-])cc5F)c5nc(c(-c6c(F)cc(S(=O)(=O)[O-])cc6F)c6ccc3[nH]6)C=C5)C=C4)cc1)[C@H](C(F)(F)F)O2
REMARK SMILES IDX 17 1 16 2 15 3 13 4 14 5 12 6 4 7 5 8 9 9 6 10 8 11 10 12
REMARK SMILES IDX 7 13 92 14 11 15 87 16 3 17 2 18 1 19 88 20 89 21 90 22
REMARK SMILES IDX 91 23 18 24 19 25 20 26 21 27 22 28 86 29 23 30 85 31 24 32
REMARK SMILES IDX 25 33 26 34 79 35 27 36 84 37 78 38 80 39 28 40 83 41 77 42
REMARK SMILES IDX 76 43 29 45 63 46 42 47 62 48 43 49 46 50 61 51 81 52 44 53
REMARK SMILES IDX 45 54 60 56 82 57 47 58 30 59 31 60 40 61 32 62 33 63 39 64
REMARK SMILES IDX 41 65 34 66 35 67 36 68 37 69 38 70 64 71 65 72 74 73 66 74
REMARK SMILES IDX 67 75 73 76 75 77 68 78 69 79 70 80 71 81 72 82 48 83 49 84
REMARK SMILES IDX 58 85 50 86 51 87 57 88 59 89 52 90 53 91 54 92 55 93 56 94
REMARK H PARENT 80 44 46 55
REMARK Flexibility Score: inf
ROOT
ATOM      1  C   UNL     1      -1.603  -8.667  -5.318  1.00  0.00     0.275 C 
ENDROOT
BRANCH   1   2
ATOM      2  C   UNL     1      -0.096  -8.415  -5.239  1.00  0.00     0.275 C 
BRANCH   2   3
ATOM      3  O   UNL     1       0.178  -7.227  -4.467  1.00  0.00    -0.459 OA
BRANCH   3   4
ATOM      4  C   UNL     1       0.487  -6.115  -5.171  1.00  0.00     0.338 C 
ATOM      5  O   UNL     1       0.686  -6.059  -6.369  1.00  0.00    -0.246 OA
BRANCH   4   6
ATOM      6  C   UNL     1       0.500  -4.931  -4.288  1.00  0.00     0.087 C 
ATOM      7  C   UNL     1       0.750  -0.186  -2.655  1.00  0.00    -0.026 A 
ATOM      8  C   UNL     1       1.407  -1.386  -2.308  1.00  0.00     0.052 A 
ATOM      9  C   UNL     1      -0.229  -0.221  -3.662  1.00  0.00     0.045 A 
ATOM     10  C   UNL     1       1.105  -2.580  -2.954  1.00  0.00     0.128 A 
ATOM     11  C   UNL     1      -0.495  -1.408  -4.345  1.00  0.00     0.032 A 
ATOM     12  Cl  UNL     1      -1.123   1.181  -4.128  1.00  0.00    -0.084 Cl
ATOM     13  C   UNL     1       0.188  -2.578  -4.002  1.00  0.00     0.019 A 
ATOM     14  O   UNL     1       1.784  -3.710  -2.567  1.00  0.00    -0.475 OA
ATOM     15  C   UNL     1       0.046  -3.779  -4.798  1.00  0.00     0.027 C 
ATOM     16  C   UNL     1       1.173  -4.989  -2.945  1.00  0.00     0.316 C 
BRANCH   7  17
ATOM     17  C   UNL     1       1.131   1.085  -1.934  1.00  0.00     0.037 C 
BRANCH  17  18
ATOM     18  C   UNL     1       0.376   1.306  -0.621  1.00  0.00     0.001 C 
ATOM     19  C   UNL     1       0.747   0.304   0.465  1.00  0.00     0.004 C 
ENDBRANCH  17  18
ENDBRANCH   7  17
BRANCH  16  20
ATOM     20  C   UNL     1       0.309  -5.516  -1.784  1.00  0.00     0.430 C 
ATOM     21  F   UNL     1       1.107  -5.863  -0.738  1.00  0.00    -0.167 F 
ATOM     22  F   UNL     1      -0.568  -4.596  -1.325  1.00  0.00    -0.167 F 
ATOM     23  F   UNL     1      -0.396  -6.623  -2.098  1.00  0.00    -0.167 F 
ENDBRANCH  16  20
ENDBRANCH   4   6
ENDBRANCH   3   4
ENDBRANCH   2   3
ENDBRANCH   1   2
BRANCH   1  24
ATOM     24  O   UNL     1      -2.218  -7.711  -6.201  1.00  0.00    -0.458 OA
BRANCH  24  25
ATOM     25  C   UNL     1      -2.979  -6.764  -5.610  1.00  0.00     0.338 C 
ATOM     26  O   UNL     1      -3.236  -6.649  -4.422  1.00  0.00    -0.246 OA
BRANCH  25  27
ATOM     27  C   UNL     1      -3.402  -5.784  -6.620  1.00  0.00     0.060 A 
ATOM     28  C   UNL     1      -4.729  -5.669  -7.018  1.00  0.00     0.016 A 
ATOM     29  C   UNL     1      -2.457  -4.873  -7.079  1.00  0.00     0.016 A 
ATOM     30  C   UNL     1      -5.091  -4.637  -7.895  1.00  0.00     0.010 A 
ATOM     31  C   UNL     1      -2.843  -3.770  -7.830  1.00  0.00     0.010 A 
ATOM     32  C   UNL     1      -4.161  -3.651  -8.282  1.00  0.00    -0.014 A 
BRANCH  32  33
ATOM     33  C   UNL     1      -4.534  -2.501  -9.157  1.00  0.00     0.031 A 
ATOM     34  C   UNL     1      -3.770  -2.224 -10.434  1.00  0.00     0.074 A 
ATOM     35  C   UNL     1      -5.516  -1.659  -8.775  1.00  0.00     0.049 A 
ATOM     36  N   UNL     1      -3.892  -1.226 -11.274  1.00  0.00    -0.248 NA
ATOM     37  C   UNL     1      -2.696  -3.166 -10.792  1.00  0.00     0.031 C 
ATOM     38  C   UNL     1      -6.280  -1.755  -7.529  1.00  0.00     0.029 A 
ATOM     39  N   UNL     1      -6.047  -0.555  -9.398  1.00  0.00    -0.354 N 
ATOM     40  C   UNL     1      -2.896  -1.404 -12.229  1.00  0.00     0.074 A 
ATOM     41  C   UNL     1      -2.134  -2.565 -11.830  1.00  0.00     0.031 C 
ATOM     42  C   UNL     1      -7.218  -0.796  -7.509  1.00  0.00     0.029 A 
ATOM     43  C   UNL     1      -7.095   0.015  -8.715  1.00  0.00     0.049 A 
ATOM     44  H   UNL     1      -5.708  -0.205 -10.254  1.00  0.00     0.167 HD
ATOM     45  C   UNL     1      -2.657  -0.692 -13.358  1.00  0.00     0.037 A 
ATOM     46  C   UNL     1      -7.877   1.068  -9.025  1.00  0.00     0.037 A 
ATOM     47  C   UNL     1      -3.457   0.426 -13.788  1.00  0.00     0.049 A 
ATOM     48  C   UNL     1      -7.638   1.802 -10.314  1.00  0.00     0.074 A 
ATOM     49  C   UNL     1      -3.339   1.177 -14.944  1.00  0.00     0.029 A 
ATOM     50  N   UNL     1      -4.538   0.940 -13.087  1.00  0.00    -0.354 N 
ATOM     51  N   UNL     1      -6.712   1.597 -11.219  1.00  0.00    -0.248 NA
ATOM     52  C   UNL     1      -8.556   2.906 -10.628  1.00  0.00     0.031 C 
ATOM     53  C   UNL     1      -4.335   2.160 -14.932  1.00  0.00     0.029 A 
ATOM     54  C   UNL     1      -5.099   1.994 -13.789  1.00  0.00     0.049 A 
ATOM     55  H   UNL     1      -4.860   0.605 -12.219  1.00  0.00     0.167 HD
ATOM     56  C   UNL     1      -6.949   2.529 -12.223  1.00  0.00     0.074 A 
ATOM     57  C   UNL     1      -8.114   3.290 -11.818  1.00  0.00     0.031 C 
ATOM     58  C   UNL     1      -6.263   2.737 -13.375  1.00  0.00     0.037 A 
BRANCH  45  59
ATOM     59  C   UNL     1      -1.504  -1.122 -14.229  1.00  0.00     0.058 A 
ATOM     60  C   UNL     1      -1.535  -2.329 -14.948  1.00  0.00     0.135 A 
ATOM     61  C   UNL     1      -0.371  -0.304 -14.382  1.00  0.00     0.135 A 
ATOM     62  F   UNL     1      -2.585  -3.158 -14.831  1.00  0.00    -0.206 F 
ATOM     63  C   UNL     1      -0.475  -2.725 -15.757  1.00  0.00     0.059 A 
ATOM     64  C   UNL     1       0.688  -0.666 -15.212  1.00  0.00     0.059 A 
ATOM     65  F   UNL     1      -0.286   0.862 -13.723  1.00  0.00    -0.206 F 
ATOM     66  C   UNL     1       0.632  -1.886 -15.884  1.00  0.00     0.060 A 
BRANCH  66  67
ATOM     67  S   UNL     1       1.991  -2.413 -16.951  1.00  0.00     0.124 S 
ATOM     68  O   UNL     1       2.577  -3.493 -16.164  1.00  0.00    -0.237 OA
ATOM     69  O   UNL     1       1.293  -2.822 -18.165  1.00  0.00    -0.237 OA
ATOM     70  O   UNL     1       2.811  -1.212 -17.076  1.00  0.00    -0.744 OA
ENDBRANCH  66  67
ENDBRANCH  45  59
BRANCH  46  71
ATOM     71  C   UNL     1      -9.002   1.438  -8.124  1.00  0.00     0.058 A 
ATOM     72  C   UNL     1     -10.329   1.166  -8.491  1.00  0.00     0.135 A 
ATOM     73  C   UNL     1      -8.777   2.016  -6.865  1.00  0.00     0.135 A 
ATOM     74  F   UNL     1     -10.595   0.619  -9.687  1.00  0.00    -0.206 F 
ATOM     75  C   UNL     1     -11.393   1.455  -7.644  1.00  0.00     0.059 A 
ATOM     76  C   UNL     1      -9.824   2.292  -5.990  1.00  0.00     0.059 A 
ATOM     77  F   UNL     1      -7.525   2.279  -6.461  1.00  0.00    -0.206 F 
ATOM     78  C   UNL     1     -11.130   2.010  -6.390  1.00  0.00     0.060 A 
BRANCH  78  79
ATOM     79  S   UNL     1     -12.516   2.303  -5.269  1.00  0.00     0.124 S 
ATOM     80  O   UNL     1     -13.180   3.431  -5.911  1.00  0.00    -0.237 OA
ATOM     81  O   UNL     1     -13.226   1.029  -5.323  1.00  0.00    -0.237 OA
ATOM     82  O   UNL     1     -11.863   2.595  -3.997  1.00  0.00    -0.744 OA
ENDBRANCH  78  79
ENDBRANCH  46  71
BRANCH  58  83
ATOM     83  C   UNL     1      -6.779   3.803 -14.300  1.00  0.00     0.058 A 
ATOM     84  C   UNL     1      -6.638   5.168 -14.005  1.00  0.00     0.135 A 
ATOM     85  C   UNL     1      -7.391   3.452 -15.514  1.00  0.00     0.135 A 
ATOM     86  F   UNL     1      -6.062   5.556 -12.856  1.00  0.00    -0.206 F 
ATOM     87  C   UNL     1      -7.119   6.148 -14.867  1.00  0.00     0.059 A 
ATOM     88  C   UNL     1      -7.854   4.416 -16.403  1.00  0.00     0.059 A 
ATOM     89  F   UNL     1      -7.537   2.160 -15.849  1.00  0.00    -0.206 F 
ATOM     90  C   UNL     1      -7.728   5.762 -16.062  1.00  0.00     0.060 A 
BRANCH  90  91
ATOM     91  S   UNL     1      -8.342   7.045 -17.174  1.00  0.00     0.124 S 
ATOM     92  O   UNL     1      -9.530   7.505 -16.462  1.00  0.00    -0.237 OA
ATOM     93  O   UNL     1      -7.225   7.983 -17.216  1.00  0.00    -0.237 OA
ATOM     94  O   UNL     1      -8.595   6.324 -18.418  1.00  0.00    -0.744 OA
ENDBRANCH  90  91
ENDBRANCH  58  83
ENDBRANCH  32  33
ENDBRANCH  25  27
ENDBRANCH  24  25
ENDBRANCH   1  24
TORSDOF 17
