REMARK SMILES CCOc1cc(OCC)cc(-c2ccc([C@@H](C)C(=O)OCCOC(=O)c3ccc(-c4c5nc(c(-c6c(F)cc(S(=O)(=O)[O-])cc6F)c6ccc([nH]6)c(-c6c(F)cc(S(=O)(=O)[O-])cc6F)c6nc(c(-c7c(F)cc(S(=O)(=O)[O-])cc7F)c7ccc4[nH]7)C=C6)C=C5)cc3)cc2)c1
REMARK SMILES IDX 21 1 20 2 18 3 19 4 16 5 17 6 15 7 12 8 13 9 93 10 14 11
REMARK SMILES IDX 92 12 11 13 4 14 5 15 94 16 6 17 10 18 3 19 2 20 1 21 7 22
REMARK SMILES IDX 8 23 9 24 22 25 23 26 24 27 25 28 26 29 27 30 91 31 28 32
REMARK SMILES IDX 90 33 29 34 30 35 31 36 84 37 32 38 89 39 83 40 85 41 33 42
REMARK SMILES IDX 88 43 82 44 81 45 34 47 68 48 47 49 67 50 48 51 51 52 66 53
REMARK SMILES IDX 86 54 49 55 50 56 65 58 87 59 52 60 35 61 36 62 45 63 37 64
REMARK SMILES IDX 38 65 44 66 46 67 39 68 40 69 41 70 42 71 43 72 69 73 70 74
REMARK SMILES IDX 79 75 71 76 72 77 78 78 80 79 73 80 74 81 75 82 76 83 77 84
REMARK SMILES IDX 53 85 54 86 63 87 55 88 56 89 62 90 64 91 57 92 58 93 59 94
REMARK SMILES IDX 60 95 61 96
REMARK H PARENT 85 46 51 57
REMARK Flexibility Score: inf
ROOT
ATOM      1  C   UNL     1       8.581   2.446   3.701  1.00  0.00     0.274 C 
ENDROOT
BRANCH   1   2
ATOM      2  O   UNL     1       8.474   1.133   3.118  1.00  0.00    -0.462 OA
BRANCH   2   3
ATOM      3  C   UNL     1       8.678   0.074   3.946  1.00  0.00     0.313 C 
ATOM      4  O   UNL     1       9.025   0.176   5.119  1.00  0.00    -0.252 OA
BRANCH   3   5
ATOM      5  C   UNL     1       8.508  -1.280   3.265  1.00  0.00     0.126 C 
ATOM      6  C   UNL     1       9.870  -1.807   2.815  1.00  0.00     0.025 C 
BRANCH   5   7
ATOM      7  C   UNL     1       7.475  -1.338   2.151  1.00  0.00    -0.034 A 
ATOM      8  C   UNL     1       5.537  -1.503   0.084  1.00  0.00    -0.018 A 
ATOM      9  C   UNL     1       6.714  -0.755  -0.080  1.00  0.00     0.009 A 
ATOM     10  C   UNL     1       5.335  -2.153   1.307  1.00  0.00     0.009 A 
ATOM     11  C   UNL     1       7.671  -0.678   0.932  1.00  0.00     0.005 A 
ATOM     12  C   UNL     1       6.295  -2.079   2.322  1.00  0.00     0.005 A 
BRANCH   8  13
ATOM     13  C   UNL     1       4.584  -1.639  -1.025  1.00  0.00    -0.011 A 
ATOM     14  C   UNL     1       2.357  -1.470  -1.965  1.00  0.00     0.123 A 
ATOM     15  C   UNL     1       2.833  -1.904  -3.204  1.00  0.00     0.092 A 
ATOM     16  C   UNL     1       3.221  -1.359  -0.876  1.00  0.00     0.055 A 
ATOM     17  C   UNL     1       4.182  -2.218  -3.366  1.00  0.00     0.123 A 
ATOM     18  C   UNL     1       5.043  -2.078  -2.279  1.00  0.00     0.055 A 
BRANCH  14  19
ATOM     19  O   UNL     1       1.010  -1.281  -1.831  1.00  0.00    -0.494 OA
BRANCH  19  20
ATOM     20  C   UNL     1       0.640   0.076  -1.559  1.00  0.00     0.226 C 
ATOM     21  C   UNL     1       0.417   0.313  -0.075  1.00  0.00     0.049 C 
ENDBRANCH  19  20
ENDBRANCH  14  19
BRANCH  17  22
ATOM     22  O   UNL     1       4.558  -2.624  -4.619  1.00  0.00    -0.494 OA
BRANCH  22  23
ATOM     23  C   UNL     1       5.796  -3.331  -4.737  1.00  0.00     0.226 C 
ATOM     24  C   UNL     1       6.946  -2.384  -5.043  1.00  0.00     0.049 C 
ENDBRANCH  22  23
ENDBRANCH  17  22
ENDBRANCH   8  13
ENDBRANCH   5   7
ENDBRANCH   3   5
ENDBRANCH   2   3
ENDBRANCH   1   2
BRANCH   1  25
ATOM     25  C   UNL     1       7.203   3.043   3.987  1.00  0.00     0.275 C 
BRANCH  25  26
ATOM     26  O   UNL     1       6.536   2.328   5.043  1.00  0.00    -0.458 OA
BRANCH  26  27
ATOM     27  C   UNL     1       5.643   1.403   4.622  1.00  0.00     0.338 C 
ATOM     28  O   UNL     1       5.309   1.167   3.474  1.00  0.00    -0.246 OA
BRANCH  27  29
ATOM     29  C   UNL     1       5.173   0.604   5.763  1.00  0.00     0.060 A 
ATOM     30  C   UNL     1       5.511  -0.750   5.793  1.00  0.00     0.016 A 
ATOM     31  C   UNL     1       4.310   1.141   6.718  1.00  0.00     0.016 A 
ATOM     32  C   UNL     1       4.948  -1.591   6.746  1.00  0.00     0.010 A 
ATOM     33  C   UNL     1       3.755   0.298   7.687  1.00  0.00     0.010 A 
ATOM     34  C   UNL     1       4.045  -1.079   7.685  1.00  0.00    -0.014 A 
BRANCH  34  35
ATOM     35  C   UNL     1       3.331  -2.014   8.588  1.00  0.00     0.031 A 
ATOM     36  C   UNL     1       1.889  -2.348   8.318  1.00  0.00     0.074 A 
ATOM     37  C   UNL     1       3.984  -2.602   9.607  1.00  0.00     0.049 A 
ATOM     38  N   UNL     1       1.076  -3.114   8.997  1.00  0.00    -0.248 NA
ATOM     39  C   UNL     1       1.284  -1.737   7.123  1.00  0.00     0.031 C 
ATOM     40  C   UNL     1       5.393  -2.390   9.941  1.00  0.00     0.029 A 
ATOM     41  N   UNL     1       3.549  -3.504  10.544  1.00  0.00    -0.354 N 
ATOM     42  C   UNL     1      -0.142  -3.062   8.328  1.00  0.00     0.074 A 
ATOM     43  C   UNL     1       0.035  -2.176   7.198  1.00  0.00     0.031 C 
ATOM     44  C   UNL     1       5.708  -3.147  11.006  1.00  0.00     0.029 A 
ATOM     45  C   UNL     1       4.517  -3.869  11.447  1.00  0.00     0.049 A 
ATOM     46  H   UNL     1       2.630  -3.856  10.567  1.00  0.00     0.167 HD
ATOM     47  C   UNL     1      -1.300  -3.699   8.627  1.00  0.00     0.037 A 
ATOM     48  C   UNL     1       4.447  -4.684  12.518  1.00  0.00     0.037 A 
ATOM     49  C   UNL     1      -1.466  -4.594   9.742  1.00  0.00     0.049 A 
ATOM     50  C   UNL     1       3.147  -5.370  12.837  1.00  0.00     0.074 A 
ATOM     51  C   UNL     1      -2.602  -5.279  10.137  1.00  0.00     0.029 A 
ATOM     52  N   UNL     1      -0.461  -4.939  10.634  1.00  0.00    -0.354 N 
ATOM     53  N   UNL     1       1.998  -5.292  12.208  1.00  0.00    -0.248 NA
ATOM     54  C   UNL     1       3.133  -6.257  14.008  1.00  0.00     0.031 C 
ATOM     55  C   UNL     1      -2.290  -6.021  11.283  1.00  0.00     0.029 A 
ATOM     56  C   UNL     1      -0.950  -5.825  11.579  1.00  0.00     0.049 A 
ATOM     57  H   UNL     1       0.464  -4.603  10.601  1.00  0.00     0.167 HD
ATOM     58  C   UNL     1       1.132  -6.139  12.891  1.00  0.00     0.074 A 
ATOM     59  C   UNL     1       1.893  -6.726  13.977  1.00  0.00     0.031 C 
ATOM     60  C   UNL     1      -0.173  -6.409  12.643  1.00  0.00     0.037 A 
BRANCH  47  61
ATOM     61  C   UNL     1      -2.485  -3.423   7.746  1.00  0.00     0.058 A 
ATOM     62  C   UNL     1      -2.587  -3.962   6.454  1.00  0.00     0.135 A 
ATOM     63  C   UNL     1      -3.539  -2.618   8.206  1.00  0.00     0.135 A 
ATOM     64  F   UNL     1      -1.597  -4.722   5.960  1.00  0.00    -0.206 F 
ATOM     65  C   UNL     1      -3.680  -3.691   5.638  1.00  0.00     0.059 A 
ATOM     66  C   UNL     1      -4.653  -2.351   7.415  1.00  0.00     0.059 A 
ATOM     67  F   UNL     1      -3.490  -2.075   9.433  1.00  0.00    -0.206 F 
ATOM     68  C   UNL     1      -4.706  -2.879   6.126  1.00  0.00     0.060 A 
BRANCH  68  69
ATOM     69  S   UNL     1      -6.117  -2.524   5.056  1.00  0.00     0.124 S 
ATOM     70  O   UNL     1      -5.553  -1.523   4.156  1.00  0.00    -0.237 OA
ATOM     71  O   UNL     1      -6.397  -3.826   4.460  1.00  0.00    -0.237 OA
ATOM     72  O   UNL     1      -7.131  -2.033   5.984  1.00  0.00    -0.744 OA
ENDBRANCH  68  69
ENDBRANCH  47  61
BRANCH  48  73
ATOM     73  C   UNL     1       5.649  -4.897  13.366  1.00  0.00     0.058 A 
ATOM     74  C   UNL     1       6.337  -6.118  13.354  1.00  0.00     0.135 A 
ATOM     75  C   UNL     1       6.135  -3.878  14.199  1.00  0.00     0.135 A 
ATOM     76  F   UNL     1       5.904  -7.125  12.579  1.00  0.00    -0.206 F 
ATOM     77  C   UNL     1       7.459  -6.329  14.149  1.00  0.00     0.059 A 
ATOM     78  C   UNL     1       7.268  -4.057  14.986  1.00  0.00     0.059 A 
ATOM     79  F   UNL     1       5.518  -2.687  14.236  1.00  0.00    -0.206 F 
ATOM     80  C   UNL     1       7.918  -5.291  14.962  1.00  0.00     0.060 A 
BRANCH  80  81
ATOM     81  S   UNL     1       9.405  -5.552  15.953  1.00  0.00     0.124 S 
ATOM     82  O   UNL     1       8.883  -6.343  17.061  1.00  0.00    -0.237 OA
ATOM     83  O   UNL     1      10.280  -6.257  15.021  1.00  0.00    -0.237 OA
ATOM     84  O   UNL     1       9.825  -4.194  16.287  1.00  0.00    -0.744 OA
ENDBRANCH  80  81
ENDBRANCH  48  73
BRANCH  60  85
ATOM     85  C   UNL     1      -0.847  -7.414  13.533  1.00  0.00     0.058 A 
ATOM     86  C   UNL     1      -1.236  -7.097  14.843  1.00  0.00     0.135 A 
ATOM     87  C   UNL     1      -1.133  -8.703  13.055  1.00  0.00     0.135 A 
ATOM     88  F   UNL     1      -0.981  -5.879  15.347  1.00  0.00    -0.206 F 
ATOM     89  C   UNL     1      -1.861  -8.033  15.660  1.00  0.00     0.059 A 
ATOM     90  C   UNL     1      -1.776  -9.648  13.847  1.00  0.00     0.059 A 
ATOM     91  F   UNL     1      -0.790  -9.052  11.804  1.00  0.00    -0.206 F 
ATOM     92  C   UNL     1      -2.122  -9.309  15.155  1.00  0.00     0.060 A 
BRANCH  92  93
ATOM     93  S   UNL     1      -2.946 -10.515  16.216  1.00  0.00     0.124 S 
ATOM     94  O   UNL     1      -1.842 -10.970  17.054  1.00  0.00    -0.237 OA
ATOM     95  O   UNL     1      -3.960  -9.707  16.887  1.00  0.00    -0.237 OA
ATOM     96  O   UNL     1      -3.465 -11.498  15.269  1.00  0.00    -0.744 OA
ENDBRANCH  92  93
ENDBRANCH  60  85
ENDBRANCH  34  35
ENDBRANCH  27  29
ENDBRANCH  26  27
ENDBRANCH  25  26
ENDBRANCH   1  25
TORSDOF 20
