REMARK SMILES COCCS(=O)(=O)Cc1ccc(C(=O)OCCOC(=O)c2ccc(-c3c4nc(c(-c5c(F)cc(S(=O)(=O)[O-])cc5F)c5ccc([nH]5)c(-c5c(F)cc(S(=O)(=O)[O-])cc5F)c5nc(c(-c6c(F)cc(S(=O)(=O)[O-])cc6F)c6ccc3[nH]6)C=C5)C=C4)cc2)cn1
REMARK SMILES IDX 16 1 15 2 13 3 14 4 12 5 9 6 10 7 88 8 11 9 87 10 8 11 5 12
REMARK SMILES IDX 6 13 7 14 4 15 3 16 2 17 1 18 17 19 18 20 19 21 20 22 21 23
REMARK SMILES IDX 22 24 86 25 23 26 85 27 24 28 25 29 26 30 79 31 27 32 84 33
REMARK SMILES IDX 78 34 80 35 28 36 83 37 77 38 76 39 29 41 63 42 42 43 62 44
REMARK SMILES IDX 43 45 46 46 61 47 81 48 44 49 45 50 60 52 82 53 47 54 30 55
REMARK SMILES IDX 31 56 40 57 32 58 33 59 39 60 41 61 34 62 35 63 36 64 37 65
REMARK SMILES IDX 38 66 64 67 65 68 74 69 66 70 67 71 73 72 75 73 68 74 69 75
REMARK SMILES IDX 70 76 71 77 72 78 48 79 49 80 58 81 50 82 51 83 57 84 59 85
REMARK SMILES IDX 52 86 53 87 54 88 55 89 56 90
REMARK H PARENT 80 40 46 51
REMARK Flexibility Score: inf
ROOT
ATOM      1  C   UNL     1      -7.256  -2.057  -1.314  1.00  0.00     0.275 C 
ENDROOT
BRANCH   1   2
ATOM      2  O   UNL     1      -5.830  -2.258  -1.202  1.00  0.00    -0.458 OA
BRANCH   2   3
ATOM      3  C   UNL     1      -5.059  -1.419  -1.934  1.00  0.00     0.339 C 
ATOM      4  O   UNL     1      -5.459  -0.524  -2.665  1.00  0.00    -0.246 OA
BRANCH   3   5
ATOM      5  C   UNL     1      -3.621  -1.673  -1.722  1.00  0.00     0.078 A 
ATOM      6  C   UNL     1      -0.871  -1.963  -1.519  1.00  0.00     0.055 A 
ATOM      7  C   UNL     1      -1.691  -3.091  -1.448  1.00  0.00     0.026 A 
ATOM      8  N   UNL     1      -1.389  -0.728  -1.697  1.00  0.00    -0.259 NA
ATOM      9  C   UNL     1      -3.083  -2.941  -1.526  1.00  0.00     0.019 A 
ATOM     10  C   UNL     1      -2.732  -0.613  -1.820  1.00  0.00     0.127 A 
BRANCH   6  11
ATOM     11  C   UNL     1       0.624  -2.020  -1.527  1.00  0.00     0.193 C 
BRANCH  11  12
ATOM     12  S   UNL     1       1.282  -2.735  -0.040  1.00  0.00     0.158 S 
ATOM     13  O   UNL     1       2.686  -2.368   0.023  1.00  0.00    -0.228 OA
ATOM     14  O   UNL     1       0.941  -4.151  -0.066  1.00  0.00    -0.228 OA
BRANCH  12  15
ATOM     15  C   UNL     1       0.432  -2.019   1.365  1.00  0.00     0.165 C 
BRANCH  15  16
ATOM     16  C   UNL     1       1.181  -0.896   2.058  1.00  0.00     0.176 C 
BRANCH  16  17
ATOM     17  O   UNL     1       0.607   0.383   1.800  1.00  0.00    -0.384 OA
ATOM     18  C   UNL     1       1.079   1.007   0.616  1.00  0.00     0.194 C 
ENDBRANCH  16  17
ENDBRANCH  15  16
ENDBRANCH  12  15
ENDBRANCH  11  12
ENDBRANCH   6  11
ENDBRANCH   3   5
ENDBRANCH   2   3
ENDBRANCH   1   2
BRANCH   1  19
ATOM     19  C   UNL     1      -7.836  -1.299  -0.116  1.00  0.00     0.275 C 
BRANCH  19  20
ATOM     20  O   UNL     1      -7.450   0.088  -0.123  1.00  0.00    -0.458 OA
BRANCH  20  21
ATOM     21  C   UNL     1      -6.381   0.380   0.652  1.00  0.00     0.338 C 
ATOM     22  O   UNL     1      -5.742  -0.395   1.345  1.00  0.00    -0.246 OA
BRANCH  21  23
ATOM     23  C   UNL     1      -5.970   1.776   0.454  1.00  0.00     0.060 A 
ATOM     24  C   UNL     1      -4.976   2.009  -0.489  1.00  0.00     0.016 A 
ATOM     25  C   UNL     1      -6.395   2.805   1.288  1.00  0.00     0.016 A 
ATOM     26  C   UNL     1      -4.318   3.230  -0.538  1.00  0.00     0.010 A 
ATOM     27  C   UNL     1      -5.804   4.072   1.165  1.00  0.00     0.010 A 
ATOM     28  C   UNL     1      -4.733   4.290   0.276  1.00  0.00    -0.014 A 
BRANCH  28  29
ATOM     29  C   UNL     1      -4.024   5.600   0.201  1.00  0.00     0.031 A 
ATOM     30  C   UNL     1      -3.380   6.189   1.430  1.00  0.00     0.074 A 
ATOM     31  C   UNL     1      -3.933   6.252  -0.978  1.00  0.00     0.049 A 
ATOM     32  N   UNL     1      -2.854   7.375   1.601  1.00  0.00    -0.248 NA
ATOM     33  C   UNL     1      -3.331   5.337   2.629  1.00  0.00     0.031 C 
ATOM     34  C   UNL     1      -4.467   5.773  -2.256  1.00  0.00     0.029 A 
ATOM     35  N   UNL     1      -3.355   7.457  -1.298  1.00  0.00    -0.354 N 
ATOM     36  C   UNL     1      -2.462   7.432   2.934  1.00  0.00     0.074 A 
ATOM     37  C   UNL     1      -2.822   6.164   3.531  1.00  0.00     0.031 C 
ATOM     38  C   UNL     1      -4.162   6.651  -3.222  1.00  0.00     0.029 A 
ATOM     39  C   UNL     1      -3.502   7.803  -2.622  1.00  0.00     0.049 A 
ATOM     40  H   UNL     1      -2.881   8.018  -0.644  1.00  0.00     0.167 HD
ATOM     41  C   UNL     1      -1.855   8.448   3.596  1.00  0.00     0.037 A 
ATOM     42  C   UNL     1      -3.192   8.938  -3.277  1.00  0.00     0.037 A 
ATOM     43  C   UNL     1      -1.460   9.689   2.976  1.00  0.00     0.049 A 
ATOM     44  C   UNL     1      -2.569  10.071  -2.511  1.00  0.00     0.074 A 
ATOM     45  C   UNL     1      -0.822  10.773   3.553  1.00  0.00     0.029 A 
ATOM     46  N   UNL     1      -1.660  10.010   1.641  1.00  0.00    -0.354 N 
ATOM     47  N   UNL     1      -2.236  10.123  -1.243  1.00  0.00    -0.248 NA
ATOM     48  C   UNL     1      -2.292  11.304  -3.258  1.00  0.00     0.031 C 
ATOM     49  C   UNL     1      -0.684  11.770   2.581  1.00  0.00     0.029 A 
ATOM     50  C   UNL     1      -1.180  11.284   1.381  1.00  0.00     0.049 A 
ATOM     51  H   UNL     1      -2.081   9.419   0.975  1.00  0.00     0.167 HD
ATOM     52  C   UNL     1      -1.693  11.386  -1.045  1.00  0.00     0.074 A 
ATOM     53  C   UNL     1      -1.724  12.059  -2.328  1.00  0.00     0.031 C 
ATOM     54  C   UNL     1      -1.214  11.940   0.097  1.00  0.00     0.037 A 
BRANCH  41  55
ATOM     55  C   UNL     1      -1.613   8.282   5.074  1.00  0.00     0.058 A 
ATOM     56  C   UNL     1      -0.661   7.385   5.583  1.00  0.00     0.135 A 
ATOM     57  C   UNL     1      -2.327   9.065   5.998  1.00  0.00     0.135 A 
ATOM     58  F   UNL     1       0.043   6.601   4.751  1.00  0.00    -0.206 F 
ATOM     59  C   UNL     1      -0.448   7.247   6.953  1.00  0.00     0.059 A 
ATOM     60  C   UNL     1      -2.109   8.967   7.369  1.00  0.00     0.059 A 
ATOM     61  F   UNL     1      -3.250   9.941   5.570  1.00  0.00    -0.206 F 
ATOM     62  C   UNL     1      -1.177   8.043   7.838  1.00  0.00     0.060 A 
BRANCH  62  63
ATOM     63  S   UNL     1      -0.890   7.852   9.611  1.00  0.00     0.124 S 
ATOM     64  O   UNL     1      -1.497   6.550   9.867  1.00  0.00    -0.237 OA
ATOM     65  O   UNL     1       0.566   7.900   9.697  1.00  0.00    -0.237 OA
ATOM     66  O   UNL     1      -1.587   8.994  10.195  1.00  0.00    -0.744 OA
ENDBRANCH  62  63
ENDBRANCH  41  55
BRANCH  42  67
ATOM     67  C   UNL     1      -3.511   9.072  -4.726  1.00  0.00     0.058 A 
ATOM     68  C   UNL     1      -2.494   9.157  -5.688  1.00  0.00     0.135 A 
ATOM     69  C   UNL     1      -4.840   9.097  -5.179  1.00  0.00     0.135 A 
ATOM     70  F   UNL     1      -1.208   9.149  -5.307  1.00  0.00    -0.206 F 
ATOM     71  C   UNL     1      -2.783   9.272  -7.045  1.00  0.00     0.059 A 
ATOM     72  C   UNL     1      -5.154   9.177  -6.531  1.00  0.00     0.059 A 
ATOM     73  F   UNL     1      -5.853   9.007  -4.301  1.00  0.00    -0.206 F 
ATOM     74  C   UNL     1      -4.117   9.274  -7.457  1.00  0.00     0.060 A 
BRANCH  74  75
ATOM     75  S   UNL     1      -4.478   9.370  -9.223  1.00  0.00     0.124 S 
ATOM     76  O   UNL     1      -4.129  10.754  -9.520  1.00  0.00    -0.237 OA
ATOM     77  O   UNL     1      -3.586   8.354  -9.773  1.00  0.00    -0.237 OA
ATOM     78  O   UNL     1      -5.901   9.048  -9.293  1.00  0.00    -0.744 OA
ENDBRANCH  74  75
ENDBRANCH  42  67
BRANCH  54  79
ATOM     79  C   UNL     1      -0.648  13.331   0.003  1.00  0.00     0.058 A 
ATOM     80  C   UNL     1      -1.470  14.453  -0.187  1.00  0.00     0.135 A 
ATOM     81  C   UNL     1       0.732  13.545   0.147  1.00  0.00     0.135 A 
ATOM     82  F   UNL     1      -2.795  14.303  -0.340  1.00  0.00    -0.206 F 
ATOM     83  C   UNL     1      -0.939  15.737  -0.256  1.00  0.00     0.059 A 
ATOM     84  C   UNL     1       1.280  14.823   0.113  1.00  0.00     0.059 A 
ATOM     85  F   UNL     1       1.562  12.507   0.338  1.00  0.00    -0.206 F 
ATOM     86  C   UNL     1       0.438  15.912  -0.101  1.00  0.00     0.060 A 
BRANCH  86  87
ATOM     87  S   UNL     1       1.108  17.587  -0.160  1.00  0.00     0.124 S 
ATOM     88  O   UNL     1       0.984  17.904  -1.579  1.00  0.00    -0.237 OA
ATOM     89  O   UNL     1       0.209  18.313   0.733  1.00  0.00    -0.237 OA
ATOM     90  O   UNL     1       2.473  17.425   0.331  1.00  0.00    -0.744 OA
ENDBRANCH  86  87
ENDBRANCH  54  79
ENDBRANCH  28  29
ENDBRANCH  21  23
ENDBRANCH  20  21
ENDBRANCH  19  20
ENDBRANCH   1  19
TORSDOF 19
