REMARK SMILES O=C(COc1ccccc1/C=C1/SC(=O)N(c2ccc(F)cc2)C1=O)OCCOC(=O)c1ccc(-c2c3nc(c(-c4c(F)cc(S(=O)(=O)[O-])cc4F)c4ccc([nH]4)c(-c4c(F)cc(S(=O)(=O)[O-])cc4F)c4nc(c(-c5c(F)cc(S(=O)(=O)[O-])cc5F)c5ccc2[nH]5)C=C4)C=C3)cc1
REMARK SMILES IDX 27 1 26 2 2 3 1 4 3 5 4 6 5 7 6 8 10 9 7 10 9 11 8 12 11 13
REMARK SMILES IDX 12 14 13 15 24 16 14 17 16 18 25 19 15 20 17 21 18 22 23 23
REMARK SMILES IDX 19 24 22 25 20 26 21 27 28 28 29 29 30 30 31 31 32 32 33 33
REMARK SMILES IDX 97 34 34 35 96 36 35 37 36 38 37 39 90 40 38 41 95 42 89 43
REMARK SMILES IDX 91 44 39 45 94 46 88 47 87 48 40 50 74 51 53 52 73 53 54 54
REMARK SMILES IDX 57 55 72 56 92 57 55 58 56 59 71 61 93 62 58 63 41 64 42 65
REMARK SMILES IDX 51 66 43 67 44 68 50 69 52 70 45 71 46 72 47 73 48 74 49 75
REMARK SMILES IDX 75 76 76 77 85 78 77 79 78 80 84 81 86 82 79 83 80 84 81 85
REMARK SMILES IDX 82 86 83 87 59 88 60 89 69 90 61 91 62 92 68 93 70 94 63 95
REMARK SMILES IDX 64 96 65 97 66 98 67 99
REMARK H PARENT 91 49 57 60
REMARK Flexibility Score: inf
ROOT
ATOM      1  C   UNL     1       4.647  -0.820   0.584  1.00  0.00     0.274 C 
ENDROOT
BRANCH   1   2
ATOM      2  O   UNL     1       3.263  -0.429   0.723  1.00  0.00    -0.460 OA
BRANCH   2   3
ATOM      3  C   UNL     1       2.458  -0.104  -0.322  1.00  0.00     0.344 C 
ATOM      4  O   UNL     1       1.236  -0.179  -0.210  1.00  0.00    -0.248 OA
BRANCH   3   5
ATOM      5  C   UNL     1       3.104   0.455  -1.573  1.00  0.00     0.352 C 
BRANCH   5   6
ATOM      6  O   UNL     1       3.825   1.646  -1.250  1.00  0.00    -0.481 OA
BRANCH   6   7
ATOM      7  C   UNL     1       3.173   2.756  -1.732  1.00  0.00     0.127 A 
ATOM      8  C   UNL     1       3.579   3.239  -2.979  1.00  0.00     0.047 A 
ATOM      9  C   UNL     1       2.170   3.412  -0.993  1.00  0.00     0.018 A 
ATOM     10  C   UNL     1       2.949   4.354  -3.527  1.00  0.00     0.004 A 
ATOM     11  C   UNL     1       1.538   4.523  -1.566  1.00  0.00     0.012 A 
ATOM     12  C   UNL     1       1.926   4.990  -2.825  1.00  0.00     0.001 A 
BRANCH   9  13
ATOM     13  C   UNL     1       1.699   2.947   0.321  1.00  0.00     0.033 C 
ATOM     14  C   UNL     1       2.450   2.798   1.422  1.00  0.00     0.084 C 
ATOM     15  S   UNL     1       1.909   1.975   2.830  1.00  0.00    -0.022 SA
ATOM     16  C   UNL     1       3.887   3.154   1.580  1.00  0.00     0.272 C 
ATOM     17  C   UNL     1       3.560   1.654   3.350  1.00  0.00     0.298 C 
ATOM     18  N   UNL     1       4.454   2.388   2.592  1.00  0.00    -0.236 N 
ATOM     19  O   UNL     1       4.426   4.011   0.893  1.00  0.00    -0.268 OA
ATOM     20  O   UNL     1       3.785   0.912   4.295  1.00  0.00    -0.260 OA
BRANCH  18  21
ATOM     21  C   UNL     1       5.870   2.359   2.822  1.00  0.00     0.053 A 
ATOM     22  C   UNL     1       6.688   3.453   2.488  1.00  0.00     0.030 A 
ATOM     23  C   UNL     1       6.503   1.215   3.343  1.00  0.00     0.030 A 
ATOM     24  C   UNL     1       8.078   3.398   2.633  1.00  0.00     0.041 A 
ATOM     25  C   UNL     1       7.896   1.148   3.465  1.00  0.00     0.041 A 
ATOM     26  C   UNL     1       8.671   2.240   3.106  1.00  0.00     0.123 A 
ATOM     27  F   UNL     1      10.003   2.175   3.218  1.00  0.00    -0.207 F 
ENDBRANCH  18  21
ENDBRANCH   9  13
ENDBRANCH   6   7
ENDBRANCH   5   6
ENDBRANCH   3   5
ENDBRANCH   2   3
ENDBRANCH   1   2
BRANCH   1  28
ATOM     28  C   UNL     1       4.762  -2.342   0.600  1.00  0.00     0.275 C 
BRANCH  28  29
ATOM     29  O   UNL     1       4.275  -2.841  -0.653  1.00  0.00    -0.458 OA
BRANCH  29  30
ATOM     30  C   UNL     1       2.977  -3.238  -0.667  1.00  0.00     0.338 C 
ATOM     31  O   UNL     1       2.247  -3.399   0.289  1.00  0.00    -0.246 OA
BRANCH  30  32
ATOM     32  C   UNL     1       2.537  -3.208  -2.076  1.00  0.00     0.060 A 
ATOM     33  C   UNL     1       1.270  -2.689  -2.375  1.00  0.00     0.016 A 
ATOM     34  C   UNL     1       3.392  -3.633  -3.097  1.00  0.00     0.016 A 
ATOM     35  C   UNL     1       0.847  -2.609  -3.701  1.00  0.00     0.010 A 
ATOM     36  C   UNL     1       2.965  -3.567  -4.418  1.00  0.00     0.010 A 
ATOM     37  C   UNL     1       1.683  -3.082  -4.720  1.00  0.00    -0.014 A 
BRANCH  37  38
ATOM     38  C   UNL     1       1.167  -3.300  -6.086  1.00  0.00     0.031 A 
ATOM     39  C   UNL     1       0.618  -4.659  -6.407  1.00  0.00     0.074 A 
ATOM     40  C   UNL     1       1.292  -2.355  -7.032  1.00  0.00     0.049 A 
ATOM     41  N   UNL     1       0.277  -5.164  -7.561  1.00  0.00    -0.248 NA
ATOM     42  C   UNL     1       0.460  -5.582  -5.270  1.00  0.00     0.031 C 
ATOM     43  C   UNL     1       1.812  -1.006  -6.818  1.00  0.00     0.029 A 
ATOM     44  N   UNL     1       1.027  -2.408  -8.376  1.00  0.00    -0.354 N 
ATOM     45  C   UNL     1      -0.121  -6.468  -7.292  1.00  0.00     0.074 A 
ATOM     46  C   UNL     1       0.039  -6.683  -5.872  1.00  0.00     0.031 C 
ATOM     47  C   UNL     1       1.870  -0.370  -8.002  1.00  0.00     0.029 A 
ATOM     48  C   UNL     1       1.418  -1.278  -9.055  1.00  0.00     0.049 A 
ATOM     49  H   UNL     1       0.600  -3.179  -8.813  1.00  0.00     0.167 HD
ATOM     50  C   UNL     1      -0.577  -7.402  -8.157  1.00  0.00     0.037 A 
ATOM     51  C   UNL     1       1.439  -1.029 -10.379  1.00  0.00     0.037 A 
ATOM     52  C   UNL     1      -0.714  -7.178  -9.569  1.00  0.00     0.049 A 
ATOM     53  C   UNL     1       0.953  -2.090 -11.331  1.00  0.00     0.074 A 
ATOM     54  C   UNL     1      -1.195  -8.040 -10.536  1.00  0.00     0.029 A 
ATOM     55  N   UNL     1      -0.353  -6.004 -10.215  1.00  0.00    -0.354 N 
ATOM     56  N   UNL     1       0.525  -3.302 -11.063  1.00  0.00    -0.248 NA
ATOM     57  C   UNL     1       0.949  -1.755 -12.761  1.00  0.00     0.031 C 
ATOM     58  C   UNL     1      -1.089  -7.400 -11.776  1.00  0.00     0.029 A 
ATOM     59  C   UNL     1      -0.580  -6.125 -11.574  1.00  0.00     0.049 A 
ATOM     60  H   UNL     1       0.011  -5.204  -9.772  1.00  0.00     0.167 HD
ATOM     61  C   UNL     1       0.180  -3.866 -12.287  1.00  0.00     0.074 A 
ATOM     62  C   UNL     1       0.447  -2.861 -13.297  1.00  0.00     0.031 C 
ATOM     63  C   UNL     1      -0.315  -5.100 -12.553  1.00  0.00     0.037 A 
BRANCH  50  64
ATOM     64  C   UNL     1      -0.918  -8.749  -7.589  1.00  0.00     0.058 A 
ATOM     65  C   UNL     1      -2.054  -8.943  -6.787  1.00  0.00     0.135 A 
ATOM     66  C   UNL     1      -0.081  -9.851  -7.822  1.00  0.00     0.135 A 
ATOM     67  F   UNL     1      -2.872  -7.914  -6.514  1.00  0.00    -0.206 F 
ATOM     68  C   UNL     1      -2.328 -10.175  -6.203  1.00  0.00     0.059 A 
ATOM     69  C   UNL     1      -0.349 -11.099  -7.267  1.00  0.00     0.059 A 
ATOM     70  F   UNL     1       1.022  -9.716  -8.573  1.00  0.00    -0.206 F 
ATOM     71  C   UNL     1      -1.464 -11.245  -6.441  1.00  0.00     0.060 A 
BRANCH  71  72
ATOM     72  S   UNL     1      -1.810 -12.831  -5.652  1.00  0.00     0.124 S 
ATOM     73  O   UNL     1      -1.364 -12.577  -4.285  1.00  0.00    -0.237 OA
ATOM     74  O   UNL     1      -3.252 -12.965  -5.833  1.00  0.00    -0.237 OA
ATOM     75  O   UNL     1      -0.996 -13.773  -6.413  1.00  0.00    -0.744 OA
ENDBRANCH  71  72
ENDBRANCH  50  64
BRANCH  51  76
ATOM     76  C   UNL     1       1.953   0.274 -10.874  1.00  0.00     0.058 A 
ATOM     77  C   UNL     1       1.082   1.251 -11.376  1.00  0.00     0.135 A 
ATOM     78  C   UNL     1       3.322   0.582 -10.822  1.00  0.00     0.135 A 
ATOM     79  F   UNL     1      -0.233   1.000 -11.454  1.00  0.00    -0.206 F 
ATOM     80  C   UNL     1       1.548   2.489 -11.809  1.00  0.00     0.059 A 
ATOM     81  C   UNL     1       3.810   1.819 -11.231  1.00  0.00     0.059 A 
ATOM     82  F   UNL     1       4.195  -0.316 -10.338  1.00  0.00    -0.206 F 
ATOM     83  C   UNL     1       2.914   2.766 -11.727  1.00  0.00     0.060 A 
BRANCH  83  84
ATOM     84  S   UNL     1       3.499   4.404 -12.216  1.00  0.00     0.124 S 
ATOM     85  O   UNL     1       3.431   4.319 -13.669  1.00  0.00    -0.237 OA
ATOM     86  O   UNL     1       2.521   5.282 -11.580  1.00  0.00    -0.237 OA
ATOM     87  O   UNL     1       4.843   4.462 -11.647  1.00  0.00    -0.744 OA
ENDBRANCH  83  84
ENDBRANCH  51  76
BRANCH  63  88
ATOM     88  C   UNL     1      -0.634  -5.430 -13.983  1.00  0.00     0.058 A 
ATOM     89  C   UNL     1       0.373  -5.769 -14.898  1.00  0.00     0.135 A 
ATOM     90  C   UNL     1      -1.969  -5.511 -14.408  1.00  0.00     0.135 A 
ATOM     91  F   UNL     1       1.664  -5.702 -14.539  1.00  0.00    -0.206 F 
ATOM     92  C   UNL     1       0.066  -6.180 -16.191  1.00  0.00     0.059 A 
ATOM     93  C   UNL     1      -2.300  -5.938 -15.689  1.00  0.00     0.059 A 
ATOM     94  F   UNL     1      -2.967  -5.205 -13.564  1.00  0.00    -0.206 F 
ATOM     95  C   UNL     1      -1.275  -6.269 -16.575  1.00  0.00     0.060 A 
BRANCH  95  96
ATOM     96  S   UNL     1      -1.665  -6.875 -18.230  1.00  0.00     0.124 S 
ATOM     97  O   UNL     1      -1.355  -5.710 -19.050  1.00  0.00    -0.237 OA
ATOM     98  O   UNL     1      -0.758  -8.010 -18.371  1.00  0.00    -0.237 OA
ATOM     99  O   UNL     1      -3.080  -7.221 -18.138  1.00  0.00    -0.744 OA
ENDBRANCH  95  96
ENDBRANCH  63  88
ENDBRANCH  37  38
ENDBRANCH  30  32
ENDBRANCH  29  30
ENDBRANCH  28  29
ENDBRANCH   1  28
TORSDOF 18
