REMARK SMILES Cn1c(=O)c2c(-c3ccc(Cl)cc3)n(CC(=O)OCCOC(=O)c3ccc(-c4c5nc(c(-c6c(F)cc(S(=O)(=O)[O-])cc6F)c6ccc([nH]6)c(-c6c(F)cc(S(=O)(=O)[O-])cc6F)c6nc(c(-c7c(F)cc(S(=O)(=O)[O-])cc7F)c7ccc4[nH]7)C=C6)C=C5)cc3)cc2n(C)c1=O
REMARK SMILES IDX 20 1 19 2 18 3 16 4 17 5 15 6 14 7 1 8 2 9 3 10 94 11 4 12
REMARK SMILES IDX 5 13 92 14 95 15 6 16 91 17 93 18 90 19 7 20 8 21 13 22 9 23
REMARK SMILES IDX 12 24 10 25 11 26 21 27 22 28 23 29 24 30 25 31 89 32 26 33
REMARK SMILES IDX 88 34 27 35 28 36 29 37 82 38 30 39 87 40 81 41 83 42 31 43
REMARK SMILES IDX 86 44 80 45 79 46 32 48 66 49 45 50 65 51 46 52 49 53 64 54
REMARK SMILES IDX 84 55 47 56 48 57 63 59 85 60 50 61 33 62 34 63 43 64 35 65
REMARK SMILES IDX 36 66 42 67 44 68 37 69 38 70 39 71 40 72 41 73 67 74 68 75
REMARK SMILES IDX 77 76 69 77 70 78 76 79 78 80 71 81 72 82 73 83 74 84 75 85
REMARK SMILES IDX 51 86 52 87 61 88 53 89 54 90 60 91 62 92 55 93 56 94 57 95
REMARK SMILES IDX 58 96 59 97
REMARK H PARENT 83 47 49 58
REMARK Flexibility Score: inf
ROOT
ATOM      1  C   UNL     1       2.293  -1.927   8.780  1.00  0.00     0.275 C 
ENDROOT
BRANCH   1   2
ATOM      2  C   UNL     1       2.194  -3.269   8.047  1.00  0.00     0.274 C 
BRANCH   2   3
ATOM      3  O   UNL     1       1.271  -3.248   6.929  1.00  0.00    -0.461 OA
BRANCH   3   4
ATOM      4  C   UNL     1      -0.014  -3.585   7.213  1.00  0.00     0.326 C 
ATOM      5  O   UNL     1      -0.376  -4.019   8.308  1.00  0.00    -0.250 OA
BRANCH   4   6
ATOM      6  C   UNL     1      -1.008  -3.424   6.092  1.00  0.00     0.244 C 
BRANCH   6   7
ATOM      7  N   UNL     1      -0.645  -2.588   4.949  1.00  0.00    -0.333 N 
ATOM      8  C   UNL     1       0.995  -0.084  -0.151  1.00  0.00     0.158 C 
ATOM      9  N   UNL     1       0.531  -0.347   1.194  1.00  0.00    -0.263 N 
ATOM     10  C   UNL     1       0.546  -1.684   1.617  1.00  0.00     0.265 A 
ATOM     11  C   UNL     1       0.194   0.777   1.976  1.00  0.00     0.330 A 
ATOM     12  O   UNL     1       0.973  -2.613   0.930  1.00  0.00    -0.268 OA
ATOM     13  C   UNL     1       0.030  -1.871   2.950  1.00  0.00     0.090 A 
ATOM     14  N   UNL     1      -0.357   0.531   3.235  1.00  0.00    -0.295 N 
ATOM     15  O   UNL     1       0.404   1.921   1.564  1.00  0.00    -0.248 OA
ATOM     16  C   UNL     1      -0.154  -3.018   3.722  1.00  0.00     0.064 A 
ATOM     17  C   UNL     1      -0.425  -0.774   3.688  1.00  0.00     0.076 A 
ATOM     18  C   UNL     1      -0.788   1.654   4.063  1.00  0.00     0.155 C 
ATOM     19  C   UNL     1      -0.918  -1.244   4.869  1.00  0.00     0.114 A 
BRANCH  16  20
ATOM     20  C   UNL     1       0.112  -4.420   3.417  1.00  0.00    -0.001 A 
ATOM     21  C   UNL     1      -0.942  -5.344   3.367  1.00  0.00     0.012 A 
ATOM     22  C   UNL     1       1.421  -4.861   3.211  1.00  0.00     0.012 A 
ATOM     23  C   UNL     1      -0.684  -6.700   3.169  1.00  0.00     0.021 A 
ATOM     24  C   UNL     1       1.679  -6.215   2.989  1.00  0.00     0.021 A 
ATOM     25  C   UNL     1       0.627  -7.129   2.982  1.00  0.00     0.041 A 
ATOM     26  Cl  UNL     1       0.949  -8.803   2.744  1.00  0.00    -0.084 Cl
ENDBRANCH  16  20
ENDBRANCH   6   7
ENDBRANCH   4   6
ENDBRANCH   3   4
ENDBRANCH   2   3
ENDBRANCH   1   2
BRANCH   1  27
ATOM     27  O   UNL     1       1.041  -1.558   9.367  1.00  0.00    -0.458 OA
BRANCH  27  28
ATOM     28  C   UNL     1       0.253  -0.904   8.490  1.00  0.00     0.338 C 
ATOM     29  O   UNL     1       0.516  -0.656   7.325  1.00  0.00    -0.246 OA
BRANCH  28  30
ATOM     30  C   UNL     1      -0.965  -0.389   9.114  1.00  0.00     0.060 A 
ATOM     31  C   UNL     1      -2.054  -0.204   8.251  1.00  0.00     0.016 A 
ATOM     32  C   UNL     1      -0.731   0.445  10.203  1.00  0.00     0.016 A 
ATOM     33  C   UNL     1      -2.690   1.014   8.249  1.00  0.00     0.010 A 
ATOM     34  C   UNL     1      -1.383   1.652  10.218  1.00  0.00     0.010 A 
ATOM     35  C   UNL     1      -2.267   1.961   9.176  1.00  0.00    -0.014 A 
BRANCH  35  36
ATOM     36  C   UNL     1      -2.768   3.316   9.056  1.00  0.00     0.031 A 
ATOM     37  C   UNL     1      -4.109   3.514   9.661  1.00  0.00     0.074 A 
ATOM     38  C   UNL     1      -1.941   4.296   8.645  1.00  0.00     0.049 A 
ATOM     39  N   UNL     1      -5.188   4.005   9.143  1.00  0.00    -0.248 NA
ATOM     40  C   UNL     1      -4.294   2.949  11.012  1.00  0.00     0.031 C 
ATOM     41  C   UNL     1      -0.502   4.197   8.364  1.00  0.00     0.029 A 
ATOM     42  N   UNL     1      -2.173   5.629   8.552  1.00  0.00    -0.354 N 
ATOM     43  C   UNL     1      -6.130   3.972  10.169  1.00  0.00     0.074 A 
ATOM     44  C   UNL     1      -5.594   3.136  11.209  1.00  0.00     0.031 C 
ATOM     45  C   UNL     1       0.039   5.437   8.393  1.00  0.00     0.029 A 
ATOM     46  C   UNL     1      -1.025   6.408   8.585  1.00  0.00     0.049 A 
ATOM     47  H   UNL     1      -3.076   6.010   8.468  1.00  0.00     0.167 HD
ATOM     48  C   UNL     1      -7.194   4.814  10.238  1.00  0.00     0.037 A 
ATOM     49  C   UNL     1      -0.975   7.729   8.888  1.00  0.00     0.037 A 
ATOM     50  C   UNL     1      -7.474   5.455   8.988  1.00  0.00     0.049 A 
ATOM     51  C   UNL     1      -2.368   8.251   8.792  1.00  0.00     0.074 A 
ATOM     52  C   UNL     1      -7.883   5.011   7.747  1.00  0.00     0.029 A 
ATOM     53  N   UNL     1      -6.971   6.718   8.791  1.00  0.00    -0.354 N 
ATOM     54  N   UNL     1      -3.058   8.326   7.687  1.00  0.00    -0.248 NA
ATOM     55  C   UNL     1      -3.157   8.300  10.016  1.00  0.00     0.031 C 
ATOM     56  C   UNL     1      -7.203   5.839   6.808  1.00  0.00     0.029 A 
ATOM     57  C   UNL     1      -6.437   6.759   7.526  1.00  0.00     0.049 A 
ATOM     58  H   UNL     1      -6.991   7.460   9.439  1.00  0.00     0.167 HD
ATOM     59  C   UNL     1      -4.369   8.049   8.053  1.00  0.00     0.074 A 
ATOM     60  C   UNL     1      -4.381   8.134   9.509  1.00  0.00     0.031 C 
ATOM     61  C   UNL     1      -5.255   7.513   7.163  1.00  0.00     0.037 A 
BRANCH  48  62
ATOM     62  C   UNL     1      -7.774   5.245  11.555  1.00  0.00     0.058 A 
ATOM     63  C   UNL     1      -9.103   5.682  11.656  1.00  0.00     0.135 A 
ATOM     64  C   UNL     1      -6.979   5.404  12.715  1.00  0.00     0.135 A 
ATOM     65  F   UNL     1      -9.919   5.628  10.592  1.00  0.00    -0.206 F 
ATOM     66  C   UNL     1      -9.613   6.221  12.839  1.00  0.00     0.059 A 
ATOM     67  C   UNL     1      -7.481   5.871  13.920  1.00  0.00     0.059 A 
ATOM     68  F   UNL     1      -5.657   5.176  12.698  1.00  0.00    -0.206 F 
ATOM     69  C   UNL     1      -8.795   6.305  13.966  1.00  0.00     0.060 A 
BRANCH  69  70
ATOM     70  S   UNL     1      -9.434   7.039  15.482  1.00  0.00     0.124 S 
ATOM     71  O   UNL     1      -9.483   8.451  15.121  1.00  0.00    -0.237 OA
ATOM     72  O   UNL     1     -10.722   6.370  15.627  1.00  0.00    -0.237 OA
ATOM     73  O   UNL     1      -8.432   6.675  16.480  1.00  0.00    -0.744 OA
ENDBRANCH  69  70
ENDBRANCH  48  62
BRANCH  49  74
ATOM     74  C   UNL     1       0.087   8.456   9.638  1.00  0.00     0.058 A 
ATOM     75  C   UNL     1       0.111   9.861   9.664  1.00  0.00     0.135 A 
ATOM     76  C   UNL     1       0.923   7.804  10.569  1.00  0.00     0.135 A 
ATOM     77  F   UNL     1      -0.669  10.564   8.828  1.00  0.00    -0.206 F 
ATOM     78  C   UNL     1       0.870  10.578  10.595  1.00  0.00     0.059 A 
ATOM     79  C   UNL     1       1.701   8.497  11.494  1.00  0.00     0.059 A 
ATOM     80  F   UNL     1       0.936   6.468  10.678  1.00  0.00    -0.206 F 
ATOM     81  C   UNL     1       1.644   9.884  11.524  1.00  0.00     0.060 A 
BRANCH  81  82
ATOM     82  S   UNL     1       2.465  10.796  12.852  1.00  0.00     0.124 S 
ATOM     83  O   UNL     1       3.474  11.554  12.120  1.00  0.00    -0.237 OA
ATOM     84  O   UNL     1       1.365  11.572  13.413  1.00  0.00    -0.237 OA
ATOM     85  O   UNL     1       2.985   9.740  13.717  1.00  0.00    -0.744 OA
ENDBRANCH  81  82
ENDBRANCH  49  74
BRANCH  61  86
ATOM     86  C   UNL     1      -4.847   7.476   5.710  1.00  0.00     0.058 A 
ATOM     87  C   UNL     1      -3.799   6.679   5.213  1.00  0.00     0.135 A 
ATOM     88  C   UNL     1      -5.640   8.145   4.768  1.00  0.00     0.135 A 
ATOM     89  F   UNL     1      -3.064   5.921   6.037  1.00  0.00    -0.206 F 
ATOM     90  C   UNL     1      -3.525   6.585   3.849  1.00  0.00     0.059 A 
ATOM     91  C   UNL     1      -5.407   8.039   3.399  1.00  0.00     0.059 A 
ATOM     92  F   UNL     1      -6.697   8.869   5.173  1.00  0.00    -0.206 F 
ATOM     93  C   UNL     1      -4.341   7.264   2.946  1.00  0.00     0.060 A 
BRANCH  93  94
ATOM     94  S   UNL     1      -4.051   7.054   1.176  1.00  0.00     0.124 S 
ATOM     95  O   UNL     1      -2.811   7.796   0.978  1.00  0.00    -0.237 OA
ATOM     96  O   UNL     1      -3.955   5.603   1.043  1.00  0.00    -0.237 OA
ATOM     97  O   UNL     1      -5.238   7.648   0.564  1.00  0.00    -0.744 OA
ENDBRANCH  93  94
ENDBRANCH  61  86
ENDBRANCH  35  36
ENDBRANCH  28  30
ENDBRANCH  27  28
ENDBRANCH   1  27
TORSDOF 16
