REMARK SMILES CC(C)[C@@H](CNC(=O)NC[C@@]1(C)CCCO1)C(=O)OCCOC(=O)c1ccc(-c2c3nc(c(-c4c(F)cc(S(=O)(=O)[O-])cc4F)c4ccc([nH]4)c(-c4c(F)cc(S(=O)(=O)[O-])cc4F)c4nc(c(-c5c(F)cc(S(=O)(=O)[O-])cc5F)c5ccc2[nH]5)C=C4)C=C3)cc1
REMARK SMILES IDX 20 1 19 2 17 3 18 4 4 5 2 6 1 7 3 8 5 9 6 10 7 11 8 13 9 14
REMARK SMILES IDX 10 16 11 17 12 18 13 19 16 20 14 21 15 22 21 23 22 24 23 25
REMARK SMILES IDX 24 26 25 27 26 28 90 29 27 30 89 31 28 32 29 33 30 34 83 35
REMARK SMILES IDX 31 36 88 37 82 38 84 39 32 40 87 41 81 42 80 43 33 45 67 46
REMARK SMILES IDX 46 47 66 48 47 49 50 50 65 51 85 52 48 53 49 54 64 56 86 57
REMARK SMILES IDX 51 58 34 59 35 60 44 61 36 62 37 63 43 64 45 65 38 66 39 67
REMARK SMILES IDX 40 68 41 69 42 70 68 71 69 72 78 73 70 74 71 75 77 76 79 77
REMARK SMILES IDX 72 78 73 79 74 80 75 81 76 82 52 83 53 84 62 85 54 86 55 87
REMARK SMILES IDX 61 88 63 89 56 90 57 91 58 92 59 93 60 94
REMARK H PARENT 6 12 9 15 84 44 50 55
REMARK Flexibility Score: inf
ROOT
ATOM      1  C   UNL     1      -1.392   4.762  -1.099  1.00  0.00     0.274 C 
ENDROOT
BRANCH   1   2
ATOM      2  O   UNL     1      -0.651   3.596  -0.692  1.00  0.00    -0.462 OA
BRANCH   2   3
ATOM      3  C   UNL     1      -1.363   2.442  -0.684  1.00  0.00     0.311 C 
ATOM      4  O   UNL     1      -2.539   2.348  -1.024  1.00  0.00    -0.252 OA
BRANCH   3   5
ATOM      5  C   UNL     1      -0.600   1.248  -0.138  1.00  0.00     0.121 C 
BRANCH   5   6
ATOM      6  C   UNL     1       0.947   1.340  -0.151  1.00  0.00    -0.001 C 
ATOM      7  C   UNL     1       1.593   0.083   0.451  1.00  0.00     0.008 C 
ATOM      8  C   UNL     1       1.478   1.504  -1.583  1.00  0.00     0.008 C 
ENDBRANCH   5   6
BRANCH   5   9
ATOM      9  C   UNL     1      -1.227   0.933   1.224  1.00  0.00     0.133 C 
BRANCH   9  10
ATOM     10  N   UNL     1      -1.133   2.021   2.174  1.00  0.00    -0.337 N 
ATOM     11  C   UNL     1      -2.026   2.780   2.812  1.00  0.00     0.314 C 
ATOM     12  H   UNL     1      -0.203   2.252   2.399  1.00  0.00     0.165 HD
ATOM     13  O   UNL     1      -1.586   3.595   3.629  1.00  0.00    -0.249 OA
ATOM     14  N   UNL     1      -3.344   2.723   2.644  1.00  0.00    -0.335 N 
ATOM     15  H   UNL     1      -3.802   3.297   3.300  1.00  0.00     0.165 HD
BRANCH  14  16
ATOM     16  C   UNL     1      -4.315   2.061   1.775  1.00  0.00     0.152 C 
BRANCH  16  17
ATOM     17  C   UNL     1      -5.159   0.980   2.498  1.00  0.00     0.083 C 
ATOM     18  C   UNL     1      -6.594   0.993   1.952  1.00  0.00     0.044 C 
ATOM     19  C   UNL     1      -4.554  -0.423   2.400  1.00  0.00     0.039 C 
ATOM     20  O   UNL     1      -5.260   1.274   3.916  1.00  0.00    -0.373 OA
ATOM     21  C   UNL     1      -4.966  -1.061   3.703  1.00  0.00     0.031 C 
ATOM     22  C   UNL     1      -4.847   0.111   4.650  1.00  0.00     0.161 C 
ENDBRANCH  16  17
ENDBRANCH  14  16
ENDBRANCH   9  10
ENDBRANCH   5   9
ENDBRANCH   3   5
ENDBRANCH   2   3
ENDBRANCH   1   2
BRANCH   1  23
ATOM     23  C   UNL     1      -1.329   4.989  -2.610  1.00  0.00     0.275 C 
BRANCH  23  24
ATOM     24  O   UNL     1      -1.908   3.884  -3.326  1.00  0.00    -0.458 OA
BRANCH  24  25
ATOM     25  C   UNL     1      -1.042   3.122  -4.029  1.00  0.00     0.338 C 
ATOM     26  O   UNL     1       0.159   3.300  -4.172  1.00  0.00    -0.246 OA
BRANCH  25  27
ATOM     27  C   UNL     1      -1.755   2.002  -4.656  1.00  0.00     0.060 A 
ATOM     28  C   UNL     1      -2.111   0.875  -3.909  1.00  0.00     0.016 A 
ATOM     29  C   UNL     1      -1.959   2.032  -6.035  1.00  0.00     0.016 A 
ATOM     30  C   UNL     1      -2.658  -0.240  -4.541  1.00  0.00     0.010 A 
ATOM     31  C   UNL     1      -2.527   0.926  -6.663  1.00  0.00     0.010 A 
ATOM     32  C   UNL     1      -2.861  -0.223  -5.924  1.00  0.00    -0.014 A 
BRANCH  32  33
ATOM     33  C   UNL     1      -3.359  -1.413  -6.647  1.00  0.00     0.031 A 
ATOM     34  C   UNL     1      -2.415  -2.172  -7.532  1.00  0.00     0.074 A 
ATOM     35  C   UNL     1      -4.657  -1.757  -6.572  1.00  0.00     0.049 A 
ATOM     36  N   UNL     1      -2.679  -3.042  -8.469  1.00  0.00    -0.248 NA
ATOM     37  C   UNL     1      -0.980  -1.902  -7.342  1.00  0.00     0.031 C 
ATOM     38  C   UNL     1      -5.649  -1.132  -5.697  1.00  0.00     0.029 A 
ATOM     39  N   UNL     1      -5.370  -2.695  -7.275  1.00  0.00    -0.354 N 
ATOM     40  C   UNL     1      -1.450  -3.392  -9.013  1.00  0.00     0.074 A 
ATOM     41  C   UNL     1      -0.438  -2.650  -8.293  1.00  0.00     0.031 C 
ATOM     42  C   UNL     1      -6.851  -1.680  -5.939  1.00  0.00     0.029 A 
ATOM     43  C   UNL     1      -6.721  -2.646  -7.028  1.00  0.00     0.049 A 
ATOM     44  H   UNL     1      -4.955  -3.338  -7.894  1.00  0.00     0.167 HD
ATOM     45  C   UNL     1      -1.198  -4.247 -10.033  1.00  0.00     0.037 A 
ATOM     46  C   UNL     1      -7.742  -3.264  -7.652  1.00  0.00     0.037 A 
ATOM     47  C   UNL     1      -2.219  -4.984 -10.727  1.00  0.00     0.049 A 
ATOM     48  C   UNL     1      -7.449  -4.169  -8.816  1.00  0.00     0.074 A 
ATOM     49  C   UNL     1      -2.079  -5.870 -11.781  1.00  0.00     0.029 A 
ATOM     50  N   UNL     1      -3.574  -4.923 -10.431  1.00  0.00    -0.354 N 
ATOM     51  N   UNL     1      -6.290  -4.462  -9.357  1.00  0.00    -0.248 NA
ATOM     52  C   UNL     1      -8.597  -4.815  -9.466  1.00  0.00     0.031 C 
ATOM     53  C   UNL     1      -3.353  -6.327 -12.137  1.00  0.00     0.029 A 
ATOM     54  C   UNL     1      -4.281  -5.751 -11.284  1.00  0.00     0.049 A 
ATOM     55  H   UNL     1      -3.972  -4.372  -9.720  1.00  0.00     0.167 HD
ATOM     56  C   UNL     1      -6.566  -5.344 -10.395  1.00  0.00     0.074 A 
ATOM     57  C   UNL     1      -8.002  -5.536 -10.408  1.00  0.00     0.031 C 
ATOM     58  C   UNL     1      -5.710  -5.942 -11.258  1.00  0.00     0.037 A 
BRANCH  45  59
ATOM     59  C   UNL     1       0.226  -4.394 -10.480  1.00  0.00     0.058 A 
ATOM     60  C   UNL     1       1.161  -5.130  -9.737  1.00  0.00     0.135 A 
ATOM     61  C   UNL     1       0.656  -3.808 -11.681  1.00  0.00     0.135 A 
ATOM     62  F   UNL     1       0.806  -5.693  -8.571  1.00  0.00    -0.206 F 
ATOM     63  C   UNL     1       2.481  -5.262 -10.158  1.00  0.00     0.059 A 
ATOM     64  C   UNL     1       1.966  -3.943 -12.132  1.00  0.00     0.059 A 
ATOM     65  F   UNL     1      -0.199  -3.090 -12.426  1.00  0.00    -0.206 F 
ATOM     66  C   UNL     1       2.875  -4.660 -11.355  1.00  0.00     0.060 A 
BRANCH  66  67
ATOM     67  S   UNL     1       4.590  -4.834 -11.891  1.00  0.00     0.124 S 
ATOM     68  O   UNL     1       5.264  -3.874 -11.021  1.00  0.00    -0.237 OA
ATOM     69  O   UNL     1       4.867  -6.240 -11.615  1.00  0.00    -0.237 OA
ATOM     70  O   UNL     1       4.542  -4.474 -13.305  1.00  0.00    -0.744 OA
ENDBRANCH  66  67
ENDBRANCH  45  59
BRANCH  46  71
ATOM     71  C   UNL     1      -9.137  -3.008  -7.210  1.00  0.00     0.058 A 
ATOM     72  C   UNL     1      -9.860  -3.982  -6.509  1.00  0.00     0.135 A 
ATOM     73  C   UNL     1      -9.761  -1.773  -7.449  1.00  0.00     0.135 A 
ATOM     74  F   UNL     1      -9.307  -5.180  -6.266  1.00  0.00    -0.206 F 
ATOM     75  C   UNL     1     -11.155  -3.745  -6.060  1.00  0.00     0.059 A 
ATOM     76  C   UNL     1     -11.047  -1.504  -6.992  1.00  0.00     0.059 A 
ATOM     77  F   UNL     1      -9.105  -0.803  -8.105  1.00  0.00    -0.206 F 
ATOM     78  C   UNL     1     -11.738  -2.500  -6.303  1.00  0.00     0.060 A 
BRANCH  78  79
ATOM     79  S   UNL     1     -13.392  -2.173  -5.654  1.00  0.00     0.124 S 
ATOM     80  O   UNL     1     -14.229  -2.881  -6.616  1.00  0.00    -0.237 OA
ATOM     81  O   UNL     1     -13.322  -2.756  -4.318  1.00  0.00    -0.237 OA
ATOM     82  O   UNL     1     -13.481  -0.716  -5.688  1.00  0.00    -0.744 OA
ENDBRANCH  78  79
ENDBRANCH  46  71
BRANCH  58  83
ATOM     83  C   UNL     1      -6.287  -6.902 -12.256  1.00  0.00     0.058 A 
ATOM     84  C   UNL     1      -6.901  -6.454 -13.434  1.00  0.00     0.135 A 
ATOM     85  C   UNL     1      -6.134  -8.285 -12.073  1.00  0.00     0.135 A 
ATOM     86  F   UNL     1      -7.075  -5.140 -13.648  1.00  0.00    -0.206 F 
ATOM     87  C   UNL     1      -7.341  -7.348 -14.404  1.00  0.00     0.059 A 
ATOM     88  C   UNL     1      -6.552  -9.196 -13.036  1.00  0.00     0.059 A 
ATOM     89  F   UNL     1      -5.546  -8.758 -10.962  1.00  0.00    -0.206 F 
ATOM     90  C   UNL     1      -7.156  -8.717 -14.198  1.00  0.00     0.060 A 
BRANCH  90  91
ATOM     91  S   UNL     1      -7.661  -9.867 -15.496  1.00  0.00     0.124 S 
ATOM     92  O   UNL     1      -9.106  -9.915 -15.300  1.00  0.00    -0.237 OA
ATOM     93  O   UNL     1      -7.207  -9.193 -16.709  1.00  0.00    -0.237 OA
ATOM     94  O   UNL     1      -6.940 -11.092 -15.161  1.00  0.00    -0.744 OA
ENDBRANCH  90  91
ENDBRANCH  58  83
ENDBRANCH  32  33
ENDBRANCH  25  27
ENDBRANCH  24  25
ENDBRANCH  23  24
ENDBRANCH   1  23
TORSDOF 19
