REMARK SMILES Cc1cccc([C@H]([NH3+])[C@H](O)C(=O)OCCOC(=O)c2ccc(-c3c4nc(c(-c5c(F)cc(S(=O)(=O)[O-])cc5F)c5ccc([nH]5)c(-c5c(F)cc(S(=O)(=O)[O-])cc5F)c5nc(c(-c6c(F)cc(S(=O)(=O)[O-])cc6F)c6ccc3[nH]6)C=C5)C=C4)cc2)c1
REMARK SMILES IDX 15 1 14 2 13 3 11 4 12 5 9 6 7 7 6 8 1 9 2 10 3 11 85 12
REMARK SMILES IDX 4 13 5 14 8 15 10 19 16 21 17 22 18 23 19 24 20 25 84 26
REMARK SMILES IDX 21 27 83 28 22 29 23 30 24 31 77 32 25 33 82 34 76 35 78 36
REMARK SMILES IDX 26 37 81 38 75 39 74 40 27 42 61 43 40 44 60 45 41 46 44 47
REMARK SMILES IDX 59 48 79 49 42 50 43 51 58 53 80 54 45 55 28 56 29 57 38 58
REMARK SMILES IDX 30 59 31 60 37 61 39 62 32 63 33 64 34 65 35 66 36 67 62 68
REMARK SMILES IDX 63 69 72 70 64 71 65 72 71 73 73 74 66 75 67 76 68 77 69 78
REMARK SMILES IDX 70 79 46 80 47 81 56 82 48 83 49 84 55 85 57 86 50 87 51 88
REMARK SMILES IDX 52 89 53 90 54 91
REMARK H PARENT 8 16 8 17 8 18 10 20 78 41 44 52
REMARK Flexibility Score: inf
ROOT
ATOM      1  C   UNL     1      -3.722   6.282  -1.873  1.00  0.00     0.275 C 
ENDROOT
BRANCH   1   2
ATOM      2  C   UNL     1      -2.567   6.086  -0.878  1.00  0.00     0.274 C 
BRANCH   2   3
ATOM      3  O   UNL     1      -2.222   4.696  -0.802  1.00  0.00    -0.460 OA
BRANCH   3   4
ATOM      4  C   UNL     1      -1.492   4.347   0.298  1.00  0.00     0.341 C 
ATOM      5  O   UNL     1      -1.006   5.171   1.061  1.00  0.00    -0.249 OA
BRANCH   4   6
ATOM      6  C   UNL     1      -1.501   2.820   0.489  1.00  0.00     0.287 C 
BRANCH   6   7
ATOM      7  C   UNL     1      -0.882   2.374   1.852  1.00  0.00     0.252 C 
BRANCH   7   8
ATOM      8  C   UNL     1       0.642   2.375   1.812  1.00  0.00     0.013 A 
ATOM      9  C   UNL     1       3.499   0.052   0.811  1.00  0.00     0.044 C 
ATOM     10  C   UNL     1       2.756   1.272   1.262  1.00  0.00    -0.051 A 
ATOM     11  C   UNL     1       3.434   2.475   1.479  1.00  0.00     0.003 A 
ATOM     12  C   UNL     1       1.366   1.236   1.418  1.00  0.00     0.013 A 
ATOM     13  C   UNL     1       2.739   3.605   1.902  1.00  0.00     0.001 A 
ATOM     14  C   UNL     1       1.358   3.549   2.086  1.00  0.00     0.010 A 
ENDBRANCH   7   8
BRANCH   7  15
ATOM     15  N   UNL     1      -1.392   1.029   2.229  1.00  0.00    -0.349 N 
ATOM     16  H   UNL     1      -1.110   0.349   1.523  1.00  0.00     0.345 HD
ATOM     17  H   UNL     1      -2.410   1.056   2.287  1.00  0.00     0.345 HD
ATOM     18  H   UNL     1      -1.007   0.760   3.134  1.00  0.00     0.345 HD
ENDBRANCH   7  15
ENDBRANCH   6   7
BRANCH   6  19
ATOM     19  O   UNL     1      -0.972   2.080  -0.610  1.00  0.00    -0.376 OA
ATOM     20  H   UNL     1      -0.023   2.264  -0.697  1.00  0.00     0.212 HD
ENDBRANCH   6  19
ENDBRANCH   4   6
ENDBRANCH   3   4
ENDBRANCH   2   3
ENDBRANCH   1   2
BRANCH   1  21
ATOM     21  O   UNL     1      -5.019   5.801  -1.449  1.00  0.00    -0.458 OA
BRANCH  21  22
ATOM     22  C   UNL     1      -5.074   4.546  -0.927  1.00  0.00     0.338 C 
ATOM     23  O   UNL     1      -4.849   3.524  -1.567  1.00  0.00    -0.246 OA
BRANCH  22  24
ATOM     24  C   UNL     1      -5.141   4.665   0.557  1.00  0.00     0.060 A 
ATOM     25  C   UNL     1      -4.798   3.577   1.372  1.00  0.00     0.016 A 
ATOM     26  C   UNL     1      -5.258   5.942   1.115  1.00  0.00     0.016 A 
ATOM     27  C   UNL     1      -4.421   3.789   2.704  1.00  0.00     0.010 A 
ATOM     28  C   UNL     1      -4.822   6.160   2.402  1.00  0.00     0.010 A 
ATOM     29  C   UNL     1      -4.384   5.093   3.199  1.00  0.00    -0.014 A 
BRANCH  29  30
ATOM     30  C   UNL     1      -4.074   5.466   4.578  1.00  0.00     0.031 A 
ATOM     31  C   UNL     1      -2.712   5.519   5.152  1.00  0.00     0.074 A 
ATOM     32  C   UNL     1      -5.141   5.894   5.279  1.00  0.00     0.049 A 
ATOM     33  N   UNL     1      -2.439   5.552   6.414  1.00  0.00    -0.248 NA
ATOM     34  C   UNL     1      -1.517   5.496   4.326  1.00  0.00     0.031 C 
ATOM     35  C   UNL     1      -5.198   6.636   6.524  1.00  0.00     0.029 A 
ATOM     36  N   UNL     1      -6.458   5.523   5.029  1.00  0.00    -0.354 N 
ATOM     37  C   UNL     1      -1.083   5.796   6.563  1.00  0.00     0.074 A 
ATOM     38  C   UNL     1      -0.545   5.650   5.233  1.00  0.00     0.031 C 
ATOM     39  C   UNL     1      -6.423   6.469   7.058  1.00  0.00     0.029 A 
ATOM     40  C   UNL     1      -7.106   5.457   6.257  1.00  0.00     0.049 A 
ATOM     41  H   UNL     1      -6.857   5.342   4.147  1.00  0.00     0.167 HD
ATOM     42  C   UNL     1      -0.601   6.235   7.767  1.00  0.00     0.037 A 
ATOM     43  C   UNL     1      -7.499   4.234   6.726  1.00  0.00     0.037 A 
ATOM     44  C   UNL     1      -1.684   6.273   8.748  1.00  0.00     0.049 A 
ATOM     45  C   UNL     1      -6.831   3.899   8.034  1.00  0.00     0.074 A 
ATOM     46  C   UNL     1      -2.542   7.293   9.125  1.00  0.00     0.029 A 
ATOM     47  N   UNL     1      -2.227   5.090   9.237  1.00  0.00    -0.354 N 
ATOM     48  N   UNL     1      -5.621   4.262   8.363  1.00  0.00    -0.248 NA
ATOM     49  C   UNL     1      -7.529   3.191   9.099  1.00  0.00     0.031 C 
ATOM     50  C   UNL     1      -3.670   6.702   9.742  1.00  0.00     0.029 A 
ATOM     51  C   UNL     1      -3.473   5.330   9.784  1.00  0.00     0.049 A 
ATOM     52  H   UNL     1      -1.788   4.210   9.199  1.00  0.00     0.167 HD
ATOM     53  C   UNL     1      -5.400   3.920   9.672  1.00  0.00     0.074 A 
ATOM     54  C   UNL     1      -6.616   3.236  10.082  1.00  0.00     0.031 C 
ATOM     55  C   UNL     1      -4.268   4.258  10.356  1.00  0.00     0.037 A 
BRANCH  42  56
ATOM     56  C   UNL     1       0.738   6.937   7.995  1.00  0.00     0.058 A 
ATOM     57  C   UNL     1       0.901   7.841   9.075  1.00  0.00     0.135 A 
ATOM     58  C   UNL     1       1.873   6.831   7.167  1.00  0.00     0.135 A 
ATOM     59  F   UNL     1      -0.036   7.973  10.025  1.00  0.00    -0.206 F 
ATOM     60  C   UNL     1       2.025   8.661   9.234  1.00  0.00     0.059 A 
ATOM     61  C   UNL     1       2.993   7.669   7.280  1.00  0.00     0.059 A 
ATOM     62  F   UNL     1       1.976   5.871   6.241  1.00  0.00    -0.206 F 
ATOM     63  C   UNL     1       3.050   8.602   8.304  1.00  0.00     0.060 A 
BRANCH  63  64
ATOM     64  S   UNL     1       4.446   9.735   8.462  1.00  0.00     0.124 S 
ATOM     65  O   UNL     1       3.799  11.037   8.328  1.00  0.00    -0.237 OA
ATOM     66  O   UNL     1       4.959   9.414   9.789  1.00  0.00    -0.237 OA
ATOM     67  O   UNL     1       5.317   9.360   7.351  1.00  0.00    -0.744 OA
ENDBRANCH  63  64
ENDBRANCH  42  56
BRANCH  43  68
ATOM     68  C   UNL     1      -7.829   3.241   5.654  1.00  0.00     0.058 A 
ATOM     69  C   UNL     1      -8.857   3.555   4.739  1.00  0.00     0.135 A 
ATOM     70  C   UNL     1      -6.967   2.190   5.304  1.00  0.00     0.135 A 
ATOM     71  F   UNL     1      -9.716   4.552   5.014  1.00  0.00    -0.206 F 
ATOM     72  C   UNL     1      -8.950   2.949   3.489  1.00  0.00     0.059 A 
ATOM     73  C   UNL     1      -7.053   1.555   4.060  1.00  0.00     0.059 A 
ATOM     74  F   UNL     1      -5.968   1.829   6.122  1.00  0.00    -0.206 F 
ATOM     75  C   UNL     1      -8.016   1.976   3.142  1.00  0.00     0.060 A 
BRANCH  75  76
ATOM     76  S   UNL     1      -7.982   1.403   1.426  1.00  0.00     0.124 S 
ATOM     77  O   UNL     1      -9.205   0.612   1.350  1.00  0.00    -0.237 OA
ATOM     78  O   UNL     1      -7.994   2.663   0.689  1.00  0.00    -0.237 OA
ATOM     79  O   UNL     1      -6.732   0.651   1.351  1.00  0.00    -0.744 OA
ENDBRANCH  75  76
ENDBRANCH  43  68
BRANCH  55  80
ATOM     80  C   UNL     1      -3.894   3.711  11.709  1.00  0.00     0.058 A 
ATOM     81  C   UNL     1      -4.232   2.414  12.132  1.00  0.00     0.135 A 
ATOM     82  C   UNL     1      -3.050   4.440  12.579  1.00  0.00     0.135 A 
ATOM     83  F   UNL     1      -4.921   1.581  11.338  1.00  0.00    -0.206 F 
ATOM     84  C   UNL     1      -3.842   1.907  13.369  1.00  0.00     0.059 A 
ATOM     85  C   UNL     1      -2.601   3.931  13.795  1.00  0.00     0.059 A 
ATOM     86  F   UNL     1      -2.620   5.673  12.272  1.00  0.00    -0.206 F 
ATOM     87  C   UNL     1      -3.030   2.674  14.197  1.00  0.00     0.060 A 
BRANCH  87  88
ATOM     88  S   UNL     1      -2.481   2.007  15.776  1.00  0.00     0.124 S 
ATOM     89  O   UNL     1      -3.528   2.486  16.672  1.00  0.00    -0.237 OA
ATOM     90  O   UNL     1      -2.470   0.567  15.535  1.00  0.00    -0.237 OA
ATOM     91  O   UNL     1      -1.166   2.614  15.954  1.00  0.00    -0.744 OA
ENDBRANCH  87  88
ENDBRANCH  55  80
ENDBRANCH  29  30
ENDBRANCH  22  24
ENDBRANCH  21  22
ENDBRANCH   1  21
TORSDOF 18
