REMARK SMILES C[C@H](C(=O)OCCOC(=O)c1ccc(-c2c3nc(c(-c4c(F)cc(S(=O)(=O)[O-])cc4F)c4ccc([nH]4)c(-c4c(F)cc(S(=O)(=O)[O-])cc4F)c4nc(c(-c5c(F)cc(S(=O)(=O)[O-])cc5F)c5ccc2[nH]5)C=C4)C=C3)cc1)[C@H](C)S(=O)(=O)C1CCOCC1
REMARK SMILES IDX 6 1 5 2 3 3 4 4 2 5 1 6 77 7 78 8 79 9 80 10 81 11 82 12
REMARK SMILES IDX 83 13 87 14 84 15 86 16 85 17 7 18 8 19 9 20 10 21 11 22
REMARK SMILES IDX 12 23 76 24 13 25 75 26 14 27 15 28 16 29 69 30 17 31 74 32
REMARK SMILES IDX 68 33 70 34 18 35 73 36 67 37 66 38 19 40 53 41 32 42 52 43
REMARK SMILES IDX 33 44 36 45 51 46 71 47 34 48 35 49 50 51 72 52 37 53 20 54
REMARK SMILES IDX 21 55 30 56 22 57 23 58 29 59 31 60 24 61 25 62 26 63 27 64
REMARK SMILES IDX 28 65 54 66 55 67 64 68 56 69 57 70 63 71 65 72 58 73 59 74
REMARK SMILES IDX 60 75 61 76 62 77 38 78 39 79 48 80 40 81 41 82 47 83 49 84
REMARK SMILES IDX 42 85 43 86 44 87 45 88 46 89
REMARK H PARENT 70 39 36 50
REMARK Flexibility Score: inf
ROOT
ATOM      1  C   UNL     1      -4.612  -0.311  -3.598  1.00  0.00     0.274 C 
ENDROOT
BRANCH   1   2
ATOM      2  O   UNL     1      -3.218  -0.482  -3.261  1.00  0.00    -0.462 OA
BRANCH   2   3
ATOM      3  C   UNL     1      -2.729   0.269  -2.253  1.00  0.00     0.310 C 
ATOM      4  O   UNL     1      -3.361   1.149  -1.685  1.00  0.00    -0.252 OA
BRANCH   3   5
ATOM      5  C   UNL     1      -1.252  -0.030  -1.988  1.00  0.00     0.114 C 
ATOM      6  C   UNL     1      -0.720   1.119  -1.098  1.00  0.00     0.021 C 
BRANCH   5   7
ATOM      7  C   UNL     1      -0.956  -1.415  -1.365  1.00  0.00     0.119 C 
ATOM      8  C   UNL     1       0.499  -1.533  -0.877  1.00  0.00     0.026 C 
BRANCH   7   9
ATOM      9  S   UNL     1      -1.358  -2.906  -2.354  1.00  0.00     0.156 S 
ATOM     10  O   UNL     1      -0.761  -4.027  -1.643  1.00  0.00    -0.228 OA
ATOM     11  O   UNL     1      -2.780  -2.946  -2.612  1.00  0.00    -0.228 OA
BRANCH   9  12
ATOM     12  C   UNL     1      -0.540  -2.895  -3.972  1.00  0.00     0.113 C 
ATOM     13  C   UNL     1      -1.071  -1.834  -4.933  1.00  0.00     0.048 C 
ATOM     14  C   UNL     1      -0.763  -4.289  -4.599  1.00  0.00     0.048 C 
ATOM     15  C   UNL     1      -0.539  -2.036  -6.341  1.00  0.00     0.161 C 
ATOM     16  C   UNL     1      -0.308  -4.363  -6.046  1.00  0.00     0.161 C 
ATOM     17  O   UNL     1      -0.894  -3.325  -6.824  1.00  0.00    -0.381 OA
ENDBRANCH   9  12
ENDBRANCH   7   9
ENDBRANCH   5   7
ENDBRANCH   3   5
ENDBRANCH   2   3
ENDBRANCH   1   2
BRANCH   1  18
ATOM     18  C   UNL     1      -5.540  -1.195  -2.763  1.00  0.00     0.275 C 
BRANCH  18  19
ATOM     19  O   UNL     1      -5.616  -0.695  -1.414  1.00  0.00    -0.458 OA
BRANCH  19  20
ATOM     20  C   UNL     1      -5.158  -1.510  -0.452  1.00  0.00     0.338 C 
ATOM     21  O   UNL     1      -4.758  -2.663  -0.546  1.00  0.00    -0.246 OA
BRANCH  20  22
ATOM     22  C   UNL     1      -5.158  -0.806   0.826  1.00  0.00     0.060 A 
ATOM     23  C   UNL     1      -4.032  -0.060   1.190  1.00  0.00     0.016 A 
ATOM     24  C   UNL     1      -6.213  -1.003   1.720  1.00  0.00     0.016 A 
ATOM     25  C   UNL     1      -3.950   0.485   2.462  1.00  0.00     0.010 A 
ATOM     26  C   UNL     1      -6.135  -0.439   2.989  1.00  0.00     0.010 A 
ATOM     27  C   UNL     1      -4.998   0.292   3.369  1.00  0.00    -0.014 A 
BRANCH  27  28
ATOM     28  C   UNL     1      -4.885   0.834   4.736  1.00  0.00     0.031 A 
ATOM     29  C   UNL     1      -4.631  -0.096   5.882  1.00  0.00     0.074 A 
ATOM     30  C   UNL     1      -5.004   2.160   4.920  1.00  0.00     0.049 A 
ATOM     31  N   UNL     1      -4.636   0.156   7.163  1.00  0.00    -0.248 NA
ATOM     32  C   UNL     1      -4.334  -1.498   5.543  1.00  0.00     0.031 C 
ATOM     33  C   UNL     1      -5.198   3.144   3.853  1.00  0.00     0.029 A 
ATOM     34  N   UNL     1      -4.980   2.908   6.066  1.00  0.00    -0.354 N 
ATOM     35  C   UNL     1      -4.384  -1.059   7.787  1.00  0.00     0.074 A 
ATOM     36  C   UNL     1      -4.219  -2.048   6.744  1.00  0.00     0.031 C 
ATOM     37  C   UNL     1      -5.268   4.370   4.395  1.00  0.00     0.029 A 
ATOM     38  C   UNL     1      -5.184   4.248   5.846  1.00  0.00     0.049 A 
ATOM     39  H   UNL     1      -4.832   2.523   6.960  1.00  0.00     0.167 HD
ATOM     40  C   UNL     1      -4.313  -1.317   9.114  1.00  0.00     0.037 A 
ATOM     41  C   UNL     1      -5.326   5.257   6.725  1.00  0.00     0.037 A 
ATOM     42  C   UNL     1      -4.466  -0.307  10.129  1.00  0.00     0.049 A 
ATOM     43  C   UNL     1      -5.267   4.942   8.191  1.00  0.00     0.074 A 
ATOM     44  C   UNL     1      -4.422  -0.449  11.504  1.00  0.00     0.029 A 
ATOM     45  N   UNL     1      -4.686   1.040   9.872  1.00  0.00    -0.354 N 
ATOM     46  N   UNL     1      -5.078   3.781   8.774  1.00  0.00    -0.248 NA
ATOM     47  C   UNL     1      -5.458   6.063   9.118  1.00  0.00     0.031 C 
ATOM     48  C   UNL     1      -4.641   0.809  12.078  1.00  0.00     0.029 A 
ATOM     49  C   UNL     1      -4.790   1.740  11.061  1.00  0.00     0.049 A 
ATOM     50  H   UNL     1      -4.758   1.438   8.974  1.00  0.00     0.167 HD
ATOM     51  C   UNL     1      -5.128   4.029  10.139  1.00  0.00     0.074 A 
ATOM     52  C   UNL     1      -5.345   5.456  10.293  1.00  0.00     0.031 C 
ATOM     53  C   UNL     1      -5.013   3.160  11.172  1.00  0.00     0.037 A 
BRANCH  40  54
ATOM     54  C   UNL     1      -4.109  -2.744   9.534  1.00  0.00     0.058 A 
ATOM     55  C   UNL     1      -2.860  -3.376   9.437  1.00  0.00     0.135 A 
ATOM     56  C   UNL     1      -5.181  -3.488  10.053  1.00  0.00     0.135 A 
ATOM     57  F   UNL     1      -1.807  -2.716   8.928  1.00  0.00    -0.206 F 
ATOM     58  C   UNL     1      -2.684  -4.702   9.822  1.00  0.00     0.059 A 
ATOM     59  C   UNL     1      -5.025  -4.810  10.460  1.00  0.00     0.059 A 
ATOM     60  F   UNL     1      -6.399  -2.933  10.160  1.00  0.00    -0.206 F 
ATOM     61  C   UNL     1      -3.775  -5.413  10.328  1.00  0.00     0.060 A 
BRANCH  61  62
ATOM     62  S   UNL     1      -3.539  -7.133  10.826  1.00  0.00     0.124 S 
ATOM     63  O   UNL     1      -3.536  -7.812   9.534  1.00  0.00    -0.237 OA
ATOM     64  O   UNL     1      -2.256  -7.089  11.520  1.00  0.00    -0.237 OA
ATOM     65  O   UNL     1      -4.696  -7.401  11.674  1.00  0.00    -0.744 OA
ENDBRANCH  61  62
ENDBRANCH  40  54
BRANCH  41  66
ATOM     66  C   UNL     1      -5.567   6.635   6.228  1.00  0.00     0.058 A 
ATOM     67  C   UNL     1      -4.562   7.609   6.290  1.00  0.00     0.135 A 
ATOM     68  C   UNL     1      -6.785   6.985   5.625  1.00  0.00     0.135 A 
ATOM     69  F   UNL     1      -3.383   7.321   6.862  1.00  0.00    -0.206 F 
ATOM     70  C   UNL     1      -4.754   8.885   5.768  1.00  0.00     0.059 A 
ATOM     71  C   UNL     1      -6.993   8.246   5.077  1.00  0.00     0.059 A 
ATOM     72  F   UNL     1      -7.772   6.081   5.527  1.00  0.00    -0.206 F 
ATOM     73  C   UNL     1      -5.971   9.192   5.157  1.00  0.00     0.060 A 
BRANCH  73  74
ATOM     74  S   UNL     1      -6.186  10.820   4.404  1.00  0.00     0.124 S 
ATOM     75  O   UNL     1      -6.485  11.644   5.570  1.00  0.00    -0.237 OA
ATOM     76  O   UNL     1      -4.887  11.048   3.778  1.00  0.00    -0.237 OA
ATOM     77  O   UNL     1      -7.291  10.612   3.474  1.00  0.00    -0.744 OA
ENDBRANCH  73  74
ENDBRANCH  41  66
BRANCH  53  78
ATOM     78  C   UNL     1      -5.110   3.740  12.551  1.00  0.00     0.058 A 
ATOM     79  C   UNL     1      -6.351   4.076  13.112  1.00  0.00     0.135 A 
ATOM     80  C   UNL     1      -3.957   3.932  13.325  1.00  0.00     0.135 A 
ATOM     81  F   UNL     1      -7.479   3.916  12.403  1.00  0.00    -0.206 F 
ATOM     82  C   UNL     1      -6.443   4.604  14.394  1.00  0.00     0.059 A 
ATOM     83  C   UNL     1      -4.027   4.443  14.616  1.00  0.00     0.059 A 
ATOM     84  F   UNL     1      -2.749   3.618  12.829  1.00  0.00    -0.206 F 
ATOM     85  C   UNL     1      -5.275   4.788  15.137  1.00  0.00     0.060 A 
BRANCH  85  86
ATOM     86  S   UNL     1      -5.402   5.455  16.809  1.00  0.00     0.124 S 
ATOM     87  O   UNL     1      -5.552   6.882  16.543  1.00  0.00    -0.237 OA
ATOM     88  O   UNL     1      -6.587   4.780  17.331  1.00  0.00    -0.237 OA
ATOM     89  O   UNL     1      -4.140   5.058  17.426  1.00  0.00    -0.744 OA
ENDBRANCH  85  86
ENDBRANCH  53  78
ENDBRANCH  27  28
ENDBRANCH  20  22
ENDBRANCH  19  20
ENDBRANCH  18  19
ENDBRANCH   1  18
TORSDOF 17
