REMARK SMILES O=C(OCCOC(=O)C1(Cc2ccncc2)Cc2ccccc2C1)c1ccc(-c2c3nc(c(-c4c(F)cc(S(=O)(=O)[O-])cc4F)c4ccc([nH]4)c(-c4c(F)cc(S(=O)(=O)[O-])cc4F)c4nc(c(-c5c(F)cc(S(=O)(=O)[O-])cc5F)c5ccc2[nH]5)C=C4)C=C3)cc1
REMARK SMILES IDX 4 1 3 2 2 3 1 4 25 5 26 6 90 7 27 8 89 9 28 10 29 11 30 12
REMARK SMILES IDX 83 13 31 14 88 15 82 16 84 17 32 18 87 19 81 20 80 21 33 23
REMARK SMILES IDX 67 24 46 25 66 26 47 27 50 28 65 29 85 30 48 31 49 32 64 34
REMARK SMILES IDX 86 35 51 36 34 37 35 38 44 39 36 40 37 41 43 42 45 43 38 44
REMARK SMILES IDX 39 45 40 46 41 47 42 48 68 49 69 50 78 51 70 52 71 53 77 54
REMARK SMILES IDX 79 55 72 56 73 57 74 58 75 59 76 60 52 61 53 62 62 63 54 64
REMARK SMILES IDX 55 65 61 66 63 67 56 68 57 69 58 70 59 71 60 72 5 73 6 74
REMARK SMILES IDX 7 75 8 76 9 77 17 78 24 79 18 80 23 81 19 82 22 83 20 84
REMARK SMILES IDX 21 85 10 86 11 87 12 88 16 89 13 90 15 91 14 92
REMARK H PARENT 84 22 50 33
REMARK Flexibility Score: inf
ROOT
ATOM      1  C   UNL     1       4.278  -0.869   1.128  1.00  0.00     0.275 C 
ENDROOT
BRANCH   1   2
ATOM      2  O   UNL     1       3.378   0.153   1.570  1.00  0.00    -0.458 OA
BRANCH   2   3
ATOM      3  C   UNL     1       3.103   1.366   1.040  1.00  0.00     0.338 C 
ATOM      4  O   UNL     1       2.108   1.944   1.481  1.00  0.00    -0.246 OA
BRANCH   3   5
ATOM      5  C   UNL     1       3.871   2.047  -0.070  1.00  0.00     0.060 A 
ATOM      6  C   UNL     1       4.998   1.581  -0.764  1.00  0.00     0.016 A 
ATOM      7  C   UNL     1       3.304   3.249  -0.530  1.00  0.00     0.016 A 
ATOM      8  C   UNL     1       5.438   2.191  -1.962  1.00  0.00     0.010 A 
ATOM      9  C   UNL     1       3.744   3.861  -1.710  1.00  0.00     0.010 A 
ATOM     10  C   UNL     1       4.767   3.296  -2.491  1.00  0.00    -0.014 A 
BRANCH  10  11
ATOM     11  C   UNL     1       5.242   4.008  -3.716  1.00  0.00     0.031 A 
ATOM     12  C   UNL     1       5.977   5.276  -3.449  1.00  0.00     0.074 A 
ATOM     13  C   UNL     1       4.953   3.674  -4.997  1.00  0.00     0.049 A 
ATOM     14  N   UNL     1       6.319   6.216  -4.281  1.00  0.00    -0.248 NA
ATOM     15  C   UNL     1       6.255   5.569  -2.033  1.00  0.00     0.031 C 
ATOM     16  C   UNL     1       4.133   2.555  -5.407  1.00  0.00     0.029 A 
ATOM     17  N   UNL     1       5.288   4.244  -6.210  1.00  0.00    -0.354 N 
ATOM     18  C   UNL     1       6.768   7.248  -3.478  1.00  0.00     0.074 A 
ATOM     19  C   UNL     1       6.590   6.842  -2.103  1.00  0.00     0.031 C 
ATOM     20  C   UNL     1       4.051   2.472  -6.742  1.00  0.00     0.029 A 
ATOM     21  C   UNL     1       4.817   3.554  -7.316  1.00  0.00     0.049 A 
ATOM     22  H   UNL     1       5.817   5.072  -6.283  1.00  0.00     0.167 HD
ATOM     23  C   UNL     1       7.291   8.431  -3.860  1.00  0.00     0.037 A 
ATOM     24  C   UNL     1       4.979   3.750  -8.643  1.00  0.00     0.037 A 
ATOM     25  C   UNL     1       7.472   8.799  -5.231  1.00  0.00     0.049 A 
ATOM     26  C   UNL     1       5.698   5.000  -9.054  1.00  0.00     0.074 A 
ATOM     27  C   UNL     1       8.009   9.960  -5.745  1.00  0.00     0.029 A 
ATOM     28  N   UNL     1       7.116   7.999  -6.312  1.00  0.00    -0.354 N 
ATOM     29  N   UNL     1       6.169   5.949  -8.280  1.00  0.00    -0.248 NA
ATOM     30  C   UNL     1       5.877   5.242 -10.490  1.00  0.00     0.031 C 
ATOM     31  C   UNL     1       7.954   9.876  -7.139  1.00  0.00     0.029 A 
ATOM     32  C   UNL     1       7.433   8.639  -7.494  1.00  0.00     0.049 A 
ATOM     33  H   UNL     1       6.700   7.109  -6.244  1.00  0.00     0.167 HD
ATOM     34  C   UNL     1       6.695   6.905  -9.131  1.00  0.00     0.074 A 
ATOM     35  C   UNL     1       6.512   6.408 -10.482  1.00  0.00     0.031 C 
ATOM     36  C   UNL     1       7.259   8.095  -8.820  1.00  0.00     0.037 A 
BRANCH  23  37
ATOM     37  C   UNL     1       7.633   9.373  -2.747  1.00  0.00     0.058 A 
ATOM     38  C   UNL     1       8.636   9.069  -1.809  1.00  0.00     0.135 A 
ATOM     39  C   UNL     1       6.830  10.499  -2.514  1.00  0.00     0.135 A 
ATOM     40  F   UNL     1       9.399   7.974  -1.964  1.00  0.00    -0.206 F 
ATOM     41  C   UNL     1       8.767   9.794  -0.632  1.00  0.00     0.059 A 
ATOM     42  C   UNL     1       6.974  11.265  -1.363  1.00  0.00     0.059 A 
ATOM     43  F   UNL     1       5.851  10.823  -3.373  1.00  0.00    -0.206 F 
ATOM     44  C   UNL     1       7.918  10.879  -0.411  1.00  0.00     0.060 A 
BRANCH  44  45
ATOM     45  S   UNL     1       8.036  11.758   1.159  1.00  0.00     0.124 S 
ATOM     46  O   UNL     1       7.352  10.835   2.059  1.00  0.00    -0.237 OA
ATOM     47  O   UNL     1       9.479  11.871   1.346  1.00  0.00    -0.237 OA
ATOM     48  O   UNL     1       7.340  13.013   0.896  1.00  0.00    -0.744 OA
ENDBRANCH  44  45
ENDBRANCH  23  37
BRANCH  24  49
ATOM     49  C   UNL     1       4.495   2.754  -9.655  1.00  0.00     0.058 A 
ATOM     50  C   UNL     1       5.408   2.002 -10.417  1.00  0.00     0.135 A 
ATOM     51  C   UNL     1       3.131   2.499  -9.871  1.00  0.00     0.135 A 
ATOM     52  F   UNL     1       6.727   2.201 -10.268  1.00  0.00    -0.206 F 
ATOM     53  C   UNL     1       4.992   1.047 -11.347  1.00  0.00     0.059 A 
ATOM     54  C   UNL     1       2.689   1.529 -10.775  1.00  0.00     0.059 A 
ATOM     55  F   UNL     1       2.204   3.173  -9.173  1.00  0.00    -0.206 F 
ATOM     56  C   UNL     1       3.628   0.811 -11.513  1.00  0.00     0.060 A 
BRANCH  56  57
ATOM     57  S   UNL     1       3.100  -0.485 -12.662  1.00  0.00     0.124 S 
ATOM     58  O   UNL     1       3.364   0.137 -13.954  1.00  0.00    -0.237 OA
ATOM     59  O   UNL     1       3.977  -1.594 -12.297  1.00  0.00    -0.237 OA
ATOM     60  O   UNL     1       1.692  -0.676 -12.328  1.00  0.00    -0.744 OA
ENDBRANCH  56  57
ENDBRANCH  24  49
BRANCH  36  61
ATOM     61  C   UNL     1       7.766   8.933  -9.950  1.00  0.00     0.058 A 
ATOM     62  C   UNL     1       6.897   9.693 -10.744  1.00  0.00     0.135 A 
ATOM     63  C   UNL     1       9.149   9.095 -10.123  1.00  0.00     0.135 A 
ATOM     64  F   UNL     1       5.568   9.556 -10.618  1.00  0.00    -0.206 F 
ATOM     65  C   UNL     1       7.387  10.613 -11.661  1.00  0.00     0.059 A 
ATOM     66  C   UNL     1       9.659  10.027 -11.015  1.00  0.00     0.059 A 
ATOM     67  F   UNL     1      10.011   8.386  -9.378  1.00  0.00    -0.206 F 
ATOM     68  C   UNL     1       8.769  10.788 -11.773  1.00  0.00     0.060 A 
BRANCH  68  69
ATOM     69  S   UNL     1       9.387  12.080 -12.867  1.00  0.00     0.124 S 
ATOM     70  O   UNL     1       9.135  11.498 -14.181  1.00  0.00    -0.237 OA
ATOM     71  O   UNL     1       8.550  13.220 -12.505  1.00  0.00    -0.237 OA
ATOM     72  O   UNL     1      10.793  12.199 -12.491  1.00  0.00    -0.744 OA
ENDBRANCH  68  69
ENDBRANCH  36  61
ENDBRANCH  10  11
ENDBRANCH   3   5
ENDBRANCH   2   3
ENDBRANCH   1   2
BRANCH   1  73
ATOM     73  C   UNL     1       3.721  -1.683  -0.040  1.00  0.00     0.274 C 
BRANCH  73  74
ATOM     74  O   UNL     1       3.276  -0.845  -1.122  1.00  0.00    -0.462 OA
BRANCH  74  75
ATOM     75  C   UNL     1       2.269  -1.328  -1.921  1.00  0.00     0.313 C 
ATOM     76  O   UNL     1       1.699  -2.387  -1.731  1.00  0.00    -0.252 OA
BRANCH  75  77
ATOM     77  C   UNL     1       2.049  -0.447  -3.156  1.00  0.00     0.080 C 
ATOM     78  C   UNL     1       0.523  -0.433  -3.552  1.00  0.00     0.055 C 
ATOM     79  C   UNL     1       2.285   1.025  -2.795  1.00  0.00     0.055 C 
ATOM     80  C   UNL     1       0.241   0.996  -3.950  1.00  0.00    -0.044 A 
ATOM     81  C   UNL     1       1.297   1.813  -3.589  1.00  0.00    -0.044 A 
ATOM     82  C   UNL     1      -0.892   1.555  -4.527  1.00  0.00     0.004 A 
ATOM     83  C   UNL     1       1.283   3.176  -3.869  1.00  0.00     0.004 A 
ATOM     84  C   UNL     1      -0.925   2.935  -4.786  1.00  0.00     0.000 A 
ATOM     85  C   UNL     1       0.171   3.742  -4.480  1.00  0.00     0.000 A 
BRANCH  77  86
ATOM     86  C   UNL     1       2.956  -1.003  -4.324  1.00  0.00     0.055 C 
BRANCH  86  87
ATOM     87  C   UNL     1       4.484  -0.961  -4.210  1.00  0.00    -0.044 A 
ATOM     88  C   UNL     1       5.200  -1.628  -3.220  1.00  0.00     0.024 A 
ATOM     89  C   UNL     1       5.263  -0.293  -5.159  1.00  0.00     0.024 A 
ATOM     90  C   UNL     1       6.571  -1.416  -3.090  1.00  0.00     0.111 A 
ATOM     91  C   UNL     1       6.626  -0.105  -4.951  1.00  0.00     0.111 A 
ATOM     92  N   UNL     1       7.292  -0.625  -3.903  1.00  0.00    -0.265 NA
ENDBRANCH  86  87
ENDBRANCH  77  86
ENDBRANCH  75  77
ENDBRANCH  74  75
ENDBRANCH  73  74
ENDBRANCH   1  73
TORSDOF 16
