REMARK SMILES CC1(C)[C@H](C(=O)OCCOC(=O)c2ccc(-c3c4nc(c(-c5c(F)cc(S(=O)(=O)[O-])cc5F)c5ccc([nH]5)c(-c5c(F)cc(S(=O)(=O)[O-])cc5F)c5nc(c(-c6c(F)cc(S(=O)(=O)[O-])cc6F)c6ccc3[nH]6)C=C5)C=C4)cc2)[C@@H]1C(=O)Nc1ccon1
REMARK SMILES IDX 9 1 8 2 7 3 5 4 6 5 4 6 1 7 2 8 3 9 79 10 80 11 81 12 82 13
REMARK SMILES IDX 83 15 84 16 87 17 85 18 86 19 10 20 11 21 12 22 13 23 14 24
REMARK SMILES IDX 78 25 15 26 77 27 16 28 17 29 18 30 71 31 19 32 76 33 70 34
REMARK SMILES IDX 72 35 20 36 75 37 69 38 68 39 21 41 55 42 34 43 54 44 35 45
REMARK SMILES IDX 38 46 53 47 73 48 36 49 37 50 52 52 74 53 39 54 22 55 23 56
REMARK SMILES IDX 32 57 24 58 25 59 31 60 33 61 26 62 27 63 28 64 29 65 30 66
REMARK SMILES IDX 56 67 57 68 66 69 58 70 59 71 65 72 67 73 60 74 61 75 62 76
REMARK SMILES IDX 63 77 64 78 40 79 41 80 50 81 42 82 43 83 49 84 51 85 44 86
REMARK SMILES IDX 45 87 46 88 47 89 48 90
REMARK H PARENT 82 14 72 40 38 51
REMARK Flexibility Score: inf
ROOT
ATOM      1  C   UNL     1      -1.236   2.902  -3.955  1.00  0.00     0.275 C 
ENDROOT
BRANCH   1   2
ATOM      2  C   UNL     1      -1.828   3.090  -2.549  1.00  0.00     0.274 C 
BRANCH   2   3
ATOM      3  O   UNL     1      -1.202   2.253  -1.559  1.00  0.00    -0.462 OA
BRANCH   3   4
ATOM      4  C   UNL     1      -1.780   1.033  -1.416  1.00  0.00     0.310 C 
ATOM      5  O   UNL     1      -2.742   0.640  -2.052  1.00  0.00    -0.252 OA
BRANCH   4   6
ATOM      6  C   UNL     1      -1.138   0.113  -0.444  1.00  0.00     0.118 C 
ATOM      7  C   UNL     1       1.050  -0.900   0.358  1.00  0.00     0.013 C 
ATOM      8  C   UNL     1       0.143   0.313   0.325  1.00  0.00    -0.009 C 
ATOM      9  C   UNL     1       0.917   1.606   0.232  1.00  0.00     0.013 C 
ATOM     10  C   UNL     1      -1.218   0.261   1.053  1.00  0.00     0.100 C 
BRANCH  10  11
ATOM     11  C   UNL     1      -1.746   1.454   1.756  1.00  0.00     0.230 C 
ATOM     12  O   UNL     1      -1.043   2.003   2.602  1.00  0.00    -0.274 OA
ATOM     13  N   UNL     1      -2.985   1.959   1.480  1.00  0.00    -0.308 N 
ATOM     14  H   UNL     1      -3.150   2.849   1.866  1.00  0.00     0.171 HD
BRANCH  13  15
ATOM     15  C   UNL     1      -4.044   1.455   0.765  1.00  0.00     0.175 A 
ATOM     16  C   UNL     1      -4.325   0.141   0.331  1.00  0.00     0.092 A 
ATOM     17  N   UNL     1      -5.017   2.294   0.389  1.00  0.00    -0.062 NA
ATOM     18  C   UNL     1      -5.444   0.273  -0.451  1.00  0.00     0.233 A 
ATOM     19  O   UNL     1      -5.867   1.558  -0.416  1.00  0.00    -0.363 OA
ENDBRANCH  13  15
ENDBRANCH  10  11
ENDBRANCH   4   6
ENDBRANCH   3   4
ENDBRANCH   2   3
ENDBRANCH   1   2
BRANCH   1  20
ATOM     20  O   UNL     1      -1.532   1.614  -4.531  1.00  0.00    -0.458 OA
BRANCH  20  21
ATOM     21  C   UNL     1      -0.618   0.647  -4.274  1.00  0.00     0.338 C 
ATOM     22  O   UNL     1       0.418   0.771  -3.641  1.00  0.00    -0.246 OA
BRANCH  21  23
ATOM     23  C   UNL     1      -1.111  -0.666  -4.728  1.00  0.00     0.060 A 
ATOM     24  C   UNL     1      -1.290  -1.659  -3.761  1.00  0.00     0.016 A 
ATOM     25  C   UNL     1      -1.282  -0.964  -6.077  1.00  0.00     0.016 A 
ATOM     26  C   UNL     1      -1.635  -2.955  -4.121  1.00  0.00     0.010 A 
ATOM     27  C   UNL     1      -1.612  -2.274  -6.447  1.00  0.00     0.010 A 
ATOM     28  C   UNL     1      -1.773  -3.277  -5.471  1.00  0.00    -0.014 A 
BRANCH  28  29
ATOM     29  C   UNL     1      -1.953  -4.692  -5.863  1.00  0.00     0.031 A 
ATOM     30  C   UNL     1      -0.782  -5.437  -6.436  1.00  0.00     0.074 A 
ATOM     31  C   UNL     1      -3.133  -5.310  -5.673  1.00  0.00     0.049 A 
ATOM     32  N   UNL     1      -0.746  -6.612  -7.003  1.00  0.00    -0.248 NA
ATOM     33  C   UNL     1       0.524  -4.763  -6.358  1.00  0.00     0.031 C 
ATOM     34  C   UNL     1      -4.305  -4.715  -5.030  1.00  0.00     0.029 A 
ATOM     35  N   UNL     1      -3.543  -6.573  -6.016  1.00  0.00    -0.354 N 
ATOM     36  C   UNL     1       0.576  -6.804  -7.388  1.00  0.00     0.074 A 
ATOM     37  C   UNL     1       1.311  -5.625  -6.986  1.00  0.00     0.031 C 
ATOM     38  C   UNL     1      -5.310  -5.607  -5.044  1.00  0.00     0.029 A 
ATOM     39  C   UNL     1      -4.871  -6.807  -5.751  1.00  0.00     0.049 A 
ATOM     40  H   UNL     1      -2.944  -7.247  -6.413  1.00  0.00     0.167 HD
ATOM     41  C   UNL     1       1.117  -7.867  -8.026  1.00  0.00     0.037 A 
ATOM     42  C   UNL     1      -5.654  -7.851  -6.089  1.00  0.00     0.037 A 
ATOM     43  C   UNL     1       0.368  -9.038  -8.401  1.00  0.00     0.049 A 
ATOM     44  C   UNL     1      -5.050  -8.990  -6.867  1.00  0.00     0.074 A 
ATOM     45  C   UNL     1       0.809 -10.167  -9.067  1.00  0.00     0.029 A 
ATOM     46  N   UNL     1      -0.981  -9.230  -8.135  1.00  0.00    -0.354 N 
ATOM     47  N   UNL     1      -3.812  -9.142  -7.278  1.00  0.00    -0.248 NA
ATOM     48  C   UNL     1      -5.946 -10.094  -7.238  1.00  0.00     0.031 C 
ATOM     49  C   UNL     1      -0.283 -11.024  -9.239  1.00  0.00     0.029 A 
ATOM     50  C   UNL     1      -1.392 -10.453  -8.634  1.00  0.00     0.049 A 
ATOM     51  H   UNL     1      -1.559  -8.590  -7.661  1.00  0.00     0.167 HD
ATOM     52  C   UNL     1      -3.774 -10.370  -7.927  1.00  0.00     0.074 A 
ATOM     53  C   UNL     1      -5.112 -10.921  -7.854  1.00  0.00     0.031 C 
ATOM     54  C   UNL     1      -2.726 -10.989  -8.525  1.00  0.00     0.037 A 
BRANCH  41  55
ATOM     55  C   UNL     1       2.569  -7.788  -8.404  1.00  0.00     0.058 A 
ATOM     56  C   UNL     1       3.595  -7.886  -7.451  1.00  0.00     0.135 A 
ATOM     57  C   UNL     1       2.940  -7.628  -9.750  1.00  0.00     0.135 A 
ATOM     58  F   UNL     1       3.296  -8.016  -6.148  1.00  0.00    -0.206 F 
ATOM     59  C   UNL     1       4.935  -7.803  -7.815  1.00  0.00     0.059 A 
ATOM     60  C   UNL     1       4.274  -7.568 -10.140  1.00  0.00     0.059 A 
ATOM     61  F   UNL     1       1.999  -7.523 -10.702  1.00  0.00    -0.206 F 
ATOM     62  C   UNL     1       5.265  -7.641  -9.162  1.00  0.00     0.060 A 
BRANCH  62  63
ATOM     63  S   UNL     1       7.008  -7.533  -9.620  1.00  0.00     0.124 S 
ATOM     64  O   UNL     1       7.348  -6.192  -9.153  1.00  0.00    -0.237 OA
ATOM     65  O   UNL     1       7.599  -8.634  -8.867  1.00  0.00    -0.237 OA
ATOM     66  O   UNL     1       6.991  -7.706 -11.069  1.00  0.00    -0.744 OA
ENDBRANCH  62  63
ENDBRANCH  41  55
BRANCH  42  67
ATOM     67  C   UNL     1      -7.098  -7.843  -5.732  1.00  0.00     0.058 A 
ATOM     68  C   UNL     1      -7.614  -8.729  -4.777  1.00  0.00     0.135 A 
ATOM     69  C   UNL     1      -7.988  -6.937  -6.332  1.00  0.00     0.135 A 
ATOM     70  F   UNL     1      -6.806  -9.620  -4.183  1.00  0.00    -0.206 F 
ATOM     71  C   UNL     1      -8.963  -8.725  -4.433  1.00  0.00     0.059 A 
ATOM     72  C   UNL     1      -9.335  -6.896  -5.986  1.00  0.00     0.059 A 
ATOM     73  F   UNL     1      -7.543  -6.061  -7.247  1.00  0.00    -0.206 F 
ATOM     74  C   UNL     1      -9.815  -7.801  -5.041  1.00  0.00     0.060 A 
BRANCH  74  75
ATOM     75  S   UNL     1     -11.552  -7.766  -4.547  1.00  0.00     0.124 S 
ATOM     76  O   UNL     1     -12.065  -8.967  -5.195  1.00  0.00    -0.237 OA
ATOM     77  O   UNL     1     -11.457  -7.815  -3.091  1.00  0.00    -0.237 OA
ATOM     78  O   UNL     1     -12.030  -6.499  -5.093  1.00  0.00    -0.744 OA
ENDBRANCH  74  75
ENDBRANCH  42  67
BRANCH  54  79
ATOM     79  C   UNL     1      -2.962 -12.358  -9.096  1.00  0.00     0.058 A 
ATOM     80  C   UNL     1      -3.650 -12.549 -10.303  1.00  0.00     0.135 A 
ATOM     81  C   UNL     1      -2.415 -13.487  -8.463  1.00  0.00     0.135 A 
ATOM     82  F   UNL     1      -4.197 -11.503 -10.942  1.00  0.00    -0.206 F 
ATOM     83  C   UNL     1      -3.796 -13.815 -10.861  1.00  0.00     0.059 A 
ATOM     84  C   UNL     1      -2.528 -14.758  -9.015  1.00  0.00     0.059 A 
ATOM     85  F   UNL     1      -1.740 -13.354  -7.310  1.00  0.00    -0.206 F 
ATOM     86  C   UNL     1      -3.225 -14.913 -10.212  1.00  0.00     0.060 A 
BRANCH  86  87
ATOM     87  S   UNL     1      -3.368 -16.542 -10.976  1.00  0.00     0.124 S 
ATOM     88  O   UNL     1      -4.763 -16.872 -10.705  1.00  0.00    -0.237 OA
ATOM     89  O   UNL     1      -3.042 -16.263 -12.371  1.00  0.00    -0.237 OA
ATOM     90  O   UNL     1      -2.382 -17.343 -10.257  1.00  0.00    -0.744 OA
ENDBRANCH  86  87
ENDBRANCH  54  79
ENDBRANCH  28  29
ENDBRANCH  21  23
ENDBRANCH  20  21
ENDBRANCH   1  20
TORSDOF 16
