REMARK SMILES COc1cc(C)cc2c1[C@@H](C)[C@@H](CC(=O)N[C@@H](Cc1c[nH]c3ccccc13)C(=O)OCCOC(=O)c1ccc(-c3c4nc(c(-c5c(F)cc(S(=O)(=O)[O-])cc5F)c5ccc([nH]5)c(-c5c(F)cc(S(=O)(=O)[O-])cc5F)c5nc(c(-c6c(F)cc(S(=O)(=O)[O-])cc6F)c6ccc3[nH]6)C=C5)C=C4)cc1)C(=O)O2
REMARK SMILES IDX 31 1 30 2 28 3 29 4 17 5 16 6 14 7 15 8 13 10 12 11 3 12
REMARK SMILES IDX 4 13 9 14 5 15 8 16 10 17 6 18 7 19 104 20 11 21 102 22
REMARK SMILES IDX 103 23 2 24 1 25 18 26 19 27 20 28 27 29 21 30 22 31 26 32
REMARK SMILES IDX 23 34 25 35 24 36 32 37 33 38 34 39 35 40 36 41 37 42 101 43
REMARK SMILES IDX 38 44 100 45 39 46 40 47 41 48 94 49 42 50 99 51 93 52 95 53
REMARK SMILES IDX 43 54 98 55 92 56 91 57 44 59 78 60 57 61 77 62 58 63 61 64
REMARK SMILES IDX 76 65 96 66 59 67 60 68 75 70 97 71 62 72 45 73 46 74 55 75
REMARK SMILES IDX 47 76 48 77 54 78 56 79 49 80 50 81 51 82 52 83 53 84 79 85
REMARK SMILES IDX 80 86 89 87 81 88 82 89 88 90 90 91 83 92 84 93 85 94 86 95
REMARK SMILES IDX 87 96 63 97 64 98 73 99 65 100 66 101 72 102 74 103 67 104
REMARK SMILES IDX 68 105 69 106 70 107 71 108
REMARK H PARENT 16 9 21 33 95 58 61 69
REMARK Flexibility Score: inf
ROOT
ATOM      1  C   UNL     1      -0.606   8.017  -5.852  1.00  0.00     0.274 C 
ENDROOT
BRANCH   1   2
ATOM      2  O   UNL     1      -1.585   7.081  -5.359  1.00  0.00    -0.461 OA
BRANCH   2   3
ATOM      3  C   UNL     1      -1.332   5.786  -5.661  1.00  0.00     0.329 C 
ATOM      4  O   UNL     1      -0.412   5.407  -6.383  1.00  0.00    -0.250 OA
BRANCH   3   5
ATOM      5  C   UNL     1      -2.375   4.809  -5.132  1.00  0.00     0.196 C 
BRANCH   5   6
ATOM      6  N   UNL     1      -3.055   5.021  -3.866  1.00  0.00    -0.342 N 
ATOM      7  C   UNL     1      -3.557   4.042  -3.041  1.00  0.00     0.221 C 
ATOM      8  O   UNL     1      -4.570   4.257  -2.378  1.00  0.00    -0.275 OA
ATOM      9  H   UNL     1      -3.167   5.954  -3.571  1.00  0.00     0.164 HD
BRANCH   7  10
ATOM     10  C   UNL     1      -2.726   2.785  -2.812  1.00  0.00     0.116 C 
BRANCH  10  11
ATOM     11  C   UNL     1      -3.193   1.424  -3.379  1.00  0.00     0.116 C 
ATOM     12  C   UNL     1       0.371   0.402  -3.087  1.00  0.00     0.126 A 
ATOM     13  C   UNL     1       1.483   1.085  -3.605  1.00  0.00     0.050 A 
ATOM     14  C   UNL     1      -0.883   0.598  -3.668  1.00  0.00     0.041 A 
ATOM     15  C   UNL     1       1.350   1.971  -4.693  1.00  0.00    -0.044 A 
ATOM     16  C   UNL     1      -0.933   1.298  -4.882  1.00  0.00     0.138 A 
ATOM     17  C   UNL     1      -2.223   0.251  -3.037  1.00  0.00     0.038 C 
ATOM     18  C   UNL     1       2.414   2.937  -5.116  1.00  0.00     0.044 C 
ATOM     19  C   UNL     1       0.158   1.978  -5.401  1.00  0.00     0.051 A 
ATOM     20  O   UNL     1      -2.140   1.453  -5.583  1.00  0.00    -0.426 OA
ATOM     21  C   UNL     1      -2.248   0.003  -1.526  1.00  0.00     0.014 C 
ATOM     22  C   UNL     1      -3.329   1.370  -4.878  1.00  0.00     0.315 C 
ATOM     23  O   UNL     1      -4.407   1.273  -5.455  1.00  0.00    -0.251 OA
BRANCH  12  24
ATOM     24  O   UNL     1       0.459  -0.516  -2.080  1.00  0.00    -0.496 OA
ATOM     25  C   UNL     1       1.202  -0.141  -0.923  1.00  0.00     0.278 C 
ENDBRANCH  12  24
ENDBRANCH  10  11
ENDBRANCH   7  10
ENDBRANCH   5   6
BRANCH   5  26
ATOM     26  C   UNL     1      -3.335   4.476  -6.273  1.00  0.00     0.074 C 
BRANCH  26  27
ATOM     27  C   UNL     1      -4.572   5.263  -6.636  1.00  0.00    -0.020 A 
ATOM     28  C   UNL     1      -5.043   5.342  -7.943  1.00  0.00     0.087 A 
ATOM     29  C   UNL     1      -5.708   5.734  -5.885  1.00  0.00     0.003 A 
ATOM     30  N   UNL     1      -6.301   4.814  -7.783  1.00  0.00    -0.361 N 
ATOM     31  C   UNL     1      -6.825   5.407  -6.668  1.00  0.00     0.046 A 
ATOM     32  C   UNL     1      -5.973   6.321  -4.636  1.00  0.00     0.010 A 
ATOM     33  H   UNL     1      -6.737   4.143  -8.356  1.00  0.00     0.166 HD
ATOM     34  C   UNL     1      -8.153   5.593  -6.281  1.00  0.00     0.026 A 
ATOM     35  C   UNL     1      -7.296   6.596  -4.256  1.00  0.00     0.001 A 
ATOM     36  C   UNL     1      -8.369   6.231  -5.064  1.00  0.00     0.002 A 
ENDBRANCH  26  27
ENDBRANCH   5  26
ENDBRANCH   3   5
ENDBRANCH   2   3
ENDBRANCH   1   2
BRANCH   1  37
ATOM     37  C   UNL     1       0.166   8.640  -4.689  1.00  0.00     0.275 C 
BRANCH  37  38
ATOM     38  O   UNL     1       1.032   7.685  -4.038  1.00  0.00    -0.458 OA
BRANCH  38  39
ATOM     39  C   UNL     1       0.479   7.000  -3.013  1.00  0.00     0.338 C 
ATOM     40  O   UNL     1      -0.680   7.120  -2.608  1.00  0.00    -0.246 OA
BRANCH  39  41
ATOM     41  C   UNL     1       1.397   5.958  -2.506  1.00  0.00     0.060 A 
ATOM     42  C   UNL     1       2.775   6.151  -2.333  1.00  0.00     0.016 A 
ATOM     43  C   UNL     1       0.834   4.736  -2.152  1.00  0.00     0.016 A 
ATOM     44  C   UNL     1       3.588   5.106  -1.838  1.00  0.00     0.010 A 
ATOM     45  C   UNL     1       1.646   3.704  -1.678  1.00  0.00     0.010 A 
ATOM     46  C   UNL     1       3.040   3.853  -1.532  1.00  0.00    -0.014 A 
BRANCH  46  47
ATOM     47  C   UNL     1       3.830   2.730  -0.929  1.00  0.00     0.031 A 
ATOM     48  C   UNL     1       4.703   1.782  -1.728  1.00  0.00     0.074 A 
ATOM     49  C   UNL     1       3.608   2.450   0.369  1.00  0.00     0.049 A 
ATOM     50  N   UNL     1       5.218   0.625  -1.377  1.00  0.00    -0.248 NA
ATOM     51  C   UNL     1       4.946   2.119  -3.130  1.00  0.00     0.031 C 
ATOM     52  C   UNL     1       2.733   3.220   1.254  1.00  0.00     0.029 A 
ATOM     53  N   UNL     1       4.075   1.432   1.159  1.00  0.00    -0.354 N 
ATOM     54  C   UNL     1       5.743   0.058  -2.542  1.00  0.00     0.074 A 
ATOM     55  C   UNL     1       5.413   0.974  -3.613  1.00  0.00     0.031 C 
ATOM     56  C   UNL     1       2.731   2.652   2.467  1.00  0.00     0.029 A 
ATOM     57  C   UNL     1       3.627   1.499   2.454  1.00  0.00     0.049 A 
ATOM     58  H   UNL     1       4.674   0.723   0.829  1.00  0.00     0.167 HD
ATOM     59  C   UNL     1       6.471  -1.083  -2.699  1.00  0.00     0.037 A 
ATOM     60  C   UNL     1       3.944   0.755   3.530  1.00  0.00     0.037 A 
ATOM     61  C   UNL     1       6.955  -1.871  -1.588  1.00  0.00     0.049 A 
ATOM     62  C   UNL     1       4.967  -0.332   3.400  1.00  0.00     0.074 A 
ATOM     63  C   UNL     1       7.837  -2.940  -1.601  1.00  0.00     0.029 A 
ATOM     64  N   UNL     1       6.635  -1.641  -0.258  1.00  0.00    -0.354 N 
ATOM     65  N   UNL     1       5.522  -0.807   2.312  1.00  0.00    -0.248 NA
ATOM     66  C   UNL     1       5.442  -0.953   4.643  1.00  0.00     0.031 C 
ATOM     67  C   UNL     1       8.037  -3.364  -0.282  1.00  0.00     0.029 A 
ATOM     68  C   UNL     1       7.311  -2.534   0.556  1.00  0.00     0.049 A 
ATOM     69  H   UNL     1       6.016  -0.945   0.060  1.00  0.00     0.167 HD
ATOM     70  C   UNL     1       6.435  -1.764   2.741  1.00  0.00     0.074 A 
ATOM     71  C   UNL     1       6.361  -1.795   4.187  1.00  0.00     0.031 C 
ATOM     72  C   UNL     1       7.256  -2.543   1.997  1.00  0.00     0.037 A 
BRANCH  59  73
ATOM     73  C   UNL     1       6.854  -1.530  -4.100  1.00  0.00     0.058 A 
ATOM     74  C   UNL     1       7.667  -0.753  -4.942  1.00  0.00     0.135 A 
ATOM     75  C   UNL     1       6.446  -2.785  -4.596  1.00  0.00     0.135 A 
ATOM     76  F   UNL     1       8.129   0.437  -4.527  1.00  0.00    -0.206 F 
ATOM     77  C   UNL     1       7.979  -1.151  -6.241  1.00  0.00     0.059 A 
ATOM     78  C   UNL     1       6.788  -3.227  -5.876  1.00  0.00     0.059 A 
ATOM     79  F   UNL     1       5.709  -3.608  -3.833  1.00  0.00    -0.206 F 
ATOM     80  C   UNL     1       7.524  -2.385  -6.705  1.00  0.00     0.060 A 
BRANCH  80  81
ATOM     81  S   UNL     1       7.901  -2.857  -8.407  1.00  0.00     0.124 S 
ATOM     82  O   UNL     1       6.983  -2.003  -9.154  1.00  0.00    -0.237 OA
ATOM     83  O   UNL     1       9.315  -2.515  -8.523  1.00  0.00    -0.237 OA
ATOM     84  O   UNL     1       7.600  -4.285  -8.441  1.00  0.00    -0.744 OA
ENDBRANCH  80  81
ENDBRANCH  59  73
BRANCH  60  85
ATOM     85  C   UNL     1       3.413   1.182   4.845  1.00  0.00     0.058 A 
ATOM     86  C   UNL     1       4.209   1.974   5.685  1.00  0.00     0.135 A 
ATOM     87  C   UNL     1       2.080   0.954   5.215  1.00  0.00     0.135 A 
ATOM     88  F   UNL     1       5.484   2.230   5.353  1.00  0.00    -0.206 F 
ATOM     89  C   UNL     1       3.701   2.535   6.847  1.00  0.00     0.059 A 
ATOM     90  C   UNL     1       1.544   1.519   6.368  1.00  0.00     0.059 A 
ATOM     91  F   UNL     1       1.274   0.238   4.416  1.00  0.00    -0.206 F 
ATOM     92  C   UNL     1       2.362   2.312   7.174  1.00  0.00     0.060 A 
BRANCH  92  93
ATOM     93  S   UNL     1       1.696   3.139   8.633  1.00  0.00     0.124 S 
ATOM     94  O   UNL     1       2.390   2.440   9.709  1.00  0.00    -0.237 OA
ATOM     95  O   UNL     1       2.100   4.523   8.406  1.00  0.00    -0.237 OA
ATOM     96  O   UNL     1       0.262   2.887   8.537  1.00  0.00    -0.744 OA
ENDBRANCH  92  93
ENDBRANCH  60  85
BRANCH  72  97
ATOM     97  C   UNL     1       8.176  -3.491   2.711  1.00  0.00     0.058 A 
ATOM     98  C   UNL     1       7.704  -4.690   3.265  1.00  0.00     0.135 A 
ATOM     99  C   UNL     1       9.561  -3.257   2.727  1.00  0.00     0.135 A 
ATOM    100  F   UNL     1       6.389  -4.955   3.282  1.00  0.00    -0.206 F 
ATOM    101  C   UNL     1       8.576  -5.632   3.800  1.00  0.00     0.059 A 
ATOM    102  C   UNL     1      10.452  -4.195   3.239  1.00  0.00     0.059 A 
ATOM    103  F   UNL     1      10.061  -2.125   2.206  1.00  0.00    -0.206 F 
ATOM    104  C   UNL     1       9.950  -5.382   3.769  1.00  0.00     0.060 A 
BRANCH 104 105
ATOM    105  S   UNL     1      11.072  -6.661   4.375  1.00  0.00     0.124 S 
ATOM    106  O   UNL     1      10.841  -6.599   5.814  1.00  0.00    -0.237 OA
ATOM    107  O   UNL     1      10.570  -7.856   3.703  1.00  0.00    -0.237 OA
ATOM    108  O   UNL     1      12.384  -6.202   3.929  1.00  0.00    -0.744 OA
ENDBRANCH 104 105
ENDBRANCH  72  97
ENDBRANCH  46  47
ENDBRANCH  39  41
ENDBRANCH  38  39
ENDBRANCH  37  38
ENDBRANCH   1  37
TORSDOF 20
