REMARK SMILES O=C(OCCOC(=O)c1cc2c(Cl)c(C(F)(F)F)cnc2n1S(=O)(=O)c1ccccc1)c1ccc(-c2c3nc(c(-c4c(F)cc(S(=O)(=O)[O-])cc4F)c4ccc([nH]4)c(-c4c(F)cc(S(=O)(=O)[O-])cc4F)c4nc(c(-c5c(F)cc(S(=O)(=O)[O-])cc5F)c5ccc2[nH]5)C=C4)C=C3)cc1
REMARK SMILES IDX 4 1 3 2 2 3 1 4 32 5 33 6 97 7 34 8 96 9 35 10 36 11 37 12
REMARK SMILES IDX 90 13 38 14 95 15 89 16 91 17 39 18 94 19 88 20 87 21 40 23
REMARK SMILES IDX 74 24 53 25 73 26 54 27 57 28 72 29 92 30 55 31 56 32 71 34
REMARK SMILES IDX 93 35 58 36 41 37 42 38 51 39 43 40 44 41 50 42 52 43 45 44
REMARK SMILES IDX 46 45 47 46 48 47 49 48 75 49 76 50 85 51 77 52 78 53 84 54
REMARK SMILES IDX 86 55 79 56 80 57 81 58 82 59 83 60 59 61 60 62 69 63 61 64
REMARK SMILES IDX 62 65 68 66 70 67 63 68 64 69 65 70 66 71 67 72 5 73 6 74
REMARK SMILES IDX 7 75 8 76 9 77 10 78 22 79 11 80 21 81 12 82 20 83 13 84
REMARK SMILES IDX 14 85 19 86 23 87 24 88 25 89 26 90 27 91 31 92 28 93 30 94
REMARK SMILES IDX 29 95 15 96 16 97 17 98 18 99
REMARK H PARENT 91 22 57 33
REMARK Flexibility Score: inf
ROOT
ATOM      1  C   UNL     1       4.667  -1.459  -0.042  1.00  0.00     0.275 C 
ENDROOT
BRANCH   1   2
ATOM      2  O   UNL     1       3.501  -1.483   0.809  1.00  0.00    -0.458 OA
BRANCH   2   3
ATOM      3  C   UNL     1       2.498  -0.602   0.594  1.00  0.00     0.338 C 
ATOM      4  O   UNL     1       1.500  -0.853  -0.067  1.00  0.00    -0.246 OA
BRANCH   3   5
ATOM      5  C   UNL     1       2.611   0.618   1.427  1.00  0.00     0.060 A 
ATOM      6  C   UNL     1       3.848   1.170   1.768  1.00  0.00     0.016 A 
ATOM      7  C   UNL     1       1.428   1.233   1.863  1.00  0.00     0.016 A 
ATOM      8  C   UNL     1       3.909   2.288   2.582  1.00  0.00     0.010 A 
ATOM      9  C   UNL     1       1.488   2.361   2.676  1.00  0.00     0.010 A 
ATOM     10  C   UNL     1       2.732   2.870   3.054  1.00  0.00    -0.014 A 
BRANCH  10  11
ATOM     11  C   UNL     1       2.883   4.048   3.900  1.00  0.00     0.031 A 
ATOM     12  C   UNL     1       3.403   5.277   3.239  1.00  0.00     0.074 A 
ATOM     13  C   UNL     1       2.496   4.085   5.188  1.00  0.00     0.049 A 
ATOM     14  N   UNL     1       4.476   5.950   3.508  1.00  0.00    -0.248 NA
ATOM     15  C   UNL     1       2.644   5.793   2.090  1.00  0.00     0.031 C 
ATOM     16  C   UNL     1       1.693   3.095   5.906  1.00  0.00     0.029 A 
ATOM     17  N   UNL     1       2.657   5.087   6.099  1.00  0.00    -0.354 N 
ATOM     18  C   UNL     1       4.421   7.090   2.708  1.00  0.00     0.074 A 
ATOM     19  C   UNL     1       3.346   6.880   1.771  1.00  0.00     0.031 C 
ATOM     20  C   UNL     1       1.256   3.641   7.062  1.00  0.00     0.029 A 
ATOM     21  C   UNL     1       1.848   4.960   7.218  1.00  0.00     0.049 A 
ATOM     22  H   UNL     1       3.289   5.831   5.974  1.00  0.00     0.167 HD
ATOM     23  C   UNL     1       5.118   8.223   3.002  1.00  0.00     0.037 A 
ATOM     24  C   UNL     1       1.615   5.908   8.157  1.00  0.00     0.037 A 
ATOM     25  C   UNL     1       6.223   7.975   3.888  1.00  0.00     0.049 A 
ATOM     26  C   UNL     1       2.731   6.887   8.106  1.00  0.00     0.074 A 
ATOM     27  C   UNL     1       7.336   7.158   3.857  1.00  0.00     0.029 A 
ATOM     28  N   UNL     1       6.139   8.431   5.180  1.00  0.00    -0.354 N 
ATOM     29  N   UNL     1       3.964   6.629   8.448  1.00  0.00    -0.248 NA
ATOM     30  C   UNL     1       2.542   8.111   7.341  1.00  0.00     0.031 C 
ATOM     31  C   UNL     1       7.574   6.794   5.214  1.00  0.00     0.029 A 
ATOM     32  C   UNL     1       6.598   7.423   5.988  1.00  0.00     0.049 A 
ATOM     33  H   UNL     1       5.813   9.313   5.471  1.00  0.00     0.167 HD
ATOM     34  C   UNL     1       4.739   7.430   7.623  1.00  0.00     0.074 A 
ATOM     35  C   UNL     1       3.812   8.404   7.061  1.00  0.00     0.031 C 
ATOM     36  C   UNL     1       6.003   7.065   7.258  1.00  0.00     0.037 A 
BRANCH  23  37
ATOM     37  C   UNL     1       4.585   9.614   2.745  1.00  0.00     0.058 A 
ATOM     38  C   UNL     1       5.445  10.727   2.840  1.00  0.00     0.135 A 
ATOM     39  C   UNL     1       3.204   9.910   2.695  1.00  0.00     0.135 A 
ATOM     40  F   UNL     1       6.774  10.559   2.918  1.00  0.00    -0.206 F 
ATOM     41  C   UNL     1       4.964  12.034   2.941  1.00  0.00     0.059 A 
ATOM     42  C   UNL     1       2.707  11.207   2.737  1.00  0.00     0.059 A 
ATOM     43  F   UNL     1       2.273   8.948   2.704  1.00  0.00    -0.206 F 
ATOM     44  C   UNL     1       3.590  12.260   2.906  1.00  0.00     0.060 A 
BRANCH  44  45
ATOM     45  S   UNL     1       2.957  13.927   3.161  1.00  0.00     0.124 S 
ATOM     46  O   UNL     1       3.178  14.101   4.592  1.00  0.00    -0.237 OA
ATOM     47  O   UNL     1       3.811  14.717   2.280  1.00  0.00    -0.237 OA
ATOM     48  O   UNL     1       1.563  13.822   2.741  1.00  0.00    -0.744 OA
ENDBRANCH  44  45
ENDBRANCH  23  37
BRANCH  24  49
ATOM     49  C   UNL     1       0.338   6.180   8.869  1.00  0.00     0.058 A 
ATOM     50  C   UNL     1       0.296   7.050   9.973  1.00  0.00     0.135 A 
ATOM     51  C   UNL     1      -0.909   5.808   8.325  1.00  0.00     0.135 A 
ATOM     52  F   UNL     1       1.435   7.478  10.539  1.00  0.00    -0.206 F 
ATOM     53  C   UNL     1      -0.905   7.557  10.476  1.00  0.00     0.059 A 
ATOM     54  C   UNL     1      -2.120   6.283   8.823  1.00  0.00     0.059 A 
ATOM     55  F   UNL     1      -0.992   5.041   7.228  1.00  0.00    -0.206 F 
ATOM     56  C   UNL     1      -2.109   7.181   9.881  1.00  0.00     0.060 A 
BRANCH  56  57
ATOM     57  S   UNL     1      -3.647   7.963  10.416  1.00  0.00     0.124 S 
ATOM     58  O   UNL     1      -3.792   7.447  11.773  1.00  0.00    -0.237 OA
ATOM     59  O   UNL     1      -3.324   9.382  10.304  1.00  0.00    -0.237 OA
ATOM     60  O   UNL     1      -4.630   7.473   9.454  1.00  0.00    -0.744 OA
ENDBRANCH  56  57
ENDBRANCH  24  49
BRANCH  36  61
ATOM     61  C   UNL     1       6.706   5.996   8.049  1.00  0.00     0.058 A 
ATOM     62  C   UNL     1       6.291   4.655   8.097  1.00  0.00     0.135 A 
ATOM     63  C   UNL     1       7.949   6.307   8.623  1.00  0.00     0.135 A 
ATOM     64  F   UNL     1       5.166   4.259   7.485  1.00  0.00    -0.206 F 
ATOM     65  C   UNL     1       7.069   3.671   8.710  1.00  0.00     0.059 A 
ATOM     66  C   UNL     1       8.754   5.336   9.214  1.00  0.00     0.059 A 
ATOM     67  F   UNL     1       8.427   7.562   8.556  1.00  0.00    -0.206 F 
ATOM     68  C   UNL     1       8.305   4.018   9.256  1.00  0.00     0.060 A 
BRANCH  68  69
ATOM     69  S   UNL     1       9.364   2.717   9.925  1.00  0.00     0.124 S 
ATOM     70  O   UNL     1       8.687   2.377  11.171  1.00  0.00    -0.237 OA
ATOM     71  O   UNL     1       9.316   1.699   8.878  1.00  0.00    -0.237 OA
ATOM     72  O   UNL     1      10.660   3.375  10.077  1.00  0.00    -0.744 OA
ENDBRANCH  68  69
ENDBRANCH  36  61
ENDBRANCH  10  11
ENDBRANCH   3   5
ENDBRANCH   2   3
ENDBRANCH   1   2
BRANCH   1  73
ATOM     73  C   UNL     1       4.450  -1.110  -1.513  1.00  0.00     0.275 C 
BRANCH  73  74
ATOM     74  O   UNL     1       3.935   0.222  -1.664  1.00  0.00    -0.457 OA
BRANCH  74  75
ATOM     75  C   UNL     1       2.869   0.345  -2.494  1.00  0.00     0.356 C 
ATOM     76  O   UNL     1       2.330  -0.559  -3.129  1.00  0.00    -0.244 OA
BRANCH  75  77
ATOM     77  C   UNL     1       2.443   1.710  -2.521  1.00  0.00     0.145 A 
ATOM     78  C   UNL     1       1.355   2.288  -1.887  1.00  0.00     0.048 A 
ATOM     79  N   UNL     1       3.043   2.701  -3.264  1.00  0.00    -0.209 N 
ATOM     80  C   UNL     1       1.300   3.661  -2.257  1.00  0.00     0.040 A 
ATOM     81  C   UNL     1       2.367   3.887  -3.129  1.00  0.00     0.156 A 
ATOM     82  C   UNL     1       0.470   4.765  -1.984  1.00  0.00     0.065 A 
ATOM     83  N   UNL     1       2.640   5.054  -3.741  1.00  0.00    -0.237 NA
ATOM     84  Cl  UNL     1      -0.792   4.470  -0.869  1.00  0.00    -0.083 Cl
ATOM     85  C   UNL     1       0.691   5.987  -2.608  1.00  0.00     0.093 A 
ATOM     86  C   UNL     1       1.782   6.060  -3.459  1.00  0.00     0.128 A 
BRANCH  79  87
ATOM     87  S   UNL     1       4.566   2.508  -3.979  1.00  0.00     0.270 S 
ATOM     88  O   UNL     1       5.513   2.761  -2.910  1.00  0.00    -0.201 OA
ATOM     89  O   UNL     1       4.513   1.210  -4.630  1.00  0.00    -0.201 OA
BRANCH  87  90
ATOM     90  C   UNL     1       4.790   3.720  -5.246  1.00  0.00     0.088 A 
ATOM     91  C   UNL     1       4.471   3.407  -6.572  1.00  0.00     0.022 A 
ATOM     92  C   UNL     1       5.383   4.946  -4.928  1.00  0.00     0.022 A 
ATOM     93  C   UNL     1       4.713   4.346  -7.575  1.00  0.00     0.001 A 
ATOM     94  C   UNL     1       5.605   5.885  -5.934  1.00  0.00     0.001 A 
ATOM     95  C   UNL     1       5.270   5.585  -7.255  1.00  0.00     0.000 A 
ENDBRANCH  87  90
ENDBRANCH  79  87
BRANCH  85  96
ATOM     96  C   UNL     1      -0.183   7.178  -2.401  1.00  0.00     0.419 C 
ATOM     97  F   UNL     1      -1.499   6.918  -2.637  1.00  0.00    -0.166 F 
ATOM     98  F   UNL     1      -0.104   7.683  -1.144  1.00  0.00    -0.166 F 
ATOM     99  F   UNL     1       0.128   8.211  -3.237  1.00  0.00    -0.166 F 
ENDBRANCH  85  96
ENDBRANCH  75  77
ENDBRANCH  74  75
ENDBRANCH  73  74
ENDBRANCH   1  73
TORSDOF 17
