REMARK SMILES Cc1cccc(N2C(=O)/C(=C/c3cccn3-c3cccc(C(=O)OCCOC(=O)c4ccc(-c5c6nc(c(-c7c(F)cc(S(=O)(=O)[O-])cc7F)c7ccc([nH]7)c(-c7c(F)cc(S(=O)(=O)[O-])cc7F)c7nc(c(-c8c(F)cc(S(=O)(=O)[O-])cc8F)c8ccc5[nH]8)C=C7)C=C6)cc4)c3)C(O)=NC2=S)c1C
REMARK SMILES IDX 25 1 24 2 22 3 23 4 21 5 17 6 18 7 96 8 19 9 20 10 16 11
REMARK SMILES IDX 12 12 13 13 14 14 15 15 11 16 7 17 8 18 100 19 9 20 10 21
REMARK SMILES IDX 99 22 101 23 97 24 6 25 1 26 2 27 3 28 102 29 4 30 103 31
REMARK SMILES IDX 5 32 98 33 26 35 27 36 28 37 29 38 30 39 31 40 95 41 32 42
REMARK SMILES IDX 94 43 33 44 34 45 35 46 88 47 36 48 93 49 87 50 89 51 37 52
REMARK SMILES IDX 92 53 86 54 85 55 38 57 72 58 51 59 71 60 52 61 55 62 70 63
REMARK SMILES IDX 90 64 53 65 54 66 69 68 91 69 56 70 39 71 40 72 49 73 41 74
REMARK SMILES IDX 42 75 48 76 50 77 43 78 44 79 45 80 46 81 47 82 73 83 74 84
REMARK SMILES IDX 83 85 75 86 76 87 82 88 84 89 77 90 78 91 79 92 80 93 81 94
REMARK SMILES IDX 57 95 58 96 67 97 59 98 60 99 66 100 68 101 61 102 62 103
REMARK SMILES IDX 63 104 64 105 65 106
REMARK H PARENT 98 34 89 56 55 67
REMARK Flexibility Score: inf
ROOT
ATOM      1  C   UNL     1       3.930  -4.140  -3.471  1.00  0.00     0.275 C 
ENDROOT
BRANCH   1   2
ATOM      2  O   UNL     1       2.656  -4.793  -3.628  1.00  0.00    -0.458 OA
BRANCH   2   3
ATOM      3  C   UNL     1       2.075  -4.671  -4.850  1.00  0.00     0.338 C 
ATOM      4  O   UNL     1       2.434  -3.916  -5.746  1.00  0.00    -0.246 OA
BRANCH   3   5
ATOM      5  C   UNL     1       1.000  -5.684  -5.028  1.00  0.00     0.062 A 
ATOM      6  C   UNL     1      -0.643  -7.239  -4.145  1.00  0.00     0.046 A 
ATOM      7  C   UNL     1      -0.904  -7.704  -5.440  1.00  0.00     0.026 A 
ATOM      8  C   UNL     1       0.333  -6.254  -3.938  1.00  0.00     0.042 A 
ATOM      9  C   UNL     1      -0.241  -7.133  -6.528  1.00  0.00     0.003 A 
ATOM     10  C   UNL     1       0.696  -6.117  -6.325  1.00  0.00     0.016 A 
BRANCH   6  11
ATOM     11  N   UNL     1      -1.386  -7.764  -3.050  1.00  0.00    -0.317 N 
ATOM     12  C   UNL     1      -1.883  -7.076  -1.938  1.00  0.00     0.047 A 
ATOM     13  C   UNL     1      -2.548  -7.986  -1.133  1.00  0.00     0.028 A 
ATOM     14  C   UNL     1      -2.428  -9.258  -1.727  1.00  0.00     0.020 A 
ATOM     15  C   UNL     1      -1.739  -9.093  -2.907  1.00  0.00     0.092 A 
BRANCH  12  16
ATOM     16  C   UNL     1      -1.764  -5.666  -1.837  1.00  0.00     0.046 C 
ATOM     17  N   UNL     1      -0.618  -2.826   0.124  1.00  0.00    -0.251 N 
ATOM     18  C   UNL     1      -1.117  -3.511  -0.986  1.00  0.00     0.270 C 
ATOM     19  C   UNL     1      -0.233  -3.471   1.316  1.00  0.00     0.210 C 
ATOM     20  O   UNL     1      -1.561  -2.970  -2.000  1.00  0.00    -0.268 OA
ATOM     21  C   UNL     1      -1.103  -5.002  -0.868  1.00  0.00     0.104 C 
ATOM     22  N   UNL     1       0.034  -4.815   1.275  1.00  0.00    -0.184 NA
ATOM     23  S   UNL     1      -0.094  -2.690   2.822  1.00  0.00    -0.038 S 
ATOM     24  C   UNL     1      -0.354  -5.521   0.280  1.00  0.00     0.226 C 
BRANCH  17  25
ATOM     25  C   UNL     1      -0.589  -1.395   0.031  1.00  0.00     0.055 A 
ATOM     26  C   UNL     1       1.858   1.565  -0.030  1.00  0.00     0.044 C 
ATOM     27  C   UNL     1       0.604   0.731  -0.019  1.00  0.00    -0.046 A 
ATOM     28  C   UNL     1      -0.636   1.395  -0.011  1.00  0.00     0.004 A 
ATOM     29  C   UNL     1       0.638  -0.683  -0.026  1.00  0.00    -0.024 A 
ATOM     30  C   UNL     1      -1.833   0.683  -0.013  1.00  0.00     0.002 A 
ATOM     31  C   UNL     1       1.944  -1.433  -0.140  1.00  0.00     0.047 C 
ATOM     32  C   UNL     1      -1.811  -0.706   0.005  1.00  0.00     0.027 A 
ENDBRANCH  17  25
BRANCH  24  33
ATOM     33  O   UNL     1       0.013  -6.809   0.302  1.00  0.00    -0.493 OA
ATOM     34  H   UNL     1      -0.239  -7.380  -0.396  1.00  0.00     0.295 HD
ENDBRANCH  24  33
ENDBRANCH  12  16
ENDBRANCH   6  11
ENDBRANCH   3   5
ENDBRANCH   2   3
ENDBRANCH   1   2
BRANCH   1  35
ATOM     35  C   UNL     1       5.110  -5.054  -3.810  1.00  0.00     0.275 C 
BRANCH  35  36
ATOM     36  O   UNL     1       5.185  -5.419  -5.192  1.00  0.00    -0.458 OA
BRANCH  36  37
ATOM     37  C   UNL     1       4.501  -6.550  -5.471  1.00  0.00     0.338 C 
ATOM     38  O   UNL     1       3.611  -7.056  -4.804  1.00  0.00    -0.246 OA
BRANCH  37  39
ATOM     39  C   UNL     1       5.106  -7.292  -6.572  1.00  0.00     0.060 A 
ATOM     40  C   UNL     1       4.276  -8.192  -7.248  1.00  0.00     0.016 A 
ATOM     41  C   UNL     1       6.502  -7.354  -6.659  1.00  0.00     0.016 A 
ATOM     42  C   UNL     1       4.854  -9.242  -7.928  1.00  0.00     0.010 A 
ATOM     43  C   UNL     1       7.081  -8.423  -7.317  1.00  0.00     0.010 A 
ATOM     44  C   UNL     1       6.250  -9.372  -7.925  1.00  0.00    -0.014 A 
BRANCH  44  45
ATOM     45  C   UNL     1       6.820 -10.404  -8.804  1.00  0.00     0.031 A 
ATOM     46  C   UNL     1       6.841  -9.834 -10.267  1.00  0.00     0.074 A 
ATOM     47  C   UNL     1       7.118 -11.599  -8.188  1.00  0.00     0.049 A 
ATOM     48  N   UNL     1       6.745 -10.425 -11.419  1.00  0.00    -0.248 NA
ATOM     49  C   UNL     1       6.893  -8.346 -10.465  1.00  0.00     0.031 C 
ATOM     50  C   UNL     1       7.080 -11.866  -6.721  1.00  0.00     0.029 A 
ATOM     51  N   UNL     1       7.516 -12.838  -8.642  1.00  0.00    -0.354 N 
ATOM     52  C   UNL     1       6.995  -9.451 -12.425  1.00  0.00     0.074 A 
ATOM     53  C   UNL     1       6.926  -8.178 -11.787  1.00  0.00     0.031 C 
ATOM     54  C   UNL     1       7.333 -13.170  -6.440  1.00  0.00     0.029 A 
ATOM     55  C   UNL     1       7.571 -13.894  -7.672  1.00  0.00     0.049 A 
ATOM     56  H   UNL     1       7.751 -12.991  -9.585  1.00  0.00     0.167 HD
ATOM     57  C   UNL     1       7.408  -9.767 -13.689  1.00  0.00     0.037 A 
ATOM     58  C   UNL     1       7.738 -15.247  -7.888  1.00  0.00     0.037 A 
ATOM     59  C   UNL     1       7.451 -11.179 -13.819  1.00  0.00     0.049 A 
ATOM     60  C   UNL     1       7.994 -15.301  -9.330  1.00  0.00     0.074 A 
ATOM     61  C   UNL     1       6.478 -12.115 -14.030  1.00  0.00     0.029 A 
ATOM     62  N   UNL     1       8.598 -11.795 -13.389  1.00  0.00    -0.354 N 
ATOM     63  N   UNL     1       9.092 -14.911  -9.898  1.00  0.00    -0.248 NA
ATOM     64  C   UNL     1       6.885 -15.670 -10.212  1.00  0.00     0.031 C 
ATOM     65  C   UNL     1       6.926 -13.219 -13.279  1.00  0.00     0.029 A 
ATOM     66  C   UNL     1       8.228 -12.988 -12.818  1.00  0.00     0.049 A 
ATOM     67  H   UNL     1       9.515 -11.448 -13.474  1.00  0.00     0.167 HD
ATOM     68  C   UNL     1       8.694 -14.670 -11.187  1.00  0.00     0.074 A 
ATOM     69  C   UNL     1       7.463 -15.412 -11.380  1.00  0.00     0.031 C 
ATOM     70  C   UNL     1       9.121 -13.557 -11.836  1.00  0.00     0.037 A 
BRANCH  57  71
ATOM     71  C   UNL     1       8.041  -8.982 -14.814  1.00  0.00     0.058 A 
ATOM     72  C   UNL     1       8.072  -9.594 -16.095  1.00  0.00     0.135 A 
ATOM     73  C   UNL     1       8.924  -7.911 -14.624  1.00  0.00     0.135 A 
ATOM     74  F   UNL     1       7.201 -10.565 -16.418  1.00  0.00    -0.206 F 
ATOM     75  C   UNL     1       9.039  -9.296 -17.047  1.00  0.00     0.059 A 
ATOM     76  C   UNL     1       9.871  -7.555 -15.595  1.00  0.00     0.059 A 
ATOM     77  F   UNL     1       8.946  -7.231 -13.470  1.00  0.00    -0.206 F 
ATOM     78  C   UNL     1       9.961  -8.297 -16.773  1.00  0.00     0.060 A 
BRANCH  78  79
ATOM     79  S   UNL     1      11.279  -8.015 -17.973  1.00  0.00     0.124 S 
ATOM     80  O   UNL     1      12.109  -9.200 -17.791  1.00  0.00    -0.237 OA
ATOM     81  O   UNL     1      10.540  -7.949 -19.231  1.00  0.00    -0.237 OA
ATOM     82  O   UNL     1      11.867  -6.753 -17.535  1.00  0.00    -0.744 OA
ENDBRANCH  78  79
ENDBRANCH  57  71
BRANCH  58  83
ATOM     83  C   UNL     1       7.615 -16.615  -7.211  1.00  0.00     0.058 A 
ATOM     84  C   UNL     1       7.350 -16.872  -5.861  1.00  0.00     0.135 A 
ATOM     85  C   UNL     1       7.618 -17.798  -8.021  1.00  0.00     0.135 A 
ATOM     86  F   UNL     1       7.460 -15.897  -4.949  1.00  0.00    -0.206 F 
ATOM     87  C   UNL     1       6.942 -18.151  -5.398  1.00  0.00     0.059 A 
ATOM     88  C   UNL     1       7.161 -19.049  -7.606  1.00  0.00     0.059 A 
ATOM     89  F   UNL     1       8.035 -17.781  -9.296  1.00  0.00    -0.206 F 
ATOM     90  C   UNL     1       6.781 -19.213  -6.292  1.00  0.00     0.060 A 
BRANCH  90  91
ATOM     91  S   UNL     1       5.951 -20.749  -5.803  1.00  0.00     0.124 S 
ATOM     92  O   UNL     1       7.018 -21.480  -5.130  1.00  0.00    -0.237 OA
ATOM     93  O   UNL     1       4.874 -20.262  -4.946  1.00  0.00    -0.237 OA
ATOM     94  O   UNL     1       5.508 -21.315  -7.076  1.00  0.00    -0.744 OA
ENDBRANCH  90  91
ENDBRANCH  58  83
BRANCH  70  95
ATOM     95  C   UNL     1      10.329 -12.861 -11.195  1.00  0.00     0.058 A 
ATOM     96  C   UNL     1      11.570 -13.511 -11.125  1.00  0.00     0.135 A 
ATOM     97  C   UNL     1      10.279 -11.605 -10.555  1.00  0.00     0.135 A 
ATOM     98  F   UNL     1      11.726 -14.709 -11.710  1.00  0.00    -0.206 F 
ATOM     99  C   UNL     1      12.678 -12.956 -10.466  1.00  0.00     0.059 A 
ATOM    100  C   UNL     1      11.365 -11.024  -9.888  1.00  0.00     0.059 A 
ATOM    101  F   UNL     1       9.159 -10.888 -10.567  1.00  0.00    -0.206 F 
ATOM    102  C   UNL     1      12.569 -11.709  -9.850  1.00  0.00     0.060 A 
BRANCH 102 103
ATOM    103  S   UNL     1      14.015 -10.991  -9.032  1.00  0.00     0.124 S 
ATOM    104  O   UNL     1      14.348 -12.002  -8.034  1.00  0.00    -0.237 OA
ATOM    105  O   UNL     1      14.957 -10.861 -10.138  1.00  0.00    -0.237 OA
ATOM    106  O   UNL     1      13.517  -9.728  -8.489  1.00  0.00    -0.744 OA
ENDBRANCH 102 103
ENDBRANCH  70  95
ENDBRANCH  44  45
ENDBRANCH  37  39
ENDBRANCH  36  37
ENDBRANCH  35  36
ENDBRANCH   1  35
TORSDOF 18
