REMARK SMILES Cn1ncc2c(NCCC3=CCCCC3)c(C(=O)OCCOC(=O)c3ccc(-c4c5nc(c(-c6c(F)cc(S(=O)(=O)[O-])cc6F)c6ccc([nH]6)c(-c6c(F)cc(S(=O)(=O)[O-])cc6F)c6nc(c(-c7c(F)cc(S(=O)(=O)[O-])cc7F)c7ccc4[nH]7)C=C6)C=C5)cc3)cnc21
REMARK SMILES IDX 20 1 19 2 17 3 18 4 16 5 1 6 2 7 3 8 93 9 4 10 5 11 92 12
REMARK SMILES IDX 6 13 91 14 7 15 8 17 9 18 10 19 11 20 15 21 12 22 14 23
REMARK SMILES IDX 13 24 21 25 22 26 23 27 24 28 25 29 26 30 90 31 27 32 89 33
REMARK SMILES IDX 28 34 29 35 30 36 83 37 31 38 88 39 82 40 84 41 32 42 87 43
REMARK SMILES IDX 81 44 80 45 33 47 67 48 46 49 66 50 47 51 50 52 65 53 85 54
REMARK SMILES IDX 48 55 49 56 64 58 86 59 51 60 34 61 35 62 44 63 36 64 37 65
REMARK SMILES IDX 43 66 45 67 38 68 39 69 40 70 41 71 42 72 68 73 69 74 78 75
REMARK SMILES IDX 70 76 71 77 77 78 79 79 72 80 73 81 74 82 75 83 76 84 52 85
REMARK SMILES IDX 53 86 62 87 54 88 55 89 61 90 63 91 56 92 57 93 58 94 59 95
REMARK SMILES IDX 60 96
REMARK H PARENT 7 16 84 46 50 57
REMARK Flexibility Score: inf
ROOT
ATOM      1  C   UNL     1       4.789   7.692   1.042  1.00  0.00     0.275 C 
ENDROOT
BRANCH   1   2
ATOM      2  O   UNL     1       4.193   6.383   0.926  1.00  0.00    -0.458 OA
BRANCH   2   3
ATOM      3  C   UNL     1       2.837   6.328   1.052  1.00  0.00     0.341 C 
ATOM      4  O   UNL     1       2.140   7.276   1.389  1.00  0.00    -0.246 OA
BRANCH   3   5
ATOM      5  C   UNL     1       2.286   4.994   0.665  1.00  0.00     0.102 A 
ATOM      6  C   UNL     1       1.482  -0.027  -0.094  1.00  0.00     0.176 C 
ATOM      7  N   UNL     1       0.879   1.281  -0.086  1.00  0.00    -0.250 N 
ATOM      8  N   UNL     1      -0.452   1.394  -0.252  1.00  0.00    -0.179 NA
ATOM      9  C   UNL     1       1.510   2.474   0.145  1.00  0.00     0.159 A 
ATOM     10  C   UNL     1      -0.651   2.714  -0.163  1.00  0.00     0.147 A 
ATOM     11  C   UNL     1       0.523   3.458   0.128  1.00  0.00     0.063 A 
ATOM     12  N   UNL     1       2.829   2.629   0.362  1.00  0.00    -0.236 NA
ATOM     13  C   UNL     1       0.891   4.807   0.392  1.00  0.00     0.063 A 
ATOM     14  C   UNL     1       3.166   3.915   0.595  1.00  0.00     0.131 A 
BRANCH  13  15
ATOM     15  N   UNL     1       0.020   5.888   0.446  1.00  0.00    -0.383 N 
ATOM     16  H   UNL     1       0.439   6.742   0.701  1.00  0.00     0.160 HD
BRANCH  15  17
ATOM     17  C   UNL     1      -1.409   5.966   0.186  1.00  0.00     0.117 C 
BRANCH  17  18
ATOM     18  C   UNL     1      -2.119   6.786   1.282  1.00  0.00     0.052 C 
BRANCH  18  19
ATOM     19  C   UNL     1      -1.851   8.275   1.218  1.00  0.00    -0.072 C 
ATOM     20  C   UNL     1      -0.731   8.810   1.735  1.00  0.00    -0.028 C 
ATOM     21  C   UNL     1      -2.907   9.130   0.559  1.00  0.00     0.031 C 
ATOM     22  C   UNL     1      -0.374  10.259   1.643  1.00  0.00     0.027 C 
ATOM     23  C   UNL     1      -2.450  10.559   0.249  1.00  0.00     0.005 C 
ATOM     24  C   UNL     1      -1.588  11.140   1.366  1.00  0.00     0.004 C 
ENDBRANCH  18  19
ENDBRANCH  17  18
ENDBRANCH  15  17
ENDBRANCH  13  15
ENDBRANCH   3   5
ENDBRANCH   2   3
ENDBRANCH   1   2
BRANCH   1  25
ATOM     25  C   UNL     1       4.886   8.415  -0.300  1.00  0.00     0.275 C 
BRANCH  25  26
ATOM     26  O   UNL     1       3.599   8.732  -0.828  1.00  0.00    -0.458 OA
BRANCH  26  27
ATOM     27  C   UNL     1       3.061   7.750  -1.588  1.00  0.00     0.338 C 
ATOM     28  O   UNL     1       3.501   6.620  -1.733  1.00  0.00    -0.246 OA
BRANCH  27  29
ATOM     29  C   UNL     1       1.917   8.261  -2.348  1.00  0.00     0.060 A 
ATOM     30  C   UNL     1       1.185   7.320  -3.076  1.00  0.00     0.016 A 
ATOM     31  C   UNL     1       1.769   9.640  -2.554  1.00  0.00     0.016 A 
ATOM     32  C   UNL     1       0.447   7.756  -4.153  1.00  0.00     0.010 A 
ATOM     33  C   UNL     1       1.037  10.075  -3.638  1.00  0.00     0.010 A 
ATOM     34  C   UNL     1       0.457   9.119  -4.468  1.00  0.00    -0.014 A 
BRANCH  34  35
ATOM     35  C   UNL     1      -0.115   9.495  -5.740  1.00  0.00     0.031 A 
ATOM     36  C   UNL     1      -1.587   9.585  -5.771  1.00  0.00     0.074 A 
ATOM     37  C   UNL     1       0.653   9.754  -6.813  1.00  0.00     0.049 A 
ATOM     38  N   UNL     1      -2.416   8.781  -6.346  1.00  0.00    -0.248 NA
ATOM     39  C   UNL     1      -2.217  10.632  -4.958  1.00  0.00     0.031 C 
ATOM     40  C   UNL     1       2.099   9.979  -6.878  1.00  0.00     0.029 A 
ATOM     41  N   UNL     1       0.248   9.946  -8.093  1.00  0.00    -0.354 N 
ATOM     42  C   UNL     1      -3.678   9.322  -6.130  1.00  0.00     0.074 A 
ATOM     43  C   UNL     1      -3.509  10.365  -5.148  1.00  0.00     0.031 C 
ATOM     44  C   UNL     1       2.409  10.480  -8.096  1.00  0.00     0.029 A 
ATOM     45  C   UNL     1       1.213  10.486  -8.924  1.00  0.00     0.049 A 
ATOM     46  H   UNL     1      -0.658   9.719  -8.405  1.00  0.00     0.167 HD
ATOM     47  C   UNL     1      -4.740   9.008  -6.919  1.00  0.00     0.037 A 
ATOM     48  C   UNL     1       0.995  10.983 -10.166  1.00  0.00     0.037 A 
ATOM     49  C   UNL     1      -4.496   7.824  -7.703  1.00  0.00     0.049 A 
ATOM     50  C   UNL     1      -0.266  10.370 -10.671  1.00  0.00     0.074 A 
ATOM     51  C   UNL     1      -4.213   6.506  -7.398  1.00  0.00     0.029 A 
ATOM     52  N   UNL     1      -4.163   7.977  -9.028  1.00  0.00    -0.354 N 
ATOM     53  N   UNL     1      -0.396   9.101 -10.954  1.00  0.00    -0.248 NA
ATOM     54  C   UNL     1      -1.517  11.077 -10.430  1.00  0.00     0.031 C 
ATOM     55  C   UNL     1      -3.287   6.084  -8.396  1.00  0.00     0.029 A 
ATOM     56  C   UNL     1      -3.088   7.157  -9.266  1.00  0.00     0.049 A 
ATOM     57  H   UNL     1      -4.610   8.563  -9.681  1.00  0.00     0.167 HD
ATOM     58  C   UNL     1      -1.676   8.763 -10.535  1.00  0.00     0.074 A 
ATOM     59  C   UNL     1      -2.348  10.039 -10.304  1.00  0.00     0.031 C 
ATOM     60  C   UNL     1      -1.992   7.490 -10.149  1.00  0.00     0.037 A 
BRANCH  47  61
ATOM     61  C   UNL     1      -5.875   9.952  -7.211  1.00  0.00     0.058 A 
ATOM     62  C   UNL     1      -7.049   9.466  -7.819  1.00  0.00     0.135 A 
ATOM     63  C   UNL     1      -5.742  11.358  -7.166  1.00  0.00     0.135 A 
ATOM     64  F   UNL     1      -7.270   8.146  -7.921  1.00  0.00    -0.206 F 
ATOM     65  C   UNL     1      -7.987  10.315  -8.406  1.00  0.00     0.059 A 
ATOM     66  C   UNL     1      -6.693  12.223  -7.691  1.00  0.00     0.059 A 
ATOM     67  F   UNL     1      -4.635  11.955  -6.706  1.00  0.00    -0.206 F 
ATOM     68  C   UNL     1      -7.787  11.692  -8.354  1.00  0.00     0.060 A 
BRANCH  68  69
ATOM     69  S   UNL     1      -8.909  12.784  -9.244  1.00  0.00     0.124 S 
ATOM     70  O   UNL     1      -8.582  12.464 -10.629  1.00  0.00    -0.237 OA
ATOM     71  O   UNL     1     -10.213  12.330  -8.772  1.00  0.00    -0.237 OA
ATOM     72  O   UNL     1      -8.512  14.114  -8.791  1.00  0.00    -0.744 OA
ENDBRANCH  68  69
ENDBRANCH  47  61
BRANCH  48  73
ATOM     73  C   UNL     1       1.602  12.210 -10.744  1.00  0.00     0.058 A 
ATOM     74  C   UNL     1       1.482  12.514 -12.111  1.00  0.00     0.135 A 
ATOM     75  C   UNL     1       2.094  13.246  -9.920  1.00  0.00     0.135 A 
ATOM     76  F   UNL     1       0.993  11.600 -12.963  1.00  0.00    -0.206 F 
ATOM     77  C   UNL     1       1.796  13.778 -12.623  1.00  0.00     0.059 A 
ATOM     78  C   UNL     1       2.428  14.505 -10.410  1.00  0.00     0.059 A 
ATOM     79  F   UNL     1       2.181  13.097  -8.590  1.00  0.00    -0.206 F 
ATOM     80  C   UNL     1       2.252  14.774 -11.760  1.00  0.00     0.060 A 
BRANCH  80  81
ATOM     81  S   UNL     1       2.506  16.451 -12.383  1.00  0.00     0.124 S 
ATOM     82  O   UNL     1       3.640  16.271 -13.283  1.00  0.00    -0.237 OA
ATOM     83  O   UNL     1       1.225  16.738 -13.019  1.00  0.00    -0.237 OA
ATOM     84  O   UNL     1       2.785  17.224 -11.175  1.00  0.00    -0.744 OA
ENDBRANCH  80  81
ENDBRANCH  48  73
BRANCH  60  85
ATOM     85  C   UNL     1      -0.993   6.396 -10.426  1.00  0.00     0.058 A 
ATOM     86  C   UNL     1       0.273   6.327  -9.816  1.00  0.00     0.135 A 
ATOM     87  C   UNL     1      -1.390   5.296 -11.200  1.00  0.00     0.135 A 
ATOM     88  F   UNL     1       0.681   7.284  -8.972  1.00  0.00    -0.206 F 
ATOM     89  C   UNL     1       1.121   5.235 -10.001  1.00  0.00     0.059 A 
ATOM     90  C   UNL     1      -0.572   4.182 -11.375  1.00  0.00     0.059 A 
ATOM     91  F   UNL     1      -2.615   5.269 -11.751  1.00  0.00    -0.206 F 
ATOM     92  C   UNL     1       0.690   4.164 -10.783  1.00  0.00     0.060 A 
BRANCH  92  93
ATOM     93  S   UNL     1       1.756   2.716 -10.949  1.00  0.00     0.124 S 
ATOM     94  O   UNL     1       2.811   3.210 -11.828  1.00  0.00    -0.237 OA
ATOM     95  O   UNL     1       2.154   2.452  -9.569  1.00  0.00    -0.237 OA
ATOM     96  O   UNL     1       0.876   1.709 -11.537  1.00  0.00    -0.744 OA
ENDBRANCH  92  93
ENDBRANCH  60  85
ENDBRANCH  34  35
ENDBRANCH  27  29
ENDBRANCH  26  27
ENDBRANCH  25  26
ENDBRANCH   1  25
TORSDOF 18
