REMARK SMILES CC(C)CC(=O)Nc1ccc(NC(=O)[C@@H]2CCCC[C@@H]2C(=O)OCCOC(=O)c2ccc(-c3c4nc(c(-c5c(F)cc(S(=O)(=O)[O-])cc5F)c5ccc([nH]5)c(-c5c(F)cc(S(=O)(=O)[O-])cc5F)c5nc(c(-c6c(F)cc(S(=O)(=O)[O-])cc6F)c6ccc3[nH]6)C=C5)C=C4)cc2)cc1
REMARK SMILES IDX 24 1 23 2 21 3 22 4 20 5 15 6 16 7 17 8 19 9 18 10 13 11
REMARK SMILES IDX 12 12 14 14 11 15 8 16 9 17 96 18 10 19 95 20 7 21 5 22 6 23
REMARK SMILES IDX 4 25 2 26 1 27 3 28 25 29 26 30 27 31 28 32 29 33 30 34
REMARK SMILES IDX 94 35 31 36 93 37 32 38 33 39 34 40 87 41 35 42 92 43 86 44
REMARK SMILES IDX 88 45 36 46 91 47 85 48 84 49 37 51 71 52 50 53 70 54 51 55
REMARK SMILES IDX 54 56 69 57 89 58 52 59 53 60 68 62 90 63 55 64 38 65 39 66
REMARK SMILES IDX 48 67 40 68 41 69 47 70 49 71 42 72 43 73 44 74 45 75 46 76
REMARK SMILES IDX 72 77 73 78 82 79 74 80 75 81 81 82 83 83 76 84 77 85 78 86
REMARK SMILES IDX 79 87 80 88 56 89 57 90 66 91 58 92 59 93 65 94 67 95 60 96
REMARK SMILES IDX 61 97 62 98 63 99 64 100
REMARK H PARENT 12 13 7 24 88 50 54 61
REMARK Flexibility Score: inf
ROOT
ATOM      1  C   UNL     1      -0.132   2.160  -0.312  1.00  0.00     0.274 C 
ENDROOT
BRANCH   1   2
ATOM      2  O   UNL     1      -0.757   1.939  -1.655  1.00  0.00    -0.462 OA
BRANCH   2   3
ATOM      3  C   UNL     1      -0.965   2.991  -2.539  1.00  0.00     0.309 C 
ATOM      4  O   UNL     1      -0.990   4.155  -2.167  1.00  0.00    -0.252 OA
BRANCH   3   5
ATOM      5  C   UNL     1      -1.057   2.541  -4.051  1.00  0.00     0.111 C 
ATOM      6  C   UNL     1      -0.307   3.386  -5.118  1.00  0.00     0.093 C 
ATOM      7  C   UNL     1      -1.022   4.726  -5.298  1.00  0.00     0.014 C 
ATOM      8  C   UNL     1      -2.373   4.454  -5.958  1.00  0.00     0.001 C 
ATOM      9  C   UNL     1      -2.419   2.193  -4.673  1.00  0.00     0.016 C 
ATOM     10  C   UNL     1      -3.201   3.377  -5.243  1.00  0.00     0.001 C 
BRANCH   6  11
ATOM     11  C   UNL     1       1.223   3.471  -5.148  1.00  0.00     0.228 C 
ATOM     12  N   UNL     1       1.900   2.309  -5.562  1.00  0.00    -0.326 N 
ATOM     13  H   UNL     1       2.511   2.318  -6.334  1.00  0.00     0.169 HD
ATOM     14  O   UNL     1       1.845   4.505  -4.918  1.00  0.00    -0.274 OA
BRANCH  12  15
ATOM     15  C   UNL     1       1.665   1.131  -4.822  1.00  0.00     0.041 A 
ATOM     16  C   UNL     1       0.272  -0.574  -2.890  1.00  0.00     0.041 A 
ATOM     17  C   UNL     1       0.268  -0.845  -4.268  1.00  0.00     0.028 A 
ATOM     18  C   UNL     1       1.088   0.501  -2.636  1.00  0.00     0.028 A 
ATOM     19  C   UNL     1       0.923   0.017  -5.236  1.00  0.00     0.028 A 
ATOM     20  C   UNL     1       1.855   1.297  -3.489  1.00  0.00     0.028 A 
BRANCH  16  21
ATOM     21  N   UNL     1      -0.542  -1.340  -1.964  1.00  0.00    -0.326 N 
ATOM     22  C   UNL     1      -1.028  -1.653  -0.713  1.00  0.00     0.224 C 
ATOM     23  O   UNL     1      -1.845  -2.604  -0.870  1.00  0.00    -0.275 OA
ATOM     24  H   UNL     1      -0.993  -1.991  -2.549  1.00  0.00     0.169 HD
BRANCH  22  25
ATOM     25  C   UNL     1      -1.068  -1.120   0.836  1.00  0.00     0.103 C 
BRANCH  25  26
ATOM     26  C   UNL     1      -0.140  -1.188   2.160  1.00  0.00    -0.008 C 
ATOM     27  C   UNL     1       1.306  -1.679   2.126  1.00  0.00     0.008 C 
ATOM     28  C   UNL     1      -0.197   0.110   3.031  1.00  0.00     0.008 C 
ENDBRANCH  25  26
ENDBRANCH  22  25
ENDBRANCH  16  21
ENDBRANCH  12  15
ENDBRANCH   6  11
ENDBRANCH   3   5
ENDBRANCH   2   3
ENDBRANCH   1   2
BRANCH   1  29
ATOM     29  C   UNL     1       0.989   1.088   0.301  1.00  0.00     0.275 C 
BRANCH  29  30
ATOM     30  O   UNL     1       2.328   0.728  -0.241  1.00  0.00    -0.458 OA
BRANCH  30  31
ATOM     31  C   UNL     1       2.599  -0.596  -0.618  1.00  0.00     0.338 C 
ATOM     32  O   UNL     1       1.880  -1.584  -0.534  1.00  0.00    -0.246 OA
BRANCH  31  33
ATOM     33  C   UNL     1       3.860  -0.658  -1.353  1.00  0.00     0.060 A 
ATOM     34  C   UNL     1       3.883  -0.768  -2.751  1.00  0.00     0.016 A 
ATOM     35  C   UNL     1       5.015  -0.442  -0.629  1.00  0.00     0.016 A 
ATOM     36  C   UNL     1       4.985  -0.301  -3.445  1.00  0.00     0.010 A 
ATOM     37  C   UNL     1       6.158  -0.101  -1.321  1.00  0.00     0.010 A 
ATOM     38  C   UNL     1       6.119   0.057  -2.717  1.00  0.00    -0.014 A 
BRANCH  38  39
ATOM     39  C   UNL     1       7.363   0.432  -3.393  1.00  0.00     0.031 A 
ATOM     40  C   UNL     1       8.196  -0.677  -3.937  1.00  0.00     0.074 A 
ATOM     41  C   UNL     1       7.774   1.712  -3.365  1.00  0.00     0.049 A 
ATOM     42  N   UNL     1       9.430  -0.648  -4.346  1.00  0.00    -0.248 NA
ATOM     43  C   UNL     1       7.556  -2.003  -4.014  1.00  0.00     0.031 C 
ATOM     44  C   UNL     1       6.983   2.852  -2.894  1.00  0.00     0.029 A 
ATOM     45  N   UNL     1       8.986   2.257  -3.694  1.00  0.00    -0.354 N 
ATOM     46  C   UNL     1       9.718  -1.950  -4.725  1.00  0.00     0.074 A 
ATOM     47  C   UNL     1       8.536  -2.746  -4.498  1.00  0.00     0.031 C 
ATOM     48  C   UNL     1       7.754   3.955  -2.914  1.00  0.00     0.029 A 
ATOM     49  C   UNL     1       9.095   3.586  -3.357  1.00  0.00     0.049 A 
ATOM     50  H   UNL     1       9.708   1.747  -4.128  1.00  0.00     0.167 HD
ATOM     51  C   UNL     1      10.883  -2.438  -5.197  1.00  0.00     0.037 A 
ATOM     52  C   UNL     1      10.180   4.386  -3.367  1.00  0.00     0.037 A 
ATOM     53  C   UNL     1      12.068  -1.641  -5.326  1.00  0.00     0.049 A 
ATOM     54  C   UNL     1      11.496   3.792  -3.808  1.00  0.00     0.074 A 
ATOM     55  C   UNL     1      13.322  -2.026  -5.755  1.00  0.00     0.029 A 
ATOM     56  N   UNL     1      12.146  -0.294  -4.993  1.00  0.00    -0.354 N 
ATOM     57  N   UNL     1      11.761   2.562  -4.188  1.00  0.00    -0.248 NA
ATOM     58  C   UNL     1      12.660   4.687  -3.817  1.00  0.00     0.031 C 
ATOM     59  C   UNL     1      14.173  -0.922  -5.634  1.00  0.00     0.029 A 
ATOM     60  C   UNL     1      13.434   0.165  -5.188  1.00  0.00     0.049 A 
ATOM     61  H   UNL     1      11.394   0.252  -4.667  1.00  0.00     0.167 HD
ATOM     62  C   UNL     1      13.113   2.544  -4.513  1.00  0.00     0.074 A 
ATOM     63  C   UNL     1      13.608   3.888  -4.288  1.00  0.00     0.031 C 
ATOM     64  C   UNL     1      13.880   1.518  -4.960  1.00  0.00     0.037 A 
BRANCH  51  65
ATOM     65  C   UNL     1      10.918  -3.897  -5.529  1.00  0.00     0.058 A 
ATOM     66  C   UNL     1      10.226  -4.414  -6.636  1.00  0.00     0.135 A 
ATOM     67  C   UNL     1      11.611  -4.797  -4.706  1.00  0.00     0.135 A 
ATOM     68  F   UNL     1       9.508  -3.600  -7.427  1.00  0.00    -0.206 F 
ATOM     69  C   UNL     1      10.207  -5.777  -6.907  1.00  0.00     0.059 A 
ATOM     70  C   UNL     1      11.627  -6.162  -4.972  1.00  0.00     0.059 A 
ATOM     71  F   UNL     1      12.261  -4.356  -3.617  1.00  0.00    -0.206 F 
ATOM     72  C   UNL     1      10.912  -6.643  -6.069  1.00  0.00     0.060 A 
BRANCH  72  73
ATOM     73  S   UNL     1      10.882  -8.408  -6.437  1.00  0.00     0.124 S 
ATOM     74  O   UNL     1       9.517  -8.761  -6.059  1.00  0.00    -0.237 OA
ATOM     75  O   UNL     1      11.169  -8.431  -7.868  1.00  0.00    -0.237 OA
ATOM     76  O   UNL     1      11.931  -8.952  -5.581  1.00  0.00    -0.744 OA
ENDBRANCH  72  73
ENDBRANCH  51  65
BRANCH  52  77
ATOM     77  C   UNL     1      10.082   5.807  -2.932  1.00  0.00     0.058 A 
ATOM     78  C   UNL     1      10.244   6.855  -3.851  1.00  0.00     0.135 A 
ATOM     79  C   UNL     1       9.836   6.152  -1.593  1.00  0.00     0.135 A 
ATOM     80  F   UNL     1      10.493   6.581  -5.141  1.00  0.00    -0.206 F 
ATOM     81  C   UNL     1      10.185   8.190  -3.459  1.00  0.00     0.059 A 
ATOM     82  C   UNL     1       9.747   7.479  -1.180  1.00  0.00     0.059 A 
ATOM     83  F   UNL     1       9.665   5.191  -0.671  1.00  0.00    -0.206 F 
ATOM     84  C   UNL     1       9.934   8.492  -2.120  1.00  0.00     0.060 A 
BRANCH  84  85
ATOM     85  S   UNL     1       9.822  10.228  -1.630  1.00  0.00     0.124 S 
ATOM     86  O   UNL     1      11.216  10.648  -1.712  1.00  0.00    -0.237 OA
ATOM     87  O   UNL     1       8.929  10.777  -2.646  1.00  0.00    -0.237 OA
ATOM     88  O   UNL     1       9.262  10.162  -0.283  1.00  0.00    -0.744 OA
ENDBRANCH  84  85
ENDBRANCH  52  77
BRANCH  64  89
ATOM     89  C   UNL     1      15.316   1.818  -5.280  1.00  0.00     0.058 A 
ATOM     90  C   UNL     1      16.271   2.028  -4.275  1.00  0.00     0.135 A 
ATOM     91  C   UNL     1      15.753   1.813  -6.616  1.00  0.00     0.135 A 
ATOM     92  F   UNL     1      15.902   2.043  -2.984  1.00  0.00    -0.206 F 
ATOM     93  C   UNL     1      17.609   2.245  -4.583  1.00  0.00     0.059 A 
ATOM     94  C   UNL     1      17.090   1.997  -6.945  1.00  0.00     0.059 A 
ATOM     95  F   UNL     1      14.879   1.599  -7.612  1.00  0.00    -0.206 F 
ATOM     96  C   UNL     1      18.009   2.224  -5.922  1.00  0.00     0.060 A 
BRANCH  96  97
ATOM     97  S   UNL     1      19.755   2.466  -6.307  1.00  0.00     0.124 S 
ATOM     98  O   UNL     1      19.910   3.898  -6.076  1.00  0.00    -0.237 OA
ATOM     99  O   UNL     1      20.412   1.592  -5.340  1.00  0.00    -0.237 OA
ATOM    100  O   UNL     1      19.858   2.040  -7.699  1.00  0.00    -0.744 OA
ENDBRANCH  96  97
ENDBRANCH  64  89
ENDBRANCH  38  39
ENDBRANCH  31  33
ENDBRANCH  30  31
ENDBRANCH  29  30
ENDBRANCH   1  29
TORSDOF 19
