REMARK SMILES COc1cccc(Cn2c(=O)c(=O)n(CC(=O)OCCOC(=O)c3ccc(-c4c5nc(c(-c6c(F)cc(S(=O)(=O)[O-])cc6F)c6ccc([nH]6)c(-c6c(F)cc(S(=O)(=O)[O-])cc6F)c6nc(c(-c7c(F)cc(S(=O)(=O)[O-])cc7F)c7ccc4[nH]7)C=C6)C=C5)cc3)c3ccccc32)c1
REMARK SMILES IDX 19 1 18 2 16 3 17 4 15 5 14 6 9 7 10 8 95 9 11 10 12 11
REMARK SMILES IDX 90 12 94 13 13 14 91 15 93 16 92 17 8 18 7 19 3 20 4 21
REMARK SMILES IDX 96 22 5 23 6 24 2 25 1 26 20 27 21 28 22 29 23 30 24 31
REMARK SMILES IDX 25 32 89 33 26 34 88 35 27 36 28 37 29 38 82 39 30 40 87 41
REMARK SMILES IDX 81 42 83 43 31 44 86 45 80 46 79 47 32 49 66 50 45 51 65 52
REMARK SMILES IDX 46 53 49 54 64 55 84 56 47 57 48 58 63 60 85 61 50 62 33 63
REMARK SMILES IDX 34 64 43 65 35 66 36 67 42 68 44 69 37 70 38 71 39 72 40 73
REMARK SMILES IDX 41 74 67 75 68 76 77 77 69 78 70 79 76 80 78 81 71 82 72 83
REMARK SMILES IDX 73 84 74 85 75 86 51 87 52 88 61 89 53 90 54 91 60 92 62 93
REMARK SMILES IDX 55 94 56 95 57 96 58 97 59 98
REMARK H PARENT 83 48 49 59
REMARK Flexibility Score: inf
ROOT
ATOM      1  C   UNL     1       0.308  -4.315   7.417  1.00  0.00     0.274 C 
ENDROOT
BRANCH   1   2
ATOM      2  O   UNL     1       1.237  -4.571   6.356  1.00  0.00    -0.461 OA
BRANCH   2   3
ATOM      3  C   UNL     1       2.139  -3.571   6.177  1.00  0.00     0.326 C 
ATOM      4  O   UNL     1       2.054  -2.449   6.667  1.00  0.00    -0.250 OA
BRANCH   3   5
ATOM      5  C   UNL     1       3.440  -4.097   5.599  1.00  0.00     0.248 C 
BRANCH   5   6
ATOM      6  N   UNL     1       3.383  -4.991   4.471  1.00  0.00    -0.291 N 
ATOM      7  N   UNL     1       4.632  -4.981   1.955  1.00  0.00    -0.298 N 
ATOM      8  C   UNL     1       3.919  -3.893   2.427  1.00  0.00     0.317 A 
ATOM      9  C   UNL     1       5.115  -5.880   2.947  1.00  0.00     0.068 A 
ATOM     10  O   UNL     1       4.123  -2.713   2.183  1.00  0.00    -0.263 OA
ATOM     11  C   UNL     1       2.833  -4.319   3.395  1.00  0.00     0.317 A 
ATOM     12  C   UNL     1       4.521  -5.835   4.240  1.00  0.00     0.069 A 
ATOM     13  C   UNL     1       6.259  -6.660   2.752  1.00  0.00     0.028 A 
ATOM     14  O   UNL     1       1.684  -3.914   3.304  1.00  0.00    -0.263 OA
ATOM     15  C   UNL     1       5.049  -6.606   5.284  1.00  0.00     0.028 A 
ATOM     16  C   UNL     1       6.812  -7.373   3.826  1.00  0.00     0.002 A 
ATOM     17  C   UNL     1       6.203  -7.358   5.080  1.00  0.00     0.002 A 
BRANCH   7  18
ATOM     18  C   UNL     1       4.858  -5.051   0.519  1.00  0.00     0.162 C 
BRANCH  18  19
ATOM     19  C   UNL     1       3.510  -4.770  -0.175  1.00  0.00    -0.024 A 
ATOM     20  C   UNL     1       1.727  -3.119  -0.338  1.00  0.00     0.119 A 
ATOM     21  C   UNL     1       0.789  -4.148  -0.349  1.00  0.00     0.046 A 
ATOM     22  C   UNL     1       3.089  -3.428  -0.337  1.00  0.00     0.052 A 
ATOM     23  C   UNL     1       1.198  -5.481  -0.359  1.00  0.00     0.004 A 
ATOM     24  C   UNL     1       2.554  -5.795  -0.249  1.00  0.00     0.006 A 
BRANCH  20  25
ATOM     25  O   UNL     1       1.208  -1.877  -0.089  1.00  0.00    -0.497 OA
ATOM     26  C   UNL     1       1.811  -0.788  -0.767  1.00  0.00     0.278 C 
ENDBRANCH  20  25
ENDBRANCH  18  19
ENDBRANCH   7  18
ENDBRANCH   5   6
ENDBRANCH   3   5
ENDBRANCH   2   3
ENDBRANCH   1   2
BRANCH   1  27
ATOM     27  C   UNL     1       0.910  -4.797   8.743  1.00  0.00     0.275 C 
BRANCH  27  28
ATOM     28  O   UNL     1       2.067  -4.017   9.135  1.00  0.00    -0.458 OA
BRANCH  28  29
ATOM     29  C   UNL     1       3.267  -4.633   9.021  1.00  0.00     0.338 C 
ATOM     30  O   UNL     1       3.473  -5.767   8.616  1.00  0.00    -0.246 OA
BRANCH  29  31
ATOM     31  C   UNL     1       4.378  -3.734   9.386  1.00  0.00     0.060 A 
ATOM     32  C   UNL     1       4.997  -2.945   8.412  1.00  0.00     0.016 A 
ATOM     33  C   UNL     1       4.939  -3.826  10.658  1.00  0.00     0.016 A 
ATOM     34  C   UNL     1       6.210  -2.314   8.672  1.00  0.00     0.010 A 
ATOM     35  C   UNL     1       6.113  -3.121  10.945  1.00  0.00     0.010 A 
ATOM     36  C   UNL     1       6.773  -2.379   9.949  1.00  0.00    -0.014 A 
BRANCH  36  37
ATOM     37  C   UNL     1       8.044  -1.674  10.251  1.00  0.00     0.031 A 
ATOM     38  C   UNL     1       9.253  -2.457  10.682  1.00  0.00     0.074 A 
ATOM     39  C   UNL     1       8.105  -0.331  10.165  1.00  0.00     0.049 A 
ATOM     40  N   UNL     1      10.364  -2.030  11.222  1.00  0.00    -0.248 NA
ATOM     41  C   UNL     1       9.197  -3.915  10.489  1.00  0.00     0.031 C 
ATOM     42  C   UNL     1       7.024   0.541   9.697  1.00  0.00     0.029 A 
ATOM     43  N   UNL     1       9.116   0.539  10.485  1.00  0.00    -0.354 N 
ATOM     44  C   UNL     1      11.120  -3.167  11.483  1.00  0.00     0.074 A 
ATOM     45  C   UNL     1      10.343  -4.303  11.034  1.00  0.00     0.031 C 
ATOM     46  C   UNL     1       7.431   1.818   9.757  1.00  0.00     0.029 A 
ATOM     47  C   UNL     1       8.765   1.861  10.343  1.00  0.00     0.049 A 
ATOM     48  H   UNL     1      10.006   0.246  10.786  1.00  0.00     0.167 HD
ATOM     49  C   UNL     1      12.346  -3.249  12.055  1.00  0.00     0.037 A 
ATOM     50  C   UNL     1       9.418   2.984  10.695  1.00  0.00     0.037 A 
ATOM     51  C   UNL     1      13.120  -2.106  12.468  1.00  0.00     0.049 A 
ATOM     52  C   UNL     1      10.756   2.869  11.366  1.00  0.00     0.074 A 
ATOM     53  C   UNL     1      14.367  -2.078  13.068  1.00  0.00     0.029 A 
ATOM     54  N   UNL     1      12.724  -0.785  12.310  1.00  0.00    -0.354 N 
ATOM     55  N   UNL     1      11.430   1.787  11.677  1.00  0.00    -0.248 NA
ATOM     56  C   UNL     1      11.415   4.123  11.750  1.00  0.00     0.031 C 
ATOM     57  C   UNL     1      14.714  -0.741  13.295  1.00  0.00     0.029 A 
ATOM     58  C   UNL     1      13.699   0.065  12.804  1.00  0.00     0.049 A 
ATOM     59  H   UNL     1      11.874  -0.495  11.906  1.00  0.00     0.167 HD
ATOM     60  C   UNL     1      12.600   2.230  12.279  1.00  0.00     0.074 A 
ATOM     61  C   UNL     1      12.547   3.679  12.280  1.00  0.00     0.031 C 
ATOM     62  C   UNL     1      13.626   1.504  12.788  1.00  0.00     0.037 A 
BRANCH  49  63
ATOM     63  C   UNL     1      12.905  -4.622  12.305  1.00  0.00     0.058 A 
ATOM     64  C   UNL     1      13.409  -5.419  11.266  1.00  0.00     0.135 A 
ATOM     65  C   UNL     1      12.956  -5.138  13.611  1.00  0.00     0.135 A 
ATOM     66  F   UNL     1      13.368  -4.982   9.998  1.00  0.00    -0.206 F 
ATOM     67  C   UNL     1      13.919  -6.692  11.509  1.00  0.00     0.059 A 
ATOM     68  C   UNL     1      13.480  -6.398  13.880  1.00  0.00     0.059 A 
ATOM     69  F   UNL     1      12.485  -4.417  14.640  1.00  0.00    -0.206 F 
ATOM     70  C   UNL     1      13.945  -7.175  12.819  1.00  0.00     0.060 A 
BRANCH  70  71
ATOM     71  S   UNL     1      14.597  -8.832  13.121  1.00  0.00     0.124 S 
ATOM     72  O   UNL     1      13.486  -9.666  12.673  1.00  0.00    -0.237 OA
ATOM     73  O   UNL     1      15.789  -8.861  12.280  1.00  0.00    -0.237 OA
ATOM     74  O   UNL     1      14.848  -8.840  14.559  1.00  0.00    -0.744 OA
ENDBRANCH  70  71
ENDBRANCH  49  63
BRANCH  50  75
ATOM     75  C   UNL     1       8.790   4.308  10.452  1.00  0.00     0.058 A 
ATOM     76  C   UNL     1       9.273   5.159   9.449  1.00  0.00     0.135 A 
ATOM     77  C   UNL     1       7.671   4.729  11.189  1.00  0.00     0.135 A 
ATOM     78  F   UNL     1      10.345   4.801   8.726  1.00  0.00    -0.206 F 
ATOM     79  C   UNL     1       8.671   6.384   9.183  1.00  0.00     0.059 A 
ATOM     80  C   UNL     1       7.038   5.939  10.926  1.00  0.00     0.059 A 
ATOM     81  F   UNL     1       7.164   3.943  12.151  1.00  0.00    -0.206 F 
ATOM     82  C   UNL     1       7.550   6.763   9.925  1.00  0.00     0.060 A 
BRANCH  82  83
ATOM     83  S   UNL     1       6.731   8.324   9.528  1.00  0.00     0.124 S 
ATOM     84  O   UNL     1       7.618   9.289  10.166  1.00  0.00    -0.237 OA
ATOM     85  O   UNL     1       6.739   8.316   8.068  1.00  0.00    -0.237 OA
ATOM     86  O   UNL     1       5.414   8.173  10.140  1.00  0.00    -0.744 OA
ENDBRANCH  82  83
ENDBRANCH  50  75
BRANCH  62  87
ATOM     87  C   UNL     1      14.788   2.271  13.349  1.00  0.00     0.058 A 
ATOM     88  C   UNL     1      14.720   2.891  14.606  1.00  0.00     0.135 A 
ATOM     89  C   UNL     1      15.989   2.363  12.630  1.00  0.00     0.135 A 
ATOM     90  F   UNL     1      13.589   2.837  15.326  1.00  0.00    -0.206 F 
ATOM     91  C   UNL     1      15.801   3.598  15.123  1.00  0.00     0.059 A 
ATOM     92  C   UNL     1      17.089   3.048  13.137  1.00  0.00     0.059 A 
ATOM     93  F   UNL     1      16.104   1.780  11.427  1.00  0.00    -0.206 F 
ATOM     94  C   UNL     1      16.980   3.674  14.379  1.00  0.00     0.060 A 
BRANCH  94  95
ATOM     95  S   UNL     1      18.386   4.575  15.064  1.00  0.00     0.124 S 
ATOM     96  O   UNL     1      18.005   5.958  14.799  1.00  0.00    -0.237 OA
ATOM     97  O   UNL     1      18.368   4.170  16.467  1.00  0.00    -0.237 OA
ATOM     98  O   UNL     1      19.518   4.074  14.290  1.00  0.00    -0.744 OA
ENDBRANCH  94  95
ENDBRANCH  62  87
ENDBRANCH  36  37
ENDBRANCH  29  31
ENDBRANCH  28  29
ENDBRANCH  27  28
ENDBRANCH   1  27
TORSDOF 18
