REMARK SMILES C[C@H](NC(=O)CCN1C(=O)/C(=C/c2ccc([N+](=O)[O-])cc2)SC1=S)C(=O)OCCOC(=O)c1ccc(-c2c3nc(c(-c4c(F)cc(S(=O)(=O)[O-])cc4F)c4ccc([nH]4)c(-c4c(F)cc(S(=O)(=O)[O-])cc4F)c4nc(c(-c5c(F)cc(S(=O)(=O)[O-])cc5F)c5ccc2[nH]5)C=C4)C=C3)cc1
REMARK SMILES IDX 27 1 25 2 26 3 2 4 1 5 3 6 4 7 5 9 6 10 7 11 8 12 9 13 23 14
REMARK SMILES IDX 10 15 11 16 22 17 24 18 12 19 13 20 14 21 21 22 15 23 20 24
REMARK SMILES IDX 16 25 17 26 18 27 19 28 28 29 29 30 30 31 31 32 32 33 33 34
REMARK SMILES IDX 34 35 98 36 35 37 97 38 36 39 37 40 38 41 91 42 39 43 96 44
REMARK SMILES IDX 90 45 92 46 40 47 95 48 89 49 88 50 41 52 75 53 54 54 74 55
REMARK SMILES IDX 55 56 58 57 73 58 93 59 56 60 57 61 72 63 94 64 59 65 42 66
REMARK SMILES IDX 43 67 52 68 44 69 45 70 51 71 53 72 46 73 47 74 48 75 49 76
REMARK SMILES IDX 50 77 76 78 77 79 86 80 78 81 79 82 85 83 87 84 80 85 81 86
REMARK SMILES IDX 82 87 83 88 84 89 60 90 61 91 70 92 62 93 63 94 69 95 71 96
REMARK SMILES IDX 64 97 65 98 66 99 67 100 68 101
REMARK H PARENT 3 8 92 51 58 62
REMARK Flexibility Score: inf
ROOT
ATOM      1  O   UNL     1      -1.218   0.468  -0.141  1.00  0.00    -0.461 OA
ENDROOT
BRANCH   1   2
ATOM      2  C   UNL     1      -0.589  -0.269   0.823  1.00  0.00     0.328 C 
ATOM      3  O   UNL     1      -1.155  -0.789   1.776  1.00  0.00    -0.250 OA
BRANCH   2   4
ATOM      4  C   UNL     1       0.883  -0.519   0.460  1.00  0.00     0.189 C 
ATOM      5  C   UNL     1       1.605  -1.351   1.508  1.00  0.00     0.043 C 
BRANCH   4   6
ATOM      6  N   UNL     1       1.523   0.730   0.036  1.00  0.00    -0.343 N 
ATOM      7  C   UNL     1       2.214   1.705   0.676  1.00  0.00     0.222 C 
ATOM      8  H   UNL     1       1.430   0.899  -0.930  1.00  0.00     0.164 HD
ATOM      9  O   UNL     1       2.313   2.796   0.108  1.00  0.00    -0.275 OA
BRANCH   7  10
ATOM     10  C   UNL     1       2.925   1.486   1.991  1.00  0.00     0.122 C 
BRANCH  10  11
ATOM     11  C   UNL     1       2.287   2.250   3.153  1.00  0.00     0.137 C 
BRANCH  11  12
ATOM     12  N   UNL     1       1.284   1.472   3.897  1.00  0.00    -0.292 N 
ATOM     13  C   UNL     1      -0.060   1.713   3.672  1.00  0.00     0.266 C 
ATOM     14  C   UNL     1       1.578   0.508   4.842  1.00  0.00     0.148 C 
ATOM     15  O   UNL     1      -0.515   2.551   2.904  1.00  0.00    -0.268 OA
ATOM     16  C   UNL     1      -0.904   0.761   4.452  1.00  0.00     0.081 C 
ATOM     17  S   UNL     1       0.094  -0.260   5.396  1.00  0.00    -0.054 SA
ATOM     18  S   UNL     1       3.078   0.061   5.419  1.00  0.00    -0.052 S 
ATOM     19  C   UNL     1      -2.227   0.719   4.233  1.00  0.00     0.029 C 
BRANCH  19  20
ATOM     20  C   UNL     1      -3.233  -0.293   4.606  1.00  0.00    -0.024 A 
ATOM     21  C   UNL     1      -4.266  -0.517   3.675  1.00  0.00     0.015 A 
ATOM     22  C   UNL     1      -3.233  -1.039   5.788  1.00  0.00     0.015 A 
ATOM     23  C   UNL     1      -5.244  -1.490   3.887  1.00  0.00     0.086 A 
ATOM     24  C   UNL     1      -4.208  -2.023   6.014  1.00  0.00     0.086 A 
ATOM     25  C   UNL     1      -5.206  -2.248   5.058  1.00  0.00     0.269 A 
BRANCH  25  26
ATOM     26  N   UNL     1      -6.234  -3.271   5.285  1.00  0.00     0.062 N 
ATOM     27  O   UNL     1      -7.046  -3.482   4.372  1.00  0.00    -0.258 OA
ATOM     28  O   UNL     1      -6.248  -3.841   6.384  1.00  0.00    -0.258 OA
ENDBRANCH  25  26
ENDBRANCH  19  20
ENDBRANCH  11  12
ENDBRANCH  10  11
ENDBRANCH   7  10
ENDBRANCH   4   6
ENDBRANCH   2   4
ENDBRANCH   1   2
BRANCH   1  29
ATOM     29  C   UNL     1      -2.633   0.650   0.043  1.00  0.00     0.274 C 
BRANCH  29  30
ATOM     30  C   UNL     1      -3.465  -0.416  -0.676  1.00  0.00     0.275 C 
BRANCH  30  31
ATOM     31  O   UNL     1      -3.117  -1.747  -0.252  1.00  0.00    -0.458 OA
BRANCH  31  32
ATOM     32  C   UNL     1      -2.415  -2.467  -1.154  1.00  0.00     0.338 C 
ATOM     33  O   UNL     1      -2.057  -2.101  -2.270  1.00  0.00    -0.246 OA
BRANCH  32  34
ATOM     34  C   UNL     1      -2.040  -3.782  -0.616  1.00  0.00     0.060 A 
ATOM     35  C   UNL     1      -1.049  -3.852   0.361  1.00  0.00     0.016 A 
ATOM     36  C   UNL     1      -2.500  -4.947  -1.226  1.00  0.00     0.016 A 
ATOM     37  C   UNL     1      -0.432  -5.065   0.657  1.00  0.00     0.010 A 
ATOM     38  C   UNL     1      -1.939  -6.178  -0.868  1.00  0.00     0.010 A 
ATOM     39  C   UNL     1      -0.863  -6.242   0.037  1.00  0.00    -0.014 A 
BRANCH  39  40
ATOM     40  C   UNL     1      -0.135  -7.522   0.252  1.00  0.00     0.031 A 
ATOM     41  C   UNL     1       0.544  -8.192  -0.914  1.00  0.00     0.074 A 
ATOM     42  C   UNL     1      -0.059  -8.080   1.476  1.00  0.00     0.049 A 
ATOM     43  N   UNL     1       1.034  -9.400  -1.006  1.00  0.00    -0.248 NA
ATOM     44  C   UNL     1       0.681  -7.394  -2.145  1.00  0.00     0.031 C 
ATOM     45  C   UNL     1      -0.596  -7.503   2.709  1.00  0.00     0.029 A 
ATOM     46  N   UNL     1       0.499  -9.267   1.880  1.00  0.00    -0.354 N 
ATOM     47  C   UNL     1       1.482  -9.530  -2.316  1.00  0.00     0.074 A 
ATOM     48  C   UNL     1       1.215  -8.273  -2.981  1.00  0.00     0.031 C 
ATOM     49  C   UNL     1      -0.336  -8.333   3.732  1.00  0.00     0.029 A 
ATOM     50  C   UNL     1       0.314  -9.534   3.216  1.00  0.00     0.049 A 
ATOM     51  H   UNL     1       0.985  -9.870   1.272  1.00  0.00     0.167 HD
ATOM     52  C   UNL     1       2.054 -10.604  -2.911  1.00  0.00     0.037 A 
ATOM     53  C   UNL     1       0.587 -10.639   3.936  1.00  0.00     0.037 A 
ATOM     54  C   UNL     1       2.363 -11.834  -2.231  1.00  0.00     0.049 A 
ATOM     55  C   UNL     1       1.186 -11.835   3.250  1.00  0.00     0.074 A 
ATOM     56  C   UNL     1       2.935 -12.985  -2.744  1.00  0.00     0.029 A 
ATOM     57  N   UNL     1       2.140 -12.067  -0.881  1.00  0.00    -0.354 N 
ATOM     58  N   UNL     1       1.526 -11.977   1.991  1.00  0.00    -0.248 NA
ATOM     59  C   UNL     1       1.417 -13.028   4.076  1.00  0.00     0.031 C 
ATOM     60  C   UNL     1       3.039 -13.922  -1.709  1.00  0.00     0.029 A 
ATOM     61  C   UNL     1       2.560 -13.342  -0.545  1.00  0.00     0.049 A 
ATOM     62  H   UNL     1       1.743 -11.419  -0.255  1.00  0.00     0.167 HD
ATOM     63  C   UNL     1       2.019 -13.272   1.876  1.00  0.00     0.074 A 
ATOM     64  C   UNL     1       1.947 -13.867   3.195  1.00  0.00     0.031 C 
ATOM     65  C   UNL     1       2.486 -13.912   0.776  1.00  0.00     0.037 A 
BRANCH  52  66
ATOM     66  C   UNL     1       2.344 -10.509  -4.381  1.00  0.00     0.058 A 
ATOM     67  C   UNL     1       3.426  -9.769  -4.881  1.00  0.00     0.135 A 
ATOM     68  C   UNL     1       1.530 -11.187  -5.304  1.00  0.00     0.135 A 
ATOM     69  F   UNL     1       4.221  -9.086  -4.043  1.00  0.00    -0.206 F 
ATOM     70  C   UNL     1       3.677  -9.683  -6.247  1.00  0.00     0.059 A 
ATOM     71  C   UNL     1       1.774 -11.132  -6.673  1.00  0.00     0.059 A 
ATOM     72  F   UNL     1       0.480 -11.907  -4.878  1.00  0.00    -0.206 F 
ATOM     73  C   UNL     1       2.841 -10.363  -7.136  1.00  0.00     0.060 A 
BRANCH  73  74
ATOM     74  S   UNL     1       3.169 -10.239  -8.907  1.00  0.00     0.124 S 
ATOM     75  O   UNL     1       2.631  -8.915  -9.208  1.00  0.00    -0.237 OA
ATOM     76  O   UNL     1       4.622 -10.361  -8.970  1.00  0.00    -0.237 OA
ATOM     77  O   UNL     1       2.424 -11.361  -9.469  1.00  0.00    -0.744 OA
ENDBRANCH  73  74
ENDBRANCH  52  66
BRANCH  53  78
ATOM     78  C   UNL     1       0.242 -10.682   5.380  1.00  0.00     0.058 A 
ATOM     79  C   UNL     1       1.242 -10.648   6.362  1.00  0.00     0.135 A 
ATOM     80  C   UNL     1      -1.095 -10.735   5.806  1.00  0.00     0.135 A 
ATOM     81  F   UNL     1       2.534 -10.610   6.003  1.00  0.00    -0.206 F 
ATOM     82  C   UNL     1       0.930 -10.666   7.718  1.00  0.00     0.059 A 
ATOM     83  C   UNL     1      -1.433 -10.731   7.155  1.00  0.00     0.059 A 
ATOM     84  F   UNL     1      -2.087 -10.759   4.903  1.00  0.00    -0.206 F 
ATOM     85  C   UNL     1      -0.412 -10.704   8.104  1.00  0.00     0.060 A 
BRANCH  85  86
ATOM     86  S   UNL     1      -0.814 -10.657   9.864  1.00  0.00     0.124 S 
ATOM     87  O   UNL     1      -0.564 -12.039  10.258  1.00  0.00    -0.237 OA
ATOM     88  O   UNL     1       0.131  -9.667  10.373  1.00  0.00    -0.237 OA
ATOM     89  O   UNL     1      -2.212 -10.238   9.875  1.00  0.00    -0.744 OA
ENDBRANCH  85  86
ENDBRANCH  53  78
BRANCH  65  90
ATOM     90  C   UNL     1       2.982 -15.317   0.958  1.00  0.00     0.058 A 
ATOM     91  C   UNL     1       2.095 -16.397   1.072  1.00  0.00     0.135 A 
ATOM     92  C   UNL     1       4.359 -15.588   0.969  1.00  0.00     0.135 A 
ATOM     93  F   UNL     1       0.770 -16.186   1.074  1.00  0.00    -0.206 F 
ATOM     94  C   UNL     1       2.558 -17.702   1.207  1.00  0.00     0.059 A 
ATOM     95  C   UNL     1       4.843 -16.887   1.084  1.00  0.00     0.059 A 
ATOM     96  F   UNL     1       5.246 -14.587   0.854  1.00  0.00    -0.206 F 
ATOM     97  C   UNL     1       3.934 -17.937   1.213  1.00  0.00     0.060 A 
BRANCH  97  98
ATOM     98  S   UNL     1       4.527 -19.636   1.352  1.00  0.00     0.124 S 
ATOM     99  O   UNL     1       4.379 -19.882   2.783  1.00  0.00    -0.237 OA
ATOM    100  O   UNL     1       3.607 -20.365   0.485  1.00  0.00    -0.237 OA
ATOM    101  O   UNL     1       5.902 -19.555   0.867  1.00  0.00    -0.744 OA
ENDBRANCH  97  98
ENDBRANCH  65  90
ENDBRANCH  39  40
ENDBRANCH  32  34
ENDBRANCH  31  32
ENDBRANCH  30  31
ENDBRANCH  29  30
ENDBRANCH   1  29
TORSDOF 20
