REMARK SMILES Cc1nn(C)cc1-c1ccnc2nc(CCC(=O)OCCOC(=O)c3ccc(-c4c5nc(c(-c6c(F)cc(S(=O)(=O)[O-])cc6F)c6ccc([nH]6)c(-c6c(F)cc(S(=O)(=O)[O-])cc6F)c6nc(c(-c7c(F)cc(S(=O)(=O)[O-])cc7F)c7ccc4[nH]7)C=C6)C=C5)cc3)nn12
REMARK SMILES IDX 20 1 19 2 17 3 18 4 16 5 15 6 14 7 8 8 9 9 92 10 10 11 12 12
REMARK SMILES IDX 91 13 11 14 13 15 7 16 1 17 2 18 3 19 4 20 6 21 5 22 21 23
REMARK SMILES IDX 22 24 23 25 24 26 25 27 26 28 90 29 27 30 89 31 28 32 29 33
REMARK SMILES IDX 30 34 83 35 31 36 88 37 82 38 84 39 32 40 87 41 81 42 80 43
REMARK SMILES IDX 33 45 67 46 46 47 66 48 47 49 50 50 65 51 85 52 48 53 49 54
REMARK SMILES IDX 64 56 86 57 51 58 34 59 35 60 44 61 36 62 37 63 43 64 45 65
REMARK SMILES IDX 38 66 39 67 40 68 41 69 42 70 68 71 69 72 78 73 70 74 71 75
REMARK SMILES IDX 77 76 79 77 72 78 73 79 74 80 75 81 76 82 52 83 53 84 62 85
REMARK SMILES IDX 54 86 55 87 61 88 63 89 56 90 57 91 58 92 59 93 60 94
REMARK H PARENT 84 44 50 55
REMARK Flexibility Score: inf
ROOT
ATOM      1  C   UNL     1       2.501  -2.389   2.322  1.00  0.00     0.274 C 
ENDROOT
BRANCH   1   2
ATOM      2  O   UNL     1       1.626  -3.531   2.290  1.00  0.00    -0.462 OA
BRANCH   2   3
ATOM      3  C   UNL     1       1.925  -4.580   3.088  1.00  0.00     0.306 C 
ATOM      4  O   UNL     1       2.964  -4.692   3.726  1.00  0.00    -0.252 OA
BRANCH   3   5
ATOM      5  C   UNL     1       0.859  -5.652   3.059  1.00  0.00     0.131 C 
BRANCH   5   6
ATOM      6  C   UNL     1      -0.538  -5.160   3.432  1.00  0.00     0.091 C 
BRANCH   6   7
ATOM      7  C   UNL     1      -1.284  -4.610   2.271  1.00  0.00     0.154 A 
ATOM      8  C   UNL     1      -1.857  -2.405  -0.361  1.00  0.00     0.081 A 
ATOM      9  C   UNL     1      -2.674  -2.632  -1.407  1.00  0.00     0.049 A 
ATOM     10  N   UNL     1      -1.801  -3.373   0.658  1.00  0.00    -0.196 N 
ATOM     11  C   UNL     1      -3.448  -3.900  -1.372  1.00  0.00     0.117 A 
ATOM     12  C   UNL     1      -2.529  -4.571   0.571  1.00  0.00     0.252 A 
ATOM     13  N   UNL     1      -1.078  -3.381   1.799  1.00  0.00    -0.149 NA
ATOM     14  N   UNL     1      -3.390  -4.816  -0.460  1.00  0.00    -0.220 NA
ATOM     15  N   UNL     1      -2.181  -5.359   1.565  1.00  0.00    -0.194 NA
BRANCH   8  16
ATOM     16  C   UNL     1      -1.019  -1.249  -0.310  1.00  0.00     0.041 A 
ATOM     17  C   UNL     1      -2.682   0.715   0.184  1.00  0.00     0.069 C 
ATOM     18  C   UNL     1      -1.356   0.109  -0.086  1.00  0.00     0.069 A 
ATOM     19  N   UNL     1      -0.272   0.896  -0.146  1.00  0.00    -0.178 NA
ATOM     20  N   UNL     1       0.745   0.041  -0.350  1.00  0.00    -0.275 N 
ATOM     21  C   UNL     1       0.345  -1.253  -0.495  1.00  0.00     0.119 A 
ATOM     22  C   UNL     1       2.096   0.546  -0.390  1.00  0.00     0.173 C 
ENDBRANCH   8  16
ENDBRANCH   6   7
ENDBRANCH   5   6
ENDBRANCH   3   5
ENDBRANCH   2   3
ENDBRANCH   1   2
BRANCH   1  23
ATOM     23  C   UNL     1       1.932  -1.290   3.221  1.00  0.00     0.275 C 
BRANCH  23  24
ATOM     24  O   UNL     1       2.282  -1.567   4.588  1.00  0.00    -0.458 OA
BRANCH  24  25
ATOM     25  C   UNL     1       1.300  -2.105   5.346  1.00  0.00     0.338 C 
ATOM     26  O   UNL     1       0.123  -2.227   5.066  1.00  0.00    -0.246 OA
BRANCH  25  27
ATOM     27  C   UNL     1       1.914  -2.701   6.539  1.00  0.00     0.060 A 
ATOM     28  C   UNL     1       1.811  -4.085   6.706  1.00  0.00     0.016 A 
ATOM     29  C   UNL     1       2.558  -1.909   7.491  1.00  0.00     0.016 A 
ATOM     30  C   UNL     1       2.356  -4.689   7.832  1.00  0.00     0.010 A 
ATOM     31  C   UNL     1       3.103  -2.517   8.624  1.00  0.00     0.010 A 
ATOM     32  C   UNL     1       2.992  -3.907   8.804  1.00  0.00    -0.014 A 
BRANCH  32  33
ATOM     33  C   UNL     1       3.479  -4.552  10.043  1.00  0.00     0.031 A 
ATOM     34  C   UNL     1       2.688  -4.405  11.309  1.00  0.00     0.074 A 
ATOM     35  C   UNL     1       4.601  -5.294  10.011  1.00  0.00     0.049 A 
ATOM     36  N   UNL     1       2.937  -4.881  12.500  1.00  0.00    -0.248 NA
ATOM     37  C   UNL     1       1.449  -3.615  11.222  1.00  0.00     0.031 C 
ATOM     38  C   UNL     1       5.426  -5.525   8.824  1.00  0.00     0.029 A 
ATOM     39  N   UNL     1       5.235  -5.996  11.003  1.00  0.00    -0.354 N 
ATOM     40  C   UNL     1       1.894  -4.444  13.308  1.00  0.00     0.074 A 
ATOM     41  C   UNL     1       1.025  -3.638  12.477  1.00  0.00     0.031 C 
ATOM     42  C   UNL     1       6.454  -6.323   9.156  1.00  0.00     0.029 A 
ATOM     43  C   UNL     1       6.377  -6.632  10.582  1.00  0.00     0.049 A 
ATOM     44  H   UNL     1       4.903  -6.040  11.929  1.00  0.00     0.167 HD
ATOM     45  C   UNL     1       1.680  -4.700  14.621  1.00  0.00     0.037 A 
ATOM     46  C   UNL     1       7.265  -7.372  11.274  1.00  0.00     0.037 A 
ATOM     47  C   UNL     1       2.556  -5.504  15.434  1.00  0.00     0.049 A 
ATOM     48  C   UNL     1       7.024  -7.611  12.740  1.00  0.00     0.074 A 
ATOM     49  C   UNL     1       2.436  -5.826  16.775  1.00  0.00     0.029 A 
ATOM     50  N   UNL     1       3.719  -6.113  14.981  1.00  0.00    -0.354 N 
ATOM     51  N   UNL     1       6.034  -7.191  13.493  1.00  0.00    -0.248 NA
ATOM     52  C   UNL     1       8.016  -8.428  13.448  1.00  0.00     0.031 C 
ATOM     53  C   UNL     1       3.546  -6.598  17.140  1.00  0.00     0.029 A 
ATOM     54  C   UNL     1       4.333  -6.797  16.017  1.00  0.00     0.049 A 
ATOM     55  H   UNL     1       4.057  -6.065  14.058  1.00  0.00     0.167 HD
ATOM     56  C   UNL     1       6.273  -7.711  14.760  1.00  0.00     0.074 A 
ATOM     57  C   UNL     1       7.492  -8.490  14.665  1.00  0.00     0.031 C 
ATOM     58  C   UNL     1       5.551  -7.560  15.899  1.00  0.00     0.037 A 
BRANCH  45  59
ATOM     59  C   UNL     1       0.467  -4.078  15.256  1.00  0.00     0.058 A 
ATOM     60  C   UNL     1      -0.833  -4.520  14.958  1.00  0.00     0.135 A 
ATOM     61  C   UNL     1       0.604  -3.027  16.176  1.00  0.00     0.135 A 
ATOM     62  F   UNL     1      -1.025  -5.508  14.070  1.00  0.00    -0.206 F 
ATOM     63  C   UNL     1      -1.954  -3.920  15.526  1.00  0.00     0.059 A 
ATOM     64  C   UNL     1      -0.501  -2.430  16.776  1.00  0.00     0.059 A 
ATOM     65  F   UNL     1       1.823  -2.562  16.495  1.00  0.00    -0.206 F 
ATOM     66  C   UNL     1      -1.777  -2.872  16.430  1.00  0.00     0.060 A 
BRANCH  66  67
ATOM     67  S   UNL     1      -3.239  -2.095  17.151  1.00  0.00     0.124 S 
ATOM     68  O   UNL     1      -3.736  -1.310  16.024  1.00  0.00    -0.237 OA
ATOM     69  O   UNL     1      -4.053  -3.245  17.528  1.00  0.00    -0.237 OA
ATOM     70  O   UNL     1      -2.699  -1.321  18.264  1.00  0.00    -0.744 OA
ENDBRANCH  66  67
ENDBRANCH  45  59
BRANCH  46  71
ATOM     71  C   UNL     1       8.452  -7.942  10.585  1.00  0.00     0.058 A 
ATOM     72  C   UNL     1       8.564  -9.322  10.357  1.00  0.00     0.135 A 
ATOM     73  C   UNL     1       9.490  -7.118  10.124  1.00  0.00     0.135 A 
ATOM     74  F   UNL     1       7.602 -10.152  10.787  1.00  0.00    -0.206 F 
ATOM     75  C   UNL     1       9.666  -9.866   9.706  1.00  0.00     0.059 A 
ATOM     76  C   UNL     1      10.591  -7.635   9.448  1.00  0.00     0.059 A 
ATOM     77  F   UNL     1       9.426  -5.790  10.306  1.00  0.00    -0.206 F 
ATOM     78  C   UNL     1      10.674  -9.013   9.251  1.00  0.00     0.060 A 
BRANCH  78  79
ATOM     79  S   UNL     1      12.074  -9.722   8.357  1.00  0.00     0.124 S 
ATOM     80  O   UNL     1      12.828 -10.345   9.438  1.00  0.00    -0.237 OA
ATOM     81  O   UNL     1      11.416 -10.635   7.428  1.00  0.00    -0.237 OA
ATOM     82  O   UNL     1      12.701  -8.557   7.739  1.00  0.00    -0.744 OA
ENDBRANCH  78  79
ENDBRANCH  46  71
BRANCH  58  83
ATOM     83  C   UNL     1       6.053  -8.279  17.121  1.00  0.00     0.058 A 
ATOM     84  C   UNL     1       7.204  -7.857  17.805  1.00  0.00     0.135 A 
ATOM     85  C   UNL     1       5.369  -9.401  17.617  1.00  0.00     0.135 A 
ATOM     86  F   UNL     1       7.897  -6.793  17.370  1.00  0.00    -0.206 F 
ATOM     87  C   UNL     1       7.685  -8.549  18.912  1.00  0.00     0.059 A 
ATOM     88  C   UNL     1       5.816 -10.091  18.739  1.00  0.00     0.059 A 
ATOM     89  F   UNL     1       4.255  -9.837  17.009  1.00  0.00    -0.206 F 
ATOM     90  C   UNL     1       6.987  -9.670  19.367  1.00  0.00     0.060 A 
BRANCH  90  91
ATOM     91  S   UNL     1       7.623 -10.567  20.799  1.00  0.00     0.124 S 
ATOM     92  O   UNL     1       8.729 -11.313  20.209  1.00  0.00    -0.237 OA
ATOM     93  O   UNL     1       8.000  -9.487  21.706  1.00  0.00    -0.237 OA
ATOM     94  O   UNL     1       6.482 -11.368  21.230  1.00  0.00    -0.744 OA
ENDBRANCH  90  91
ENDBRANCH  58  83
ENDBRANCH  32  33
ENDBRANCH  25  27
ENDBRANCH  24  25
ENDBRANCH  23  24
ENDBRANCH   1  23
TORSDOF 17
