REMARK SMILES C[NH+]1CCC(C[N@H+](C)[C@H]2CC[C@]([NH3+])(C(=O)OCCOC(=O)c3ccc(-c4c5nc(c(-c6c(F)cc(S(=O)(=O)[O-])cc6F)c6ccc([nH]6)c(-c6c(F)cc(S(=O)(=O)[O-])cc6F)c6nc(c(-c7c(F)cc(S(=O)(=O)[O-])cc7F)c7ccc4[nH]7)C=C6)C=C5)cc3)C2)CC1
REMARK SMILES IDX 17 1 16 2 14 3 15 4 12 5 9 6 10 7 88 8 11 9 7 10 8 11 6 13
REMARK SMILES IDX 5 14 1 15 2 16 3 17 90 18 4 20 89 21 13 22 18 26 19 27 20 28
REMARK SMILES IDX 21 29 22 30 23 31 87 32 24 33 86 34 25 35 26 36 27 37 80 38
REMARK SMILES IDX 28 39 85 40 79 41 81 42 29 43 84 44 78 45 77 46 30 48 64 49
REMARK SMILES IDX 43 50 63 51 44 52 47 53 62 54 82 55 45 56 46 57 61 59 83 60
REMARK SMILES IDX 48 61 31 62 32 63 41 64 33 65 34 66 40 67 42 68 35 69 36 70
REMARK SMILES IDX 37 71 38 72 39 73 65 74 66 75 75 76 67 77 68 78 74 79 76 80
REMARK SMILES IDX 69 81 70 82 71 83 72 84 73 85 49 86 50 87 59 88 51 89 52 90
REMARK SMILES IDX 58 91 60 92 53 93 54 94 55 95 56 96 57 97
REMARK H PARENT 7 12 2 19 13 23 13 24 13 25 81 47 47 58
REMARK Flexibility Score: inf
ROOT
ATOM      1  C   UNL     1       6.329  -7.595   0.861  1.00  0.00     0.274 C 
ENDROOT
BRANCH   1   2
ATOM      2  O   UNL     1       5.681  -6.385   1.284  1.00  0.00    -0.457 OA
BRANCH   2   3
ATOM      3  C   UNL     1       5.553  -5.401   0.333  1.00  0.00     0.368 C 
ATOM      4  O   UNL     1       6.332  -5.209  -0.583  1.00  0.00    -0.245 OA
BRANCH   3   5
ATOM      5  C   UNL     1       4.190  -4.685   0.546  1.00  0.00     0.198 C 
ATOM      6  C   UNL     1       3.236  -2.389   0.284  1.00  0.00     0.191 C 
ATOM      7  C   UNL     1       3.438  -2.671   1.777  1.00  0.00     0.072 C 
ATOM      8  C   UNL     1       3.898  -3.563  -0.473  1.00  0.00     0.145 C 
ATOM      9  C   UNL     1       4.183  -3.991   1.915  1.00  0.00     0.087 C 
BRANCH   6  10
ATOM     10  N   UNL     1       1.853  -1.917   0.012  1.00  0.00    -0.334 N 
ATOM     11  C   UNL     1       1.875  -0.840  -0.992  1.00  0.00     0.332 C 
ATOM     12  H   UNL     1       1.555  -1.618   0.941  1.00  0.00     0.348 HD
BRANCH  10  13
ATOM     13  C   UNL     1       0.823  -2.896  -0.394  1.00  0.00     0.266 C 
BRANCH  13  14
ATOM     14  C   UNL     1       0.486  -4.007   0.604  1.00  0.00     0.055 C 
ATOM     15  C   UNL     1      -0.517  -7.266   3.041  1.00  0.00     0.332 C 
ATOM     16  N   UNL     1      -0.787  -6.090   2.204  1.00  0.00    -0.337 N 
ATOM     17  C   UNL     1      -0.333  -6.368   0.835  1.00  0.00     0.262 C 
ATOM     18  C   UNL     1      -0.202  -4.883   2.811  1.00  0.00     0.262 C 
ATOM     19  H   UNL     1      -1.787  -5.899   2.147  1.00  0.00     0.347 HD
ATOM     20  C   UNL     1      -0.311  -5.134  -0.065  1.00  0.00     0.071 C 
ATOM     21  C   UNL     1      -0.244  -3.643   1.893  1.00  0.00     0.071 C 
ENDBRANCH  13  14
ENDBRANCH  10  13
ENDBRANCH   6  10
BRANCH   5  22
ATOM     22  N   UNL     1       3.187  -5.752   0.449  1.00  0.00    -0.343 N 
ATOM     23  H   UNL     1       2.256  -5.356   0.579  1.00  0.00     0.345 HD
ATOM     24  H   UNL     1       3.363  -6.451   1.170  1.00  0.00     0.345 HD
ATOM     25  H   UNL     1       3.244  -6.190  -0.471  1.00  0.00     0.345 HD
ENDBRANCH   5  22
ENDBRANCH   3   5
ENDBRANCH   2   3
ENDBRANCH   1   2
BRANCH   1  26
ATOM     26  C   UNL     1       5.282  -8.714   0.825  1.00  0.00     0.275 C 
BRANCH  26  27
ATOM     27  O   UNL     1       4.370  -8.505  -0.272  1.00  0.00    -0.458 OA
BRANCH  27  28
ATOM     28  C   UNL     1       3.119  -8.992  -0.073  1.00  0.00     0.338 C 
ATOM     29  O   UNL     1       2.740  -9.622   0.906  1.00  0.00    -0.246 OA
BRANCH  28  30
ATOM     30  C   UNL     1       2.223  -8.694  -1.221  1.00  0.00     0.060 A 
ATOM     31  C   UNL     1       2.358  -7.539  -1.994  1.00  0.00     0.016 A 
ATOM     32  C   UNL     1       1.162  -9.566  -1.482  1.00  0.00     0.016 A 
ATOM     33  C   UNL     1       1.396  -7.218  -2.959  1.00  0.00     0.010 A 
ATOM     34  C   UNL     1       0.272  -9.300  -2.530  1.00  0.00     0.010 A 
ATOM     35  C   UNL     1       0.365  -8.115  -3.279  1.00  0.00    -0.014 A 
BRANCH  35  36
ATOM     36  C   UNL     1      -0.582  -7.878  -4.414  1.00  0.00     0.031 A 
ATOM     37  C   UNL     1      -2.073  -8.002  -4.213  1.00  0.00     0.074 A 
ATOM     38  C   UNL     1      -0.114  -7.646  -5.659  1.00  0.00     0.049 A 
ATOM     39  N   UNL     1      -3.019  -8.179  -5.101  1.00  0.00    -0.248 NA
ATOM     40  C   UNL     1      -2.559  -7.936  -2.826  1.00  0.00     0.031 C 
ATOM     41  C   UNL     1       1.293  -7.463  -6.023  1.00  0.00     0.029 A 
ATOM     42  N   UNL     1      -0.775  -7.559  -6.863  1.00  0.00    -0.354 N 
ATOM     43  C   UNL     1      -4.203  -8.308  -4.381  1.00  0.00     0.074 A 
ATOM     44  C   UNL     1      -3.854  -8.181  -2.980  1.00  0.00     0.031 C 
ATOM     45  C   UNL     1       1.390  -7.282  -7.346  1.00  0.00     0.029 A 
ATOM     46  C   UNL     1       0.070  -7.445  -7.942  1.00  0.00     0.049 A 
ATOM     47  H   UNL     1      -1.756  -7.576  -6.944  1.00  0.00     0.167 HD
ATOM     48  C   UNL     1      -5.460  -8.524  -4.845  1.00  0.00     0.037 A 
ATOM     49  C   UNL     1      -0.158  -7.538  -9.267  1.00  0.00     0.037 A 
ATOM     50  C   UNL     1      -5.808  -8.604  -6.242  1.00  0.00     0.049 A 
ATOM     51  C   UNL     1      -1.544  -7.813  -9.765  1.00  0.00     0.074 A 
ATOM     52  C   UNL     1      -7.055  -8.809  -6.810  1.00  0.00     0.029 A 
ATOM     53  N   UNL     1      -4.912  -8.470  -7.293  1.00  0.00    -0.354 N 
ATOM     54  N   UNL     1      -2.640  -8.009  -9.073  1.00  0.00    -0.248 NA
ATOM     55  C   UNL     1      -1.724  -7.896 -11.221  1.00  0.00     0.031 C 
ATOM     56  C   UNL     1      -6.909  -8.827  -8.202  1.00  0.00     0.029 A 
ATOM     57  C   UNL     1      -5.577  -8.592  -8.503  1.00  0.00     0.049 A 
ATOM     58  H   UNL     1      -3.946  -8.311  -7.194  1.00  0.00     0.167 HD
ATOM     59  C   UNL     1      -3.644  -8.228 -10.009  1.00  0.00     0.074 A 
ATOM     60  C   UNL     1      -3.027  -8.130 -11.317  1.00  0.00     0.031 C 
ATOM     61  C   UNL     1      -4.957  -8.488  -9.800  1.00  0.00     0.037 A 
BRANCH  48  62
ATOM     62  C   UNL     1      -6.557  -8.723  -3.833  1.00  0.00     0.058 A 
ATOM     63  C   UNL     1      -7.074  -7.663  -3.074  1.00  0.00     0.135 A 
ATOM     64  C   UNL     1      -7.130  -9.994  -3.653  1.00  0.00     0.135 A 
ATOM     65  F   UNL     1      -6.558  -6.429  -3.198  1.00  0.00    -0.206 F 
ATOM     66  C   UNL     1      -8.098  -7.859  -2.151  1.00  0.00     0.059 A 
ATOM     67  C   UNL     1      -8.171 -10.209  -2.754  1.00  0.00     0.059 A 
ATOM     68  F   UNL     1      -6.679 -11.045  -4.357  1.00  0.00    -0.206 F 
ATOM     69  C   UNL     1      -8.637  -9.137  -1.995  1.00  0.00     0.060 A 
BRANCH  69  70
ATOM     70  S   UNL     1      -9.963  -9.382  -0.792  1.00  0.00     0.124 S 
ATOM     71  O   UNL     1      -9.220  -9.371   0.464  1.00  0.00    -0.237 OA
ATOM     72  O   UNL     1     -10.822  -8.226  -1.030  1.00  0.00    -0.237 OA
ATOM     73  O   UNL     1     -10.533 -10.671  -1.173  1.00  0.00    -0.744 OA
ENDBRANCH  69  70
ENDBRANCH  48  62
BRANCH  49  74
ATOM     74  C   UNL     1       0.990  -7.431 -10.206  1.00  0.00     0.058 A 
ATOM     75  C   UNL     1       1.181  -6.282 -10.983  1.00  0.00     0.135 A 
ATOM     76  C   UNL     1       1.959  -8.446 -10.282  1.00  0.00     0.135 A 
ATOM     77  F   UNL     1       0.276  -5.293 -10.952  1.00  0.00    -0.206 F 
ATOM     78  C   UNL     1       2.300  -6.133 -11.796  1.00  0.00     0.059 A 
ATOM     79  C   UNL     1       3.099  -8.309 -11.066  1.00  0.00     0.059 A 
ATOM     80  F   UNL     1       1.827  -9.559  -9.543  1.00  0.00    -0.206 F 
ATOM     81  C   UNL     1       3.260  -7.148 -11.820  1.00  0.00     0.060 A 
BRANCH  81  82
ATOM     82  S   UNL     1       4.763  -6.901 -12.791  1.00  0.00     0.124 S 
ATOM     83  O   UNL     1       4.283  -7.159 -14.144  1.00  0.00    -0.237 OA
ATOM     84  O   UNL     1       5.103  -5.514 -12.488  1.00  0.00    -0.237 OA
ATOM     85  O   UNL     1       5.681  -7.896 -12.244  1.00  0.00    -0.744 OA
ENDBRANCH  81  82
ENDBRANCH  49  74
BRANCH  61  86
ATOM     86  C   UNL     1      -5.830  -8.643 -11.012  1.00  0.00     0.058 A 
ATOM     87  C   UNL     1      -5.817  -9.814 -11.785  1.00  0.00     0.135 A 
ATOM     88  C   UNL     1      -6.723  -7.623 -11.378  1.00  0.00     0.135 A 
ATOM     89  F   UNL     1      -4.974 -10.814 -11.484  1.00  0.00    -0.206 F 
ATOM     90  C   UNL     1      -6.651  -9.963 -12.889  1.00  0.00     0.059 A 
ATOM     91  C   UNL     1      -7.579  -7.758 -12.466  1.00  0.00     0.059 A 
ATOM     92  F   UNL     1      -6.776  -6.485 -10.667  1.00  0.00    -0.206 F 
ATOM     93  C   UNL     1      -7.529  -8.929 -13.221  1.00  0.00     0.060 A 
BRANCH  93  94
ATOM     94  S   UNL     1      -8.633  -9.146 -14.634  1.00  0.00     0.124 S 
ATOM     95  O   UNL     1      -7.720  -8.945 -15.754  1.00  0.00    -0.237 OA
ATOM     96  O   UNL     1      -9.117 -10.511 -14.448  1.00  0.00    -0.237 OA
ATOM     97  O   UNL     1      -9.635  -8.102 -14.445  1.00  0.00    -0.744 OA
ENDBRANCH  93  94
ENDBRANCH  61  86
ENDBRANCH  35  36
ENDBRANCH  28  30
ENDBRANCH  27  28
ENDBRANCH  26  27
ENDBRANCH   1  26
TORSDOF 18
