REMARK SMILES O=C(OCCOC(=O)[C@@H]1C[NH2+]CCN1C(=O)N[C@@H]1CCOC1)c1ccc(-c2c3nc(c(-c4c(F)cc(S(=O)(=O)[O-])cc4F)c4ccc([nH]4)c(-c4c(F)cc(S(=O)(=O)[O-])cc4F)c4nc(c(-c5c(F)cc(S(=O)(=O)[O-])cc5F)c5ccc2[nH]5)C=C4)C=C3)cc1
REMARK SMILES IDX 4 1 3 2 2 3 1 4 23 5 24 6 88 7 25 8 87 9 26 10 27 11 28 12
REMARK SMILES IDX 81 13 29 14 86 15 80 16 82 17 30 18 85 19 79 20 78 21 31 23
REMARK SMILES IDX 65 24 44 25 64 26 45 27 48 28 63 29 83 30 46 31 47 32 62 34
REMARK SMILES IDX 84 35 49 36 32 37 33 38 42 39 34 40 35 41 41 42 43 43 36 44
REMARK SMILES IDX 37 45 38 46 39 47 40 48 66 49 67 50 76 51 68 52 69 53 75 54
REMARK SMILES IDX 77 55 70 56 71 57 72 58 73 59 74 60 50 61 51 62 60 63 52 64
REMARK SMILES IDX 53 65 59 66 61 67 54 68 55 69 56 70 57 71 58 72 5 73 6 74
REMARK SMILES IDX 7 75 8 76 9 77 10 78 14 79 11 80 13 81 12 82 15 85 16 86
REMARK SMILES IDX 17 87 18 89 19 90 22 91 20 92 21 93
REMARK H PARENT 82 22 48 33 11 83 11 84 17 88
REMARK Flexibility Score: inf
ROOT
ATOM      1  C   UNL     1       2.662   0.031   2.005  1.00  0.00     0.275 C 
ENDROOT
BRANCH   1   2
ATOM      2  O   UNL     1       1.793   0.890   1.255  1.00  0.00    -0.458 OA
BRANCH   2   3
ATOM      3  C   UNL     1       1.465   0.859  -0.051  1.00  0.00     0.338 C 
ATOM      4  O   UNL     1       0.371   1.300  -0.393  1.00  0.00    -0.246 OA
BRANCH   3   5
ATOM      5  C   UNL     1       2.350   0.393  -1.152  1.00  0.00     0.060 A 
ATOM      6  C   UNL     1       3.442  -1.083  -1.203  1.00  0.00     0.016 A 
ATOM      7  C   UNL     1       2.111   1.303  -2.687  1.00  0.00     0.016 A 
ATOM      8  C   UNL     1       4.365  -1.532  -2.744  1.00  0.00     0.010 A 
ATOM      9  C   UNL     1       3.039   0.882  -4.181  1.00  0.00     0.010 A 
ATOM     10  C   UNL     1       4.194  -0.521  -4.216  1.00  0.00    -0.014 A 
BRANCH  10  11
ATOM     11  C   UNL     1       5.078  -0.846  -5.400  1.00  0.00     0.031 A 
ATOM     12  C   UNL     1       5.755   0.256  -6.191  1.00  0.00     0.074 A 
ATOM     13  C   UNL     1       5.355  -2.136  -5.721  1.00  0.00     0.049 A 
ATOM     14  N   UNL     1       6.415   0.186  -7.322  1.00  0.00    -0.248 NA
ATOM     15  C   UNL     1       5.757   1.603  -5.607  1.00  0.00     0.031 C 
ATOM     16  C   UNL     1       4.993  -3.326  -4.945  1.00  0.00     0.029 A 
ATOM     17  N   UNL     1       5.987  -2.697  -6.812  1.00  0.00    -0.354 N 
ATOM     18  C   UNL     1       6.907   1.469  -7.565  1.00  0.00     0.074 A 
ATOM     19  C   UNL     1       6.433   2.311  -6.498  1.00  0.00     0.031 C 
ATOM     20  C   UNL     1       5.328  -4.446  -5.581  1.00  0.00     0.029 A 
ATOM     21  C   UNL     1       5.873  -4.077  -6.857  1.00  0.00     0.049 A 
ATOM     22  H   UNL     1       6.469  -2.171  -7.489  1.00  0.00     0.167 HD
ATOM     23  C   UNL     1       7.710   1.896  -8.571  1.00  0.00     0.037 A 
ATOM     24  C   UNL     1       6.108  -4.978  -7.823  1.00  0.00     0.037 A 
ATOM     25  C   UNL     1       8.185   1.020  -9.610  1.00  0.00     0.049 A 
ATOM     26  C   UNL     1       6.782  -4.465  -9.043  1.00  0.00     0.074 A 
ATOM     27  C   UNL     1       8.938   1.324 -10.728  1.00  0.00     0.029 A 
ATOM     28  N   UNL     1       7.938  -0.348  -9.649  1.00  0.00    -0.354 N 
ATOM     29  N   UNL     1       7.146  -3.232  -9.300  1.00  0.00    -0.248 NA
ATOM     30  C   UNL     1       7.133  -5.444 -10.071  1.00  0.00     0.031 C 
ATOM     31  C   UNL     1       9.070   0.156 -11.486  1.00  0.00     0.029 A 
ATOM     32  C   UNL     1       8.479  -0.894 -10.797  1.00  0.00     0.049 A 
ATOM     33  H   UNL     1       7.450  -0.853  -8.959  1.00  0.00     0.167 HD
ATOM     34  C   UNL     1       7.830  -3.290 -10.496  1.00  0.00     0.074 A 
ATOM     35  C   UNL     1       7.819  -4.683 -10.912  1.00  0.00     0.031 C 
ATOM     36  C   UNL     1       8.432  -2.286 -11.175  1.00  0.00     0.037 A 
BRANCH  23  37
ATOM     37  C   UNL     1       8.033   3.369  -8.631  1.00  0.00     0.058 A 
ATOM     38  C   UNL     1       8.852   4.012  -7.686  1.00  0.00     0.135 A 
ATOM     39  C   UNL     1       7.464   4.167  -9.639  1.00  0.00     0.135 A 
ATOM     40  F   UNL     1       9.405   3.312  -6.682  1.00  0.00    -0.206 F 
ATOM     41  C   UNL     1       9.062   5.390  -7.715  1.00  0.00     0.059 A 
ATOM     42  C   UNL     1       7.686   5.540  -9.707  1.00  0.00     0.059 A 
ATOM     43  F   UNL     1       6.664   3.616 -10.565  1.00  0.00    -0.206 F 
ATOM     44  C   UNL     1       8.475   6.146  -8.732  1.00  0.00     0.060 A 
BRANCH  44  45
ATOM     45  S   UNL     1       8.766   7.928  -8.767  1.00  0.00     0.124 S 
ATOM     46  O   UNL     1       8.024   8.374  -7.592  1.00  0.00    -0.237 OA
ATOM     47  O   UNL     1      10.220   8.006  -8.665  1.00  0.00    -0.237 OA
ATOM     48  O   UNL     1       8.209   8.341 -10.052  1.00  0.00    -0.744 OA
ENDBRANCH  44  45
ENDBRANCH  23  37
BRANCH  24  49
ATOM     49  C   UNL     1       5.703  -6.406  -7.652  1.00  0.00     0.058 A 
ATOM     50  C   UNL     1       6.651  -7.428  -7.516  1.00  0.00     0.135 A 
ATOM     51  C   UNL     1       4.344  -6.772  -7.583  1.00  0.00     0.135 A 
ATOM     52  F   UNL     1       7.959  -7.136  -7.549  1.00  0.00    -0.206 F 
ATOM     53  C   UNL     1       6.274  -8.761  -7.362  1.00  0.00     0.059 A 
ATOM     54  C   UNL     1       3.942  -8.095  -7.402  1.00  0.00     0.059 A 
ATOM     55  F   UNL     1       3.389  -5.833  -7.666  1.00  0.00    -0.206 F 
ATOM     56  C   UNL     1       4.916  -9.086  -7.311  1.00  0.00     0.060 A 
BRANCH  56  57
ATOM     57  S   UNL     1       4.450 -10.823  -7.123  1.00  0.00     0.124 S 
ATOM     58  O   UNL     1       4.921 -11.392  -8.381  1.00  0.00    -0.237 OA
ATOM     59  O   UNL     1       5.194 -11.211  -5.930  1.00  0.00    -0.237 OA
ATOM     60  O   UNL     1       3.000 -10.771  -6.962  1.00  0.00    -0.744 OA
ENDBRANCH  56  57
ENDBRANCH  24  49
BRANCH  36  61
ATOM     61  C   UNL     1       9.146  -2.678 -12.425  1.00  0.00     0.058 A 
ATOM     62  C   UNL     1       8.445  -3.079 -13.570  1.00  0.00     0.135 A 
ATOM     63  C   UNL     1      10.544  -2.589 -12.486  1.00  0.00     0.135 A 
ATOM     64  F   UNL     1       7.108  -3.198 -13.543  1.00  0.00    -0.206 F 
ATOM     65  C   UNL     1       9.115  -3.396 -14.740  1.00  0.00     0.059 A 
ATOM     66  C   UNL     1      11.229  -2.856 -13.659  1.00  0.00     0.059 A 
ATOM     67  F   UNL     1      11.249  -2.210 -11.407  1.00  0.00    -0.206 F 
ATOM     68  C   UNL     1      10.505  -3.265 -14.778  1.00  0.00     0.060 A 
BRANCH  68  69
ATOM     69  S   UNL     1      11.347  -3.600 -16.332  1.00  0.00     0.124 S 
ATOM     70  O   UNL     1      11.196  -5.047 -16.441  1.00  0.00    -0.237 OA
ATOM     71  O   UNL     1      10.570  -2.807 -17.279  1.00  0.00    -0.237 OA
ATOM     72  O   UNL     1      12.707  -3.127 -16.091  1.00  0.00    -0.744 OA
ENDBRANCH  68  69
ENDBRANCH  36  61
ENDBRANCH  10  11
ENDBRANCH   3   5
ENDBRANCH   2   3
ENDBRANCH   1   2
BRANCH   1  73
ATOM     73  C   UNL     1       2.276  -1.457   1.954  1.00  0.00     0.274 C 
BRANCH  73  74
ATOM     74  O   UNL     1       2.132  -1.913   0.597  1.00  0.00    -0.460 OA
BRANCH  74  75
ATOM     75  C   UNL     1       1.074  -2.055  -0.233  1.00  0.00     0.334 C 
ATOM     76  O   UNL     1      -0.021  -2.408   0.181  1.00  0.00    -0.250 OA
BRANCH  75  77
ATOM     77  C   UNL     1       1.481  -1.887  -1.874  1.00  0.00     0.252 C 
ATOM     78  C   UNL     1       1.710  -3.320  -2.431  1.00  0.00     0.298 C 
ATOM     79  N   UNL     1       2.522  -0.744  -2.856  1.00  0.00    -0.300 N 
ATOM     80  N   UNL     1       1.174  -3.525  -3.778  1.00  0.00    -0.343 N 
ATOM     81  C   UNL     1       1.679  -1.049  -4.322  1.00  0.00     0.183 C 
ATOM     82  C   UNL     1       1.697  -2.549  -4.732  1.00  0.00     0.282 C 
ATOM     83  H   UNL     1       0.158  -3.440  -3.744  1.00  0.00     0.346 HD
ATOM     84  H   UNL     1       1.457  -4.453  -4.091  1.00  0.00     0.346 HD
BRANCH  79  85
ATOM     85  C   UNL     1       4.029   0.443  -2.353  1.00  0.00     0.318 C 
ATOM     86  O   UNL     1       4.440   1.602  -2.694  1.00  0.00    -0.249 OA
ATOM     87  N   UNL     1       5.223   0.064  -1.305  1.00  0.00    -0.333 N 
ATOM     88  H   UNL     1       5.979   0.668  -1.486  1.00  0.00     0.165 HD
BRANCH  87  89
ATOM     89  C   UNL     1       5.650  -0.894  -0.106  1.00  0.00     0.112 C 
ATOM     90  C   UNL     1       7.080  -0.688   0.349  1.00  0.00     0.056 C 
ATOM     91  C   UNL     1       5.608  -2.469  -0.098  1.00  0.00     0.185 C 
ATOM     92  C   UNL     1       7.805  -2.005   0.087  1.00  0.00     0.162 C 
ATOM     93  O   UNL     1       6.887  -2.922  -0.486  1.00  0.00    -0.379 OA
ENDBRANCH  87  89
ENDBRANCH  79  85
ENDBRANCH  75  77
ENDBRANCH  74  75
ENDBRANCH  73  74
ENDBRANCH   1  73
TORSDOF 16
