REMARK SMILES C[NH2+][C@@]1(C(=O)OCCOC(=O)c2ccc(-c3c4nc(c(-c5c(F)cc(S(=O)(=O)[O-])cc5F)c5ccc([nH]5)c(-c5c(F)cc(S(=O)(=O)[O-])cc5F)c5nc(c(-c6c(F)cc(S(=O)(=O)[O-])cc6F)c6ccc3[nH]6)C=C5)C=C4)cc2)CC[C@H]([NH+]2CC[NH+](C)CC2)C1
REMARK SMILES IDX 8 1 7 2 6 3 4 4 5 5 3 6 78 7 88 8 79 9 80 10 2 11 1 12 81 15
REMARK SMILES IDX 82 16 87 17 83 19 86 20 84 21 85 22 9 24 10 25 11 26 12 27
REMARK SMILES IDX 13 28 77 29 14 30 76 31 15 32 16 33 17 34 70 35 18 36 75 37
REMARK SMILES IDX 69 38 71 39 19 40 74 41 68 42 67 43 20 45 54 46 33 47 53 48
REMARK SMILES IDX 34 49 37 50 52 51 72 52 35 53 36 54 51 56 73 57 38 58 21 59
REMARK SMILES IDX 22 60 31 61 23 62 24 63 30 64 32 65 25 66 26 67 27 68 28 69
REMARK SMILES IDX 29 70 55 71 56 72 65 73 57 74 58 75 64 76 66 77 59 78 60 79
REMARK SMILES IDX 61 80 62 81 63 82 39 83 40 84 49 85 41 86 42 87 48 88 50 89
REMARK SMILES IDX 43 90 44 91 45 92 46 93 47 94
REMARK H PARENT 2 13 2 14 81 18 84 23 71 44 37 55
REMARK Flexibility Score: inf
ROOT
ATOM      1  C   UNL     1      -1.874   0.392   3.428  1.00  0.00     0.275 C 
ENDROOT
BRANCH   1   2
ATOM      2  C   UNL     1      -2.014   1.518   2.405  1.00  0.00     0.274 C 
BRANCH   2   3
ATOM      3  O   UNL     1      -1.798   0.997   1.073  1.00  0.00    -0.457 OA
BRANCH   3   4
ATOM      4  C   UNL     1      -1.271   1.862   0.164  1.00  0.00     0.368 C 
ATOM      5  O   UNL     1      -0.904   2.998   0.449  1.00  0.00    -0.245 OA
BRANCH   4   6
ATOM      6  C   UNL     1      -1.131   1.255  -1.273  1.00  0.00     0.200 C 
ATOM      7  C   UNL     1      -1.658   2.295  -2.278  1.00  0.00     0.087 C 
ATOM      8  C   UNL     1      -2.055   0.046  -1.541  1.00  0.00     0.146 C 
ATOM      9  C   UNL     1      -3.167   2.140  -2.190  1.00  0.00     0.072 C 
ATOM     10  C   UNL     1      -3.386   0.625  -2.084  1.00  0.00     0.191 C 
BRANCH   6  11
ATOM     11  N   UNL     1       0.305   1.072  -1.577  1.00  0.00    -0.334 N 
ATOM     12  C   UNL     1       0.835  -0.263  -1.373  1.00  0.00     0.331 C 
ATOM     13  H   UNL     1       0.451   1.319  -2.556  1.00  0.00     0.347 HD
ATOM     14  H   UNL     1       0.804   1.669  -0.918  1.00  0.00     0.347 HD
ENDBRANCH   6  11
BRANCH  10  15
ATOM     15  N   UNL     1      -4.625   0.102  -1.496  1.00  0.00    -0.323 N 
ATOM     16  C   UNL     1      -5.855   0.640  -2.105  1.00  0.00     0.324 C 
ATOM     17  C   UNL     1      -4.773   0.138  -0.036  1.00  0.00     0.324 C 
ATOM     18  H   UNL     1      -4.505  -0.882  -1.735  1.00  0.00     0.348 HD
ATOM     19  C   UNL     1      -6.335   2.003  -1.548  1.00  0.00     0.324 C 
ATOM     20  C   UNL     1      -5.182   1.503   0.551  1.00  0.00     0.324 C 
ATOM     21  N   UNL     1      -6.379   2.090  -0.075  1.00  0.00    -0.328 N 
ATOM     22  C   UNL     1      -6.535   3.482   0.348  1.00  0.00     0.333 C 
ATOM     23  H   UNL     1      -7.185   1.548   0.235  1.00  0.00     0.348 HD
ENDBRANCH  10  15
ENDBRANCH   4   6
ENDBRANCH   3   4
ENDBRANCH   2   3
ENDBRANCH   1   2
BRANCH   1  24
ATOM     24  O   UNL     1      -0.470   0.143   3.588  1.00  0.00    -0.458 OA
BRANCH  24  25
ATOM     25  C   UNL     1       0.011  -0.943   2.950  1.00  0.00     0.338 C 
ATOM     26  O   UNL     1      -0.608  -1.901   2.520  1.00  0.00    -0.246 OA
BRANCH  25  27
ATOM     27  C   UNL     1       1.435  -0.695   2.699  1.00  0.00     0.060 A 
ATOM     28  C   UNL     1       1.771   0.320   1.799  1.00  0.00     0.016 A 
ATOM     29  C   UNL     1       2.417  -1.503   3.261  1.00  0.00     0.016 A 
ATOM     30  C   UNL     1       3.087   0.472   1.385  1.00  0.00     0.010 A 
ATOM     31  C   UNL     1       3.752  -1.281   2.914  1.00  0.00     0.010 A 
ATOM     32  C   UNL     1       4.098  -0.316   1.947  1.00  0.00    -0.014 A 
BRANCH  32  33
ATOM     33  C   UNL     1       5.506  -0.178   1.491  1.00  0.00     0.031 A 
ATOM     34  C   UNL     1       6.223  -1.377   0.932  1.00  0.00     0.074 A 
ATOM     35  C   UNL     1       6.146   1.005   1.570  1.00  0.00     0.049 A 
ATOM     36  N   UNL     1       7.503  -1.565   0.753  1.00  0.00    -0.248 NA
ATOM     37  C   UNL     1       5.386  -2.525   0.546  1.00  0.00     0.031 C 
ATOM     38  C   UNL     1       5.556   2.267   2.021  1.00  0.00     0.029 A 
ATOM     39  N   UNL     1       7.444   1.337   1.270  1.00  0.00    -0.354 N 
ATOM     40  C   UNL     1       7.634  -2.878   0.317  1.00  0.00     0.074 A 
ATOM     41  C   UNL     1       6.300  -3.433   0.231  1.00  0.00     0.031 C 
ATOM     42  C   UNL     1       6.477   3.240   1.939  1.00  0.00     0.029 A 
ATOM     43  C   UNL     1       7.747   2.654   1.526  1.00  0.00     0.049 A 
ATOM     44  H   UNL     1       8.096   0.695   0.907  1.00  0.00     0.167 HD
ATOM     45  C   UNL     1       8.770  -3.559   0.034  1.00  0.00     0.037 A 
ATOM     46  C   UNL     1       8.924   3.306   1.491  1.00  0.00     0.037 A 
ATOM     47  C   UNL     1      10.084  -2.969   0.052  1.00  0.00     0.049 A 
ATOM     48  C   UNL     1      10.171   2.540   1.158  1.00  0.00     0.074 A 
ATOM     49  C   UNL     1      11.304  -3.568  -0.206  1.00  0.00     0.029 A 
ATOM     50  N   UNL     1      10.342  -1.631   0.314  1.00  0.00    -0.354 N 
ATOM     51  N   UNL     1      10.301   1.266   0.872  1.00  0.00    -0.248 NA
ATOM     52  C   UNL     1      11.434   3.289   1.174  1.00  0.00     0.031 C 
ATOM     53  C   UNL     1      12.303  -2.592  -0.088  1.00  0.00     0.029 A 
ATOM     54  C   UNL     1      11.700  -1.382   0.216  1.00  0.00     0.049 A 
ATOM     55  H   UNL     1       9.659  -0.958   0.536  1.00  0.00     0.167 HD
ATOM     56  C   UNL     1      11.661   1.058   0.683  1.00  0.00     0.074 A 
ATOM     57  C   UNL     1      12.309   2.342   0.861  1.00  0.00     0.031 C 
ATOM     58  C   UNL     1      12.317  -0.095   0.401  1.00  0.00     0.037 A 
BRANCH  45  59
ATOM     59  C   UNL     1       8.646  -5.025  -0.268  1.00  0.00     0.058 A 
ATOM     60  C   UNL     1       8.166  -5.498  -1.498  1.00  0.00     0.135 A 
ATOM     61  C   UNL     1       9.031  -5.973   0.695  1.00  0.00     0.135 A 
ATOM     62  F   UNL     1       7.763  -4.634  -2.443  1.00  0.00    -0.206 F 
ATOM     63  C   UNL     1       8.052  -6.861  -1.756  1.00  0.00     0.059 A 
ATOM     64  C   UNL     1       8.944  -7.340   0.451  1.00  0.00     0.059 A 
ATOM     65  F   UNL     1       9.491  -5.573   1.891  1.00  0.00    -0.206 F 
ATOM     66  C   UNL     1       8.439  -7.774  -0.773  1.00  0.00     0.060 A 
BRANCH  66  67
ATOM     67  S   UNL     1       8.287  -9.541  -1.114  1.00  0.00     0.124 S 
ATOM     68  O   UNL     1       6.859  -9.756  -0.899  1.00  0.00    -0.237 OA
ATOM     69  O   UNL     1       8.740  -9.637  -2.498  1.00  0.00    -0.237 OA
ATOM     70  O   UNL     1       9.170 -10.153  -0.126  1.00  0.00    -0.744 OA
ENDBRANCH  66  67
ENDBRANCH  45  59
BRANCH  46  71
ATOM     71  C   UNL     1       8.976   4.749   1.842  1.00  0.00     0.058 A 
ATOM     72  C   UNL     1       9.180   5.723   0.856  1.00  0.00     0.135 A 
ATOM     73  C   UNL     1       8.770   5.183   3.162  1.00  0.00     0.135 A 
ATOM     74  F   UNL     1       9.392   5.356  -0.416  1.00  0.00    -0.206 F 
ATOM     75  C   UNL     1       9.170   7.081   1.163  1.00  0.00     0.059 A 
ATOM     76  C   UNL     1       8.733   6.534   3.488  1.00  0.00     0.059 A 
ATOM     77  F   UNL     1       8.558   4.287   4.139  1.00  0.00    -0.206 F 
ATOM     78  C   UNL     1       8.938   7.476   2.482  1.00  0.00     0.060 A 
BRANCH  78  79
ATOM     79  S   UNL     1       8.831   9.239   2.863  1.00  0.00     0.124 S 
ATOM     80  O   UNL     1      10.239   9.601   2.972  1.00  0.00    -0.237 OA
ATOM     81  O   UNL     1       8.123   9.768   1.702  1.00  0.00    -0.237 OA
ATOM     82  O   UNL     1       8.072   9.261   4.110  1.00  0.00    -0.744 OA
ENDBRANCH  78  79
ENDBRANCH  46  71
BRANCH  58  83
ATOM     83  C   UNL     1      13.807  -0.008   0.258  1.00  0.00     0.058 A 
ATOM     84  C   UNL     1      14.644   0.054   1.381  1.00  0.00     0.135 A 
ATOM     85  C   UNL     1      14.402  -0.022  -1.013  1.00  0.00     0.135 A 
ATOM     86  F   UNL     1      14.118   0.076   2.616  1.00  0.00    -0.206 F 
ATOM     87  C   UNL     1      16.027   0.119   1.250  1.00  0.00     0.059 A 
ATOM     88  C   UNL     1      15.783   0.027  -1.167  1.00  0.00     0.059 A 
ATOM     89  F   UNL     1      13.640  -0.087  -2.116  1.00  0.00    -0.206 F 
ATOM     90  C   UNL     1      16.587   0.109  -0.029  1.00  0.00     0.060 A 
BRANCH  90  91
ATOM     91  S   UNL     1      18.384   0.173  -0.193  1.00  0.00     0.124 S 
ATOM     92  O   UNL     1      18.645   1.595   0.006  1.00  0.00    -0.237 OA
ATOM     93  O   UNL     1      18.832  -0.711   0.879  1.00  0.00    -0.237 OA
ATOM     94  O   UNL     1      18.616  -0.326  -1.545  1.00  0.00    -0.744 OA
ENDBRANCH  90  91
ENDBRANCH  58  83
ENDBRANCH  32  33
ENDBRANCH  25  27
ENDBRANCH  24  25
ENDBRANCH   1  24
TORSDOF 16
