REMARK SMILES C[C@H](C(=O)NC1CCCC1)[N@H+]1CCn2nc(CCC(=O)OCCOC(=O)c3ccc(-c4c5nc(c(-c6c(F)cc(S(=O)(=O)[O-])cc6F)c6ccc([nH]6)c(-c6c(F)cc(S(=O)(=O)[O-])cc6F)c6nc(c(-c7c(F)cc(S(=O)(=O)[O-])cc7F)c7ccc4[nH]7)C=C6)C=C5)cc3)cc2C1
REMARK SMILES IDX 22 1 21 2 19 3 20 4 18 5 17 6 16 7 11 8 12 9 95 10 13 12
REMARK SMILES IDX 94 13 14 14 93 15 15 16 2 17 1 18 3 19 4 20 5 21 6 23 7 24
REMARK SMILES IDX 10 25 8 26 9 27 23 28 24 29 25 30 26 31 27 32 28 33 92 34
REMARK SMILES IDX 29 35 91 36 30 37 31 38 32 39 85 40 33 41 90 42 84 43 86 44
REMARK SMILES IDX 34 45 89 46 83 47 82 48 35 50 69 51 48 52 68 53 49 54 52 55
REMARK SMILES IDX 67 56 87 57 50 58 51 59 66 61 88 62 53 63 36 64 37 65 46 66
REMARK SMILES IDX 38 67 39 68 45 69 47 70 40 71 41 72 42 73 43 74 44 75 70 76
REMARK SMILES IDX 71 77 80 78 72 79 73 80 79 81 81 82 74 83 75 84 76 85 77 86
REMARK SMILES IDX 78 87 54 88 55 89 64 90 56 91 57 92 63 93 65 94 58 95 59 96
REMARK SMILES IDX 60 97 61 98 62 99
REMARK H PARENT 11 11 5 22 86 49 52 60
REMARK Flexibility Score: inf
ROOT
ATOM      1  C   UNL     1      -2.803  -1.927  -6.209  1.00  0.00     0.274 C 
ENDROOT
BRANCH   1   2
ATOM      2  O   UNL     1      -2.598  -0.637  -5.608  1.00  0.00    -0.462 OA
BRANCH   2   3
ATOM      3  C   UNL     1      -3.223   0.428  -6.165  1.00  0.00     0.306 C 
ATOM      4  O   UNL     1      -3.760   0.427  -7.268  1.00  0.00    -0.252 OA
BRANCH   3   5
ATOM      5  C   UNL     1      -3.103   1.667  -5.308  1.00  0.00     0.129 C 
BRANCH   5   6
ATOM      6  C   UNL     1      -3.965   1.676  -4.047  1.00  0.00     0.070 C 
BRANCH   6   7
ATOM      7  C   UNL     1      -3.447   0.787  -2.966  1.00  0.00     0.064 A 
ATOM      8  N   UNL     1      -0.472  -1.339  -0.605  1.00  0.00    -0.318 N 
ATOM      9  C   UNL     1      -1.243  -2.563  -0.854  1.00  0.00     0.287 C 
ATOM     10  C   UNL     1      -1.349  -0.262  -0.193  1.00  0.00     0.319 C 
ATOM     11  H   UNL     1      -0.081  -1.077  -1.510  1.00  0.00     0.349 HD
ATOM     12  C   UNL     1      -2.300  -2.358  -1.968  1.00  0.00     0.206 C 
ATOM     13  C   UNL     1      -2.294   0.026  -1.266  1.00  0.00     0.093 A 
ATOM     14  N   UNL     1      -2.772  -0.986  -2.031  1.00  0.00    -0.258 N 
ATOM     15  C   UNL     1      -2.765   1.196  -1.804  1.00  0.00     0.055 A 
ATOM     16  N   UNL     1      -3.510  -0.549  -3.049  1.00  0.00    -0.177 NA
BRANCH   8  17
ATOM     17  C   UNL     1       0.814  -1.458   0.099  1.00  0.00     0.271 C 
ATOM     18  C   UNL     1       0.966  -2.438   1.256  1.00  0.00     0.086 C 
BRANCH  17  19
ATOM     19  C   UNL     1       1.555  -0.103   0.289  1.00  0.00     0.278 C 
ATOM     20  O   UNL     1       2.492   0.173  -0.480  1.00  0.00    -0.268 OA
ATOM     21  N   UNL     1       1.330   0.846   1.235  1.00  0.00    -0.348 N 
ATOM     22  H   UNL     1       2.042   1.524   1.192  1.00  0.00     0.163 HD
BRANCH  21  23
ATOM     23  C   UNL     1       0.384   1.200   2.298  1.00  0.00     0.082 C 
ATOM     24  C   UNL     1      -0.638   2.289   1.912  1.00  0.00     0.025 C 
ATOM     25  C   UNL     1      -0.398   0.112   3.009  1.00  0.00     0.025 C 
ATOM     26  C   UNL     1      -1.949   1.915   2.603  1.00  0.00     0.002 C 
ATOM     27  C   UNL     1      -1.594   0.833   3.612  1.00  0.00     0.002 C 
ENDBRANCH  21  23
ENDBRANCH  17  19
ENDBRANCH   8  17
ENDBRANCH   6   7
ENDBRANCH   5   6
ENDBRANCH   3   5
ENDBRANCH   2   3
ENDBRANCH   1   2
BRANCH   1  28
ATOM     28  C   UNL     1      -4.121  -2.580  -5.799  1.00  0.00     0.275 C 
BRANCH  28  29
ATOM     29  O   UNL     1      -5.225  -2.028  -6.521  1.00  0.00    -0.458 OA
BRANCH  29  30
ATOM     30  C   UNL     1      -5.929  -1.114  -5.823  1.00  0.00     0.338 C 
ATOM     31  O   UNL     1      -5.682  -0.658  -4.726  1.00  0.00    -0.246 OA
BRANCH  30  32
ATOM     32  C   UNL     1      -7.199  -0.806  -6.455  1.00  0.00     0.060 A 
ATOM     33  C   UNL     1      -7.802   0.416  -6.121  1.00  0.00     0.016 A 
ATOM     34  C   UNL     1      -7.894  -1.851  -7.063  1.00  0.00     0.016 A 
ATOM     35  C   UNL     1      -9.161   0.548  -6.290  1.00  0.00     0.010 A 
ATOM     36  C   UNL     1      -9.252  -1.721  -7.217  1.00  0.00     0.010 A 
ATOM     37  C   UNL     1      -9.875  -0.548  -6.777  1.00  0.00    -0.014 A 
BRANCH  37  38
ATOM     38  C   UNL     1     -11.315  -0.432  -6.890  1.00  0.00     0.031 A 
ATOM     39  C   UNL     1     -11.775   0.379  -8.044  1.00  0.00     0.074 A 
ATOM     40  C   UNL     1     -12.130  -1.184  -6.128  1.00  0.00     0.049 A 
ATOM     41  N   UNL     1     -12.586   1.384  -8.051  1.00  0.00    -0.248 NA
ATOM     42  C   UNL     1     -11.164   0.091  -9.354  1.00  0.00     0.031 C 
ATOM     43  C   UNL     1     -11.745  -2.242  -5.188  1.00  0.00     0.029 A 
ATOM     44  N   UNL     1     -13.485  -1.274  -6.159  1.00  0.00    -0.354 N 
ATOM     45  C   UNL     1     -12.742   1.729  -9.391  1.00  0.00     0.074 A 
ATOM     46  C   UNL     1     -11.731   1.016 -10.124  1.00  0.00     0.031 C 
ATOM     47  C   UNL     1     -12.822  -3.017  -4.939  1.00  0.00     0.029 A 
ATOM     48  C   UNL     1     -13.978  -2.452  -5.615  1.00  0.00     0.049 A 
ATOM     49  H   UNL     1     -14.063  -0.569  -6.532  1.00  0.00     0.167 HD
ATOM     50  C   UNL     1     -13.836   2.399  -9.841  1.00  0.00     0.037 A 
ATOM     51  C   UNL     1     -15.214  -2.973  -5.816  1.00  0.00     0.037 A 
ATOM     52  C   UNL     1     -14.533   3.064  -8.774  1.00  0.00     0.049 A 
ATOM     53  C   UNL     1     -16.084  -1.877  -6.323  1.00  0.00     0.074 A 
ATOM     54  C   UNL     1     -14.179   4.020  -7.841  1.00  0.00     0.029 A 
ATOM     55  N   UNL     1     -15.702   2.508  -8.314  1.00  0.00    -0.354 N 
ATOM     56  N   UNL     1     -16.453  -0.843  -5.618  1.00  0.00    -0.248 NA
ATOM     57  C   UNL     1     -16.207  -1.714  -7.766  1.00  0.00     0.031 C 
ATOM     58  C   UNL     1     -14.878   3.660  -6.653  1.00  0.00     0.029 A 
ATOM     59  C   UNL     1     -15.647   2.532  -6.942  1.00  0.00     0.049 A 
ATOM     60  H   UNL     1     -16.440   2.158  -8.864  1.00  0.00     0.167 HD
ATOM     61  C   UNL     1     -16.444   0.221  -6.510  1.00  0.00     0.074 A 
ATOM     62  C   UNL     1     -16.395  -0.394  -7.832  1.00  0.00     0.031 C 
ATOM     63  C   UNL     1     -16.193   1.497  -6.091  1.00  0.00     0.037 A 
BRANCH  50  64
ATOM     64  C   UNL     1     -14.446   2.164 -11.198  1.00  0.00     0.058 A 
ATOM     65  C   UNL     1     -15.409   3.061 -11.696  1.00  0.00     0.135 A 
ATOM     66  C   UNL     1     -14.318   0.945 -11.905  1.00  0.00     0.135 A 
ATOM     67  F   UNL     1     -15.623   4.239 -11.088  1.00  0.00    -0.206 F 
ATOM     68  C   UNL     1     -16.231   2.743 -12.778  1.00  0.00     0.059 A 
ATOM     69  C   UNL     1     -15.084   0.634 -13.020  1.00  0.00     0.059 A 
ATOM     70  F   UNL     1     -13.519  -0.044 -11.484  1.00  0.00    -0.206 F 
ATOM     71  C   UNL     1     -16.071   1.518 -13.421  1.00  0.00     0.060 A 
BRANCH  71  72
ATOM     72  S   UNL     1     -17.214   1.045 -14.728  1.00  0.00     0.124 S 
ATOM     73  O   UNL     1     -18.424   0.766 -13.964  1.00  0.00    -0.237 OA
ATOM     74  O   UNL     1     -17.243   2.244 -15.559  1.00  0.00    -0.237 OA
ATOM     75  O   UNL     1     -16.567  -0.115 -15.335  1.00  0.00    -0.744 OA
ENDBRANCH  71  72
ENDBRANCH  50  64
BRANCH  51  76
ATOM     76  C   UNL     1     -15.588  -4.409  -5.916  1.00  0.00     0.058 A 
ATOM     77  C   UNL     1     -16.935  -4.808  -5.889  1.00  0.00     0.135 A 
ATOM     78  C   UNL     1     -14.657  -5.399  -6.297  1.00  0.00     0.135 A 
ATOM     79  F   UNL     1     -17.894  -3.927  -5.565  1.00  0.00    -0.206 F 
ATOM     80  C   UNL     1     -17.340  -6.096  -6.260  1.00  0.00     0.059 A 
ATOM     81  C   UNL     1     -15.034  -6.693  -6.648  1.00  0.00     0.059 A 
ATOM     82  F   UNL     1     -13.354  -5.117  -6.435  1.00  0.00    -0.206 F 
ATOM     83  C   UNL     1     -16.380  -7.027  -6.655  1.00  0.00     0.060 A 
BRANCH  83  84
ATOM     84  S   UNL     1     -16.905  -8.628  -7.308  1.00  0.00     0.124 S 
ATOM     85  O   UNL     1     -17.396  -9.297  -6.109  1.00  0.00    -0.237 OA
ATOM     86  O   UNL     1     -17.918  -8.245  -8.286  1.00  0.00    -0.237 OA
ATOM     87  O   UNL     1     -15.678  -9.183  -7.874  1.00  0.00    -0.744 OA
ENDBRANCH  83  84
ENDBRANCH  51  76
BRANCH  63  88
ATOM     88  C   UNL     1     -16.235   1.782  -4.612  1.00  0.00     0.058 A 
ATOM     89  C   UNL     1     -15.380   1.188  -3.667  1.00  0.00     0.135 A 
ATOM     90  C   UNL     1     -17.088   2.796  -4.149  1.00  0.00     0.135 A 
ATOM     91  F   UNL     1     -14.450   0.298  -4.040  1.00  0.00    -0.206 F 
ATOM     92  C   UNL     1     -15.414   1.539  -2.317  1.00  0.00     0.059 A 
ATOM     93  C   UNL     1     -17.114   3.188  -2.813  1.00  0.00     0.059 A 
ATOM     94  F   UNL     1     -17.880   3.455  -5.012  1.00  0.00    -0.206 F 
ATOM     95  C   UNL     1     -16.288   2.540  -1.898  1.00  0.00     0.060 A 
BRANCH  95  96
ATOM     96  S   UNL     1     -16.287   3.035  -0.162  1.00  0.00     0.124 S 
ATOM     97  O   UNL     1     -16.974   1.918   0.477  1.00  0.00    -0.237 OA
ATOM     98  O   UNL     1     -14.862   3.157   0.137  1.00  0.00    -0.237 OA
ATOM     99  O   UNL     1     -17.021   4.299  -0.167  1.00  0.00    -0.744 OA
ENDBRANCH  95  96
ENDBRANCH  63  88
ENDBRANCH  37  38
ENDBRANCH  30  32
ENDBRANCH  29  30
ENDBRANCH  28  29
ENDBRANCH   1  28
TORSDOF 19
