REMARK SMILES COc1ccc(NC(=O)[C@@H]2[C@@H](C(=O)OCCOC(=O)c3ccc(-c4c5nc(c(-c6c(F)cc(S(=O)(=O)[O-])cc6F)c6ccc([nH]6)c(-c6c(F)cc(S(=O)(=O)[O-])cc6F)c6nc(c(-c7c(F)cc(S(=O)(=O)[O-])cc7F)c7ccc4[nH]7)C=C6)C=C5)cc3)[C@H]3C=C[C@@H]2C3)cc1O
REMARK SMILES IDX 15 1 14 2 12 3 13 4 11 5 10 6 89 7 86 8 88 9 90 10 87 11
REMARK SMILES IDX 8 12 7 13 9 15 6 16 3 17 4 18 92 19 5 20 91 21 2 22 1 23
REMARK SMILES IDX 93 24 16 26 17 27 18 28 19 29 20 30 21 31 85 32 22 33 84 34
REMARK SMILES IDX 23 35 24 36 25 37 78 38 26 39 83 40 77 41 79 42 27 43 82 44
REMARK SMILES IDX 76 45 75 46 28 48 62 49 41 50 61 51 42 52 45 53 60 54 80 55
REMARK SMILES IDX 43 56 44 57 59 59 81 60 46 61 29 62 30 63 39 64 31 65 32 66
REMARK SMILES IDX 38 67 40 68 33 69 34 70 35 71 36 72 37 73 63 74 64 75 73 76
REMARK SMILES IDX 65 77 66 78 72 79 74 80 67 81 68 82 69 83 70 84 71 85 47 86
REMARK SMILES IDX 48 87 57 88 49 89 50 90 56 91 58 92 51 93 52 94 53 95 54 96
REMARK SMILES IDX 55 97
REMARK H PARENT 7 14 93 25 79 47 45 58
REMARK Flexibility Score: inf
ROOT
ATOM      1  C   UNL     1      -4.258  -3.190   6.669  1.00  0.00     0.274 C 
ENDROOT
BRANCH   1   2
ATOM      2  O   UNL     1      -2.824  -3.267   6.614  1.00  0.00    -0.462 OA
BRANCH   2   3
ATOM      3  C   UNL     1      -2.282  -3.632   5.432  1.00  0.00     0.310 C 
ATOM      4  O   UNL     1      -2.926  -4.031   4.467  1.00  0.00    -0.252 OA
BRANCH   3   5
ATOM      5  C   UNL     1      -0.773  -3.510   5.372  1.00  0.00     0.119 C 
ATOM      6  C   UNL     1      -0.109  -4.878   5.561  1.00  0.00     0.100 C 
ATOM      7  C   UNL     1       0.937  -4.633   6.680  1.00  0.00     0.025 C 
ATOM      8  C   UNL     1      -0.024  -2.630   6.411  1.00  0.00     0.027 C 
ATOM      9  C   UNL     1       0.205  -4.306   7.967  1.00  0.00    -0.027 C 
ATOM     10  C   UNL     1       1.401  -3.216   6.362  1.00  0.00     0.017 C 
ATOM     11  C   UNL     1      -0.341  -3.090   7.815  1.00  0.00    -0.027 C 
BRANCH   6  12
ATOM     12  C   UNL     1       0.468  -5.603   4.358  1.00  0.00     0.228 C 
ATOM     13  N   UNL     1       0.857  -5.162   3.144  1.00  0.00    -0.326 N 
ATOM     14  H   UNL     1       0.975  -5.947   2.562  1.00  0.00     0.169 HD
ATOM     15  O   UNL     1       0.602  -6.836   4.493  1.00  0.00    -0.274 OA
BRANCH  13  16
ATOM     16  C   UNL     1       1.161  -4.011   2.385  1.00  0.00     0.045 A 
ATOM     17  C   UNL     1       2.058  -1.966   0.635  1.00  0.00     0.160 A 
ATOM     18  C   UNL     1       1.764  -1.674   1.958  1.00  0.00     0.052 A 
ATOM     19  C   UNL     1       1.898  -3.265   0.179  1.00  0.00     0.159 A 
ATOM     20  C   UNL     1       1.312  -2.694   2.820  1.00  0.00     0.030 A 
ATOM     21  C   UNL     1       1.444  -4.269   1.030  1.00  0.00     0.076 A 
BRANCH  17  22
ATOM     22  O   UNL     1       2.626  -1.046  -0.199  1.00  0.00    -0.493 OA
ATOM     23  C   UNL     1       1.652  -0.148  -0.736  1.00  0.00     0.278 C 
ENDBRANCH  17  22
BRANCH  19  24
ATOM     24  O   UNL     1       2.213  -3.592  -1.109  1.00  0.00    -0.504 OA
ATOM     25  H   UNL     1       2.520  -2.931  -1.698  1.00  0.00     0.293 HD
ENDBRANCH  19  24
ENDBRANCH  13  16
ENDBRANCH   6  12
ENDBRANCH   3   5
ENDBRANCH   2   3
ENDBRANCH   1   2
BRANCH   1  26
ATOM     26  C   UNL     1      -4.683  -1.724   6.672  1.00  0.00     0.275 C 
BRANCH  26  27
ATOM     27  O   UNL     1      -4.229  -1.064   5.475  1.00  0.00    -0.458 OA
BRANCH  27  28
ATOM     28  C   UNL     1      -3.141  -0.275   5.629  1.00  0.00     0.338 C 
ATOM     29  O   UNL     1      -2.524  -0.049   6.660  1.00  0.00    -0.246 OA
BRANCH  28  30
ATOM     30  C   UNL     1      -2.755   0.303   4.336  1.00  0.00     0.060 A 
ATOM     31  C   UNL     1      -2.054  -0.471   3.412  1.00  0.00     0.016 A 
ATOM     32  C   UNL     1      -2.976   1.659   4.099  1.00  0.00     0.016 A 
ATOM     33  C   UNL     1      -1.510   0.131   2.277  1.00  0.00     0.010 A 
ATOM     34  C   UNL     1      -2.490   2.242   2.925  1.00  0.00     0.010 A 
ATOM     35  C   UNL     1      -1.718   1.495   2.018  1.00  0.00    -0.014 A 
BRANCH  35  36
ATOM     36  C   UNL     1      -1.101   2.148   0.829  1.00  0.00     0.031 A 
ATOM     37  C   UNL     1      -0.121   3.282   1.003  1.00  0.00     0.074 A 
ATOM     38  C   UNL     1      -1.394   1.723  -0.416  1.00  0.00     0.049 A 
ATOM     39  N   UNL     1       0.415   4.059   0.096  1.00  0.00    -0.248 NA
ATOM     40  C   UNL     1       0.306   3.583   2.378  1.00  0.00     0.031 C 
ATOM     41  C   UNL     1      -2.289   0.613  -0.744  1.00  0.00     0.029 A 
ATOM     42  N   UNL     1      -0.955   2.168  -1.640  1.00  0.00    -0.354 N 
ATOM     43  C   UNL     1       1.190   4.981   0.792  1.00  0.00     0.074 A 
ATOM     44  C   UNL     1       1.062   4.657   2.197  1.00  0.00     0.031 C 
ATOM     45  C   UNL     1      -2.311   0.444  -2.074  1.00  0.00     0.029 A 
ATOM     46  C   UNL     1      -1.494   1.479  -2.701  1.00  0.00     0.049 A 
ATOM     47  H   UNL     1      -0.317   2.910  -1.747  1.00  0.00     0.167 HD
ATOM     48  C   UNL     1       1.934   6.006   0.308  1.00  0.00     0.037 A 
ATOM     49  C   UNL     1      -1.379   1.674  -4.029  1.00  0.00     0.037 A 
ATOM     50  C   UNL     1       2.101   6.306  -1.090  1.00  0.00     0.049 A 
ATOM     51  C   UNL     1      -0.547   2.812  -4.547  1.00  0.00     0.074 A 
ATOM     52  C   UNL     1       2.849   7.316  -1.672  1.00  0.00     0.029 A 
ATOM     53  N   UNL     1       1.524   5.592  -2.129  1.00  0.00    -0.354 N 
ATOM     54  N   UNL     1       0.142   3.700  -3.871  1.00  0.00    -0.248 NA
ATOM     55  C   UNL     1      -0.491   2.986  -6.005  1.00  0.00     0.031 C 
ATOM     56  C   UNL     1       2.700   7.230  -3.061  1.00  0.00     0.029 A 
ATOM     57  C   UNL     1       1.890   6.144  -3.347  1.00  0.00     0.049 A 
ATOM     58  H   UNL     1       0.939   4.808  -2.018  1.00  0.00     0.167 HD
ATOM     59  C   UNL     1       0.705   4.545  -4.822  1.00  0.00     0.074 A 
ATOM     60  C   UNL     1       0.304   4.041  -6.120  1.00  0.00     0.031 C 
ATOM     61  C   UNL     1       1.476   5.644  -4.634  1.00  0.00     0.037 A 
BRANCH  48  62
ATOM     62  C   UNL     1       2.595   6.911   1.312  1.00  0.00     0.058 A 
ATOM     63  C   UNL     1       3.722   6.512   2.046  1.00  0.00     0.135 A 
ATOM     64  C   UNL     1       2.091   8.203   1.534  1.00  0.00     0.135 A 
ATOM     65  F   UNL     1       4.233   5.282   1.883  1.00  0.00    -0.206 F 
ATOM     66  C   UNL     1       4.305   7.350   2.992  1.00  0.00     0.059 A 
ATOM     67  C   UNL     1       2.672   9.066   2.458  1.00  0.00     0.059 A 
ATOM     68  F   UNL     1       1.015   8.635   0.856  1.00  0.00    -0.206 F 
ATOM     69  C   UNL     1       3.767   8.622   3.197  1.00  0.00     0.060 A 
BRANCH  69  70
ATOM     70  S   UNL     1       4.511   9.690   4.448  1.00  0.00     0.124 S 
ATOM     71  O   UNL     1       3.971   9.116   5.676  1.00  0.00    -0.237 OA
ATOM     72  O   UNL     1       5.940   9.486   4.229  1.00  0.00    -0.237 OA
ATOM     73  O   UNL     1       4.011  11.017   4.100  1.00  0.00    -0.744 OA
ENDBRANCH  69  70
ENDBRANCH  48  62
BRANCH  49  74
ATOM     74  C   UNL     1      -2.108   0.775  -4.960  1.00  0.00     0.058 A 
ATOM     75  C   UNL     1      -1.426  -0.190  -5.713  1.00  0.00     0.135 A 
ATOM     76  C   UNL     1      -3.506   0.828  -5.068  1.00  0.00     0.135 A 
ATOM     77  F   UNL     1      -0.088  -0.269  -5.648  1.00  0.00    -0.206 F 
ATOM     78  C   UNL     1      -2.106  -1.082  -6.536  1.00  0.00     0.059 A 
ATOM     79  C   UNL     1      -4.210  -0.068  -5.865  1.00  0.00     0.059 A 
ATOM     80  F   UNL     1      -4.202   1.729  -4.357  1.00  0.00    -0.206 F 
ATOM     81  C   UNL     1      -3.500  -1.018  -6.597  1.00  0.00     0.060 A 
BRANCH  81  82
ATOM     82  S   UNL     1      -4.388  -2.242  -7.585  1.00  0.00     0.124 S 
ATOM     83  O   UNL     1      -4.244  -1.694  -8.928  1.00  0.00    -0.237 OA
ATOM     84  O   UNL     1      -3.640  -3.466  -7.310  1.00  0.00    -0.237 OA
ATOM     85  O   UNL     1      -5.736  -2.204  -7.025  1.00  0.00    -0.744 OA
ENDBRANCH  81  82
ENDBRANCH  49  74
BRANCH  61  86
ATOM     86  C   UNL     1       1.937   6.381  -5.860  1.00  0.00     0.058 A 
ATOM     87  C   UNL     1       1.062   7.198  -6.593  1.00  0.00     0.135 A 
ATOM     88  C   UNL     1       3.271   6.299  -6.286  1.00  0.00     0.135 A 
ATOM     89  F   UNL     1      -0.226   7.306  -6.231  1.00  0.00    -0.206 F 
ATOM     90  C   UNL     1       1.490   7.893  -7.721  1.00  0.00     0.059 A 
ATOM     91  C   UNL     1       3.726   7.000  -7.399  1.00  0.00     0.059 A 
ATOM     92  F   UNL     1       4.149   5.537  -5.614  1.00  0.00    -0.206 F 
ATOM     93  C   UNL     1       2.825   7.785  -8.117  1.00  0.00     0.060 A 
BRANCH  93  94
ATOM     94  S   UNL     1       3.377   8.706  -9.569  1.00  0.00     0.124 S 
ATOM     95  O   UNL     1       2.846   7.888 -10.654  1.00  0.00    -0.237 OA
ATOM     96  O   UNL     1       2.735  10.004  -9.382  1.00  0.00    -0.237 OA
ATOM     97  O   UNL     1       4.830   8.709  -9.435  1.00  0.00    -0.744 OA
ENDBRANCH  93  94
ENDBRANCH  61  86
ENDBRANCH  35  36
ENDBRANCH  28  30
ENDBRANCH  27  28
ENDBRANCH  26  27
ENDBRANCH   1  26
TORSDOF 18
