REMARK SMILES Cc1ccccc1NC(=O)c1ccccc1NC(=O)CCC(=O)OCCOC(=O)c1ccc(-c2c3nc(c(-c4c(F)cc(S(=O)(=O)[O-])cc4F)c4ccc([nH]4)c(-c4c(F)cc(S(=O)(=O)[O-])cc4F)c4nc(c(-c5c(F)cc(S(=O)(=O)[O-])cc5F)c5ccc2[nH]5)C=C4)C=C3)cc1
REMARK SMILES IDX 25 1 24 2 22 3 23 4 21 5 20 6 18 7 17 8 19 10 16 11 11 12
REMARK SMILES IDX 12 13 13 14 15 15 14 16 9 17 8 18 10 20 7 21 1 22 2 23 3 24
REMARK SMILES IDX 4 25 6 26 5 27 26 28 27 29 28 30 29 31 30 32 31 33 95 34
REMARK SMILES IDX 32 35 94 36 33 37 34 38 35 39 88 40 36 41 93 42 87 43 89 44
REMARK SMILES IDX 37 45 92 46 86 47 85 48 38 50 72 51 51 52 71 53 52 54 55 55
REMARK SMILES IDX 70 56 90 57 53 58 54 59 69 61 91 62 56 63 39 64 40 65 49 66
REMARK SMILES IDX 41 67 42 68 48 69 50 70 43 71 44 72 45 73 46 74 47 75 73 76
REMARK SMILES IDX 74 77 83 78 75 79 76 80 82 81 84 82 77 83 78 84 79 85 80 86
REMARK SMILES IDX 81 87 57 88 58 89 67 90 59 91 60 92 66 93 68 94 61 95 62 96
REMARK SMILES IDX 63 97 64 98 65 99
REMARK H PARENT 17 9 8 19 89 49 55 60
REMARK Flexibility Score: inf
ROOT
ATOM      1  C   UNL     1       0.057   4.593   2.357  1.00  0.00     0.274 C 
ENDROOT
BRANCH   1   2
ATOM      2  O   UNL     1       0.663   3.279   2.575  1.00  0.00    -0.462 OA
BRANCH   2   3
ATOM      3  C   UNL     1      -0.181   2.441   3.155  1.00  0.00     0.306 C 
ATOM      4  O   UNL     1      -1.310   2.781   3.315  1.00  0.00    -0.252 OA
BRANCH   3   5
ATOM      5  C   UNL     1       0.080   1.047   3.525  1.00  0.00     0.132 C 
BRANCH   5   6
ATOM      6  C   UNL     1      -1.224   0.367   3.009  1.00  0.00     0.112 C 
BRANCH   6   7
ATOM      7  C   UNL     1      -1.029   0.207   1.534  1.00  0.00     0.224 C 
ATOM      8  N   UNL     1      -0.831   1.297   0.716  1.00  0.00    -0.325 N 
ATOM      9  H   UNL     1       0.122   1.405   0.495  1.00  0.00     0.169 HD
ATOM     10  O   UNL     1      -0.528  -0.886   1.244  1.00  0.00    -0.275 OA
BRANCH   8  11
ATOM     11  C   UNL     1      -1.621   2.316   0.097  1.00  0.00     0.054 A 
ATOM     12  C   UNL     1      -0.985   3.249  -0.792  1.00  0.00     0.063 A 
ATOM     13  C   UNL     1      -1.659   4.421  -1.228  1.00  0.00     0.016 A 
ATOM     14  C   UNL     1      -2.982   4.647  -0.861  1.00  0.00     0.001 A 
ATOM     15  C   UNL     1      -2.984   2.499   0.335  1.00  0.00     0.027 A 
ATOM     16  C   UNL     1      -3.650   3.668  -0.120  1.00  0.00     0.002 A 
BRANCH  12  17
ATOM     17  C   UNL     1       0.446   3.177  -1.218  1.00  0.00     0.257 C 
ATOM     18  N   UNL     1       1.080   1.990  -1.528  1.00  0.00    -0.322 N 
ATOM     19  H   UNL     1       2.055   2.064  -1.638  1.00  0.00     0.170 HD
ATOM     20  O   UNL     1       1.110   4.216  -1.233  1.00  0.00    -0.269 OA
BRANCH  18  21
ATOM     21  C   UNL     1       0.567   0.689  -1.713  1.00  0.00     0.044 A 
ATOM     22  C   UNL     1       2.639  -0.271  -0.507  1.00  0.00     0.046 C 
ATOM     23  C   UNL     1       1.296  -0.399  -1.186  1.00  0.00    -0.027 A 
ATOM     24  C   UNL     1       0.651  -1.646  -1.079  1.00  0.00     0.005 A 
ATOM     25  C   UNL     1      -0.705  -1.782  -1.393  1.00  0.00     0.000 A 
ATOM     26  C   UNL     1      -0.747   0.495  -2.170  1.00  0.00     0.026 A 
ATOM     27  C   UNL     1      -1.403  -0.713  -1.940  1.00  0.00     0.002 A 
ENDBRANCH  18  21
ENDBRANCH  12  17
ENDBRANCH   8  11
ENDBRANCH   6   7
ENDBRANCH   5   6
ENDBRANCH   3   5
ENDBRANCH   2   3
ENDBRANCH   1   2
BRANCH   1  28
ATOM     28  C   UNL     1      -1.541   4.925   2.182  1.00  0.00     0.275 C 
BRANCH  28  29
ATOM     29  O   UNL     1      -2.917   4.431   2.695  1.00  0.00    -0.458 OA
BRANCH  29  30
ATOM     30  C   UNL     1      -3.441   3.455   3.580  1.00  0.00     0.338 C 
ATOM     31  O   UNL     1      -4.113   2.512   3.191  1.00  0.00    -0.246 OA
BRANCH  30  32
ATOM     32  C   UNL     1      -2.981   3.616   5.007  1.00  0.00     0.060 A 
ATOM     33  C   UNL     1      -2.573   2.680   5.994  1.00  0.00     0.016 A 
ATOM     34  C   UNL     1      -2.390   4.803   5.080  1.00  0.00     0.016 A 
ATOM     35  C   UNL     1      -1.438   3.023   6.812  1.00  0.00     0.010 A 
ATOM     36  C   UNL     1      -1.083   4.554   5.169  1.00  0.00     0.010 A 
ATOM     37  C   UNL     1      -0.657   4.075   6.353  1.00  0.00    -0.014 A 
BRANCH  37  38
ATOM     38  C   UNL     1       0.543   4.894   6.657  1.00  0.00     0.031 A 
ATOM     39  C   UNL     1       1.817   4.157   6.770  1.00  0.00     0.074 A 
ATOM     40  C   UNL     1       0.377   6.252   6.398  1.00  0.00     0.049 A 
ATOM     41  N   UNL     1       2.518   3.870   7.817  1.00  0.00    -0.248 NA
ATOM     42  C   UNL     1       2.349   3.497   5.565  1.00  0.00     0.031 C 
ATOM     43  C   UNL     1       1.143   7.482   6.438  1.00  0.00     0.029 A 
ATOM     44  N   UNL     1      -0.874   6.831   6.011  1.00  0.00    -0.354 N 
ATOM     45  C   UNL     1       3.775   3.546   7.302  1.00  0.00     0.074 A 
ATOM     46  C   UNL     1       3.501   2.982   6.000  1.00  0.00     0.031 C 
ATOM     47  C   UNL     1       0.273   8.504   6.703  1.00  0.00     0.029 A 
ATOM     48  C   UNL     1      -1.109   7.989   6.702  1.00  0.00     0.049 A 
ATOM     49  H   UNL     1      -1.483   6.448   5.338  1.00  0.00     0.167 HD
ATOM     50  C   UNL     1       4.844   4.378   7.549  1.00  0.00     0.037 A 
ATOM     51  C   UNL     1      -2.048   7.818   7.684  1.00  0.00     0.037 A 
ATOM     52  C   UNL     1       4.359   5.650   8.109  1.00  0.00     0.049 A 
ATOM     53  C   UNL     1      -1.252   7.589   8.946  1.00  0.00     0.074 A 
ATOM     54  C   UNL     1       4.319   6.949   7.633  1.00  0.00     0.029 A 
ATOM     55  N   UNL     1       3.516   5.628   9.213  1.00  0.00    -0.354 N 
ATOM     56  N   UNL     1      -0.071   7.026   8.965  1.00  0.00    -0.248 NA
ATOM     57  C   UNL     1      -1.616   8.177  10.222  1.00  0.00     0.031 C 
ATOM     58  C   UNL     1       3.391   7.679   8.439  1.00  0.00     0.029 A 
ATOM     59  C   UNL     1       2.799   6.803   9.337  1.00  0.00     0.049 A 
ATOM     60  H   UNL     1       3.438   4.866   9.832  1.00  0.00     0.167 HD
ATOM     61  C   UNL     1       0.540   7.280  10.151  1.00  0.00     0.074 A 
ATOM     62  C   UNL     1      -0.483   7.979  10.918  1.00  0.00     0.031 C 
ATOM     63  C   UNL     1       1.836   6.942  10.428  1.00  0.00     0.037 A 
BRANCH  50  64
ATOM     64  C   UNL     1       6.272   4.180   7.037  1.00  0.00     0.058 A 
ATOM     65  C   UNL     1       7.255   5.175   7.250  1.00  0.00     0.135 A 
ATOM     66  C   UNL     1       6.773   2.991   6.453  1.00  0.00     0.135 A 
ATOM     67  F   UNL     1       6.956   6.336   7.848  1.00  0.00    -0.206 F 
ATOM     68  C   UNL     1       8.602   5.018   6.904  1.00  0.00     0.059 A 
ATOM     69  C   UNL     1       8.115   2.822   6.072  1.00  0.00     0.059 A 
ATOM     70  F   UNL     1       5.994   1.916   6.274  1.00  0.00    -0.206 F 
ATOM     71  C   UNL     1       9.028   3.837   6.317  1.00  0.00     0.060 A 
BRANCH  71  72
ATOM     72  S   UNL     1      10.785   3.636   5.952  1.00  0.00     0.124 S 
ATOM     73  O   UNL     1      11.031   4.731   5.019  1.00  0.00    -0.237 OA
ATOM     74  O   UNL     1      11.391   3.779   7.272  1.00  0.00    -0.237 OA
ATOM     75  O   UNL     1      10.864   2.297   5.373  1.00  0.00    -0.744 OA
ENDBRANCH  71  72
ENDBRANCH  50  64
BRANCH  51  76
ATOM     76  C   UNL     1      -3.349   7.110   7.242  1.00  0.00     0.058 A 
ATOM     77  C   UNL     1      -4.014   7.580   6.072  1.00  0.00     0.135 A 
ATOM     78  C   UNL     1      -3.862   5.898   7.748  1.00  0.00     0.135 A 
ATOM     79  F   UNL     1      -3.607   8.721   5.490  1.00  0.00    -0.206 F 
ATOM     80  C   UNL     1      -5.025   6.866   5.398  1.00  0.00     0.059 A 
ATOM     81  C   UNL     1      -4.899   5.169   7.098  1.00  0.00     0.059 A 
ATOM     82  F   UNL     1      -3.312   5.338   8.835  1.00  0.00    -0.206 F 
ATOM     83  C   UNL     1      -5.457   5.646   5.906  1.00  0.00     0.060 A 
BRANCH  83  84
ATOM     84  S   UNL     1      -6.542   4.594   4.869  1.00  0.00     0.124 S 
ATOM     85  O   UNL     1      -7.871   5.064   5.244  1.00  0.00    -0.237 OA
ATOM     86  O   UNL     1      -6.121   4.949   3.515  1.00  0.00    -0.237 OA
ATOM     87  O   UNL     1      -6.207   3.245   5.309  1.00  0.00    -0.744 OA
ENDBRANCH  83  84
ENDBRANCH  51  76
BRANCH  63  88
ATOM     88  C   UNL     1       2.323   6.746  11.834  1.00  0.00     0.058 A 
ATOM     89  C   UNL     1       1.460   6.444  12.899  1.00  0.00     0.135 A 
ATOM     90  C   UNL     1       3.707   6.687  12.122  1.00  0.00     0.135 A 
ATOM     91  F   UNL     1       0.141   6.278  12.722  1.00  0.00    -0.206 F 
ATOM     92  C   UNL     1       1.923   6.262  14.190  1.00  0.00     0.059 A 
ATOM     93  C   UNL     1       4.194   6.391  13.383  1.00  0.00     0.059 A 
ATOM     94  F   UNL     1       4.644   6.900  11.186  1.00  0.00    -0.206 F 
ATOM     95  C   UNL     1       3.292   6.247  14.422  1.00  0.00     0.060 A 
BRANCH  95  96
ATOM     96  S   UNL     1       3.879   6.047  16.101  1.00  0.00     0.124 S 
ATOM     97  O   UNL     1       3.726   7.405  16.612  1.00  0.00    -0.237 OA
ATOM     98  O   UNL     1       2.953   5.057  16.643  1.00  0.00    -0.237 OA
ATOM     99  O   UNL     1       5.252   5.587  15.926  1.00  0.00    -0.744 OA
ENDBRANCH  95  96
ENDBRANCH  63  88
ENDBRANCH  37  38
ENDBRANCH  30  32
ENDBRANCH  29  30
ENDBRANCH  28  29
ENDBRANCH   1  28
TORSDOF 19
