REMARK SMILES C[C@@H](C(=O)OCCOC(=O)c1ccc(-c2c3nc(c(-c4c(F)cc(S(=O)(=O)[O-])cc4F)c4ccc([nH]4)c(-c4c(F)cc(S(=O)(=O)[O-])cc4F)c4nc(c(-c5c(F)cc(S(=O)(=O)[O-])cc5F)c5ccc2[nH]5)C=C4)C=C3)cc1)N1C(=O)/C(=C/c2ccc(N(C)C)cc2)SC1=S
REMARK SMILES IDX 6 1 5 2 3 3 4 4 2 5 1 6 77 7 78 8 92 9 79 10 80 11 91 12
REMARK SMILES IDX 93 13 81 14 82 15 83 16 90 17 84 18 89 19 85 20 86 21 87 22
REMARK SMILES IDX 88 23 7 24 8 25 9 26 10 27 11 28 12 29 76 30 13 31 75 32
REMARK SMILES IDX 14 33 15 34 16 35 69 36 17 37 74 38 68 39 70 40 18 41 73 42
REMARK SMILES IDX 67 43 66 44 19 46 53 47 32 48 52 49 33 50 36 51 51 52 71 53
REMARK SMILES IDX 34 54 35 55 50 57 72 58 37 59 20 60 21 61 30 62 22 63 23 64
REMARK SMILES IDX 29 65 31 66 24 67 25 68 26 69 27 70 28 71 54 72 55 73 64 74
REMARK SMILES IDX 56 75 57 76 63 77 65 78 58 79 59 80 60 81 61 82 62 83 38 84
REMARK SMILES IDX 39 85 48 86 40 87 41 88 47 89 49 90 42 91 43 92 44 93 45 94
REMARK SMILES IDX 46 95
REMARK H PARENT 70 45 36 56
REMARK Flexibility Score: inf
ROOT
ATOM      1  C   UNL     1       2.570   3.551   1.349  1.00  0.00     0.274 C 
ENDROOT
BRANCH   1   2
ATOM      2  O   UNL     1       2.225   2.149   1.346  1.00  0.00    -0.461 OA
BRANCH   2   3
ATOM      3  C   UNL     1       0.999   1.817   1.849  1.00  0.00     0.329 C 
ATOM      4  O   UNL     1       0.179   2.643   2.228  1.00  0.00    -0.250 OA
BRANCH   3   5
ATOM      5  C   UNL     1       0.826   0.280   1.985  1.00  0.00     0.199 C 
ATOM      6  C   UNL     1       1.339  -0.377   0.696  1.00  0.00     0.044 C 
BRANCH   5   7
ATOM      7  N   UNL     1      -0.591  -0.049   2.356  1.00  0.00    -0.279 N 
ATOM      8  C   UNL     1      -1.416  -0.820   1.556  1.00  0.00     0.266 C 
ATOM      9  C   UNL     1      -1.164   0.318   3.566  1.00  0.00     0.149 C 
ATOM     10  O   UNL     1      -1.086  -1.493   0.590  1.00  0.00    -0.268 OA
ATOM     11  C   UNL     1      -2.826  -0.771   2.031  1.00  0.00     0.081 C 
ATOM     12  S   UNL     1      -2.913   0.071   3.511  1.00  0.00    -0.054 SA
ATOM     13  S   UNL     1      -0.396   0.873   4.944  1.00  0.00    -0.052 S 
ATOM     14  C   UNL     1      -3.799  -1.246   1.242  1.00  0.00     0.029 C 
BRANCH  14  15
ATOM     15  C   UNL     1      -5.252  -1.076   1.346  1.00  0.00    -0.024 A 
ATOM     16  C   UNL     1      -6.028  -1.501   2.418  1.00  0.00     0.010 A 
ATOM     17  C   UNL     1      -5.898  -0.510   0.246  1.00  0.00     0.010 A 
ATOM     18  C   UNL     1      -7.431  -1.358   2.378  1.00  0.00     0.026 A 
ATOM     19  C   UNL     1      -7.288  -0.368   0.222  1.00  0.00     0.026 A 
ATOM     20  C   UNL     1      -8.106  -0.793   1.280  1.00  0.00     0.036 A 
BRANCH  20  21
ATOM     21  N   UNL     1      -9.492  -0.692   1.211  1.00  0.00    -0.378 N 
ATOM     22  C   UNL     1     -10.350  -0.917   2.367  1.00  0.00     0.143 C 
ATOM     23  C   UNL     1     -10.099   0.088   0.129  1.00  0.00     0.143 C 
ENDBRANCH  20  21
ENDBRANCH  14  15
ENDBRANCH   5   7
ENDBRANCH   3   5
ENDBRANCH   2   3
ENDBRANCH   1   2
BRANCH   1  24
ATOM     24  C   UNL     1       2.179   4.293   0.065  1.00  0.00     0.275 C 
BRANCH  24  25
ATOM     25  O   UNL     1       0.757   4.484  -0.050  1.00  0.00    -0.458 OA
BRANCH  25  26
ATOM     26  C   UNL     1       0.110   3.517  -0.737  1.00  0.00     0.338 C 
ATOM     27  O   UNL     1       0.628   2.563  -1.309  1.00  0.00    -0.246 OA
BRANCH  26  28
ATOM     28  C   UNL     1      -1.345   3.626  -0.540  1.00  0.00     0.060 A 
ATOM     29  C   UNL     1      -1.995   2.489  -0.055  1.00  0.00     0.016 A 
ATOM     30  C   UNL     1      -2.077   4.774  -0.850  1.00  0.00     0.016 A 
ATOM     31  C   UNL     1      -3.369   2.496   0.144  1.00  0.00     0.010 A 
ATOM     32  C   UNL     1      -3.471   4.767  -0.681  1.00  0.00     0.010 A 
ATOM     33  C   UNL     1      -4.123   3.625  -0.186  1.00  0.00    -0.014 A 
BRANCH  33  34
ATOM     34  C   UNL     1      -5.599   3.536  -0.084  1.00  0.00     0.031 A 
ATOM     35  C   UNL     1      -6.408   3.253  -1.317  1.00  0.00     0.074 A 
ATOM     36  C   UNL     1      -6.201   3.600   1.118  1.00  0.00     0.049 A 
ATOM     37  N   UNL     1      -7.706   3.179  -1.460  1.00  0.00    -0.248 NA
ATOM     38  C   UNL     1      -5.650   3.004  -2.554  1.00  0.00     0.031 C 
ATOM     39  C   UNL     1      -5.511   3.761   2.398  1.00  0.00     0.029 A 
ATOM     40  N   UNL     1      -7.527   3.520   1.458  1.00  0.00    -0.354 N 
ATOM     41  C   UNL     1      -7.923   2.888  -2.800  1.00  0.00     0.074 A 
ATOM     42  C   UNL     1      -6.623   2.807  -3.432  1.00  0.00     0.031 C 
ATOM     43  C   UNL     1      -6.423   3.767   3.386  1.00  0.00     0.029 A 
ATOM     44  C   UNL     1      -7.759   3.659   2.805  1.00  0.00     0.049 A 
ATOM     45  H   UNL     1      -8.245   3.376   0.800  1.00  0.00     0.167 HD
ATOM     46  C   UNL     1      -9.101   2.701  -3.442  1.00  0.00     0.037 A 
ATOM     47  C   UNL     1      -8.920   3.726   3.487  1.00  0.00     0.037 A 
ATOM     48  C   UNL     1     -10.389   2.770  -2.803  1.00  0.00     0.049 A 
ATOM     49  C   UNL     1     -10.221   3.628   2.733  1.00  0.00     0.074 A 
ATOM     50  C   UNL     1     -11.637   2.543  -3.356  1.00  0.00     0.029 A 
ATOM     51  N   UNL     1     -10.596   3.099  -1.471  1.00  0.00    -0.354 N 
ATOM     52  N   UNL     1     -10.422   3.456   1.448  1.00  0.00    -0.248 NA
ATOM     53  C   UNL     1     -11.457   3.751   3.520  1.00  0.00     0.031 C 
ATOM     54  C   UNL     1     -12.599   2.733  -2.357  1.00  0.00     0.029 A 
ATOM     55  C   UNL     1     -11.946   3.030  -1.171  1.00  0.00     0.049 A 
ATOM     56  H   UNL     1      -9.887   3.346  -0.834  1.00  0.00     0.167 HD
ATOM     57  C   UNL     1     -11.800   3.419   1.277  1.00  0.00     0.074 A 
ATOM     58  C   UNL     1     -12.388   3.593   2.589  1.00  0.00     0.031 C 
ATOM     59  C   UNL     1     -12.514   3.236   0.139  1.00  0.00     0.037 A 
BRANCH  46  60
ATOM     60  C   UNL     1      -9.050   2.426  -4.917  1.00  0.00     0.058 A 
ATOM     61  C   UNL     1      -8.628   1.189  -5.427  1.00  0.00     0.135 A 
ATOM     62  C   UNL     1      -9.448   3.413  -5.832  1.00  0.00     0.135 A 
ATOM     63  F   UNL     1      -8.222   0.217  -4.594  1.00  0.00    -0.206 F 
ATOM     64  C   UNL     1      -8.574   0.949  -6.797  1.00  0.00     0.059 A 
ATOM     65  C   UNL     1      -9.424   3.188  -7.205  1.00  0.00     0.059 A 
ATOM     66  F   UNL     1      -9.860   4.613  -5.395  1.00  0.00    -0.206 F 
ATOM     67  C   UNL     1      -8.969   1.958  -7.678  1.00  0.00     0.060 A 
BRANCH  67  68
ATOM     68  S   UNL     1      -8.879   1.642  -9.454  1.00  0.00     0.124 S 
ATOM     69  O   UNL     1      -7.439   1.712  -9.687  1.00  0.00    -0.237 OA
ATOM     70  O   UNL     1      -9.476   0.316  -9.567  1.00  0.00    -0.237 OA
ATOM     71  O   UNL     1      -9.661   2.730 -10.032  1.00  0.00    -0.744 OA
ENDBRANCH  67  68
ENDBRANCH  46  60
BRANCH  47  72
ATOM     72  C   UNL     1      -8.909   3.955   4.957  1.00  0.00     0.058 A 
ATOM     73  C   UNL     1      -9.335   2.965   5.855  1.00  0.00     0.135 A 
ATOM     74  C   UNL     1      -8.491   5.185   5.490  1.00  0.00     0.135 A 
ATOM     75  F   UNL     1      -9.761   1.779   5.395  1.00  0.00    -0.206 F 
ATOM     76  C   UNL     1      -9.365   3.193   7.228  1.00  0.00     0.059 A 
ATOM     77  C   UNL     1      -8.487   5.427   6.860  1.00  0.00     0.059 A 
ATOM     78  F   UNL     1      -8.070   6.164   4.675  1.00  0.00    -0.206 F 
ATOM     79  C   UNL     1      -8.941   4.429   7.721  1.00  0.00     0.060 A 
BRANCH  79  80
ATOM     80  S   UNL     1      -8.967   4.713   9.504  1.00  0.00     0.124 S 
ATOM     81  O   UNL     1     -10.392   4.908   9.748  1.00  0.00    -0.237 OA
ATOM     82  O   UNL     1      -8.394   3.476  10.024  1.00  0.00    -0.237 OA
ATOM     83  O   UNL     1      -8.132   5.899   9.667  1.00  0.00    -0.744 OA
ENDBRANCH  79  80
ENDBRANCH  47  72
BRANCH  59  84
ATOM     84  C   UNL     1     -14.010   3.175   0.269  1.00  0.00     0.058 A 
ATOM     85  C   UNL     1     -14.780   4.331   0.460  1.00  0.00     0.135 A 
ATOM     86  C   UNL     1     -14.681   1.947   0.151  1.00  0.00     0.135 A 
ATOM     87  F   UNL     1     -14.184   5.526   0.594  1.00  0.00    -0.206 F 
ATOM     88  C   UNL     1     -16.168   4.271   0.540  1.00  0.00     0.059 A 
ATOM     89  C   UNL     1     -16.068   1.867   0.203  1.00  0.00     0.059 A 
ATOM     90  F   UNL     1     -13.986   0.813  -0.035  1.00  0.00    -0.206 F 
ATOM     91  C   UNL     1     -16.803   3.034   0.406  1.00  0.00     0.060 A 
BRANCH  91  92
ATOM     92  S   UNL     1     -18.607   2.974   0.462  1.00  0.00     0.124 S 
ATOM     93  O   UNL     1     -18.862   3.125   1.890  1.00  0.00    -0.237 OA
ATOM     94  O   UNL     1     -18.984   4.110  -0.374  1.00  0.00    -0.237 OA
ATOM     95  O   UNL     1     -18.919   1.662  -0.098  1.00  0.00    -0.744 OA
ENDBRANCH  91  92
ENDBRANCH  59  84
ENDBRANCH  33  34
ENDBRANCH  26  28
ENDBRANCH  25  26
ENDBRANCH  24  25
ENDBRANCH   1  24
TORSDOF 17
