REMARK SMILES CC(=O)Oc1ccccc1C(=O)OCCOC(=O)c1ccc(-c2c3nc(c(-c4c(F)cc(S(=O)(=O)[O-])cc4F)c4ccc([nH]4)c(-c4c(F)cc(S(=O)(=O)[O-])cc4F)c4nc(c(-c5c(F)cc(S(=O)(=O)[O-])cc5F)c5ccc2[nH]5)C=C4)C=C3)cc1
REMARK SMILES IDX 15 1 14 2 13 3 11 4 12 5 10 6 5 7 6 8 7 9 9 10 8 11 4 12
REMARK SMILES IDX 2 13 1 14 3 15 16 16 17 17 18 18 19 19 20 20 84 21 21 22
REMARK SMILES IDX 83 23 22 24 23 25 24 26 77 27 25 28 82 29 76 30 78 31 26 32
REMARK SMILES IDX 81 33 75 34 74 35 27 37 61 38 40 39 60 40 41 41 44 42 59 43
REMARK SMILES IDX 79 44 42 45 43 46 58 48 80 49 45 50 28 51 29 52 38 53 30 54
REMARK SMILES IDX 31 55 37 56 39 57 32 58 33 59 34 60 35 61 36 62 62 63 63 64
REMARK SMILES IDX 72 65 64 66 65 67 71 68 73 69 66 70 67 71 68 72 69 73 70 74
REMARK SMILES IDX 46 75 47 76 56 77 48 78 49 79 55 80 57 81 50 82 51 83 52 84
REMARK SMILES IDX 53 85 54 86
REMARK H PARENT 78 36 44 47
REMARK Flexibility Score: inf
ROOT
ATOM      1  C   UNL     1      -3.239  -0.167   0.163  1.00  0.00     0.275 C 
ENDROOT
BRANCH   1   2
ATOM      2  C   UNL     1      -2.006   0.345   0.904  1.00  0.00     0.275 C 
BRANCH   2   3
ATOM      3  O   UNL     1      -1.199  -0.738   1.408  1.00  0.00    -0.458 OA
BRANCH   3   4
ATOM      4  C   UNL     1      -1.183  -0.902   2.756  1.00  0.00     0.342 C 
ATOM      5  O   UNL     1      -1.873  -0.285   3.554  1.00  0.00    -0.246 OA
BRANCH   4   6
ATOM      6  C   UNL     1      -0.273  -2.002   3.171  1.00  0.00     0.102 A 
ATOM      7  C   UNL     1       0.907  -2.354   2.502  1.00  0.00     0.145 A 
ATOM      8  C   UNL     1       1.693  -3.423   2.952  1.00  0.00     0.048 A 
ATOM      9  C   UNL     1       1.307  -4.148   4.080  1.00  0.00     0.004 A 
ATOM     10  C   UNL     1      -0.623  -2.720   4.328  1.00  0.00     0.019 A 
ATOM     11  C   UNL     1       0.146  -3.800   4.766  1.00  0.00     0.001 A 
BRANCH   7  12
ATOM     12  O   UNL     1       1.329  -1.750   1.309  1.00  0.00    -0.426 OA
BRANCH  12  13
ATOM     13  C   UNL     1       1.628  -0.396   1.385  1.00  0.00     0.308 C 
ATOM     14  C   UNL     1       1.802   0.142  -0.004  1.00  0.00     0.139 C 
ATOM     15  O   UNL     1       1.748   0.271   2.404  1.00  0.00    -0.252 OA
ENDBRANCH  12  13
ENDBRANCH   7  12
ENDBRANCH   4   6
ENDBRANCH   3   4
ENDBRANCH   2   3
ENDBRANCH   1   2
BRANCH   1  16
ATOM     16  O   UNL     1      -4.168  -0.764   1.082  1.00  0.00    -0.458 OA
BRANCH  16  17
ATOM     17  C   UNL     1      -4.123  -2.114   1.131  1.00  0.00     0.338 C 
ATOM     18  O   UNL     1      -3.452  -2.861   0.438  1.00  0.00    -0.246 OA
BRANCH  17  19
ATOM     19  C   UNL     1      -4.939  -2.595   2.252  1.00  0.00     0.060 A 
ATOM     20  C   UNL     1      -4.301  -2.783   3.474  1.00  0.00     0.016 A 
ATOM     21  C   UNL     1      -6.249  -3.025   2.063  1.00  0.00     0.016 A 
ATOM     22  C   UNL     1      -4.931  -3.490   4.492  1.00  0.00     0.010 A 
ATOM     23  C   UNL     1      -6.908  -3.677   3.113  1.00  0.00     0.010 A 
ATOM     24  C   UNL     1      -6.238  -3.962   4.319  1.00  0.00    -0.014 A 
BRANCH  24  25
ATOM     25  C   UNL     1      -6.852  -4.846   5.350  1.00  0.00     0.031 A 
ATOM     26  C   UNL     1      -7.245  -6.255   4.979  1.00  0.00     0.074 A 
ATOM     27  C   UNL     1      -7.021  -4.417   6.617  1.00  0.00     0.049 A 
ATOM     28  N   UNL     1      -7.942  -7.128   5.660  1.00  0.00    -0.248 NA
ATOM     29  C   UNL     1      -6.809  -6.740   3.659  1.00  0.00     0.031 C 
ATOM     30  C   UNL     1      -6.628  -3.102   7.130  1.00  0.00     0.029 A 
ATOM     31  N   UNL     1      -7.560  -5.048   7.711  1.00  0.00    -0.354 N 
ATOM     32  C   UNL     1      -8.091  -8.232   4.825  1.00  0.00     0.074 A 
ATOM     33  C   UNL     1      -7.406  -7.922   3.590  1.00  0.00     0.031 C 
ATOM     34  C   UNL     1      -6.909  -3.037   8.441  1.00  0.00     0.029 A 
ATOM     35  C   UNL     1      -7.574  -4.270   8.846  1.00  0.00     0.049 A 
ATOM     36  H   UNL     1      -7.904  -5.970   7.686  1.00  0.00     0.167 HD
ATOM     37  C   UNL     1      -8.744  -9.393   5.068  1.00  0.00     0.037 A 
ATOM     38  C   UNL     1      -8.099  -4.507  10.064  1.00  0.00     0.037 A 
ATOM     39  C   UNL     1      -9.350  -9.726   6.332  1.00  0.00     0.049 A 
ATOM     40  C   UNL     1      -8.815  -5.808  10.310  1.00  0.00     0.074 A 
ATOM     41  C   UNL     1     -10.014 -10.887   6.690  1.00  0.00     0.029 A 
ATOM     42  N   UNL     1      -9.343  -8.908   7.452  1.00  0.00    -0.354 N 
ATOM     43  N   UNL     1      -9.003  -6.815   9.491  1.00  0.00    -0.248 NA
ATOM     44  C   UNL     1      -9.401  -6.000  11.644  1.00  0.00     0.031 C 
ATOM     45  C   UNL     1     -10.433 -10.759   8.019  1.00  0.00     0.029 A 
ATOM     46  C   UNL     1      -9.992  -9.538   8.501  1.00  0.00     0.049 A 
ATOM     47  H   UNL     1      -8.936  -8.013   7.496  1.00  0.00     0.167 HD
ATOM     48  C   UNL     1      -9.702  -7.771  10.218  1.00  0.00     0.074 A 
ATOM     49  C   UNL     1      -9.894  -7.227  11.547  1.00  0.00     0.031 C 
ATOM     50  C   UNL     1     -10.148  -8.989   9.824  1.00  0.00     0.037 A 
BRANCH  37  51
ATOM     51  C   UNL     1      -8.872 -10.382   3.941  1.00  0.00     0.058 A 
ATOM     52  C   UNL     1      -7.791 -11.155   3.492  1.00  0.00     0.135 A 
ATOM     53  C   UNL     1     -10.123 -10.594   3.336  1.00  0.00     0.135 A 
ATOM     54  F   UNL     1      -6.569 -10.980   4.020  1.00  0.00    -0.206 F 
ATOM     55  C   UNL     1      -7.941 -12.091   2.472  1.00  0.00     0.059 A 
ATOM     56  C   UNL     1     -10.302 -11.543   2.334  1.00  0.00     0.059 A 
ATOM     57  F   UNL     1     -11.192  -9.881   3.726  1.00  0.00    -0.206 F 
ATOM     58  C   UNL     1      -9.201 -12.279   1.900  1.00  0.00     0.060 A 
BRANCH  58  59
ATOM     59  S   UNL     1      -9.388 -13.514   0.596  1.00  0.00     0.124 S 
ATOM     60  O   UNL     1      -8.756 -12.841  -0.535  1.00  0.00    -0.237 OA
ATOM     61  O   UNL     1      -8.660 -14.656   1.140  1.00  0.00    -0.237 OA
ATOM     62  O   UNL     1     -10.833 -13.688   0.496  1.00  0.00    -0.744 OA
ENDBRANCH  58  59
ENDBRANCH  37  51
BRANCH  38  63
ATOM     63  C   UNL     1      -8.002  -3.481  11.139  1.00  0.00     0.058 A 
ATOM     64  C   UNL     1      -7.227  -3.707  12.286  1.00  0.00     0.135 A 
ATOM     65  C   UNL     1      -8.697  -2.265  11.050  1.00  0.00     0.135 A 
ATOM     66  F   UNL     1      -6.551  -4.858  12.423  1.00  0.00    -0.206 F 
ATOM     67  C   UNL     1      -7.164  -2.776  13.319  1.00  0.00     0.059 A 
ATOM     68  C   UNL     1      -8.626  -1.306  12.055  1.00  0.00     0.059 A 
ATOM     69  F   UNL     1      -9.444  -1.993   9.968  1.00  0.00    -0.206 F 
ATOM     70  C   UNL     1      -7.870  -1.578  13.194  1.00  0.00     0.060 A 
BRANCH  70  71
ATOM     71  S   UNL     1      -7.768  -0.364  14.527  1.00  0.00     0.124 S 
ATOM     72  O   UNL     1      -8.652  -0.953  15.527  1.00  0.00    -0.237 OA
ATOM     73  O   UNL     1      -6.344  -0.374  14.848  1.00  0.00    -0.237 OA
ATOM     74  O   UNL     1      -8.252   0.862  13.899  1.00  0.00    -0.744 OA
ENDBRANCH  70  71
ENDBRANCH  38  63
BRANCH  50  75
ATOM     75  C   UNL     1     -10.821  -9.842  10.862  1.00  0.00     0.058 A 
ATOM     76  C   UNL     1     -12.116  -9.564  11.325  1.00  0.00     0.135 A 
ATOM     77  C   UNL     1     -10.162 -10.966  11.385  1.00  0.00     0.135 A 
ATOM     78  F   UNL     1     -12.787  -8.498  10.860  1.00  0.00    -0.206 F 
ATOM     79  C   UNL     1     -12.722 -10.351  12.300  1.00  0.00     0.059 A 
ATOM     80  C   UNL     1     -10.759 -11.782  12.340  1.00  0.00     0.059 A 
ATOM     81  F   UNL     1      -8.927 -11.282  10.965  1.00  0.00    -0.206 F 
ATOM     82  C   UNL     1     -12.032 -11.455  12.805  1.00  0.00     0.060 A 
BRANCH  82  83
ATOM     83  S   UNL     1     -12.825 -12.474  14.066  1.00  0.00     0.124 S 
ATOM     84  O   UNL     1     -12.660 -11.647  15.257  1.00  0.00    -0.237 OA
ATOM     85  O   UNL     1     -14.190 -12.594  13.562  1.00  0.00    -0.237 OA
ATOM     86  O   UNL     1     -12.046 -13.708  14.044  1.00  0.00    -0.744 OA
ENDBRANCH  82  83
ENDBRANCH  50  75
ENDBRANCH  24  25
ENDBRANCH  17  19
ENDBRANCH  16  17
ENDBRANCH   1  16
TORSDOF 16
