REMARK SMILES C[C@@H](C(=O)OCCOC(=O)c1ccc(-c2c3nc(c(-c4c(F)cc(S(=O)(=O)[O-])cc4F)c4ccc([nH]4)c(-c4c(F)cc(S(=O)(=O)[O-])cc4F)c4nc(c(-c5c(F)cc(S(=O)(=O)[O-])cc5F)c5ccc2[nH]5)C=C4)C=C3)cc1)c1ccc(O[C@H]2CCCC2=O)cc1F
REMARK SMILES IDX 6 1 5 2 3 3 4 4 2 5 1 6 77 7 78 8 89 9 79 10 88 11 90 12
REMARK SMILES IDX 80 13 81 14 82 15 83 16 86 17 84 18 85 19 87 20 7 21 8 22
REMARK SMILES IDX 9 23 10 24 11 25 12 26 76 27 13 28 75 29 14 30 15 31 16 32
REMARK SMILES IDX 69 33 17 34 74 35 68 36 70 37 18 38 73 39 67 40 66 41 19 43
REMARK SMILES IDX 53 44 32 45 52 46 33 47 36 48 51 49 71 50 34 51 35 52 50 54
REMARK SMILES IDX 72 55 37 56 20 57 21 58 30 59 22 60 23 61 29 62 31 63 24 64
REMARK SMILES IDX 25 65 26 66 27 67 28 68 54 69 55 70 64 71 56 72 57 73 63 74
REMARK SMILES IDX 65 75 58 76 59 77 60 78 61 79 62 80 38 81 39 82 48 83 40 84
REMARK SMILES IDX 41 85 47 86 49 87 42 88 43 89 44 90 45 91 46 92
REMARK H PARENT 70 42 36 53
REMARK Flexibility Score: inf
ROOT
ATOM      1  C   UNL     1       2.625  -1.943  -2.942  1.00  0.00     0.274 C 
ENDROOT
BRANCH   1   2
ATOM      2  O   UNL     1       2.050  -1.146  -1.877  1.00  0.00    -0.462 OA
BRANCH   2   3
ATOM      3  C   UNL     1       1.078  -0.235  -2.186  1.00  0.00     0.313 C 
ATOM      4  O   UNL     1       0.619  -0.089  -3.315  1.00  0.00    -0.252 OA
BRANCH   3   5
ATOM      5  C   UNL     1       0.653   0.635  -0.986  1.00  0.00     0.129 C 
ATOM      6  C   UNL     1       1.518   0.365   0.251  1.00  0.00     0.025 C 
BRANCH   5   7
ATOM      7  C   UNL     1      -0.854   0.629  -0.695  1.00  0.00     0.002 A 
ATOM      8  C   UNL     1      -1.737   1.484  -1.393  1.00  0.00     0.011 A 
ATOM      9  C   UNL     1      -1.437  -0.237   0.242  1.00  0.00     0.130 A 
ATOM     10  C   UNL     1      -3.142   1.365  -1.261  1.00  0.00     0.047 A 
ATOM     11  C   UNL     1      -2.822  -0.316   0.421  1.00  0.00     0.086 A 
ATOM     12  F   UNL     1      -0.688  -1.138   0.891  1.00  0.00    -0.207 F 
ATOM     13  C   UNL     1      -3.678   0.392  -0.421  1.00  0.00     0.123 A 
BRANCH  13  14
ATOM     14  O   UNL     1      -4.985   0.014  -0.376  1.00  0.00    -0.483 OA
BRANCH  14  15
ATOM     15  C   UNL     1      -5.626  -0.446  -1.575  1.00  0.00     0.239 C 
ATOM     16  C   UNL     1      -4.452  -1.199  -3.047  1.00  0.00     0.054 C 
ATOM     17  C   UNL     1      -7.199  -1.710  -1.333  1.00  0.00     0.173 C 
ATOM     18  C   UNL     1      -5.188  -3.061  -3.637  1.00  0.00     0.012 C 
ATOM     19  C   UNL     1      -6.933  -3.374  -2.583  1.00  0.00     0.080 C 
ATOM     20  O   UNL     1      -8.213  -1.402  -0.711  1.00  0.00    -0.296 OA
ENDBRANCH  14  15
ENDBRANCH  13  14
ENDBRANCH   5   7
ENDBRANCH   3   5
ENDBRANCH   2   3
ENDBRANCH   1   2
BRANCH   1  21
ATOM     21  C   UNL     1       2.501  -3.445  -2.641  1.00  0.00     0.275 C 
BRANCH  21  22
ATOM     22  O   UNL     1       1.118  -3.849  -2.710  1.00  0.00    -0.458 OA
BRANCH  22  23
ATOM     23  C   UNL     1       0.512  -4.178  -1.534  1.00  0.00     0.338 C 
ATOM     24  O   UNL     1       1.055  -4.368  -0.460  1.00  0.00    -0.246 OA
BRANCH  23  25
ATOM     25  C   UNL     1      -0.952  -3.997  -1.677  1.00  0.00     0.060 A 
ATOM     26  C   UNL     1      -1.298  -2.753  -2.109  1.00  0.00     0.016 A 
ATOM     27  C   UNL     1      -1.972  -4.803  -1.164  1.00  0.00     0.016 A 
ATOM     28  C   UNL     1      -2.570  -2.284  -1.839  1.00  0.00     0.010 A 
ATOM     29  C   UNL     1      -3.347  -4.365  -1.185  1.00  0.00     0.010 A 
ATOM     30  C   UNL     1      -3.709  -3.044  -1.541  1.00  0.00    -0.014 A 
BRANCH  30  31
ATOM     31  C   UNL     1      -5.391  -2.461  -1.747  1.00  0.00     0.031 A 
ATOM     32  C   UNL     1      -6.061  -3.264  -0.224  1.00  0.00     0.074 A 
ATOM     33  C   UNL     1      -6.369  -1.593  -3.104  1.00  0.00     0.049 A 
ATOM     34  N   UNL     1      -7.306  -3.699  -0.109  1.00  0.00    -0.248 NA
ATOM     35  C   UNL     1      -5.304  -3.502   1.016  1.00  0.00     0.031 C 
ATOM     36  C   UNL     1      -6.036  -1.099  -4.695  1.00  0.00     0.029 A 
ATOM     37  N   UNL     1      -7.828  -1.223  -3.322  1.00  0.00    -0.354 N 
ATOM     38  C   UNL     1      -7.561  -4.027   1.186  1.00  0.00     0.074 A 
ATOM     39  C   UNL     1      -6.242  -4.058   1.804  1.00  0.00     0.031 C 
ATOM     40  C   UNL     1      -7.071  -0.577  -5.333  1.00  0.00     0.029 A 
ATOM     41  C   UNL     1      -8.237  -0.869  -4.579  1.00  0.00     0.049 A 
ATOM     42  H   UNL     1      -8.466  -1.238  -2.573  1.00  0.00     0.167 HD
ATOM     43  C   UNL     1      -8.794  -4.178   1.744  1.00  0.00     0.037 A 
ATOM     44  C   UNL     1      -9.464  -0.946  -5.117  1.00  0.00     0.037 A 
ATOM     45  C   UNL     1     -10.093  -3.895   1.095  1.00  0.00     0.049 A 
ATOM     46  C   UNL     1     -10.595  -1.409  -4.269  1.00  0.00     0.074 A 
ATOM     47  C   UNL     1     -11.350  -4.052   1.666  1.00  0.00     0.029 A 
ATOM     48  N   UNL     1     -10.339  -3.322  -0.173  1.00  0.00    -0.354 N 
ATOM     49  N   UNL     1     -10.559  -1.960  -3.078  1.00  0.00    -0.248 NA
ATOM     50  C   UNL     1     -11.926  -1.211  -4.830  1.00  0.00     0.031 C 
ATOM     51  C   UNL     1     -12.333  -3.677   0.745  1.00  0.00     0.029 A 
ATOM     52  C   UNL     1     -11.724  -3.206  -0.409  1.00  0.00     0.049 A 
ATOM     53  H   UNL     1      -9.639  -3.042  -0.805  1.00  0.00     0.167 HD
ATOM     54  C   UNL     1     -11.884  -2.148  -2.712  1.00  0.00     0.074 A 
ATOM     55  C   UNL     1     -12.678  -1.628  -3.824  1.00  0.00     0.031 C 
ATOM     56  C   UNL     1     -12.423  -2.682  -1.583  1.00  0.00     0.037 A 
BRANCH  43  57
ATOM     57  C   UNL     1      -8.827  -4.706   3.156  1.00  0.00     0.058 A 
ATOM     58  C   UNL     1      -8.377  -3.966   4.258  1.00  0.00     0.135 A 
ATOM     59  C   UNL     1      -9.365  -5.983   3.409  1.00  0.00     0.135 A 
ATOM     60  F   UNL     1      -7.870  -2.735   4.088  1.00  0.00    -0.206 F 
ATOM     61  C   UNL     1      -8.395  -4.496   5.547  1.00  0.00     0.059 A 
ATOM     62  C   UNL     1      -9.428  -6.517   4.692  1.00  0.00     0.059 A 
ATOM     63  F   UNL     1      -9.845  -6.728   2.400  1.00  0.00    -0.206 F 
ATOM     64  C   UNL     1      -8.908  -5.779   5.751  1.00  0.00     0.060 A 
BRANCH  64  65
ATOM     65  S   UNL     1      -8.832  -6.490   7.408  1.00  0.00     0.124 S 
ATOM     66  O   UNL     1      -7.396  -6.692   7.570  1.00  0.00    -0.237 OA
ATOM     67  O   UNL     1      -9.421  -5.437   8.229  1.00  0.00    -0.237 OA
ATOM     68  O   UNL     1      -9.625  -7.711   7.295  1.00  0.00    -0.744 OA
ENDBRANCH  64  65
ENDBRANCH  43  57
BRANCH  44  69
ATOM     69  C   UNL     1      -9.591  -0.585  -6.546  1.00  0.00     0.058 A 
ATOM     70  C   UNL     1      -9.983   0.713  -6.889  1.00  0.00     0.135 A 
ATOM     71  C   UNL     1      -9.041  -1.409  -7.545  1.00  0.00     0.135 A 
ATOM     72  F   UNL     1     -10.473   1.535  -5.949  1.00  0.00    -0.206 F 
ATOM     73  C   UNL     1      -9.803   1.198  -8.175  1.00  0.00     0.059 A 
ATOM     74  C   UNL     1      -8.820  -0.932  -8.830  1.00  0.00     0.059 A 
ATOM     75  F   UNL     1      -8.577  -2.630  -7.231  1.00  0.00    -0.206 F 
ATOM     76  C   UNL     1      -9.202   0.375  -9.132  1.00  0.00     0.060 A 
BRANCH  76  77
ATOM     77  S   UNL     1      -8.857   1.075 -10.758  1.00  0.00     0.124 S 
ATOM     78  O   UNL     1     -10.200   1.185 -11.314  1.00  0.00    -0.237 OA
ATOM     79  O   UNL     1      -8.200   2.332 -10.414  1.00  0.00    -0.237 OA
ATOM     80  O   UNL     1      -7.994   0.075 -11.379  1.00  0.00    -0.744 OA
ENDBRANCH  76  77
ENDBRANCH  44  69
BRANCH  56  81
ATOM     81  C   UNL     1     -13.948  -2.664  -1.565  1.00  0.00     0.058 A 
ATOM     82  C   UNL     1     -14.714  -3.488  -2.414  1.00  0.00     0.135 A 
ATOM     83  C   UNL     1     -14.645  -1.744  -0.763  1.00  0.00     0.135 A 
ATOM     84  F   UNL     1     -14.107  -4.354  -3.241  1.00  0.00    -0.206 F 
ATOM     85  C   UNL     1     -16.100  -3.365  -2.502  1.00  0.00     0.059 A 
ATOM     86  C   UNL     1     -16.036  -1.634  -0.805  1.00  0.00     0.059 A 
ATOM     87  F   UNL     1     -13.976  -0.920   0.057  1.00  0.00    -0.206 F 
ATOM     88  C   UNL     1     -16.753  -2.435  -1.692  1.00  0.00     0.060 A 
BRANCH  88  89
ATOM     89  S   UNL     1     -18.552  -2.297  -1.810  1.00  0.00     0.124 S 
ATOM     90  O   UNL     1     -18.719  -1.666  -3.115  1.00  0.00    -0.237 OA
ATOM     91  O   UNL     1     -18.976  -3.691  -1.723  1.00  0.00    -0.237 OA
ATOM     92  O   UNL     1     -18.907  -1.467  -0.663  1.00  0.00    -0.744 OA
ENDBRANCH  88  89
ENDBRANCH  56  81
ENDBRANCH  30  31
ENDBRANCH  23  25
ENDBRANCH  22  23
ENDBRANCH  21  22
ENDBRANCH   1  21
TORSDOF 17
