REMARK SMILES O=C(OCCOC(=O)[C@H]1C[C@@H](O)CN1C(=O)c1cc(F)c(F)cc1Cl)c1ccc(-c2c3nc(c(-c4c(F)cc(S(=O)(=O)[O-])cc4F)c4ccc([nH]4)c(-c4c(F)cc(S(=O)(=O)[O-])cc4F)c4nc(c(-c5c(F)cc(S(=O)(=O)[O-])cc5F)c5ccc2[nH]5)C=C4)C=C3)cc1
REMARK SMILES IDX 4 1 3 2 2 3 1 4 26 5 27 6 91 7 28 8 90 9 29 10 30 11 31 12
REMARK SMILES IDX 84 13 32 14 89 15 83 16 85 17 33 18 88 19 82 20 81 21 34 23
REMARK SMILES IDX 68 24 47 25 67 26 48 27 51 28 66 29 86 30 49 31 50 32 65 34
REMARK SMILES IDX 87 35 52 36 35 37 36 38 45 39 37 40 38 41 44 42 46 43 39 44
REMARK SMILES IDX 40 45 41 46 42 47 43 48 69 49 70 50 79 51 71 52 72 53 78 54
REMARK SMILES IDX 80 55 73 56 74 57 75 58 76 59 77 60 53 61 54 62 63 63 55 64
REMARK SMILES IDX 56 65 62 66 64 67 57 68 58 69 59 70 60 71 61 72 5 73 6 74
REMARK SMILES IDX 7 75 8 76 9 77 10 78 14 79 11 80 13 81 15 82 16 83 17 84
REMARK SMILES IDX 18 85 24 86 19 87 23 88 25 89 20 90 21 91 22 92 12 93
REMARK H PARENT 85 22 51 33 12 94
REMARK Flexibility Score: inf
ROOT
ATOM      1  C   UNL     1       4.432  -0.681  -1.111  1.00  0.00     0.275 C 
ENDROOT
BRANCH   1   2
ATOM      2  O   UNL     1       3.341  -1.021  -0.243  1.00  0.00    -0.458 OA
BRANCH   2   3
ATOM      3  C   UNL     1       3.426  -1.151   1.107  1.00  0.00     0.338 C 
ATOM      4  O   UNL     1       2.738  -1.987   1.686  1.00  0.00    -0.246 OA
BRANCH   3   5
ATOM      5  C   UNL     1       4.085  -0.082   1.915  1.00  0.00     0.060 A 
ATOM      6  C   UNL     1       3.305   0.473   2.940  1.00  0.00     0.016 A 
ATOM      7  C   UNL     1       5.396   0.377   1.760  1.00  0.00     0.016 A 
ATOM      8  C   UNL     1       3.770   1.567   3.674  1.00  0.00     0.010 A 
ATOM      9  C   UNL     1       5.881   1.452   2.530  1.00  0.00     0.010 A 
ATOM     10  C   UNL     1       5.058   2.093   3.459  1.00  0.00    -0.014 A 
BRANCH  10  11
ATOM     11  C   UNL     1       5.516   3.231   4.304  1.00  0.00     0.031 A 
ATOM     12  C   UNL     1       5.713   4.631   3.784  1.00  0.00     0.074 A 
ATOM     13  C   UNL     1       5.642   3.005   5.625  1.00  0.00     0.049 A 
ATOM     14  N   UNL     1       5.606   5.761   4.439  1.00  0.00    -0.248 NA
ATOM     15  C   UNL     1       6.032   4.813   2.364  1.00  0.00     0.031 C 
ATOM     16  C   UNL     1       5.503   1.696   6.265  1.00  0.00     0.029 A 
ATOM     17  N   UNL     1       5.889   3.865   6.660  1.00  0.00    -0.354 N 
ATOM     18  C   UNL     1       5.710   6.772   3.490  1.00  0.00     0.074 A 
ATOM     19  C   UNL     1       5.946   6.132   2.218  1.00  0.00     0.031 C 
ATOM     20  C   UNL     1       5.638   1.843   7.589  1.00  0.00     0.029 A 
ATOM     21  C   UNL     1       5.917   3.246   7.884  1.00  0.00     0.049 A 
ATOM     22  H   UNL     1       6.033   4.832   6.539  1.00  0.00     0.167 HD
ATOM     23  C   UNL     1       5.626   8.110   3.678  1.00  0.00     0.037 A 
ATOM     24  C   UNL     1       6.161   3.744   9.110  1.00  0.00     0.037 A 
ATOM     25  C   UNL     1       5.660   8.734   4.976  1.00  0.00     0.049 A 
ATOM     26  C   UNL     1       6.374   5.215   9.268  1.00  0.00     0.074 A 
ATOM     27  C   UNL     1       5.597  10.082   5.289  1.00  0.00     0.029 A 
ATOM     28  N   UNL     1       5.904   8.060   6.163  1.00  0.00    -0.354 N 
ATOM     29  N   UNL     1       6.209   6.163   8.377  1.00  0.00    -0.248 NA
ATOM     30  C   UNL     1       6.821   5.689  10.582  1.00  0.00     0.031 C 
ATOM     31  C   UNL     1       5.922  10.226   6.644  1.00  0.00     0.029 A 
ATOM     32  C   UNL     1       6.128   8.967   7.184  1.00  0.00     0.049 A 
ATOM     33  H   UNL     1       5.917   7.081   6.263  1.00  0.00     0.167 HD
ATOM     34  C   UNL     1       6.542   7.349   9.017  1.00  0.00     0.074 A 
ATOM     35  C   UNL     1       6.902   6.999  10.378  1.00  0.00     0.031 C 
ATOM     36  C   UNL     1       6.543   8.610   8.519  1.00  0.00     0.037 A 
BRANCH  23  37
ATOM     37  C   UNL     1       5.548   9.019   2.483  1.00  0.00     0.058 A 
ATOM     38  C   UNL     1       4.301   9.404   1.963  1.00  0.00     0.135 A 
ATOM     39  C   UNL     1       6.692   9.651   1.977  1.00  0.00     0.135 A 
ATOM     40  F   UNL     1       3.175   8.818   2.402  1.00  0.00    -0.206 F 
ATOM     41  C   UNL     1       4.188  10.414   1.009  1.00  0.00     0.059 A 
ATOM     42  C   UNL     1       6.603  10.653   1.014  1.00  0.00     0.059 A 
ATOM     43  F   UNL     1       7.906   9.316   2.439  1.00  0.00    -0.206 F 
ATOM     44  C   UNL     1       5.346  11.037   0.543  1.00  0.00     0.060 A 
BRANCH  44  45
ATOM     45  S   UNL     1       5.240  12.416  -0.626  1.00  0.00     0.124 S 
ATOM     46  O   UNL     1       5.677  11.787  -1.868  1.00  0.00    -0.237 OA
ATOM     47  O   UNL     1       3.832  12.800  -0.566  1.00  0.00    -0.237 OA
ATOM     48  O   UNL     1       6.168  13.384  -0.053  1.00  0.00    -0.744 OA
ENDBRANCH  44  45
ENDBRANCH  23  37
BRANCH  24  49
ATOM     49  C   UNL     1       6.258   2.790  10.240  1.00  0.00     0.058 A 
ATOM     50  C   UNL     1       5.234   2.674  11.187  1.00  0.00     0.135 A 
ATOM     51  C   UNL     1       7.313   1.862  10.288  1.00  0.00     0.135 A 
ATOM     52  F   UNL     1       4.212   3.542  11.182  1.00  0.00    -0.206 F 
ATOM     53  C   UNL     1       5.229   1.639  12.117  1.00  0.00     0.059 A 
ATOM     54  C   UNL     1       7.317   0.808  11.191  1.00  0.00     0.059 A 
ATOM     55  F   UNL     1       8.308   1.929   9.388  1.00  0.00    -0.206 F 
ATOM     56  C   UNL     1       6.262   0.698  12.095  1.00  0.00     0.060 A 
BRANCH  56  57
ATOM     57  S   UNL     1       6.162  -0.731  13.195  1.00  0.00     0.124 S 
ATOM     58  O   UNL     1       6.497  -0.134  14.482  1.00  0.00    -0.237 OA
ATOM     59  O   UNL     1       4.775  -1.152  13.025  1.00  0.00    -0.237 OA
ATOM     60  O   UNL     1       7.157  -1.647  12.645  1.00  0.00    -0.744 OA
ENDBRANCH  56  57
ENDBRANCH  24  49
BRANCH  36  61
ATOM     61  C   UNL     1       7.014   9.711   9.422  1.00  0.00     0.058 A 
ATOM     62  C   UNL     1       8.379   9.876   9.702  1.00  0.00     0.135 A 
ATOM     63  C   UNL     1       6.114  10.651   9.946  1.00  0.00     0.135 A 
ATOM     64  F   UNL     1       9.277   8.997   9.232  1.00  0.00    -0.206 F 
ATOM     65  C   UNL     1       8.836  10.936  10.477  1.00  0.00     0.059 A 
ATOM     66  C   UNL     1       6.552  11.732  10.704  1.00  0.00     0.059 A 
ATOM     67  F   UNL     1       4.799  10.539   9.700  1.00  0.00    -0.206 F 
ATOM     68  C   UNL     1       7.915  11.863  10.968  1.00  0.00     0.060 A 
BRANCH  68  69
ATOM     69  S   UNL     1       8.530  13.262  11.928  1.00  0.00     0.124 S 
ATOM     70  O   UNL     1       8.909  12.615  13.180  1.00  0.00    -0.237 OA
ATOM     71  O   UNL     1       9.634  13.744  11.105  1.00  0.00    -0.237 OA
ATOM     72  O   UNL     1       7.377  14.154  12.007  1.00  0.00    -0.744 OA
ENDBRANCH  68  69
ENDBRANCH  36  61
ENDBRANCH  10  11
ENDBRANCH   3   5
ENDBRANCH   2   3
ENDBRANCH   1   2
BRANCH   1  73
ATOM     73  C   UNL     1       4.245   0.658  -1.828  1.00  0.00     0.274 C 
BRANCH  73  74
ATOM     74  O   UNL     1       3.514   1.628  -1.060  1.00  0.00    -0.461 OA
BRANCH  74  75
ATOM     75  C   UNL     1       2.224   1.871  -1.451  1.00  0.00     0.329 C 
ATOM     76  O   UNL     1       1.687   1.324  -2.406  1.00  0.00    -0.250 OA
BRANCH  75  77
ATOM     77  C   UNL     1       1.536   2.942  -0.568  1.00  0.00     0.198 C 
ATOM     78  C   UNL     1       1.802   2.726   0.923  1.00  0.00     0.071 C 
ATOM     79  N   UNL     1       1.965   4.327  -0.797  1.00  0.00    -0.322 N 
ATOM     80  C   UNL     1       2.890   3.746   1.252  1.00  0.00     0.136 C 
ATOM     81  C   UNL     1       2.479   4.944   0.428  1.00  0.00     0.152 C 
BRANCH  79  82
ATOM     82  C   UNL     1       1.620   5.001  -1.946  1.00  0.00     0.256 C 
ATOM     83  O   UNL     1       1.070   4.493  -2.905  1.00  0.00    -0.269 OA
BRANCH  82  84
ATOM     84  C   UNL     1       1.999   6.421  -1.998  1.00  0.00     0.061 A 
ATOM     85  C   UNL     1       3.335   6.723  -2.288  1.00  0.00     0.057 A 
ATOM     86  C   UNL     1       1.073   7.429  -1.705  1.00  0.00     0.056 A 
ATOM     87  C   UNL     1       3.734   8.050  -2.292  1.00  0.00     0.159 A 
ATOM     88  C   UNL     1       1.487   8.758  -1.724  1.00  0.00     0.063 A 
ATOM     89  Cl  UNL     1      -0.561   7.081  -1.275  1.00  0.00    -0.083 Cl
ATOM     90  F   UNL     1       5.017   8.336  -2.539  1.00  0.00    -0.204 F 
ATOM     91  C   UNL     1       2.812   9.057  -2.030  1.00  0.00     0.160 A 
ATOM     92  F   UNL     1       3.183  10.337  -2.071  1.00  0.00    -0.204 F 
ENDBRANCH  82  84
ENDBRANCH  79  82
BRANCH  80  93
ATOM     93  O   UNL     1       4.164   3.301   0.797  1.00  0.00    -0.391 OA
ATOM     94  H   UNL     1       4.124   3.124  -0.155  1.00  0.00     0.211 HD
ENDBRANCH  80  93
ENDBRANCH  75  77
ENDBRANCH  74  75
ENDBRANCH  73  74
ENDBRANCH   1  73
TORSDOF 17
