REMARK SMILES COC[C@H](C)[C@H](CC(C)C)C(=O)OCCOC(=O)c1ccc(-c2c3nc(c(-c4c(F)cc(S(=O)(=O)[O-])cc4F)c4ccc([nH]4)c(-c4c(F)cc(S(=O)(=O)[O-])cc4F)c4nc(c(-c5c(F)cc(S(=O)(=O)[O-])cc5F)c5ccc2[nH]5)C=C4)C=C3)cc1
REMARK SMILES IDX 14 1 13 2 11 3 12 4 6 5 4 6 5 7 3 8 2 9 1 10 7 11 8 12 9 13
REMARK SMILES IDX 10 14 15 15 16 16 17 17 18 18 19 19 20 20 84 21 21 22 83 23
REMARK SMILES IDX 22 24 23 25 24 26 77 27 25 28 82 29 76 30 78 31 26 32 81 33
REMARK SMILES IDX 75 34 74 35 27 37 61 38 40 39 60 40 41 41 44 42 59 43 79 44
REMARK SMILES IDX 42 45 43 46 58 48 80 49 45 50 28 51 29 52 38 53 30 54 31 55
REMARK SMILES IDX 37 56 39 57 32 58 33 59 34 60 35 61 36 62 62 63 63 64 72 65
REMARK SMILES IDX 64 66 65 67 71 68 73 69 66 70 67 71 68 72 69 73 70 74 46 75
REMARK SMILES IDX 47 76 56 77 48 78 49 79 55 80 57 81 50 82 51 83 52 84 53 85
REMARK SMILES IDX 54 86
REMARK H PARENT 78 36 44 47
REMARK Flexibility Score: inf
ROOT
ATOM      1  C   UNL     1      -1.028   1.954  -6.375  1.00  0.00     0.274 C 
ENDROOT
BRANCH   1   2
ATOM      2  O   UNL     1      -0.908   0.973  -5.320  1.00  0.00    -0.462 OA
BRANCH   2   3
ATOM      3  C   UNL     1       0.282   0.324  -5.273  1.00  0.00     0.309 C 
ATOM      4  O   UNL     1       1.205   0.550  -6.046  1.00  0.00    -0.252 OA
BRANCH   3   5
ATOM      5  C   UNL     1       0.368  -0.744  -4.189  1.00  0.00     0.104 C 
BRANCH   5   6
ATOM      6  C   UNL     1      -0.123  -2.144  -4.678  1.00  0.00     0.026 C 
ATOM      7  C   UNL     1      -1.637  -2.220  -4.920  1.00  0.00     0.011 C 
BRANCH   6   8
ATOM      8  C   UNL     1       0.690  -2.771  -5.833  1.00  0.00     0.163 C 
BRANCH   8   9
ATOM      9  O   UNL     1       0.923  -1.943  -6.955  1.00  0.00    -0.384 OA
ATOM     10  C   UNL     1      -0.148  -1.816  -7.870  1.00  0.00     0.194 C 
ENDBRANCH   8   9
ENDBRANCH   6   8
ENDBRANCH   5   6
BRANCH   5  11
ATOM     11  C   UNL     1      -0.279  -0.400  -2.820  1.00  0.00     0.018 C 
BRANCH  11  12
ATOM     12  C   UNL     1       0.090   0.953  -2.168  1.00  0.00    -0.017 C 
ATOM     13  C   UNL     1      -1.027   1.986  -2.342  1.00  0.00     0.007 C 
ATOM     14  C   UNL     1       0.313   0.773  -0.659  1.00  0.00     0.007 C 
ENDBRANCH  11  12
ENDBRANCH   5  11
ENDBRANCH   3   5
ENDBRANCH   2   3
ENDBRANCH   1   2
BRANCH   1  15
ATOM     15  C   UNL     1      -0.404   3.314  -6.029  1.00  0.00     0.275 C 
BRANCH  15  16
ATOM     16  O   UNL     1       1.031   3.235  -5.973  1.00  0.00    -0.458 OA
BRANCH  16  17
ATOM     17  C   UNL     1       1.614   3.553  -4.794  1.00  0.00     0.338 C 
ATOM     18  O   UNL     1       1.077   4.012  -3.802  1.00  0.00    -0.246 OA
BRANCH  17  19
ATOM     19  C   UNL     1       3.052   3.244  -4.862  1.00  0.00     0.060 A 
ATOM     20  C   UNL     1       3.500   1.952  -4.569  1.00  0.00     0.016 A 
ATOM     21  C   UNL     1       3.966   4.261  -5.134  1.00  0.00     0.016 A 
ATOM     22  C   UNL     1       4.863   1.662  -4.568  1.00  0.00     0.010 A 
ATOM     23  C   UNL     1       5.333   3.972  -5.132  1.00  0.00     0.010 A 
ATOM     24  C   UNL     1       5.788   2.673  -4.844  1.00  0.00    -0.014 A 
BRANCH  24  25
ATOM     25  C   UNL     1       7.242   2.401  -4.775  1.00  0.00     0.031 A 
ATOM     26  C   UNL     1       8.027   2.895  -3.596  1.00  0.00     0.074 A 
ATOM     27  C   UNL     1       7.852   1.742  -5.777  1.00  0.00     0.049 A 
ATOM     28  N   UNL     1       9.321   2.936  -3.420  1.00  0.00    -0.248 NA
ATOM     29  C   UNL     1       7.245   3.419  -2.464  1.00  0.00     0.031 C 
ATOM     30  C   UNL     1       7.180   1.167  -6.942  1.00  0.00     0.029 A 
ATOM     31  N   UNL     1       9.180   1.465  -5.984  1.00  0.00    -0.354 N 
ATOM     32  C   UNL     1       9.514   3.514  -2.172  1.00  0.00     0.074 A 
ATOM     33  C   UNL     1       8.203   3.810  -1.635  1.00  0.00     0.031 C 
ATOM     34  C   UNL     1       8.102   0.628  -7.757  1.00  0.00     0.029 A 
ATOM     35  C   UNL     1       9.430   0.863  -7.194  1.00  0.00     0.049 A 
ATOM     36  H   UNL     1       9.885   1.677  -5.330  1.00  0.00     0.167 HD
ATOM     37  C   UNL     1      10.682   3.778  -1.539  1.00  0.00     0.037 A 
ATOM     38  C   UNL     1      10.599   0.576  -7.799  1.00  0.00     0.037 A 
ATOM     39  C   UNL     1      11.978   3.476  -2.088  1.00  0.00     0.049 A 
ATOM     40  C   UNL     1      11.886   0.923  -7.101  1.00  0.00     0.074 A 
ATOM     41  C   UNL     1      13.226   3.714  -1.541  1.00  0.00     0.029 A 
ATOM     42  N   UNL     1      12.191   2.863  -3.316  1.00  0.00    -0.354 N 
ATOM     43  N   UNL     1      12.061   1.504  -5.938  1.00  0.00    -0.248 NA
ATOM     44  C   UNL     1      13.133   0.585  -7.799  1.00  0.00     0.031 C 
ATOM     45  C   UNL     1      14.195   3.272  -2.450  1.00  0.00     0.029 A 
ATOM     46  C   UNL     1      13.549   2.724  -3.548  1.00  0.00     0.049 A 
ATOM     47  H   UNL     1      11.481   2.571  -3.932  1.00  0.00     0.167 HD
ATOM     48  C   UNL     1      13.436   1.590  -5.757  1.00  0.00     0.074 A 
ATOM     49  C   UNL     1      14.047   0.990  -6.926  1.00  0.00     0.031 C 
ATOM     50  C   UNL     1      14.132   2.119  -4.720  1.00  0.00     0.037 A 
BRANCH  37  51
ATOM     51  C   UNL     1      10.604   4.462  -0.204  1.00  0.00     0.058 A 
ATOM     52  C   UNL     1      10.189   3.782   0.952  1.00  0.00     0.135 A 
ATOM     53  C   UNL     1      10.954   5.816  -0.077  1.00  0.00     0.135 A 
ATOM     54  F   UNL     1       9.824   2.492   0.883  1.00  0.00    -0.206 F 
ATOM     55  C   UNL     1      10.096   4.428   2.181  1.00  0.00     0.059 A 
ATOM     56  C   UNL     1      10.890   6.476   1.147  1.00  0.00     0.059 A 
ATOM     57  F   UNL     1      11.355   6.514  -1.151  1.00  0.00    -0.206 F 
ATOM     58  C   UNL     1      10.443   5.777   2.267  1.00  0.00     0.060 A 
BRANCH  58  59
ATOM     59  S   UNL     1      10.307   6.609   3.865  1.00  0.00     0.124 S 
ATOM     60  O   UNL     1       8.864   6.807   3.967  1.00  0.00    -0.237 OA
ATOM     61  O   UNL     1      10.877   5.626   4.782  1.00  0.00    -0.237 OA
ATOM     62  O   UNL     1      11.096   7.823   3.684  1.00  0.00    -0.744 OA
ENDBRANCH  58  59
ENDBRANCH  37  51
BRANCH  38  63
ATOM     63  C   UNL     1      10.598  -0.040  -9.151  1.00  0.00     0.058 A 
ATOM     64  C   UNL     1      10.963  -1.380  -9.337  1.00  0.00     0.135 A 
ATOM     65  C   UNL     1      10.199   0.693 -10.281  1.00  0.00     0.135 A 
ATOM     66  F   UNL     1      11.364  -2.117  -8.290  1.00  0.00    -0.206 F 
ATOM     67  C   UNL     1      10.935  -1.975 -10.595  1.00  0.00     0.059 A 
ATOM     68  C   UNL     1      10.142   0.114 -11.545  1.00  0.00     0.059 A 
ATOM     69  F   UNL     1       9.832   1.977 -10.154  1.00  0.00    -0.206 F 
ATOM     70  C   UNL     1      10.517  -1.220 -11.693  1.00  0.00     0.060 A 
BRANCH  70  71
ATOM     71  S   UNL     1      10.415  -2.018 -13.311  1.00  0.00     0.124 S 
ATOM     72  O   UNL     1      11.818  -2.060 -13.707  1.00  0.00    -0.237 OA
ATOM     73  O   UNL     1       9.806  -3.304 -12.984  1.00  0.00    -0.237 OA
ATOM     74  O   UNL     1       9.568  -1.111 -14.078  1.00  0.00    -0.744 OA
ENDBRANCH  70  71
ENDBRANCH  38  63
BRANCH  50  75
ATOM     75  C   UNL     1      15.630   2.047  -4.793  1.00  0.00     0.058 A 
ATOM     76  C   UNL     1      16.367   2.916  -5.611  1.00  0.00     0.135 A 
ATOM     77  C   UNL     1      16.336   1.128  -4.001  1.00  0.00     0.135 A 
ATOM     78  F   UNL     1      15.736   3.807  -6.392  1.00  0.00    -0.206 F 
ATOM     79  C   UNL     1      17.756   2.865  -5.655  1.00  0.00     0.059 A 
ATOM     80  C   UNL     1      17.726   1.073  -4.014  1.00  0.00     0.059 A 
ATOM     81  F   UNL     1      15.675   0.282  -3.196  1.00  0.00    -0.206 F 
ATOM     82  C   UNL     1      18.427   1.939  -4.854  1.00  0.00     0.060 A 
BRANCH  82  83
ATOM     83  S   UNL     1      20.232   1.900  -4.893  1.00  0.00     0.124 S 
ATOM     84  O   UNL     1      20.483   1.183  -6.138  1.00  0.00    -0.237 OA
ATOM     85  O   UNL     1      20.578   3.318  -4.896  1.00  0.00    -0.237 OA
ATOM     86  O   UNL     1      20.581   1.180  -3.671  1.00  0.00    -0.744 OA
ENDBRANCH  82  83
ENDBRANCH  50  75
ENDBRANCH  24  25
ENDBRANCH  17  19
ENDBRANCH  16  17
ENDBRANCH  15  16
ENDBRANCH   1  15
TORSDOF 19
