REMARK SMILES Cc1ccc(S(=O)(=O)n2cc(C(=O)C(=O)N[C@@H](Cc3c[nH]c4ccccc34)C(=O)NCC(=O)OCCOC(=O)c3ccc(-c4c5nc(c(-c6c(F)cc(S(=O)(=O)[O-])cc6F)c6ccc([nH]6)c(-c6c(F)cc(S(=O)(=O)[O-])cc6F)c6nc(c(-c7c(F)cc(S(=O)(=O)[O-])cc7F)c7ccc4[nH]7)C=C6)C=C5)cc3)c3ccccc32)cc1
REMARK SMILES IDX 32 1 33 2 31 3 30 4 28 5 29 6 17 8 16 9 14 10 15 11 12 13
REMARK SMILES IDX 13 14 11 15 9 16 10 17 111 18 106 19 110 20 107 21 109 22
REMARK SMILES IDX 108 23 6 24 7 25 8 26 5 27 1 28 2 29 3 30 113 31 4 32 112 33
REMARK SMILES IDX 18 34 19 35 20 36 27 37 21 38 22 39 26 40 23 42 25 43 24 44
REMARK SMILES IDX 34 45 35 46 36 47 37 48 38 49 39 50 40 51 41 52 105 53 42 54
REMARK SMILES IDX 104 55 43 56 44 57 45 58 98 59 46 60 103 61 97 62 99 63
REMARK SMILES IDX 47 64 102 65 96 66 95 67 48 69 82 70 61 71 81 72 62 73 65 74
REMARK SMILES IDX 80 75 100 76 63 77 64 78 79 80 101 81 66 82 49 83 50 84
REMARK SMILES IDX 59 85 51 86 52 87 58 88 60 89 53 90 54 91 55 92 56 93 57 94
REMARK SMILES IDX 83 95 84 96 93 97 85 98 86 99 92 100 94 101 87 102 88 103
REMARK SMILES IDX 89 104 90 105 91 106 67 107 68 108 77 109 69 110 70 111
REMARK SMILES IDX 76 112 78 113 71 114 72 115 73 116 74 117 75 118
REMARK H PARENT 30 7 16 12 21 41 99 68 65 79
REMARK Flexibility Score: inf
ROOT
ATOM      1  C   UNL     1     -10.596   3.276  -4.714  1.00  0.00     0.325 C 
ATOM      2  O   UNL     1     -11.284   2.741  -5.570  1.00  0.00    -0.250 OA
ENDROOT
BRANCH   1   3
ATOM      3  C   UNL     1     -10.252   2.659  -3.345  1.00  0.00     0.238 C 
BRANCH   3   4
ATOM      4  N   UNL     1     -11.368   2.004  -2.667  1.00  0.00    -0.343 N 
ATOM      5  C   UNL     1     -11.508   1.535  -1.389  1.00  0.00     0.243 C 
ATOM      6  O   UNL     1     -12.582   0.981  -1.121  1.00  0.00    -0.273 OA
ATOM      7  H   UNL     1     -12.165   1.878  -3.232  1.00  0.00     0.164 HD
BRANCH   5   8
ATOM      8  C   UNL     1     -10.352   1.536  -0.334  1.00  0.00     0.176 C 
BRANCH   8   9
ATOM      9  N   UNL     1      -9.198   2.374  -0.640  1.00  0.00    -0.337 N 
ATOM     10  C   UNL     1      -7.896   2.105  -0.977  1.00  0.00     0.293 C 
ATOM     11  O   UNL     1      -7.083   3.003  -1.157  1.00  0.00    -0.265 OA
ATOM     12  H   UNL     1      -9.396   3.338  -0.596  1.00  0.00     0.164 HD
BRANCH  10  13
ATOM     13  C   UNL     1      -7.495   0.674  -1.260  1.00  0.00     0.252 C 
ATOM     14  O   UNL     1      -8.184   0.092  -2.101  1.00  0.00    -0.283 OA
BRANCH  13  15
ATOM     15  C   UNL     1      -6.426  -0.006  -0.532  1.00  0.00     0.054 A 
ATOM     16  N   UNL     1      -4.491  -0.629   0.447  1.00  0.00    -0.240 N 
ATOM     17  C   UNL     1      -5.182   0.456  -0.099  1.00  0.00     0.117 A 
ATOM     18  C   UNL     1      -5.430  -1.645   0.677  1.00  0.00     0.065 A 
ATOM     19  C   UNL     1      -6.489  -1.389  -0.189  1.00  0.00     0.012 A 
ATOM     20  C   UNL     1      -5.328  -2.864   1.370  1.00  0.00     0.028 A 
ATOM     21  C   UNL     1      -7.371  -2.439  -0.516  1.00  0.00     0.011 A 
ATOM     22  C   UNL     1      -6.200  -3.896   1.011  1.00  0.00     0.002 A 
ATOM     23  C   UNL     1      -7.182  -3.700   0.048  1.00  0.00     0.001 A 
BRANCH  16  24
ATOM     24  S   UNL     1      -3.002  -1.231  -0.270  1.00  0.00     0.268 S 
ATOM     25  O   UNL     1      -3.296  -1.290  -1.692  1.00  0.00    -0.201 OA
ATOM     26  O   UNL     1      -2.720  -2.451   0.475  1.00  0.00    -0.201 OA
BRANCH  24  27
ATOM     27  C   UNL     1      -1.506  -0.320  -0.112  1.00  0.00     0.088 A 
ATOM     28  C   UNL     1       2.529   1.201   0.093  1.00  0.00     0.044 C 
ATOM     29  C   UNL     1       1.115   0.706  -0.003  1.00  0.00    -0.051 A 
ATOM     30  C   UNL     1       0.906  -0.601  -0.427  1.00  0.00     0.005 A 
ATOM     31  C   UNL     1       0.003   1.485   0.384  1.00  0.00     0.005 A 
ATOM     32  C   UNL     1      -0.386  -1.097  -0.489  1.00  0.00     0.022 A 
ATOM     33  C   UNL     1      -1.318   0.979   0.332  1.00  0.00     0.022 A 
ENDBRANCH  24  27
ENDBRANCH  16  24
ENDBRANCH  13  15
ENDBRANCH  10  13
ENDBRANCH   8   9
BRANCH   8  34
ATOM     34  C   UNL     1     -10.891   1.871   1.096  1.00  0.00     0.072 C 
BRANCH  34  35
ATOM     35  C   UNL     1     -11.552   3.225   1.302  1.00  0.00    -0.020 A 
ATOM     36  C   UNL     1     -12.817   3.372   1.899  1.00  0.00     0.087 A 
ATOM     37  C   UNL     1     -11.113   4.539   0.892  1.00  0.00     0.003 A 
ATOM     38  N   UNL     1     -13.401   4.632   1.801  1.00  0.00    -0.361 N 
ATOM     39  C   UNL     1     -12.622   5.474   1.050  1.00  0.00     0.046 A 
ATOM     40  C   UNL     1      -9.649   5.346   0.114  1.00  0.00     0.010 A 
ATOM     41  H   UNL     1     -14.257   4.885   2.215  1.00  0.00     0.166 HD
ATOM     42  C   UNL     1     -12.830   7.032   0.113  1.00  0.00     0.026 A 
ATOM     43  C   UNL     1      -9.732   7.054  -0.545  1.00  0.00     0.001 A 
ATOM     44  C   UNL     1     -11.370   7.830  -0.699  1.00  0.00     0.002 A 
ENDBRANCH  34  35
ENDBRANCH   8  34
ENDBRANCH   5   8
ENDBRANCH   3   4
ENDBRANCH   1   3
BRANCH   1  45
ATOM     45  O   UNL     1      -9.992   4.488  -4.850  1.00  0.00    -0.461 OA
BRANCH  45  46
ATOM     46  C   UNL     1     -10.173   5.323  -6.023  1.00  0.00     0.274 C 
BRANCH  46  47
ATOM     47  C   UNL     1     -11.595   5.516  -6.604  1.00  0.00     0.275 C 
BRANCH  47  48
ATOM     48  O   UNL     1     -12.469   6.242  -5.724  1.00  0.00    -0.458 OA
BRANCH  48  49
ATOM     49  C   UNL     1     -13.287   5.467  -4.958  1.00  0.00     0.338 C 
ATOM     50  O   UNL     1     -14.127   4.694  -5.380  1.00  0.00    -0.246 OA
BRANCH  49  51
ATOM     51  C   UNL     1     -12.812   5.551  -3.558  1.00  0.00     0.060 A 
ATOM     52  C   UNL     1     -13.344   4.816  -2.537  1.00  0.00     0.016 A 
ATOM     53  C   UNL     1     -11.605   6.157  -3.312  1.00  0.00     0.016 A 
ATOM     54  C   UNL     1     -12.739   4.919  -1.251  1.00  0.00     0.010 A 
ATOM     55  C   UNL     1     -10.888   5.913  -2.142  1.00  0.00     0.010 A 
ATOM     56  C   UNL     1     -11.493   5.741  -0.802  1.00  0.00    -0.014 A 
BRANCH  56  57
ATOM     57  C   UNL     1     -10.959   6.708   1.048  1.00  0.00     0.031 A 
ATOM     58  C   UNL     1      -9.862   6.177   2.282  1.00  0.00     0.074 A 
ATOM     59  C   UNL     1     -11.144   8.039   1.641  1.00  0.00     0.049 A 
ATOM     60  N   UNL     1      -8.564   6.404   2.342  1.00  0.00    -0.248 NA
ATOM     61  C   UNL     1     -10.350   5.377   3.426  1.00  0.00     0.031 C 
ATOM     62  C   UNL     1     -10.246   8.781   2.558  1.00  0.00     0.029 A 
ATOM     63  N   UNL     1     -12.068   9.088   1.390  1.00  0.00    -0.354 N 
ATOM     64  C   UNL     1      -8.068   5.775   3.483  1.00  0.00     0.074 A 
ATOM     65  C   UNL     1      -9.207   5.043   4.024  1.00  0.00     0.031 C 
ATOM     66  C   UNL     1     -10.814   9.941   2.939  1.00  0.00     0.029 A 
ATOM     67  C   UNL     1     -12.170   9.940   2.451  1.00  0.00     0.049 A 
ATOM     68  H   UNL     1     -12.573   9.188   0.551  1.00  0.00     0.167 HD
ATOM     69  C   UNL     1      -7.274   6.435   4.378  1.00  0.00     0.037 A 
ATOM     70  C   UNL     1     -13.334  10.119   3.138  1.00  0.00     0.037 A 
ATOM     71  C   UNL     1      -7.881   7.595   5.005  1.00  0.00     0.049 A 
ATOM     72  C   UNL     1     -13.064   9.834   4.586  1.00  0.00     0.074 A 
ATOM     73  C   UNL     1      -7.623   8.953   4.954  1.00  0.00     0.029 A 
ATOM     74  N   UNL     1      -9.034   7.450   5.772  1.00  0.00    -0.354 N 
ATOM     75  N   UNL     1     -12.082   9.063   4.966  1.00  0.00    -0.248 NA
ATOM     76  C   UNL     1     -13.774  10.432   5.710  1.00  0.00     0.031 C 
ATOM     77  C   UNL     1      -8.682   9.624   5.620  1.00  0.00     0.029 A 
ATOM     78  C   UNL     1      -9.568   8.674   6.104  1.00  0.00     0.049 A 
ATOM     79  H   UNL     1      -9.417   6.585   6.042  1.00  0.00     0.167 HD
ATOM     80  C   UNL     1     -11.893   9.218   6.301  1.00  0.00     0.074 A 
ATOM     81  C   UNL     1     -13.036   9.993   6.748  1.00  0.00     0.031 C 
ATOM     82  C   UNL     1     -10.765   8.783   6.926  1.00  0.00     0.037 A 
BRANCH  69  83
ATOM     83  C   UNL     1      -5.808   6.048   4.400  1.00  0.00     0.058 A 
ATOM     84  C   UNL     1      -4.823   6.803   5.072  1.00  0.00     0.135 A 
ATOM     85  C   UNL     1      -5.336   4.862   3.786  1.00  0.00     0.135 A 
ATOM     86  F   UNL     1      -5.139   7.926   5.733  1.00  0.00    -0.206 F 
ATOM     87  C   UNL     1      -3.471   6.430   5.104  1.00  0.00     0.059 A 
ATOM     88  C   UNL     1      -3.994   4.473   3.804  1.00  0.00     0.059 A 
ATOM     89  F   UNL     1      -6.178   4.020   3.164  1.00  0.00    -0.206 F 
ATOM     90  C   UNL     1      -3.062   5.267   4.459  1.00  0.00     0.060 A 
BRANCH  90  91
ATOM     91  S   UNL     1      -1.317   4.799   4.480  1.00  0.00     0.124 S 
ATOM     92  O   UNL     1      -0.681   5.949   3.846  1.00  0.00    -0.237 OA
ATOM     93  O   UNL     1      -1.057   4.633   5.906  1.00  0.00    -0.237 OA
ATOM     94  O   UNL     1      -1.285   3.567   3.693  1.00  0.00    -0.744 OA
ENDBRANCH  90  91
ENDBRANCH  69  83
BRANCH  70  95
ATOM     95  C   UNL     1     -14.583   9.833   2.358  1.00  0.00     0.058 A 
ATOM     96  C   UNL     1     -14.796  10.572   1.169  1.00  0.00     0.135 A 
ATOM     97  C   UNL     1     -15.329   8.653   2.507  1.00  0.00     0.135 A 
ATOM     98  F   UNL     1     -14.111  11.707   0.958  1.00  0.00    -0.206 F 
ATOM     99  C   UNL     1     -15.561  10.080   0.113  1.00  0.00     0.059 A 
ATOM    100  C   UNL     1     -16.134   8.158   1.470  1.00  0.00     0.059 A 
ATOM    101  F   UNL     1     -15.192   7.898   3.607  1.00  0.00    -0.206 F 
ATOM    102  C   UNL     1     -16.191   8.847   0.255  1.00  0.00     0.060 A 
BRANCH 102 103
ATOM    103  S   UNL     1     -16.825   8.028  -1.240  1.00  0.00     0.124 S 
ATOM    104  O   UNL     1     -18.121   8.673  -1.406  1.00  0.00    -0.237 OA
ATOM    105  O   UNL     1     -15.806   8.373  -2.228  1.00  0.00    -0.237 OA
ATOM    106  O   UNL     1     -16.852   6.622  -0.848  1.00  0.00    -0.744 OA
ENDBRANCH 102 103
ENDBRANCH  70  95
BRANCH  82 107
ATOM    107  C   UNL     1     -10.684   8.579   8.402  1.00  0.00     0.058 A 
ATOM    108  C   UNL     1     -11.793   8.147   9.151  1.00  0.00     0.135 A 
ATOM    109  C   UNL     1      -9.451   8.641   9.082  1.00  0.00     0.135 A 
ATOM    110  F   UNL     1     -12.986   7.941   8.570  1.00  0.00    -0.206 F 
ATOM    111  C   UNL     1     -11.706   7.874  10.509  1.00  0.00     0.059 A 
ATOM    112  C   UNL     1      -9.333   8.329  10.431  1.00  0.00     0.059 A 
ATOM    113  F   UNL     1      -8.319   8.987   8.452  1.00  0.00    -0.206 F 
ATOM    114  C   UNL     1     -10.472   7.975  11.142  1.00  0.00     0.060 A 
BRANCH 114 115
ATOM    115  S   UNL     1     -10.336   7.593  12.894  1.00  0.00     0.124 S 
ATOM    116  O   UNL     1     -10.475   8.918  13.487  1.00  0.00    -0.237 OA
ATOM    117  O   UNL     1     -11.456   6.682  13.117  1.00  0.00    -0.237 OA
ATOM    118  O   UNL     1      -9.014   6.984  12.993  1.00  0.00    -0.744 OA
ENDBRANCH 114 115
ENDBRANCH  82 107
ENDBRANCH  56  57
ENDBRANCH  49  51
ENDBRANCH  48  49
ENDBRANCH  47  48
ENDBRANCH  46  47
ENDBRANCH  45  46
ENDBRANCH   1  45
TORSDOF 23
