REMARK SMILES Cc1ccccc1[C@@H](Cc1ncnn1C(C)C)C(=O)OCCOC(=O)c1ccc(-c2c3nc(c(-c4c(F)cc(S(=O)(=O)[O-])cc4F)c4ccc([nH]4)c(-c4c(F)cc(S(=O)(=O)[O-])cc4F)c4nc(c(-c5c(F)cc(S(=O)(=O)[O-])cc5F)c5ccc2[nH]5)C=C4)C=C3)cc1
REMARK SMILES IDX 21 1 20 2 18 3 19 4 8 5 7 6 1 7 2 8 3 9 4 10 6 11 5 12 9 13
REMARK SMILES IDX 10 14 11 15 14 16 12 17 13 18 15 19 16 20 17 21 22 22 23 23
REMARK SMILES IDX 24 24 25 25 26 26 27 27 91 28 28 29 90 30 29 31 30 32 31 33
REMARK SMILES IDX 84 34 32 35 89 36 83 37 85 38 33 39 88 40 82 41 81 42 34 44
REMARK SMILES IDX 68 45 47 46 67 47 48 48 51 49 66 50 86 51 49 52 50 53 65 55
REMARK SMILES IDX 87 56 52 57 35 58 36 59 45 60 37 61 38 62 44 63 46 64 39 65
REMARK SMILES IDX 40 66 41 67 42 68 43 69 69 70 70 71 79 72 71 73 72 74 78 75
REMARK SMILES IDX 80 76 73 77 74 78 75 79 76 80 77 81 53 82 54 83 63 84 55 85
REMARK SMILES IDX 56 86 62 87 64 88 57 89 58 90 59 91 60 92 61 93
REMARK H PARENT 85 43 51 54
REMARK Flexibility Score: inf
ROOT
ATOM      1  C   UNL     1      -2.009   2.400   3.254  1.00  0.00     0.274 C 
ENDROOT
BRANCH   1   2
ATOM      2  O   UNL     1      -1.637   1.728   2.044  1.00  0.00    -0.462 OA
BRANCH   2   3
ATOM      3  C   UNL     1      -1.504   2.595   1.031  1.00  0.00     0.314 C 
ATOM      4  O   UNL     1      -1.853   3.771   1.189  1.00  0.00    -0.252 OA
BRANCH   3   5
ATOM      5  C   UNL     1      -0.835   2.124  -0.237  1.00  0.00     0.137 C 
BRANCH   5   6
ATOM      6  C   UNL     1      -0.981   0.623  -0.495  1.00  0.00    -0.030 A 
ATOM      7  C   UNL     1       1.572  -0.014  -0.487  1.00  0.00     0.044 C 
ATOM      8  C   UNL     1       0.093  -0.320  -0.445  1.00  0.00    -0.047 A 
ATOM      9  C   UNL     1      -0.205  -1.683  -0.243  1.00  0.00     0.004 A 
ATOM     10  C   UNL     1      -1.518  -2.125  -0.152  1.00  0.00     0.000 A 
ATOM     11  C   UNL     1      -2.293   0.133  -0.520  1.00  0.00     0.005 A 
ATOM     12  C   UNL     1      -2.559  -1.221  -0.325  1.00  0.00     0.000 A 
ENDBRANCH   5   6
BRANCH   5  13
ATOM     13  C   UNL     1      -1.167   3.203  -1.310  1.00  0.00     0.097 C 
BRANCH  13  14
ATOM     14  C   UNL     1      -2.539   3.893  -1.272  1.00  0.00     0.128 A 
ATOM     15  N   UNL     1      -3.590   3.248  -1.748  1.00  0.00    -0.220 NA
ATOM     16  N   UNL     1      -3.000   5.132  -0.729  1.00  0.00    -0.248 N 
ATOM     17  C   UNL     1      -4.623   4.090  -1.527  1.00  0.00     0.246 A 
ATOM     18  N   UNL     1      -4.316   5.262  -1.002  1.00  0.00    -0.159 NA
BRANCH  16  19
ATOM     19  C   UNL     1      -2.494   6.146   0.206  1.00  0.00     0.103 C 
ATOM     20  C   UNL     1      -2.444   7.545  -0.349  1.00  0.00     0.033 C 
ATOM     21  C   UNL     1      -3.349   6.395   1.461  1.00  0.00     0.033 C 
ENDBRANCH  16  19
ENDBRANCH  13  14
ENDBRANCH   5  13
ENDBRANCH   3   5
ENDBRANCH   2   3
ENDBRANCH   1   2
BRANCH   1  22
ATOM     22  C   UNL     1      -1.150   1.901   4.405  1.00  0.00     0.275 C 
BRANCH  22  23
ATOM     23  O   UNL     1       0.282   2.108   4.250  1.00  0.00    -0.458 OA
BRANCH  23  24
ATOM     24  C   UNL     1       0.980   1.669   3.148  1.00  0.00     0.338 C 
ATOM     25  O   UNL     1       0.938   0.533   2.712  1.00  0.00    -0.246 OA
BRANCH  24  26
ATOM     26  C   UNL     1       1.463   2.875   2.364  1.00  0.00     0.060 A 
ATOM     27  C   UNL     1       2.214   2.898   1.163  1.00  0.00     0.016 A 
ATOM     28  C   UNL     1       0.785   4.017   2.675  1.00  0.00     0.016 A 
ATOM     29  C   UNL     1       2.161   4.011   0.238  1.00  0.00     0.010 A 
ATOM     30  C   UNL     1       0.496   4.891   1.655  1.00  0.00     0.010 A 
ATOM     31  C   UNL     1       1.230   5.026   0.444  1.00  0.00    -0.014 A 
BRANCH  31  32
ATOM     32  C   UNL     1       1.031   6.405  -0.205  1.00  0.00     0.031 A 
ATOM     33  C   UNL     1       0.388   6.748  -1.608  1.00  0.00     0.074 A 
ATOM     34  C   UNL     1       1.074   7.282   0.861  1.00  0.00     0.049 A 
ATOM     35  N   UNL     1       0.129   7.963  -2.014  1.00  0.00    -0.248 NA
ATOM     36  C   UNL     1      -0.119   5.842  -2.662  1.00  0.00     0.031 C 
ATOM     37  C   UNL     1       0.352   8.492   1.257  1.00  0.00     0.029 A 
ATOM     38  N   UNL     1       1.838   7.065   2.027  1.00  0.00    -0.354 N 
ATOM     39  C   UNL     1      -0.991   7.946  -2.901  1.00  0.00     0.074 A 
ATOM     40  C   UNL     1      -0.999   6.587  -3.372  1.00  0.00     0.031 C 
ATOM     41  C   UNL     1       0.875   8.984   2.408  1.00  0.00     0.029 A 
ATOM     42  C   UNL     1       2.077   8.235   2.715  1.00  0.00     0.049 A 
ATOM     43  H   UNL     1       2.163   6.181   2.315  1.00  0.00     0.167 HD
ATOM     44  C   UNL     1      -1.890   9.016  -2.908  1.00  0.00     0.037 A 
ATOM     45  C   UNL     1       3.391   8.585   2.600  1.00  0.00     0.037 A 
ATOM     46  C   UNL     1      -1.376  10.066  -1.995  1.00  0.00     0.049 A 
ATOM     47  C   UNL     1       3.481   9.560   1.406  1.00  0.00     0.074 A 
ATOM     48  C   UNL     1      -1.838  10.749  -0.883  1.00  0.00     0.029 A 
ATOM     49  N   UNL     1      -0.036  10.376  -2.067  1.00  0.00    -0.354 N 
ATOM     50  N   UNL     1       2.430  10.055   0.787  1.00  0.00    -0.248 NA
ATOM     51  C   UNL     1       4.704  10.094   0.831  1.00  0.00     0.031 C 
ATOM     52  C   UNL     1      -0.705  11.360  -0.237  1.00  0.00     0.029 A 
ATOM     53  C   UNL     1       0.424  11.112  -1.000  1.00  0.00     0.049 A 
ATOM     54  H   UNL     1       0.541  10.096  -2.814  1.00  0.00     0.167 HD
ATOM     55  C   UNL     1       2.762  10.870  -0.247  1.00  0.00     0.074 A 
ATOM     56  C   UNL     1       4.221  10.859  -0.172  1.00  0.00     0.031 C 
ATOM     57  C   UNL     1       1.835  11.487  -1.062  1.00  0.00     0.037 A 
BRANCH  44  58
ATOM     58  C   UNL     1      -3.392   9.148  -3.423  1.00  0.00     0.058 A 
ATOM     59  C   UNL     1      -4.042  10.417  -3.362  1.00  0.00     0.135 A 
ATOM     60  C   UNL     1      -4.277   8.113  -3.819  1.00  0.00     0.135 A 
ATOM     61  F   UNL     1      -3.355  11.526  -3.051  1.00  0.00    -0.206 F 
ATOM     62  C   UNL     1      -5.412  10.641  -3.616  1.00  0.00     0.059 A 
ATOM     63  C   UNL     1      -5.664   8.321  -4.116  1.00  0.00     0.059 A 
ATOM     64  F   UNL     1      -3.841   6.849  -3.925  1.00  0.00    -0.206 F 
ATOM     65  C   UNL     1      -6.226   9.593  -4.007  1.00  0.00     0.060 A 
BRANCH  65  66
ATOM     66  S   UNL     1      -7.955   9.969  -4.449  1.00  0.00     0.124 S 
ATOM     67  O   UNL     1      -8.538  10.355  -3.167  1.00  0.00    -0.237 OA
ATOM     68  O   UNL     1      -7.801  11.055  -5.415  1.00  0.00    -0.237 OA
ATOM     69  O   UNL     1      -8.455   8.717  -5.009  1.00  0.00    -0.744 OA
ENDBRANCH  65  66
ENDBRANCH  44  58
BRANCH  45  70
ATOM     70  C   UNL     1       4.213   7.332   3.027  1.00  0.00     0.058 A 
ATOM     71  C   UNL     1       3.979   6.862   4.358  1.00  0.00     0.135 A 
ATOM     72  C   UNL     1       4.704   6.345   2.144  1.00  0.00     0.135 A 
ATOM     73  F   UNL     1       3.451   7.697   5.269  1.00  0.00    -0.206 F 
ATOM     74  C   UNL     1       4.104   5.516   4.748  1.00  0.00     0.059 A 
ATOM     75  C   UNL     1       4.864   4.984   2.529  1.00  0.00     0.059 A 
ATOM     76  F   UNL     1       4.907   6.643   0.852  1.00  0.00    -0.206 F 
ATOM     77  C   UNL     1       4.537   4.573   3.824  1.00  0.00     0.060 A 
BRANCH  77  78
ATOM     78  S   UNL     1       4.516   2.812   4.308  1.00  0.00     0.124 S 
ATOM     79  O   UNL     1       5.722   2.703   5.118  1.00  0.00    -0.237 OA
ATOM     80  O   UNL     1       3.256   2.708   5.040  1.00  0.00    -0.237 OA
ATOM     81  O   UNL     1       4.548   2.106   3.032  1.00  0.00    -0.744 OA
ENDBRANCH  77  78
ENDBRANCH  45  70
BRANCH  57  82
ATOM     82  C   UNL     1       2.221  12.455  -2.161  1.00  0.00     0.058 A 
ATOM     83  C   UNL     1       3.329  13.292  -2.026  1.00  0.00     0.135 A 
ATOM     84  C   UNL     1       1.474  12.635  -3.357  1.00  0.00     0.135 A 
ATOM     85  F   UNL     1       3.944  13.436  -0.843  1.00  0.00    -0.206 F 
ATOM     86  C   UNL     1       3.813  14.046  -3.086  1.00  0.00     0.059 A 
ATOM     87  C   UNL     1       1.910  13.413  -4.413  1.00  0.00     0.059 A 
ATOM     88  F   UNL     1       0.270  12.093  -3.572  1.00  0.00    -0.206 F 
ATOM     89  C   UNL     1       3.116  14.068  -4.289  1.00  0.00     0.060 A 
BRANCH  89  90
ATOM     90  S   UNL     1       3.752  15.034  -5.654  1.00  0.00     0.124 S 
ATOM     91  O   UNL     1       4.151  16.271  -4.989  1.00  0.00    -0.237 OA
ATOM     92  O   UNL     1       4.840  14.184  -6.125  1.00  0.00    -0.237 OA
ATOM     93  O   UNL     1       2.609  15.152  -6.554  1.00  0.00    -0.744 OA
ENDBRANCH  89  90
ENDBRANCH  57  82
ENDBRANCH  31  32
ENDBRANCH  24  26
ENDBRANCH  23  24
ENDBRANCH  22  23
ENDBRANCH   1  22
TORSDOF 18
