REMARK SMILES O=C(OCCOC(=O)[C@H](c1c[nH]c2ccc(Br)cc12)[N@H+]1CCC[C@H](c2nc3ccccc3s2)C1)c1ccc(-c2c3nc(c(-c4c(F)cc(S(=O)(=O)[O-])cc4F)c4ccc([nH]4)c(-c4c(F)cc(S(=O)(=O)[O-])cc4F)c4nc(c(-c5c(F)cc(S(=O)(=O)[O-])cc5F)c5ccc2[nH]5)C=C4)C=C3)cc1
REMARK SMILES IDX 4 1 3 2 2 3 1 4 35 5 36 6 100 7 37 8 99 9 38 10 39 11 40 12
REMARK SMILES IDX 93 13 41 14 98 15 92 16 94 17 42 18 97 19 91 20 90 21 43 23
REMARK SMILES IDX 77 24 56 25 76 26 57 27 60 28 75 29 95 30 58 31 59 32 74 34
REMARK SMILES IDX 96 35 61 36 44 37 45 38 54 39 46 40 47 41 53 42 55 43 48 44
REMARK SMILES IDX 49 45 50 46 51 47 52 48 78 49 79 50 88 51 80 52 81 53 87 54
REMARK SMILES IDX 89 55 82 56 83 57 84 58 85 59 86 60 62 61 63 62 72 63 64 64
REMARK SMILES IDX 65 65 71 66 73 67 66 68 67 69 68 70 69 71 70 72 5 73 6 74
REMARK SMILES IDX 7 75 8 76 9 77 20 78 21 79 34 80 22 82 24 83 23 84 25 85
REMARK SMILES IDX 26 86 33 87 27 88 32 89 28 90 31 91 29 92 30 93 10 94 11 95
REMARK SMILES IDX 19 96 12 97 13 98 18 99 14 101 16 102 15 103 17 104
REMARK H PARENT 94 22 60 33 20 81 12 100
REMARK Flexibility Score: inf
ROOT
ATOM      1  C   UNL     1       2.280  -4.433  -3.196  1.00  0.00     0.275 C 
ENDROOT
BRANCH   1   2
ATOM      2  O   UNL     1       1.627  -3.161  -3.011  1.00  0.00    -0.458 OA
BRANCH   2   3
ATOM      3  C   UNL     1       0.833  -2.692  -2.018  1.00  0.00     0.338 C 
ATOM      4  O   UNL     1       0.313  -1.587  -2.176  1.00  0.00    -0.246 OA
BRANCH   3   5
ATOM      5  C   UNL     1       0.609  -3.371  -0.694  1.00  0.00     0.060 A 
ATOM      6  C   UNL     1       0.737  -4.735  -0.436  1.00  0.00     0.016 A 
ATOM      7  C   UNL     1       0.222  -2.546   0.386  1.00  0.00     0.016 A 
ATOM      8  C   UNL     1       0.572  -5.244   0.863  1.00  0.00     0.010 A 
ATOM      9  C   UNL     1       0.041  -3.053   1.687  1.00  0.00     0.010 A 
ATOM     10  C   UNL     1       0.229  -4.413   1.939  1.00  0.00    -0.014 A 
BRANCH  10  11
ATOM     11  C   UNL     1      -0.104  -5.053   3.243  1.00  0.00     0.031 A 
ATOM     12  C   UNL     1      -1.440  -5.697   3.379  1.00  0.00     0.074 A 
ATOM     13  C   UNL     1       0.780  -5.189   4.251  1.00  0.00     0.049 A 
ATOM     14  N   UNL     1      -1.881  -6.449   4.348  1.00  0.00    -0.248 NA
ATOM     15  C   UNL     1      -2.400  -5.462   2.291  1.00  0.00     0.031 C 
ATOM     16  C   UNL     1       2.090  -4.580   4.256  1.00  0.00     0.029 A 
ATOM     17  N   UNL     1       0.757  -5.915   5.427  1.00  0.00    -0.354 N 
ATOM     18  C   UNL     1      -3.177  -6.773   3.996  1.00  0.00     0.074 A 
ATOM     19  C   UNL     1      -3.447  -6.151   2.717  1.00  0.00     0.031 C 
ATOM     20  C   UNL     1       2.778  -5.048   5.310  1.00  0.00     0.029 A 
ATOM     21  C   UNL     1       1.965  -5.931   6.096  1.00  0.00     0.049 A 
ATOM     22  H   UNL     1      -0.047  -6.377   5.757  1.00  0.00     0.167 HD
ATOM     23  C   UNL     1      -4.067  -7.498   4.706  1.00  0.00     0.037 A 
ATOM     24  C   UNL     1       2.407  -6.553   7.210  1.00  0.00     0.037 A 
ATOM     25  C   UNL     1      -3.811  -8.031   6.016  1.00  0.00     0.049 A 
ATOM     26  C   UNL     1       1.387  -7.290   7.998  1.00  0.00     0.074 A 
ATOM     27  C   UNL     1      -4.680  -8.716   6.846  1.00  0.00     0.029 A 
ATOM     28  N   UNL     1      -2.609  -7.916   6.704  1.00  0.00    -0.354 N 
ATOM     29  N   UNL     1       0.147  -7.538   7.671  1.00  0.00    -0.248 NA
ATOM     30  C   UNL     1       1.791  -7.766   9.325  1.00  0.00     0.031 C 
ATOM     31  C   UNL     1      -4.023  -8.967   8.054  1.00  0.00     0.029 A 
ATOM     32  C   UNL     1      -2.722  -8.502   7.954  1.00  0.00     0.049 A 
ATOM     33  H   UNL     1      -1.798  -7.483   6.354  1.00  0.00     0.167 HD
ATOM     34  C   UNL     1      -0.398  -8.176   8.765  1.00  0.00     0.074 A 
ATOM     35  C   UNL     1       0.659  -8.309   9.751  1.00  0.00     0.031 C 
ATOM     36  C   UNL     1      -1.669  -8.601   8.931  1.00  0.00     0.037 A 
BRANCH  23  37
ATOM     37  C   UNL     1      -5.423  -7.654   4.098  1.00  0.00     0.058 A 
ATOM     38  C   UNL     1      -5.645  -8.492   2.994  1.00  0.00     0.135 A 
ATOM     39  C   UNL     1      -6.506  -6.921   4.604  1.00  0.00     0.135 A 
ATOM     40  F   UNL     1      -4.626  -9.173   2.444  1.00  0.00    -0.206 F 
ATOM     41  C   UNL     1      -6.899  -8.591   2.406  1.00  0.00     0.059 A 
ATOM     42  C   UNL     1      -7.774  -7.024   4.047  1.00  0.00     0.059 A 
ATOM     43  F   UNL     1      -6.332  -6.083   5.638  1.00  0.00    -0.206 F 
ATOM     44  C   UNL     1      -7.958  -7.854   2.943  1.00  0.00     0.060 A 
BRANCH  44  45
ATOM     45  S   UNL     1      -9.583  -8.011   2.179  1.00  0.00     0.124 S 
ATOM     46  O   UNL     1      -9.387  -7.292   0.926  1.00  0.00    -0.237 OA
ATOM     47  O   UNL     1      -9.735  -9.455   2.067  1.00  0.00    -0.237 OA
ATOM     48  O   UNL     1     -10.473  -7.361   3.143  1.00  0.00    -0.744 OA
ENDBRANCH  44  45
ENDBRANCH  23  37
BRANCH  24  49
ATOM     49  C   UNL     1       3.803  -6.428   7.739  1.00  0.00     0.058 A 
ATOM     50  C   UNL     1       4.770  -7.431   7.568  1.00  0.00     0.135 A 
ATOM     51  C   UNL     1       4.167  -5.325   8.523  1.00  0.00     0.135 A 
ATOM     52  F   UNL     1       4.460  -8.554   6.902  1.00  0.00    -0.206 F 
ATOM     53  C   UNL     1       6.056  -7.319   8.109  1.00  0.00     0.059 A 
ATOM     54  C   UNL     1       5.452  -5.171   9.044  1.00  0.00     0.059 A 
ATOM     55  F   UNL     1       3.247  -4.400   8.821  1.00  0.00    -0.206 F 
ATOM     56  C   UNL     1       6.395  -6.174   8.831  1.00  0.00     0.060 A 
BRANCH  56  57
ATOM     57  S   UNL     1       8.078  -5.948   9.458  1.00  0.00     0.124 S 
ATOM     58  O   UNL     1       7.943  -6.393  10.840  1.00  0.00    -0.237 OA
ATOM     59  O   UNL     1       8.872  -6.810   8.587  1.00  0.00    -0.237 OA
ATOM     60  O   UNL     1       8.297  -4.516   9.271  1.00  0.00    -0.744 OA
ENDBRANCH  56  57
ENDBRANCH  24  49
BRANCH  36  61
ATOM     61  C   UNL     1      -1.960  -9.290  10.220  1.00  0.00     0.058 A 
ATOM     62  C   UNL     1      -2.076  -8.586  11.427  1.00  0.00     0.135 A 
ATOM     63  C   UNL     1      -2.123 -10.682  10.236  1.00  0.00     0.135 A 
ATOM     64  F   UNL     1      -1.892  -7.256  11.458  1.00  0.00    -0.206 F 
ATOM     65  C   UNL     1      -2.335  -9.248  12.619  1.00  0.00     0.059 A 
ATOM     66  C   UNL     1      -2.412 -11.359  11.409  1.00  0.00     0.059 A 
ATOM     67  F   UNL     1      -2.004 -11.390   9.101  1.00  0.00    -0.206 F 
ATOM     68  C   UNL     1      -2.507 -10.634  12.597  1.00  0.00     0.060 A 
BRANCH  68  69
ATOM     69  S   UNL     1      -2.888 -11.481  14.140  1.00  0.00     0.124 S 
ATOM     70  O   UNL     1      -1.598 -11.442  14.822  1.00  0.00    -0.237 OA
ATOM     71  O   UNL     1      -3.933 -10.633  14.709  1.00  0.00    -0.237 OA
ATOM     72  O   UNL     1      -3.330 -12.800  13.702  1.00  0.00    -0.744 OA
ENDBRANCH  68  69
ENDBRANCH  36  61
ENDBRANCH  10  11
ENDBRANCH   3   5
ENDBRANCH   2   3
ENDBRANCH   1   2
BRANCH   1  73
ATOM     73  C   UNL     1       3.626  -4.548  -2.488  1.00  0.00     0.274 C 
BRANCH  73  74
ATOM     74  O   UNL     1       3.559  -4.050  -1.148  1.00  0.00    -0.457 OA
BRANCH  74  75
ATOM     75  C   UNL     1       4.215  -2.872  -0.899  1.00  0.00     0.370 C 
ATOM     76  O   UNL     1       4.824  -2.263  -1.776  1.00  0.00    -0.245 OA
BRANCH  75  77
ATOM     77  C   UNL     1       4.012  -2.401   0.569  1.00  0.00     0.328 C 
BRANCH  77  78
ATOM     78  N   UNL     1       4.508  -3.345   1.628  1.00  0.00    -0.319 N 
ATOM     79  C   UNL     1       4.309  -4.772   1.414  1.00  0.00     0.263 C 
ATOM     80  C   UNL     1       5.804  -3.072   2.251  1.00  0.00     0.274 C 
ATOM     81  H   UNL     1       3.819  -3.074   2.330  1.00  0.00     0.349 HD
ATOM     82  C   UNL     1       4.664  -5.682   2.599  1.00  0.00     0.062 C 
ATOM     83  C   UNL     1       5.889  -3.622   3.675  1.00  0.00     0.104 C 
ATOM     84  C   UNL     1       5.685  -5.146   3.615  1.00  0.00     0.022 C 
BRANCH  83  85
ATOM     85  C   UNL     1       5.011  -2.797   4.627  1.00  0.00     0.103 A 
ATOM     86  N   UNL     1       4.001  -2.023   4.268  1.00  0.00    -0.241 NA
ATOM     87  S   UNL     1       5.364  -2.708   6.319  1.00  0.00    -0.118 S 
ATOM     88  C   UNL     1       3.280  -1.598   5.375  1.00  0.00     0.082 A 
ATOM     89  C   UNL     1       3.825  -1.962   6.604  1.00  0.00     0.055 A 
ATOM     90  C   UNL     1       2.042  -0.917   5.357  1.00  0.00     0.030 A 
ATOM     91  C   UNL     1       3.137  -1.727   7.809  1.00  0.00     0.021 A 
ATOM     92  C   UNL     1       1.336  -0.708   6.548  1.00  0.00     0.002 A 
ATOM     93  C   UNL     1       1.869  -1.137   7.757  1.00  0.00     0.002 A 
ENDBRANCH  83  85
ENDBRANCH  77  78
BRANCH  77  94
ATOM     94  C   UNL     1       4.596  -1.004   0.770  1.00  0.00     0.046 A 
ATOM     95  C   UNL     1       5.901  -0.641   0.458  1.00  0.00     0.094 A 
ATOM     96  C   UNL     1       3.999   0.156   1.382  1.00  0.00     0.010 A 
ATOM     97  N   UNL     1       6.181   0.530   1.092  1.00  0.00    -0.361 N 
ATOM     98  C   UNL     1       5.039   1.055   1.640  1.00  0.00     0.046 A 
ATOM     99  C   UNL     1       2.699   0.521   1.797  1.00  0.00     0.026 A 
ATOM    100  H   UNL     1       7.074   0.941   1.149  1.00  0.00     0.166 HD
ATOM    101  C   UNL     1       4.874   2.244   2.357  1.00  0.00     0.028 A 
ATOM    102  C   UNL     1       2.509   1.752   2.442  1.00  0.00     0.018 A 
ATOM    103  C   UNL     1       3.580   2.588   2.745  1.00  0.00     0.018 A 
ATOM    104  Br  UNL     1       0.758   2.305   2.909  1.00  0.00    -0.051 Br
ENDBRANCH  77  94
ENDBRANCH  75  77
ENDBRANCH  74  75
ENDBRANCH  73  74
ENDBRANCH   1  73
TORSDOF 17
