REMARK SMILES Cc1cc(N(C)C2CCC(C)(C)CC2)cc(C(=O)OCCOC(=O)c2ccc(-c3c4nc(c(-c5c(F)cc(S(=O)(=O)[O-])cc5F)c5ccc([nH]5)c(-c5c(F)cc(S(=O)(=O)[O-])cc5F)c5nc(c(-c6c(F)cc(S(=O)(=O)[O-])cc6F)c6ccc3[nH]6)C=C5)C=C4)cc2)c1N
REMARK SMILES IDX 21 1 20 2 19 3 17 4 18 5 16 6 1 7 2 8 3 9 91 10 4 11 15 12
REMARK SMILES IDX 92 13 5 16 6 17 7 18 8 19 14 20 9 21 13 22 10 23 11 24 12 25
REMARK SMILES IDX 22 26 23 27 24 28 25 29 26 30 90 31 27 32 89 33 28 34 29 35
REMARK SMILES IDX 30 36 83 37 31 38 88 39 82 40 84 41 32 42 87 43 81 44 80 45
REMARK SMILES IDX 33 47 67 48 46 49 66 50 47 51 50 52 65 53 85 54 48 55 49 56
REMARK SMILES IDX 64 58 86 59 51 60 34 61 35 62 44 63 36 64 37 65 43 66 45 67
REMARK SMILES IDX 38 68 39 69 40 70 41 71 42 72 68 73 69 74 78 75 70 76 71 77
REMARK SMILES IDX 77 78 79 79 72 80 73 81 74 82 75 83 76 84 52 85 53 86 62 87
REMARK SMILES IDX 54 88 55 89 61 90 63 91 56 92 57 93 58 94 59 95 60 96
REMARK H PARENT 92 14 92 15 84 46 50 57
REMARK Flexibility Score: inf
ROOT
ATOM      1  C   UNL     1      -0.975  -5.727  -1.271  1.00  0.00     0.275 C 
ENDROOT
BRANCH   1   2
ATOM      2  C   UNL     1      -1.822  -5.157  -0.129  1.00  0.00     0.275 C 
BRANCH   2   3
ATOM      3  O   UNL     1      -1.964  -3.724  -0.226  1.00  0.00    -0.458 OA
BRANCH   3   4
ATOM      4  C   UNL     1      -1.051  -3.043   0.507  1.00  0.00     0.340 C 
ATOM      5  O   UNL     1      -0.212  -3.551   1.234  1.00  0.00    -0.246 OA
BRANCH   4   6
ATOM      6  C   UNL     1      -1.169  -1.577   0.373  1.00  0.00     0.085 A 
ATOM      7  C   UNL     1       1.356   0.984   1.470  1.00  0.00     0.047 C 
ATOM      8  C   UNL     1       0.069   0.261   1.191  1.00  0.00    -0.025 A 
ATOM      9  C   UNL     1      -1.160   0.808   1.575  1.00  0.00     0.031 A 
ATOM     10  C   UNL     1       0.021  -0.855   0.375  1.00  0.00     0.049 A 
ATOM     11  C   UNL     1      -2.318   0.464   0.873  1.00  0.00     0.038 A 
ATOM     12  C   UNL     1      -2.370  -0.890   0.532  1.00  0.00     0.043 A 
BRANCH  10  13
ATOM     13  N   UNL     1       0.943  -1.021  -0.647  1.00  0.00    -0.398 N 
ATOM     14  H   UNL     1       1.783  -0.508  -0.641  1.00  0.00     0.156 HD
ATOM     15  H   UNL     1       0.757  -1.652  -1.380  1.00  0.00     0.156 HD
ENDBRANCH  10  13
BRANCH  11  16
ATOM     16  N   UNL     1      -3.242   1.413   0.427  1.00  0.00    -0.372 N 
ATOM     17  C   UNL     1      -4.632   0.977   0.273  1.00  0.00     0.144 C 
BRANCH  16  18
ATOM     18  C   UNL     1      -2.958   2.892   0.202  1.00  0.00     0.082 C 
ATOM     19  C   UNL     1      -1.527   3.391   0.365  1.00  0.00     0.025 C 
ATOM     20  C   UNL     1      -3.396   3.443  -1.194  1.00  0.00     0.025 C 
ATOM     21  C   UNL     1      -0.646   2.771  -0.716  1.00  0.00     0.008 C 
ATOM     22  C   UNL     1      -2.332   3.732  -2.311  1.00  0.00     0.008 C 
ATOM     23  C   UNL     1      -0.821   3.498  -2.035  1.00  0.00    -0.035 C 
ATOM     24  C   UNL     1      -0.199   2.645  -3.164  1.00  0.00     0.011 C 
ATOM     25  C   UNL     1       0.002   4.803  -1.950  1.00  0.00     0.011 C 
ENDBRANCH  16  18
ENDBRANCH  11  16
ENDBRANCH   4   6
ENDBRANCH   3   4
ENDBRANCH   2   3
ENDBRANCH   1   2
BRANCH   1  26
ATOM     26  O   UNL     1       0.433  -5.444  -1.118  1.00  0.00    -0.458 OA
BRANCH  26  27
ATOM     27  C   UNL     1       0.883  -4.399  -1.844  1.00  0.00     0.338 C 
ATOM     28  O   UNL     1       0.219  -3.669  -2.572  1.00  0.00    -0.246 OA
BRANCH  27  29
ATOM     29  C   UNL     1       2.311  -4.124  -1.622  1.00  0.00     0.060 A 
ATOM     30  C   UNL     1       2.644  -3.329  -0.535  1.00  0.00     0.016 A 
ATOM     31  C   UNL     1       3.236  -4.310  -2.650  1.00  0.00     0.016 A 
ATOM     32  C   UNL     1       3.804  -2.558  -0.580  1.00  0.00     0.010 A 
ATOM     33  C   UNL     1       4.489  -3.674  -2.587  1.00  0.00     0.010 A 
ATOM     34  C   UNL     1       4.775  -2.739  -1.577  1.00  0.00    -0.014 A 
BRANCH  34  35
ATOM     35  C   UNL     1       6.053  -1.951  -1.544  1.00  0.00     0.031 A 
ATOM     36  C   UNL     1       6.581  -1.248  -2.779  1.00  0.00     0.074 A 
ATOM     37  C   UNL     1       6.751  -1.841  -0.390  1.00  0.00     0.049 A 
ATOM     38  N   UNL     1       7.769  -0.737  -2.995  1.00  0.00    -0.248 NA
ATOM     39  C   UNL     1       5.666  -1.111  -3.923  1.00  0.00     0.031 C 
ATOM     40  C   UNL     1       6.358  -2.414   0.902  1.00  0.00     0.029 A 
ATOM     41  N   UNL     1       7.936  -1.202  -0.104  1.00  0.00    -0.354 N 
ATOM     42  C   UNL     1       7.767  -0.285  -4.313  1.00  0.00     0.074 A 
ATOM     43  C   UNL     1       6.454  -0.577  -4.848  1.00  0.00     0.031 C 
ATOM     44  C   UNL     1       7.231  -2.042   1.844  1.00  0.00     0.029 A 
ATOM     45  C   UNL     1       8.338  -1.351   1.205  1.00  0.00     0.049 A 
ATOM     46  H   UNL     1       8.447  -0.689  -0.771  1.00  0.00     0.167 HD
ATOM     47  C   UNL     1       8.769   0.310  -5.009  1.00  0.00     0.037 A 
ATOM     48  C   UNL     1       9.497  -1.054   1.824  1.00  0.00     0.037 A 
ATOM     49  C   UNL     1      10.052   0.653  -4.442  1.00  0.00     0.049 A 
ATOM     50  C   UNL     1      10.611  -0.453   1.022  1.00  0.00     0.074 A 
ATOM     51  C   UNL     1      11.134   1.258  -5.061  1.00  0.00     0.029 A 
ATOM     52  N   UNL     1      10.422   0.442  -3.121  1.00  0.00    -0.354 N 
ATOM     53  N   UNL     1      10.623  -0.120  -0.246  1.00  0.00    -0.248 NA
ATOM     54  C   UNL     1      11.877  -0.213   1.724  1.00  0.00     0.031 C 
ATOM     55  C   UNL     1      12.171   1.368  -4.130  1.00  0.00     0.029 A 
ATOM     56  C   UNL     1      11.717   0.889  -2.912  1.00  0.00     0.049 A 
ATOM     57  H   UNL     1       9.848   0.034  -2.433  1.00  0.00     0.167 HD
ATOM     58  C   UNL     1      11.894   0.385  -0.490  1.00  0.00     0.074 A 
ATOM     59  C   UNL     1      12.613   0.334   0.766  1.00  0.00     0.031 C 
ATOM     60  C   UNL     1      12.418   0.842  -1.653  1.00  0.00     0.037 A 
BRANCH  47  61
ATOM     61  C   UNL     1       8.553   0.602  -6.475  1.00  0.00     0.058 A 
ATOM     62  C   UNL     1       7.697   1.619  -6.923  1.00  0.00     0.135 A 
ATOM     63  C   UNL     1       9.280  -0.107  -7.449  1.00  0.00     0.135 A 
ATOM     64  F   UNL     1       6.968   2.325  -6.044  1.00  0.00    -0.206 F 
ATOM     65  C   UNL     1       7.553   1.909  -8.279  1.00  0.00     0.059 A 
ATOM     66  C   UNL     1       9.175   0.185  -8.807  1.00  0.00     0.059 A 
ATOM     67  F   UNL     1      10.120  -1.089  -7.083  1.00  0.00    -0.206 F 
ATOM     68  C   UNL     1       8.300   1.188  -9.214  1.00  0.00     0.060 A 
BRANCH  68  69
ATOM     69  S   UNL     1       8.114   1.588 -10.966  1.00  0.00     0.124 S 
ATOM     70  O   UNL     1       6.770   1.086 -11.239  1.00  0.00    -0.237 OA
ATOM     71  O   UNL     1       8.261   3.039 -10.972  1.00  0.00    -0.237 OA
ATOM     72  O   UNL     1       9.199   0.848 -11.603  1.00  0.00    -0.744 OA
ENDBRANCH  68  69
ENDBRANCH  47  61
BRANCH  48  73
ATOM     73  C   UNL     1       9.686  -1.415   3.257  1.00  0.00     0.058 A 
ATOM     74  C   UNL     1       9.847  -0.430   4.242  1.00  0.00     0.135 A 
ATOM     75  C   UNL     1       9.692  -2.758   3.674  1.00  0.00     0.135 A 
ATOM     76  F   UNL     1       9.861   0.867   3.897  1.00  0.00    -0.206 F 
ATOM     77  C   UNL     1      10.020  -0.761   5.582  1.00  0.00     0.059 A 
ATOM     78  C   UNL     1       9.821  -3.112   5.011  1.00  0.00     0.059 A 
ATOM     79  F   UNL     1       9.530  -3.743   2.776  1.00  0.00    -0.206 F 
ATOM     80  C   UNL     1      10.000  -2.106   5.957  1.00  0.00     0.060 A 
BRANCH  80  81
ATOM     81  S   UNL     1      10.185  -2.525   7.704  1.00  0.00     0.124 S 
ATOM     82  O   UNL     1      11.603  -2.260   7.918  1.00  0.00    -0.237 OA
ATOM     83  O   UNL     1       9.257  -1.597   8.342  1.00  0.00    -0.237 OA
ATOM     84  O   UNL     1       9.790  -3.930   7.755  1.00  0.00    -0.744 OA
ENDBRANCH  80  81
ENDBRANCH  48  73
BRANCH  60  85
ATOM     85  C   UNL     1      13.824   1.373  -1.606  1.00  0.00     0.058 A 
ATOM     86  C   UNL     1      14.932   0.525  -1.453  1.00  0.00     0.135 A 
ATOM     87  C   UNL     1      14.064   2.750  -1.742  1.00  0.00     0.135 A 
ATOM     88  F   UNL     1      14.756  -0.797  -1.305  1.00  0.00    -0.206 F 
ATOM     89  C   UNL     1      16.228   1.027  -1.410  1.00  0.00     0.059 A 
ATOM     90  C   UNL     1      15.354   3.270  -1.734  1.00  0.00     0.059 A 
ATOM     91  F   UNL     1      13.039   3.604  -1.896  1.00  0.00    -0.206 F 
ATOM     92  C   UNL     1      16.429   2.401  -1.554  1.00  0.00     0.060 A 
BRANCH  92  93
ATOM     93  S   UNL     1      18.118   3.035  -1.525  1.00  0.00     0.124 S 
ATOM     94  O   UNL     1      18.463   2.893  -0.115  1.00  0.00    -0.237 OA
ATOM     95  O   UNL     1      18.806   2.130  -2.441  1.00  0.00    -0.237 OA
ATOM     96  O   UNL     1      17.975   4.408  -2.000  1.00  0.00    -0.744 OA
ENDBRANCH  92  93
ENDBRANCH  60  85
ENDBRANCH  34  35
ENDBRANCH  27  29
ENDBRANCH  26  27
ENDBRANCH   1  26
TORSDOF 17
