REMARK SMILES Cc1ccc(Cl)c(Nc2ccccc2C(=O)NCC(=O)OCCOC(=O)c2ccc(-c3c4nc(c(-c5c(F)cc(S(=O)(=O)[O-])cc5F)c5ccc([nH]5)c(-c5c(F)cc(S(=O)(=O)[O-])cc5F)c5nc(c(-c6c(F)cc(S(=O)(=O)[O-])cc6F)c6ccc3[nH]6)C=C5)C=C4)cc2)c1Cl
REMARK SMILES IDX 22 1 21 2 19 3 20 4 18 5 17 6 15 7 16 8 14 10 9 11 10 12
REMARK SMILES IDX 11 13 13 14 12 15 8 16 7 18 1 19 2 20 3 21 93 22 4 23 94 24
REMARK SMILES IDX 5 25 6 26 23 27 24 28 25 29 26 30 27 31 28 32 92 33 29 34
REMARK SMILES IDX 91 35 30 36 31 37 32 38 85 39 33 40 90 41 84 42 86 43 34 44
REMARK SMILES IDX 89 45 83 46 82 47 35 49 69 50 48 51 68 52 49 53 52 54 67 55
REMARK SMILES IDX 87 56 50 57 51 58 66 60 88 61 53 62 36 63 37 64 46 65 38 66
REMARK SMILES IDX 39 67 45 68 47 69 40 70 41 71 42 72 43 73 44 74 70 75 71 76
REMARK SMILES IDX 80 77 72 78 73 79 79 80 81 81 74 82 75 83 76 84 77 85 78 86
REMARK SMILES IDX 54 87 55 88 64 89 56 90 57 91 63 92 65 93 58 94 59 95 60 96
REMARK SMILES IDX 61 97 62 98
REMARK H PARENT 17 9 8 17 86 48 52 59
REMARK Flexibility Score: inf
ROOT
ATOM      1  C   UNL     1      -3.910  -2.430   3.320  1.00  0.00     0.274 C 
ENDROOT
BRANCH   1   2
ATOM      2  O   UNL     1      -2.517  -2.243   3.007  1.00  0.00    -0.461 OA
BRANCH   2   3
ATOM      3  C   UNL     1      -2.300  -1.945   1.702  1.00  0.00     0.325 C 
ATOM      4  O   UNL     1      -3.174  -1.919   0.838  1.00  0.00    -0.250 OA
BRANCH   3   5
ATOM      5  C   UNL     1      -0.900  -1.459   1.401  1.00  0.00     0.239 C 
BRANCH   5   6
ATOM      6  N   UNL     1       0.257  -1.742   2.218  1.00  0.00    -0.341 N 
ATOM      7  C   UNL     1       1.444  -2.350   1.881  1.00  0.00     0.253 C 
ATOM      8  O   UNL     1       2.391  -2.196   2.657  1.00  0.00    -0.269 OA
ATOM      9  H   UNL     1       0.185  -1.457   3.157  1.00  0.00     0.164 HD
BRANCH   7  10
ATOM     10  C   UNL     1       1.597  -3.331   0.757  1.00  0.00     0.063 A 
ATOM     11  C   UNL     1       1.204  -3.225  -0.594  1.00  0.00     0.051 A 
ATOM     12  C   UNL     1       1.354  -4.367  -1.418  1.00  0.00     0.027 A 
ATOM     13  C   UNL     1       1.956  -5.542  -0.967  1.00  0.00     0.002 A 
ATOM     14  C   UNL     1       2.238  -4.521   1.183  1.00  0.00     0.016 A 
ATOM     15  C   UNL     1       2.429  -5.607   0.332  1.00  0.00     0.001 A 
BRANCH  11  16
ATOM     16  N   UNL     1       0.776  -2.071  -1.285  1.00  0.00    -0.352 N 
ATOM     17  H   UNL     1       0.138  -2.272  -2.007  1.00  0.00     0.167 HD
BRANCH  16  18
ATOM     18  C   UNL     1       1.061  -0.688  -1.173  1.00  0.00     0.077 A 
ATOM     19  C   UNL     1       3.677   1.820   0.104  1.00  0.00     0.046 C 
ATOM     20  C   UNL     1       2.404   1.230  -0.438  1.00  0.00    -0.030 A 
ATOM     21  C   UNL     1       1.339   2.092  -0.729  1.00  0.00     0.006 A 
ATOM     22  C   UNL     1       2.272  -0.153  -0.691  1.00  0.00     0.069 A 
ATOM     23  C   UNL     1       0.171   1.596  -1.292  1.00  0.00     0.023 A 
ATOM     24  Cl  UNL     1       3.691  -1.153  -0.563  1.00  0.00    -0.082 Cl
ATOM     25  C   UNL     1       0.031   0.228  -1.503  1.00  0.00     0.066 A 
ATOM     26  Cl  UNL     1      -1.474  -0.330  -2.164  1.00  0.00    -0.082 Cl
ENDBRANCH  16  18
ENDBRANCH  11  16
ENDBRANCH   7  10
ENDBRANCH   5   6
ENDBRANCH   3   5
ENDBRANCH   2   3
ENDBRANCH   1   2
BRANCH   1  27
ATOM     27  C   UNL     1      -4.540  -1.126   3.814  1.00  0.00     0.275 C 
BRANCH  27  28
ATOM     28  O   UNL     1      -4.417  -0.065   2.843  1.00  0.00    -0.458 OA
BRANCH  28  29
ATOM     29  C   UNL     1      -3.617   0.966   3.202  1.00  0.00     0.338 C 
ATOM     30  O   UNL     1      -2.966   1.058   4.236  1.00  0.00    -0.246 OA
BRANCH  29  31
ATOM     31  C   UNL     1      -3.628   2.039   2.189  1.00  0.00     0.060 A 
ATOM     32  C   UNL     1      -3.277   1.790   0.864  1.00  0.00     0.016 A 
ATOM     33  C   UNL     1      -3.865   3.353   2.604  1.00  0.00     0.016 A 
ATOM     34  C   UNL     1      -3.079   2.866  -0.014  1.00  0.00     0.010 A 
ATOM     35  C   UNL     1      -3.741   4.414   1.696  1.00  0.00     0.010 A 
ATOM     36  C   UNL     1      -3.291   4.200   0.381  1.00  0.00    -0.014 A 
BRANCH  36  37
ATOM     37  C   UNL     1      -2.989   5.368  -0.521  1.00  0.00     0.031 A 
ATOM     38  C   UNL     1      -2.148   6.529  -0.019  1.00  0.00     0.074 A 
ATOM     39  C   UNL     1      -3.438   5.436  -1.793  1.00  0.00     0.049 A 
ATOM     40  N   UNL     1      -2.013   7.735  -0.515  1.00  0.00    -0.248 NA
ATOM     41  C   UNL     1      -1.374   6.305   1.211  1.00  0.00     0.031 C 
ATOM     42  C   UNL     1      -4.215   4.409  -2.482  1.00  0.00     0.029 A 
ATOM     43  N   UNL     1      -3.297   6.428  -2.740  1.00  0.00    -0.354 N 
ATOM     44  C   UNL     1      -1.232   8.442   0.396  1.00  0.00     0.074 A 
ATOM     45  C   UNL     1      -0.896   7.517   1.458  1.00  0.00     0.031 C 
ATOM     46  C   UNL     1      -4.431   4.792  -3.749  1.00  0.00     0.029 A 
ATOM     47  C   UNL     1      -3.915   6.145  -3.936  1.00  0.00     0.049 A 
ATOM     48  H   UNL     1      -2.799   7.262  -2.576  1.00  0.00     0.167 HD
ATOM     49  C   UNL     1      -0.843   9.741   0.362  1.00  0.00     0.037 A 
ATOM     50  C   UNL     1      -4.112   6.893  -5.041  1.00  0.00     0.037 A 
ATOM     51  C   UNL     1      -1.073  10.640  -0.742  1.00  0.00     0.049 A 
ATOM     52  C   UNL     1      -3.650   8.321  -5.082  1.00  0.00     0.074 A 
ATOM     53  C   UNL     1      -0.683  11.964  -0.870  1.00  0.00     0.029 A 
ATOM     54  N   UNL     1      -1.722  10.304  -1.919  1.00  0.00    -0.354 N 
ATOM     55  N   UNL     1      -3.026   9.010  -4.159  1.00  0.00    -0.248 NA
ATOM     56  C   UNL     1      -3.955   9.085  -6.302  1.00  0.00     0.031 C 
ATOM     57  C   UNL     1      -1.114  12.434  -2.117  1.00  0.00     0.029 A 
ATOM     58  C   UNL     1      -1.743  11.393  -2.778  1.00  0.00     0.049 A 
ATOM     59  H   UNL     1      -2.110   9.421  -2.117  1.00  0.00     0.167 HD
ATOM     60  C   UNL     1      -2.876  10.292  -4.679  1.00  0.00     0.074 A 
ATOM     61  C   UNL     1      -3.448  10.276  -6.009  1.00  0.00     0.031 C 
ATOM     62  C   UNL     1      -2.324  11.384  -4.096  1.00  0.00     0.037 A 
BRANCH  49  63
ATOM     63  C   UNL     1      -0.167  10.300   1.586  1.00  0.00     0.058 A 
ATOM     64  C   UNL     1       1.160   9.996   1.922  1.00  0.00     0.135 A 
ATOM     65  C   UNL     1      -0.867  11.189   2.421  1.00  0.00     0.135 A 
ATOM     66  F   UNL     1       1.870   9.144   1.166  1.00  0.00    -0.206 F 
ATOM     67  C   UNL     1       1.760  10.526   3.062  1.00  0.00     0.059 A 
ATOM     68  C   UNL     1      -0.280  11.750   3.551  1.00  0.00     0.059 A 
ATOM     69  F   UNL     1      -2.137  11.520   2.141  1.00  0.00    -0.206 F 
ATOM     70  C   UNL     1       1.029  11.396   3.874  1.00  0.00     0.060 A 
BRANCH  70  71
ATOM     71  S   UNL     1       1.807  12.066   5.360  1.00  0.00     0.124 S 
ATOM     72  O   UNL     1       1.702  10.934   6.275  1.00  0.00    -0.237 OA
ATOM     73  O   UNL     1       3.154  12.383   4.896  1.00  0.00    -0.237 OA
ATOM     74  O   UNL     1       0.974  13.219   5.688  1.00  0.00    -0.744 OA
ENDBRANCH  70  71
ENDBRANCH  49  63
BRANCH  50  75
ATOM     75  C   UNL     1      -4.853   6.302  -6.188  1.00  0.00     0.058 A 
ATOM     76  C   UNL     1      -4.186   5.926  -7.362  1.00  0.00     0.135 A 
ATOM     77  C   UNL     1      -6.228   6.033  -6.097  1.00  0.00     0.135 A 
ATOM     78  F   UNL     1      -2.877   6.186  -7.504  1.00  0.00    -0.206 F 
ATOM     79  C   UNL     1      -4.850   5.275  -8.396  1.00  0.00     0.059 A 
ATOM     80  C   UNL     1      -6.907   5.359  -7.105  1.00  0.00     0.059 A 
ATOM     81  F   UNL     1      -6.907   6.372  -4.990  1.00  0.00    -0.206 F 
ATOM     82  C   UNL     1      -6.208   4.979  -8.250  1.00  0.00     0.060 A 
BRANCH  82  83
ATOM     83  S   UNL     1      -7.034   4.005  -9.527  1.00  0.00     0.124 S 
ATOM     84  O   UNL     1      -7.322   5.021 -10.531  1.00  0.00    -0.237 OA
ATOM     85  O   UNL     1      -6.012   3.026  -9.882  1.00  0.00    -0.237 OA
ATOM     86  O   UNL     1      -8.193   3.458  -8.826  1.00  0.00    -0.744 OA
ENDBRANCH  82  83
ENDBRANCH  50  75
BRANCH  62  87
ATOM     87  C   UNL     1      -2.304  12.659  -4.892  1.00  0.00     0.058 A 
ATOM     88  C   UNL     1      -3.460  13.439  -5.052  1.00  0.00     0.135 A 
ATOM     89  C   UNL     1      -1.113  13.123  -5.472  1.00  0.00     0.135 A 
ATOM     90  F   UNL     1      -4.625  13.037  -4.522  1.00  0.00    -0.206 F 
ATOM     91  C   UNL     1      -3.441  14.626  -5.779  1.00  0.00     0.059 A 
ATOM     92  C   UNL     1      -1.067  14.316  -6.189  1.00  0.00     0.059 A 
ATOM     93  F   UNL     1       0.021  12.418  -5.342  1.00  0.00    -0.206 F 
ATOM     94  C   UNL     1      -2.240  15.054  -6.348  1.00  0.00     0.060 A 
BRANCH  94  95
ATOM     95  S   UNL     1      -2.220  16.603  -7.277  1.00  0.00     0.124 S 
ATOM     96  O   UNL     1      -2.834  16.197  -8.537  1.00  0.00    -0.237 OA
ATOM     97  O   UNL     1      -3.023  17.486  -6.436  1.00  0.00    -0.237 OA
ATOM     98  O   UNL     1      -0.801  16.937  -7.349  1.00  0.00    -0.744 OA
ENDBRANCH  94  95
ENDBRANCH  62  87
ENDBRANCH  36  37
ENDBRANCH  29  31
ENDBRANCH  28  29
ENDBRANCH  27  28
ENDBRANCH   1  27
TORSDOF 18
