REMARK SMILES O=C(OCCOC(=O)c1ccc(NC(=O)c2ccc([N+](=O)[O-])cc2Cl)cc1Cl)c1ccc(-c2c3nc(c(-c4c(F)cc(S(=O)(=O)[O-])cc4F)c4ccc([nH]4)c(-c4c(F)cc(S(=O)(=O)[O-])cc4F)c4nc(c(-c5c(F)cc(S(=O)(=O)[O-])cc5F)c5ccc2[nH]5)C=C4)C=C3)cc1
REMARK SMILES IDX 4 1 3 2 2 3 1 4 29 5 30 6 94 7 31 8 93 9 32 10 33 11 34 12
REMARK SMILES IDX 87 13 35 14 92 15 86 16 88 17 36 18 91 19 85 20 84 21 37 23
REMARK SMILES IDX 71 24 50 25 70 26 51 27 54 28 69 29 89 30 52 31 53 32 68 34
REMARK SMILES IDX 90 35 55 36 38 37 39 38 48 39 40 40 41 41 47 42 49 43 42 44
REMARK SMILES IDX 43 45 44 46 45 47 46 48 72 49 73 50 82 51 74 52 75 53 81 54
REMARK SMILES IDX 83 55 76 56 77 57 78 58 79 59 80 60 56 61 57 62 66 63 58 64
REMARK SMILES IDX 59 65 65 66 67 67 60 68 61 69 62 70 63 71 64 72 5 73 6 74
REMARK SMILES IDX 7 75 8 76 9 77 10 78 27 79 11 80 26 81 28 82 12 83 13 84
REMARK SMILES IDX 14 85 15 87 16 88 17 89 24 90 18 91 23 92 25 93 19 94 20 95
REMARK SMILES IDX 21 96 22 97
REMARK H PARENT 88 22 54 33 13 86
REMARK Flexibility Score: inf
ROOT
ATOM      1  C   UNL     1       4.182  -1.531   0.583  1.00  0.00     0.275 C 
ENDROOT
BRANCH   1   2
ATOM      2  O   UNL     1       3.192  -0.594   1.026  1.00  0.00    -0.458 OA
BRANCH   2   3
ATOM      3  C   UNL     1       2.996   0.690   0.655  1.00  0.00     0.338 C 
ATOM      4  O   UNL     1       2.105   1.319   1.226  1.00  0.00    -0.246 OA
BRANCH   3   5
ATOM      5  C   UNL     1       3.700   1.367  -0.488  1.00  0.00     0.060 A 
ATOM      6  C   UNL     1       4.894   0.987  -1.118  1.00  0.00     0.016 A 
ATOM      7  C   UNL     1       3.040   2.491  -1.001  1.00  0.00     0.016 A 
ATOM      8  C   UNL     1       5.377   1.651  -2.259  1.00  0.00     0.010 A 
ATOM      9  C   UNL     1       3.504   3.130  -2.147  1.00  0.00     0.010 A 
ATOM     10  C   UNL     1       4.680   2.729  -2.786  1.00  0.00    -0.014 A 
BRANCH  10  11
ATOM     11  C   UNL     1       5.206   3.567  -3.889  1.00  0.00     0.031 A 
ATOM     12  C   UNL     1       5.662   4.956  -3.555  1.00  0.00     0.074 A 
ATOM     13  C   UNL     1       5.197   3.146  -5.167  1.00  0.00     0.049 A 
ATOM     14  N   UNL     1       6.031   5.920  -4.353  1.00  0.00    -0.248 NA
ATOM     15  C   UNL     1       5.713   5.299  -2.123  1.00  0.00     0.031 C 
ATOM     16  C   UNL     1       4.850   1.801  -5.609  1.00  0.00     0.029 A 
ATOM     17  N   UNL     1       5.434   3.824  -6.337  1.00  0.00    -0.354 N 
ATOM     18  C   UNL     1       6.374   6.976  -3.520  1.00  0.00     0.074 A 
ATOM     19  C   UNL     1       6.081   6.567  -2.165  1.00  0.00     0.031 C 
ATOM     20  C   UNL     1       4.778   1.778  -6.951  1.00  0.00     0.029 A 
ATOM     21  C   UNL     1       5.099   3.106  -7.462  1.00  0.00     0.049 A 
ATOM     22  H   UNL     1       5.806   4.735  -6.368  1.00  0.00     0.167 HD
ATOM     23  C   UNL     1       6.933   8.162  -3.853  1.00  0.00     0.037 A 
ATOM     24  C   UNL     1       5.040   3.483  -8.755  1.00  0.00     0.037 A 
ATOM     25  C   UNL     1       7.204   8.554  -5.207  1.00  0.00     0.049 A 
ATOM     26  C   UNL     1       5.545   4.852  -9.124  1.00  0.00     0.074 A 
ATOM     27  C   UNL     1       7.811   9.706  -5.668  1.00  0.00     0.029 A 
ATOM     28  N   UNL     1       6.858   7.803  -6.324  1.00  0.00    -0.354 N 
ATOM     29  N   UNL     1       5.963   5.809  -8.329  1.00  0.00    -0.248 NA
ATOM     30  C   UNL     1       5.631   5.177 -10.554  1.00  0.00     0.031 C 
ATOM     31  C   UNL     1       7.787   9.674  -7.067  1.00  0.00     0.029 A 
ATOM     32  C   UNL     1       7.217   8.477  -7.476  1.00  0.00     0.049 A 
ATOM     33  H   UNL     1       6.420   6.922  -6.298  1.00  0.00     0.167 HD
ATOM     34  C   UNL     1       6.427   6.821  -9.160  1.00  0.00     0.074 A 
ATOM     35  C   UNL     1       6.207   6.373 -10.521  1.00  0.00     0.031 C 
ATOM     36  C   UNL     1       7.014   7.996  -8.823  1.00  0.00     0.037 A 
BRANCH  23  37
ATOM     37  C   UNL     1       7.267   9.090  -2.720  1.00  0.00     0.058 A 
ATOM     38  C   UNL     1       8.263   8.770  -1.779  1.00  0.00     0.135 A 
ATOM     39  C   UNL     1       6.537  10.271  -2.523  1.00  0.00     0.135 A 
ATOM     40  F   UNL     1       8.980   7.642  -1.909  1.00  0.00    -0.206 F 
ATOM     41  C   UNL     1       8.469   9.548  -0.646  1.00  0.00     0.059 A 
ATOM     42  C   UNL     1       6.750  11.082  -1.413  1.00  0.00     0.059 A 
ATOM     43  F   UNL     1       5.578  10.626  -3.393  1.00  0.00    -0.206 F 
ATOM     44  C   UNL     1       7.694  10.694  -0.464  1.00  0.00     0.060 A 
BRANCH  44  45
ATOM     45  S   UNL     1       7.915  11.649   1.051  1.00  0.00     0.124 S 
ATOM     46  O   UNL     1       7.255  10.791   2.031  1.00  0.00    -0.237 OA
ATOM     47  O   UNL     1       9.367  11.732   1.161  1.00  0.00    -0.237 OA
ATOM     48  O   UNL     1       7.237  12.908   0.761  1.00  0.00    -0.744 OA
ENDBRANCH  44  45
ENDBRANCH  23  37
BRANCH  24  49
ATOM     49  C   UNL     1       4.517   2.537  -9.776  1.00  0.00     0.058 A 
ATOM     50  C   UNL     1       5.370   1.871 -10.666  1.00  0.00     0.135 A 
ATOM     51  C   UNL     1       3.145   2.237  -9.840  1.00  0.00     0.135 A 
ATOM     52  F   UNL     1       6.688   2.118 -10.642  1.00  0.00    -0.206 F 
ATOM     53  C   UNL     1       4.886   0.946 -11.588  1.00  0.00     0.059 A 
ATOM     54  C   UNL     1       2.638   1.309 -10.747  1.00  0.00     0.059 A 
ATOM     55  F   UNL     1       2.289   2.819  -8.985  1.00  0.00    -0.206 F 
ATOM     56  C   UNL     1       3.518   0.666 -11.616  1.00  0.00     0.060 A 
BRANCH  56  57
ATOM     57  S   UNL     1       2.918  -0.592 -12.768  1.00  0.00     0.124 S 
ATOM     58  O   UNL     1       3.171   0.040 -14.057  1.00  0.00    -0.237 OA
ATOM     59  O   UNL     1       3.769  -1.730 -12.436  1.00  0.00    -0.237 OA
ATOM     60  O   UNL     1       1.513  -0.740 -12.402  1.00  0.00    -0.744 OA
ENDBRANCH  56  57
ENDBRANCH  24  49
BRANCH  36  61
ATOM     61  C   UNL     1       7.541   8.864  -9.930  1.00  0.00     0.058 A 
ATOM     62  C   UNL     1       6.695   9.649 -10.724  1.00  0.00     0.135 A 
ATOM     63  C   UNL     1       8.929   9.013 -10.093  1.00  0.00     0.135 A 
ATOM     64  F   UNL     1       5.362   9.533 -10.614  1.00  0.00    -0.206 F 
ATOM     65  C   UNL     1       7.208  10.568 -11.634  1.00  0.00     0.059 A 
ATOM     66  C   UNL     1       9.463   9.943 -10.977  1.00  0.00     0.059 A 
ATOM     67  F   UNL     1       9.779   8.285  -9.351  1.00  0.00    -0.206 F 
ATOM     68  C   UNL     1       8.593  10.720 -11.740  1.00  0.00     0.060 A 
BRANCH  68  69
ATOM     69  S   UNL     1       9.242  11.995 -12.840  1.00  0.00     0.124 S 
ATOM     70  O   UNL     1       8.994  11.408 -14.152  1.00  0.00    -0.237 OA
ATOM     71  O   UNL     1       8.420  13.151 -12.495  1.00  0.00    -0.237 OA
ATOM     72  O   UNL     1      10.647  12.096 -12.453  1.00  0.00    -0.744 OA
ENDBRANCH  68  69
ENDBRANCH  36  61
ENDBRANCH  10  11
ENDBRANCH   3   5
ENDBRANCH   2   3
ENDBRANCH   1   2
BRANCH   1  73
ATOM     73  C   UNL     1       3.809  -2.263  -0.710  1.00  0.00     0.275 C 
BRANCH  73  74
ATOM     74  O   UNL     1       3.312  -1.391  -1.741  1.00  0.00    -0.458 OA
BRANCH  74  75
ATOM     75  C   UNL     1       1.964  -1.399  -1.942  1.00  0.00     0.339 C 
ATOM     76  O   UNL     1       1.146  -2.067  -1.348  1.00  0.00    -0.246 OA
BRANCH  75  77
ATOM     77  C   UNL     1       1.595  -0.312  -2.878  1.00  0.00     0.078 A 
ATOM     78  C   UNL     1       0.734   0.678  -2.399  1.00  0.00     0.019 A 
ATOM     79  C   UNL     1       2.063  -0.219  -4.184  1.00  0.00     0.057 A 
ATOM     80  C   UNL     1       0.442   1.812  -3.177  1.00  0.00     0.027 A 
ATOM     81  C   UNL     1       1.736   0.907  -4.966  1.00  0.00     0.047 A 
ATOM     82  Cl  UNL     1       3.020  -1.466  -4.900  1.00  0.00    -0.083 Cl
ATOM     83  C   UNL     1       0.974   1.972  -4.455  1.00  0.00     0.043 A 
BRANCH  83  84
ATOM     84  N   UNL     1       0.822   3.108  -5.289  1.00  0.00    -0.322 N 
ATOM     85  C   UNL     1       0.239   4.354  -5.144  1.00  0.00     0.257 C 
ATOM     86  H   UNL     1       1.226   2.981  -6.178  1.00  0.00     0.170 HD
ATOM     87  O   UNL     1       0.170   5.135  -6.090  1.00  0.00    -0.269 OA
BRANCH  85  88
ATOM     88  C   UNL     1      -0.359   4.779  -3.877  1.00  0.00     0.059 A 
ATOM     89  C   UNL     1      -1.698   4.438  -3.645  1.00  0.00     0.022 A 
ATOM     90  C   UNL     1       0.385   5.454  -2.903  1.00  0.00     0.060 A 
ATOM     91  C   UNL     1      -2.237   4.606  -2.370  1.00  0.00     0.086 A 
ATOM     92  C   UNL     1      -0.125   5.567  -1.607  1.00  0.00     0.107 A 
ATOM     93  Cl  UNL     1       1.891   6.212  -3.257  1.00  0.00    -0.083 Cl
ATOM     94  C   UNL     1      -1.421   5.105  -1.343  1.00  0.00     0.270 A 
BRANCH  94  95
ATOM     95  N   UNL     1      -1.920   5.097   0.033  1.00  0.00     0.062 N 
ATOM     96  O   UNL     1      -3.147   5.082   0.197  1.00  0.00    -0.258 OA
ATOM     97  O   UNL     1      -1.081   5.066   0.942  1.00  0.00    -0.258 OA
ENDBRANCH  94  95
ENDBRANCH  85  88
ENDBRANCH  83  84
ENDBRANCH  75  77
ENDBRANCH  74  75
ENDBRANCH  73  74
ENDBRANCH   1  73
TORSDOF 17
