REMARK SMILES CC[C@H]1CO[C@@H](C)CN1c1cccc(F)c1C(=O)OCCOC(=O)c1ccc(-c2c3nc(c(-c4c(F)cc(S(=O)(=O)[O-])cc4F)c4ccc([nH]4)c(-c4c(F)cc(S(=O)(=O)[O-])cc4F)c4nc(c(-c5c(F)cc(S(=O)(=O)[O-])cc5F)c5ccc2[nH]5)C=C4)C=C3)cc1
REMARK SMILES IDX 21 1 20 2 19 3 17 4 18 5 16 6 10 7 11 8 12 9 14 10 13 11
REMARK SMILES IDX 15 12 9 13 3 14 4 15 5 16 8 17 6 18 7 19 2 20 1 21 22 22
REMARK SMILES IDX 23 23 24 24 25 25 26 26 90 27 27 28 89 29 28 30 29 31 30 32
REMARK SMILES IDX 83 33 31 34 88 35 82 36 84 37 32 38 87 39 81 40 80 41 33 43
REMARK SMILES IDX 67 44 46 45 66 46 47 47 50 48 65 49 85 50 48 51 49 52 64 54
REMARK SMILES IDX 86 55 51 56 34 57 35 58 44 59 36 60 37 61 43 62 45 63 38 64
REMARK SMILES IDX 39 65 40 66 41 67 42 68 68 69 69 70 78 71 70 72 71 73 77 74
REMARK SMILES IDX 79 75 72 76 73 77 74 78 75 79 76 80 52 81 53 82 62 83 54 84
REMARK SMILES IDX 55 85 61 86 63 87 56 88 57 89 58 90 59 91 60 92
REMARK H PARENT 84 42 50 53
REMARK Flexibility Score: inf
ROOT
ATOM      1  C   UNL     1       3.288  -7.388   4.118  1.00  0.00     0.275 C 
ENDROOT
BRANCH   1   2
ATOM      2  C   UNL     1       2.677  -6.465   5.170  1.00  0.00     0.275 C 
BRANCH   2   3
ATOM      3  O   UNL     1       1.358  -6.073   4.722  1.00  0.00    -0.458 OA
BRANCH   3   4
ATOM      4  C   UNL     1       1.068  -4.745   4.679  1.00  0.00     0.343 C 
ATOM      5  O   UNL     1       1.761  -3.839   5.112  1.00  0.00    -0.246 OA
BRANCH   4   6
ATOM      6  C   UNL     1      -0.286  -4.558   4.124  1.00  0.00     0.119 A 
ATOM      7  C   UNL     1      -0.663  -3.853   2.941  1.00  0.00     0.055 A 
ATOM      8  C   UNL     1      -2.047  -3.626   2.778  1.00  0.00     0.027 A 
ATOM      9  C   UNL     1      -3.000  -4.040   3.720  1.00  0.00     0.005 A 
ATOM     10  C   UNL     1      -1.260  -5.003   5.037  1.00  0.00     0.139 A 
ATOM     11  C   UNL     1      -2.605  -4.742   4.849  1.00  0.00     0.040 A 
ATOM     12  F   UNL     1      -0.901  -5.632   6.171  1.00  0.00    -0.206 F 
BRANCH   7  13
ATOM     13  N   UNL     1       0.158  -3.173   2.025  1.00  0.00    -0.363 N 
ATOM     14  C   UNL     1       0.806  -1.714   2.563  1.00  0.00     0.108 C 
ATOM     15  C   UNL     1       2.631  -1.543   2.636  1.00  0.00     0.185 C 
ATOM     16  O   UNL     1       3.715  -2.287   1.500  1.00  0.00    -0.375 OA
ATOM     17  C   UNL     1       0.968  -4.023   0.549  1.00  0.00     0.148 C 
ATOM     18  C   UNL     1       3.164  -3.660   0.359  1.00  0.00     0.134 C 
ATOM     19  C   UNL     1       4.538  -4.498   0.757  1.00  0.00     0.040 C 
BRANCH  14  20
ATOM     20  C   UNL     1       0.088  -1.003   3.728  1.00  0.00     0.024 C 
ATOM     21  C   UNL     1      -0.796   0.142   3.193  1.00  0.00     0.006 C 
ENDBRANCH  14  20
ENDBRANCH   7  13
ENDBRANCH   4   6
ENDBRANCH   3   4
ENDBRANCH   2   3
ENDBRANCH   1   2
BRANCH   1  22
ATOM     22  O   UNL     1       3.442  -6.596   2.935  1.00  0.00    -0.458 OA
BRANCH  22  23
ATOM     23  C   UNL     1       2.353  -6.605   2.150  1.00  0.00     0.338 C 
ATOM     24  O   UNL     1       1.467  -7.439   2.080  1.00  0.00    -0.246 OA
BRANCH  23  25
ATOM     25  C   UNL     1       2.351  -5.402   1.335  1.00  0.00     0.060 A 
ATOM     26  C   UNL     1       2.203  -3.744   1.941  1.00  0.00     0.016 A 
ATOM     27  C   UNL     1       2.254  -5.635  -0.364  1.00  0.00     0.016 A 
ATOM     28  C   UNL     1       1.836  -2.350   0.595  1.00  0.00     0.010 A 
ATOM     29  C   UNL     1       1.992  -4.380  -1.496  1.00  0.00     0.010 A 
ATOM     30  C   UNL     1       1.768  -2.741  -1.106  1.00  0.00    -0.014 A 
BRANCH  30  31
ATOM     31  C   UNL     1       1.642  -1.649  -2.128  1.00  0.00     0.031 A 
ATOM     32  C   UNL     1       0.704  -1.770  -3.303  1.00  0.00     0.074 A 
ATOM     33  C   UNL     1       2.346  -0.501  -1.986  1.00  0.00     0.049 A 
ATOM     34  N   UNL     1       0.541  -0.941  -4.304  1.00  0.00    -0.248 NA
ATOM     35  C   UNL     1      -0.130  -2.977  -3.397  1.00  0.00     0.031 C 
ATOM     36  C   UNL     1       3.366  -0.259  -0.972  1.00  0.00     0.029 A 
ATOM     37  N   UNL     1       2.295   0.702  -2.655  1.00  0.00    -0.354 N 
ATOM     38  C   UNL     1      -0.360  -1.550  -5.171  1.00  0.00     0.074 A 
ATOM     39  C   UNL     1      -0.711  -2.822  -4.580  1.00  0.00     0.031 C 
ATOM     40  C   UNL     1       3.692   1.036  -0.942  1.00  0.00     0.029 A 
ATOM     41  C   UNL     1       3.074   1.689  -2.082  1.00  0.00     0.049 A 
ATOM     42  H   UNL     1       1.754   0.845  -3.465  1.00  0.00     0.167 HD
ATOM     43  C   UNL     1      -0.844  -1.088  -6.348  1.00  0.00     0.037 A 
ATOM     44  C   UNL     1       3.338   2.959  -2.449  1.00  0.00     0.037 A 
ATOM     45  C   UNL     1      -0.543   0.213  -6.894  1.00  0.00     0.049 A 
ATOM     46  C   UNL     1       2.770   3.453  -3.743  1.00  0.00     0.074 A 
ATOM     47  C   UNL     1      -1.010   0.775  -8.071  1.00  0.00     0.029 A 
ATOM     48  N   UNL     1       0.278   1.160  -6.300  1.00  0.00    -0.354 N 
ATOM     49  N   UNL     1       1.963   2.831  -4.567  1.00  0.00    -0.248 NA
ATOM     50  C   UNL     1       3.188   4.787  -4.191  1.00  0.00     0.031 C 
ATOM     51  C   UNL     1      -0.439   2.043  -8.209  1.00  0.00     0.029 A 
ATOM     52  C   UNL     1       0.342   2.294  -7.093  1.00  0.00     0.049 A 
ATOM     53  H   UNL     1       0.746   1.043  -5.442  1.00  0.00     0.167 HD
ATOM     54  C   UNL     1       1.795   3.688  -5.644  1.00  0.00     0.074 A 
ATOM     55  C   UNL     1       2.549   4.889  -5.349  1.00  0.00     0.031 C 
ATOM     56  C   UNL     1       1.095   3.484  -6.785  1.00  0.00     0.037 A 
BRANCH  43  57
ATOM     57  C   UNL     1      -1.740  -1.985  -7.159  1.00  0.00     0.058 A 
ATOM     58  C   UNL     1      -1.277  -2.531  -8.368  1.00  0.00     0.135 A 
ATOM     59  C   UNL     1      -3.079  -2.217  -6.808  1.00  0.00     0.135 A 
ATOM     60  F   UNL     1      -0.003  -2.347  -8.748  1.00  0.00    -0.206 F 
ATOM     61  C   UNL     1      -2.116  -3.246  -9.215  1.00  0.00     0.059 A 
ATOM     62  C   UNL     1      -3.931  -2.951  -7.630  1.00  0.00     0.059 A 
ATOM     63  F   UNL     1      -3.566  -1.738  -5.653  1.00  0.00    -0.206 F 
ATOM     64  C   UNL     1      -3.445  -3.444  -8.841  1.00  0.00     0.060 A 
BRANCH  64  65
ATOM     65  S   UNL     1      -4.522  -4.370  -9.958  1.00  0.00     0.124 S 
ATOM     66  O   UNL     1      -4.648  -3.452 -11.084  1.00  0.00    -0.237 OA
ATOM     67  O   UNL     1      -3.740  -5.578 -10.204  1.00  0.00    -0.237 OA
ATOM     68  O   UNL     1      -5.735  -4.569  -9.169  1.00  0.00    -0.744 OA
ENDBRANCH  64  65
ENDBRANCH  43  57
BRANCH  44  69
ATOM     69  C   UNL     1       4.259   3.802  -1.630  1.00  0.00     0.058 A 
ATOM     70  C   UNL     1       5.609   3.447  -1.463  1.00  0.00     0.135 A 
ATOM     71  C   UNL     1       3.805   4.949  -0.961  1.00  0.00     0.135 A 
ATOM     72  F   UNL     1       6.103   2.364  -2.082  1.00  0.00    -0.206 F 
ATOM     73  C   UNL     1       6.455   4.155  -0.618  1.00  0.00     0.059 A 
ATOM     74  C   UNL     1       4.647   5.703  -0.144  1.00  0.00     0.059 A 
ATOM     75  F   UNL     1       2.534   5.351  -1.107  1.00  0.00    -0.206 F 
ATOM     76  C   UNL     1       5.964   5.280   0.042  1.00  0.00     0.060 A 
BRANCH  76  77
ATOM     77  S   UNL     1       7.084   6.188   1.129  1.00  0.00     0.124 S 
ATOM     78  O   UNL     1       7.165   5.291   2.278  1.00  0.00    -0.237 OA
ATOM     79  O   UNL     1       8.291   6.287   0.315  1.00  0.00    -0.237 OA
ATOM     80  O   UNL     1       6.382   7.446   1.360  1.00  0.00    -0.744 OA
ENDBRANCH  76  77
ENDBRANCH  44  69
BRANCH  56  81
ATOM     81  C   UNL     1       1.093   4.589  -7.798  1.00  0.00     0.058 A 
ATOM     82  C   UNL     1      -0.062   5.359  -8.005  1.00  0.00     0.135 A 
ATOM     83  C   UNL     1       2.208   4.836  -8.614  1.00  0.00     0.135 A 
ATOM     84  F   UNL     1      -1.152   5.160  -7.248  1.00  0.00    -0.206 F 
ATOM     85  C   UNL     1      -0.121   6.320  -9.006  1.00  0.00     0.059 A 
ATOM     86  C   UNL     1       2.179   5.811  -9.606  1.00  0.00     0.059 A 
ATOM     87  F   UNL     1       3.340   4.136  -8.440  1.00  0.00    -0.206 F 
ATOM     88  C   UNL     1       1.003   6.534  -9.806  1.00  0.00     0.060 A 
BRANCH  88  89
ATOM     89  S   UNL     1       0.904   7.784 -11.104  1.00  0.00     0.124 S 
ATOM     90  O   UNL     1      -0.005   7.154 -12.056  1.00  0.00    -0.237 OA
ATOM     91  O   UNL     1       0.371   8.935 -10.382  1.00  0.00    -0.237 OA
ATOM     92  O   UNL     1       2.288   7.919 -11.551  1.00  0.00    -0.744 OA
ENDBRANCH  88  89
ENDBRANCH  56  81
ENDBRANCH  30  31
ENDBRANCH  23  25
ENDBRANCH  22  23
ENDBRANCH   1  22
TORSDOF 16
