REMARK SMILES O=C(N[C@H](CCBr)C(=O)OCCOC(=O)c1ccc(-c2c3nc(c(-c4c(F)cc(S(=O)(=O)[O-])cc4F)c4ccc([nH]4)c(-c4c(F)cc(S(=O)(=O)[O-])cc4F)c4nc(c(-c5c(F)cc(S(=O)(=O)[O-])cc5F)c5ccc2[nH]5)C=C4)C=C3)cc1)OCc1ccccc1
REMARK SMILES IDX 11 1 10 2 8 3 9 4 4 5 3 6 1 7 2 8 82 10 83 11 84 12 85 13
REMARK SMILES IDX 89 14 86 15 88 16 87 17 5 18 6 19 7 20 12 21 13 22 14 23
REMARK SMILES IDX 15 24 16 25 17 26 81 27 18 28 80 29 19 30 20 31 21 32 74 33
REMARK SMILES IDX 22 34 79 35 73 36 75 37 23 38 78 39 72 40 71 41 24 43 58 44
REMARK SMILES IDX 37 45 57 46 38 47 41 48 56 49 76 50 39 51 40 52 55 54 77 55
REMARK SMILES IDX 42 56 25 57 26 58 35 59 27 60 28 61 34 62 36 63 29 64 30 65
REMARK SMILES IDX 31 66 32 67 33 68 59 69 60 70 69 71 61 72 62 73 68 74 70 75
REMARK SMILES IDX 63 76 64 77 65 78 66 79 67 80 43 81 44 82 53 83 45 84 46 85
REMARK SMILES IDX 52 86 54 87 47 88 48 89 49 90 50 91 51 92
REMARK H PARENT 3 9 75 42 41 53
REMARK Flexibility Score: inf
ROOT
ATOM      1  C   UNL     1       5.548  -0.766  -5.033  1.00  0.00     0.274 C 
ENDROOT
BRANCH   1   2
ATOM      2  O   UNL     1       4.546  -1.050  -4.037  1.00  0.00    -0.461 OA
BRANCH   2   3
ATOM      3  C   UNL     1       4.973  -1.129  -2.760  1.00  0.00     0.328 C 
ATOM      4  O   UNL     1       6.156  -1.072  -2.425  1.00  0.00    -0.250 OA
BRANCH   3   5
ATOM      5  C   UNL     1       3.857  -1.343  -1.727  1.00  0.00     0.196 C 
BRANCH   5   6
ATOM      6  N   UNL     1       4.349  -2.523  -0.964  1.00  0.00    -0.308 N 
ATOM      7  O   UNL     1       4.311  -3.989   0.770  1.00  0.00    -0.225 OA
ATOM      8  C   UNL     1       3.723  -3.211   0.027  1.00  0.00     0.408 C 
ATOM      9  H   UNL     1       5.246  -2.847  -1.208  1.00  0.00     0.168 HD
BRANCH   8  10
ATOM     10  O   UNL     1       2.420  -2.909   0.118  1.00  0.00    -0.445 OA
BRANCH  10  11
ATOM     11  C   UNL     1       1.928  -2.514   1.399  1.00  0.00     0.270 C 
BRANCH  11  12
ATOM     12  C   UNL     1       2.489  -1.171   1.821  1.00  0.00    -0.011 A 
ATOM     13  C   UNL     1       3.817  -1.064   2.264  1.00  0.00     0.007 A 
ATOM     14  C   UNL     1       1.702  -0.011   1.783  1.00  0.00     0.007 A 
ATOM     15  C   UNL     1       4.342   0.162   2.671  1.00  0.00     0.000 A 
ATOM     16  C   UNL     1       2.221   1.213   2.217  1.00  0.00     0.000 A 
ATOM     17  C   UNL     1       3.539   1.297   2.664  1.00  0.00     0.000 A 
ENDBRANCH  11  12
ENDBRANCH  10  11
ENDBRANCH   8  10
ENDBRANCH   5   6
BRANCH   5  18
ATOM     18  C   UNL     1       2.396  -1.469  -2.203  1.00  0.00     0.048 C 
BRANCH  18  19
ATOM     19  C   UNL     1       1.733  -0.293  -2.896  1.00  0.00     0.083 C 
ATOM     20  Br  UNL     1       1.532  -0.586  -4.804  1.00  0.00    -0.093 Br
ENDBRANCH  18  19
ENDBRANCH   5  18
ENDBRANCH   3   5
ENDBRANCH   2   3
ENDBRANCH   1   2
BRANCH   1  21
ATOM     21  C   UNL     1       5.557   0.719  -5.403  1.00  0.00     0.275 C 
BRANCH  21  22
ATOM     22  O   UNL     1       6.052   1.544  -4.327  1.00  0.00    -0.458 OA
BRANCH  22  23
ATOM     23  C   UNL     1       5.085   2.004  -3.505  1.00  0.00     0.338 C 
ATOM     24  O   UNL     1       3.890   1.776  -3.589  1.00  0.00    -0.246 OA
BRANCH  23  25
ATOM     25  C   UNL     1       5.594   2.840  -2.419  1.00  0.00     0.060 A 
ATOM     26  C   UNL     1       5.654   2.307  -1.130  1.00  0.00     0.016 A 
ATOM     27  C   UNL     1       5.721   4.213  -2.634  1.00  0.00     0.016 A 
ATOM     28  C   UNL     1       5.791   3.165  -0.040  1.00  0.00     0.010 A 
ATOM     29  C   UNL     1       5.901   5.064  -1.542  1.00  0.00     0.010 A 
ATOM     30  C   UNL     1       5.907   4.551  -0.234  1.00  0.00    -0.014 A 
BRANCH  30  31
ATOM     31  C   UNL     1       6.044   5.464   0.930  1.00  0.00     0.031 A 
ATOM     32  C   UNL     1       4.968   6.463   1.262  1.00  0.00     0.074 A 
ATOM     33  C   UNL     1       7.160   5.400   1.680  1.00  0.00     0.049 A 
ATOM     34  N   UNL     1       4.966   7.403   2.174  1.00  0.00    -0.248 NA
ATOM     35  C   UNL     1       3.735   6.405   0.462  1.00  0.00     0.031 C 
ATOM     36  C   UNL     1       8.269   4.469   1.461  1.00  0.00     0.029 A 
ATOM     37  N   UNL     1       7.552   6.134   2.770  1.00  0.00    -0.354 N 
ATOM     38  C   UNL     1       3.750   8.067   2.041  1.00  0.00     0.074 A 
ATOM     39  C   UNL     1       3.045   7.429   0.948  1.00  0.00     0.031 C 
ATOM     40  C   UNL     1       9.208   4.677   2.395  1.00  0.00     0.029 A 
ATOM     41  C   UNL     1       8.798   5.793   3.240  1.00  0.00     0.049 A 
ATOM     42  H   UNL     1       6.995   6.837   3.176  1.00  0.00     0.167 HD
ATOM     43  C   UNL     1       3.270   9.108   2.765  1.00  0.00     0.037 A 
ATOM     44  C   UNL     1       9.542   6.337   4.220  1.00  0.00     0.037 A 
ATOM     45  C   UNL     1       3.974   9.725   3.863  1.00  0.00     0.049 A 
ATOM     46  C   UNL     1       8.996   7.504   4.993  1.00  0.00     0.074 A 
ATOM     47  C   UNL     1       3.563  10.770   4.674  1.00  0.00     0.029 A 
ATOM     48  N   UNL     1       5.237   9.355   4.305  1.00  0.00    -0.354 N 
ATOM     49  N   UNL     1       7.846   8.119   4.853  1.00  0.00    -0.248 NA
ATOM     50  C   UNL     1       9.850   8.051   6.054  1.00  0.00     0.031 C 
ATOM     51  C   UNL     1       4.592  11.056   5.580  1.00  0.00     0.029 A 
ATOM     52  C   UNL     1       5.625  10.159   5.366  1.00  0.00     0.049 A 
ATOM     53  H   UNL     1       5.778   8.627   3.922  1.00  0.00     0.167 HD
ATOM     54  C   UNL     1       7.831   9.117   5.820  1.00  0.00     0.074 A 
ATOM     55  C   UNL     1       9.078   9.007   6.551  1.00  0.00     0.031 C 
ATOM     56  C   UNL     1       6.874  10.043   6.079  1.00  0.00     0.037 A 
BRANCH  43  57
ATOM     57  C   UNL     1       1.924   9.667   2.383  1.00  0.00     0.058 A 
ATOM     58  C   UNL     1       0.732   8.969   2.634  1.00  0.00     0.135 A 
ATOM     59  C   UNL     1       1.822  10.941   1.797  1.00  0.00     0.135 A 
ATOM     60  F   UNL     1       0.768   7.744   3.180  1.00  0.00    -0.206 F 
ATOM     61  C   UNL     1      -0.510   9.499   2.291  1.00  0.00     0.059 A 
ATOM     62  C   UNL     1       0.590  11.502   1.470  1.00  0.00     0.059 A 
ATOM     63  F   UNL     1       2.928  11.656   1.539  1.00  0.00    -0.206 F 
ATOM     64  C   UNL     1      -0.570  10.766   1.706  1.00  0.00     0.060 A 
BRANCH  64  65
ATOM     65  S   UNL     1      -2.187  11.437   1.262  1.00  0.00     0.124 S 
ATOM     66  O   UNL     1      -2.522  10.635   0.089  1.00  0.00    -0.237 OA
ATOM     67  O   UNL     1      -2.977  11.168   2.459  1.00  0.00    -0.237 OA
ATOM     68  O   UNL     1      -1.911  12.846   1.000  1.00  0.00    -0.744 OA
ENDBRANCH  64  65
ENDBRANCH  43  57
BRANCH  44  69
ATOM     69  C   UNL     1      10.890   5.785   4.513  1.00  0.00     0.058 A 
ATOM     70  C   UNL     1      11.137   5.076   5.696  1.00  0.00     0.135 A 
ATOM     71  C   UNL     1      11.949   5.934   3.604  1.00  0.00     0.135 A 
ATOM     72  F   UNL     1      10.156   4.913   6.598  1.00  0.00    -0.206 F 
ATOM     73  C   UNL     1      12.390   4.544   5.977  1.00  0.00     0.059 A 
ATOM     74  C   UNL     1      13.204   5.387   3.848  1.00  0.00     0.059 A 
ATOM     75  F   UNL     1      11.757   6.590   2.448  1.00  0.00    -0.206 F 
ATOM     76  C   UNL     1      13.417   4.702   5.044  1.00  0.00     0.060 A 
BRANCH  76  77
ATOM     77  S   UNL     1      15.027   3.963   5.392  1.00  0.00     0.124 S 
ATOM     78  O   UNL     1      15.555   4.875   6.400  1.00  0.00    -0.237 OA
ATOM     79  O   UNL     1      14.658   2.632   5.864  1.00  0.00    -0.237 OA
ATOM     80  O   UNL     1      15.698   3.996   4.096  1.00  0.00    -0.744 OA
ENDBRANCH  76  77
ENDBRANCH  44  69
BRANCH  56  81
ATOM     81  C   UNL     1       7.135  10.989   7.218  1.00  0.00     0.058 A 
ATOM     82  C   UNL     1       8.094  12.011   7.124  1.00  0.00     0.135 A 
ATOM     83  C   UNL     1       6.420  10.871   8.420  1.00  0.00     0.135 A 
ATOM     84  F   UNL     1       8.811  12.162   5.999  1.00  0.00    -0.206 F 
ATOM     85  C   UNL     1       8.364  12.855   8.196  1.00  0.00     0.059 A 
ATOM     86  C   UNL     1       6.653  11.722   9.496  1.00  0.00     0.059 A 
ATOM     87  F   UNL     1       5.484   9.918   8.560  1.00  0.00    -0.206 F 
ATOM     88  C   UNL     1       7.642  12.699   9.380  1.00  0.00     0.060 A 
BRANCH  88  89
ATOM     89  S   UNL     1       8.003  13.796  10.768  1.00  0.00     0.124 S 
ATOM     90  O   UNL     1       9.253  13.234  11.268  1.00  0.00    -0.237 OA
ATOM     91  O   UNL     1       8.108  15.099  10.120  1.00  0.00    -0.237 OA
ATOM     92  O   UNL     1       6.845  13.629  11.642  1.00  0.00    -0.744 OA
ENDBRANCH  88  89
ENDBRANCH  56  81
ENDBRANCH  30  31
ENDBRANCH  23  25
ENDBRANCH  22  23
ENDBRANCH  21  22
ENDBRANCH   1  21
TORSDOF 20
