REMARK SMILES Cc1ccc(NC(=O)c2cnn3c2NC2=C(C(=O)CCC2)[C@H]3c2ccc(C(=O)OCCOC(=O)c3ccc(-c4c5nc(c(-c6c(F)cc(S(=O)(=O)[O-])cc6F)c6ccc([nH]6)c(-c6c(F)cc(S(=O)(=O)[O-])cc6F)c6nc(c(-c7c(F)cc(S(=O)(=O)[O-])cc7F)c7ccc4[nH]7)C=C6)C=C5)cc3)cc2)cc1
REMARK SMILES IDX 30 1 29 2 27 3 28 4 26 5 23 6 24 7 102 8 25 9 101 10 22 11
REMARK SMILES IDX 9 12 10 13 13 14 11 15 12 16 14 17 15 18 16 20 21 21 17 22
REMARK SMILES IDX 20 23 18 24 19 25 7 26 6 27 8 29 5 30 1 31 2 32 3 33 104 34
REMARK SMILES IDX 4 35 103 36 31 37 32 38 33 39 34 40 35 41 36 42 100 43 37 44
REMARK SMILES IDX 99 45 38 46 39 47 40 48 93 49 41 50 98 51 92 52 94 53 42 54
REMARK SMILES IDX 97 55 91 56 90 57 43 59 77 60 56 61 76 62 57 63 60 64 75 65
REMARK SMILES IDX 95 66 58 67 59 68 74 70 96 71 61 72 44 73 45 74 54 75 46 76
REMARK SMILES IDX 47 77 53 78 55 79 48 80 49 81 50 82 51 83 52 84 78 85 79 86
REMARK SMILES IDX 88 87 80 88 81 89 87 90 89 91 82 92 83 93 84 94 85 95 86 96
REMARK SMILES IDX 62 97 63 98 72 99 64 100 65 101 71 102 73 103 66 104 67 105
REMARK SMILES IDX 68 106 69 107 70 108
REMARK H PARENT 14 19 6 28 94 58 60 69
REMARK Flexibility Score: inf
ROOT
ATOM      1  C   UNL     1       0.323  -3.262  -7.633  1.00  0.00     0.275 C 
ENDROOT
BRANCH   1   2
ATOM      2  O   UNL     1      -0.314  -3.960  -6.548  1.00  0.00    -0.458 OA
BRANCH   2   3
ATOM      3  C   UNL     1       0.474  -4.242  -5.485  1.00  0.00     0.338 C 
ATOM      4  O   UNL     1       1.636  -3.900  -5.335  1.00  0.00    -0.246 OA
BRANCH   3   5
ATOM      5  C   UNL     1      -0.347  -4.781  -4.389  1.00  0.00     0.060 A 
ATOM      6  C   UNL     1      -1.655  -5.559  -1.979  1.00  0.00    -0.019 A 
ATOM      7  C   UNL     1      -1.082  -6.519  -2.833  1.00  0.00     0.007 A 
ATOM      8  C   UNL     1      -1.592  -4.223  -2.433  1.00  0.00     0.007 A 
ATOM      9  C   UNL     1      -0.421  -6.131  -4.027  1.00  0.00     0.016 A 
ATOM     10  C   UNL     1      -0.958  -3.827  -3.601  1.00  0.00     0.016 A 
BRANCH   6  11
ATOM     11  C   UNL     1      -2.374  -5.944  -0.633  1.00  0.00     0.175 C 
ATOM     12  C   UNL     1      -3.754  -2.775   0.048  1.00  0.00     0.102 A 
ATOM     13  C   UNL     1      -2.969  -3.022   1.212  1.00  0.00     0.151 A 
ATOM     14  C   UNL     1      -3.954  -4.040  -0.476  1.00  0.00     0.142 A 
ATOM     15  N   UNL     1      -2.399  -4.232   1.201  1.00  0.00    -0.178 NA
ATOM     16  N   UNL     1      -2.875  -4.741   0.051  1.00  0.00    -0.237 N 
ATOM     17  N   UNL     1      -4.715  -4.693  -1.419  1.00  0.00    -0.343 N 
ATOM     18  C   UNL     1      -4.652  -6.104  -1.513  1.00  0.00     0.026 C 
ATOM     19  H   UNL     1      -5.299  -4.182  -2.025  1.00  0.00     0.168 HD
ATOM     20  C   UNL     1      -3.642  -6.733  -0.861  1.00  0.00     0.044 C 
ATOM     21  C   UNL     1      -5.867  -6.924  -1.853  1.00  0.00     0.055 C 
ATOM     22  C   UNL     1      -4.201  -7.414   0.370  1.00  0.00     0.163 C 
ATOM     23  C   UNL     1      -6.514  -7.492  -0.586  1.00  0.00     0.014 C 
ATOM     24  O   UNL     1      -3.455  -7.956   1.182  1.00  0.00    -0.294 OA
ATOM     25  C   UNL     1      -5.689  -7.195   0.662  1.00  0.00     0.081 C 
BRANCH  12  26
ATOM     26  C   UNL     1      -4.196  -1.504  -0.460  1.00  0.00     0.261 C 
ATOM     27  N   UNL     1      -3.333  -0.417  -0.445  1.00  0.00    -0.322 N 
ATOM     28  H   UNL     1      -3.799   0.442  -0.566  1.00  0.00     0.170 HD
ATOM     29  O   UNL     1      -5.340  -1.347  -0.896  1.00  0.00    -0.269 OA
BRANCH  27  30
ATOM     30  C   UNL     1      -1.928  -0.266  -0.295  1.00  0.00     0.041 A 
ATOM     31  C   UNL     1       2.347   0.456   0.053  1.00  0.00     0.044 C 
ATOM     32  C   UNL     1       0.870   0.234  -0.063  1.00  0.00    -0.051 A 
ATOM     33  C   UNL     1       0.385  -1.061  -0.203  1.00  0.00     0.005 A 
ATOM     34  C   UNL     1      -0.051   1.285  -0.040  1.00  0.00     0.005 A 
ATOM     35  C   UNL     1      -0.989  -1.295  -0.320  1.00  0.00     0.026 A 
ATOM     36  C   UNL     1      -1.431   1.036  -0.166  1.00  0.00     0.026 A 
ENDBRANCH  27  30
ENDBRANCH  12  26
ENDBRANCH   6  11
ENDBRANCH   3   5
ENDBRANCH   2   3
ENDBRANCH   1   2
BRANCH   1  37
ATOM     37  C   UNL     1       1.506  -4.005  -8.301  1.00  0.00     0.275 C 
BRANCH  37  38
ATOM     38  O   UNL     1       1.219  -5.283  -8.905  1.00  0.00    -0.458 OA
BRANCH  38  39
ATOM     39  C   UNL     1       0.668  -6.221  -8.079  1.00  0.00     0.338 C 
ATOM     40  O   UNL     1       1.227  -6.693  -7.106  1.00  0.00    -0.246 OA
BRANCH  39  41
ATOM     41  C   UNL     1      -0.799  -6.215  -8.331  1.00  0.00     0.060 A 
ATOM     42  C   UNL     1      -1.679  -6.677  -7.337  1.00  0.00     0.016 A 
ATOM     43  C   UNL     1      -1.254  -5.385  -9.357  1.00  0.00     0.016 A 
ATOM     44  C   UNL     1      -2.994  -6.218  -7.311  1.00  0.00     0.010 A 
ATOM     45  C   UNL     1      -2.474  -4.789  -9.224  1.00  0.00     0.010 A 
ATOM     46  C   UNL     1      -3.362  -5.247  -8.241  1.00  0.00    -0.014 A 
BRANCH  46  47
ATOM     47  C   UNL     1      -4.730  -4.912  -8.584  1.00  0.00     0.031 A 
ATOM     48  C   UNL     1      -5.488  -3.838  -7.925  1.00  0.00     0.074 A 
ATOM     49  C   UNL     1      -5.076  -5.504  -9.752  1.00  0.00     0.049 A 
ATOM     50  N   UNL     1      -6.773  -3.772  -7.938  1.00  0.00    -0.248 NA
ATOM     51  C   UNL     1      -4.874  -2.738  -7.182  1.00  0.00     0.031 C 
ATOM     52  C   UNL     1      -6.126  -5.182 -10.694  1.00  0.00     0.029 A 
ATOM     53  N   UNL     1      -4.485  -6.653 -10.307  1.00  0.00    -0.354 N 
ATOM     54  C   UNL     1      -7.126  -2.493  -7.547  1.00  0.00     0.074 A 
ATOM     55  C   UNL     1      -5.931  -1.943  -6.950  1.00  0.00     0.031 C 
ATOM     56  C   UNL     1      -6.320  -6.256 -11.487  1.00  0.00     0.029 A 
ATOM     57  C   UNL     1      -5.495  -7.341 -10.958  1.00  0.00     0.049 A 
ATOM     58  H   UNL     1      -3.538  -6.916 -10.244  1.00  0.00     0.167 HD
ATOM     59  C   UNL     1      -8.325  -1.986  -7.967  1.00  0.00     0.037 A 
ATOM     60  C   UNL     1      -5.945  -8.537 -10.474  1.00  0.00     0.037 A 
ATOM     61  C   UNL     1      -8.964  -2.953  -8.857  1.00  0.00     0.049 A 
ATOM     62  C   UNL     1      -7.388  -8.389 -10.062  1.00  0.00     0.074 A 
ATOM     63  C   UNL     1      -8.937  -3.054 -10.239  1.00  0.00     0.029 A 
ATOM     64  N   UNL     1      -9.421  -4.171  -8.373  1.00  0.00    -0.354 N 
ATOM     65  N   UNL     1      -7.900  -7.289  -9.577  1.00  0.00    -0.248 NA
ATOM     66  C   UNL     1      -8.378  -9.438 -10.266  1.00  0.00     0.031 C 
ATOM     67  C   UNL     1      -9.326  -4.368 -10.585  1.00  0.00     0.029 A 
ATOM     68  C   UNL     1      -9.584  -5.063  -9.416  1.00  0.00     0.049 A 
ATOM     69  H   UNL     1      -9.602  -4.370  -7.426  1.00  0.00     0.167 HD
ATOM     70  C   UNL     1      -9.261  -7.427  -9.508  1.00  0.00     0.074 A 
ATOM     71  C   UNL     1      -9.508  -8.800  -9.915  1.00  0.00     0.031 C 
ATOM     72  C   UNL     1     -10.102  -6.399  -9.188  1.00  0.00     0.037 A 
BRANCH  59  73
ATOM     73  C   UNL     1      -8.789  -0.539  -7.896  1.00  0.00     0.058 A 
ATOM     74  C   UNL     1      -9.721  -0.041  -8.844  1.00  0.00     0.135 A 
ATOM     75  C   UNL     1      -8.381   0.406  -6.935  1.00  0.00     0.135 A 
ATOM     76  F   UNL     1     -10.268  -0.828  -9.779  1.00  0.00    -0.206 F 
ATOM     77  C   UNL     1     -10.144   1.286  -8.888  1.00  0.00     0.059 A 
ATOM     78  C   UNL     1      -8.780   1.754  -6.970  1.00  0.00     0.059 A 
ATOM     79  F   UNL     1      -7.610   0.050  -5.898  1.00  0.00    -0.206 F 
ATOM     80  C   UNL     1      -9.656   2.187  -7.959  1.00  0.00     0.060 A 
BRANCH  80  81
ATOM     81  S   UNL     1     -10.213   3.900  -8.063  1.00  0.00     0.124 S 
ATOM     82  O   UNL     1      -9.751   4.290  -9.392  1.00  0.00    -0.237 OA
ATOM     83  O   UNL     1     -11.657   3.764  -7.910  1.00  0.00    -0.237 OA
ATOM     84  O   UNL     1      -9.524   4.550  -6.952  1.00  0.00    -0.744 OA
ENDBRANCH  80  81
ENDBRANCH  59  73
BRANCH  60  85
ATOM     85  C   UNL     1      -4.919  -9.374  -9.771  1.00  0.00     0.058 A 
ATOM     86  C   UNL     1      -3.816  -9.839 -10.520  1.00  0.00     0.135 A 
ATOM     87  C   UNL     1      -4.805  -9.442  -8.373  1.00  0.00     0.135 A 
ATOM     88  F   UNL     1      -3.860  -9.812 -11.862  1.00  0.00    -0.206 F 
ATOM     89  C   UNL     1      -2.619 -10.228  -9.921  1.00  0.00     0.059 A 
ATOM     90  C   UNL     1      -3.615  -9.842  -7.749  1.00  0.00     0.059 A 
ATOM     91  F   UNL     1      -5.807  -9.016  -7.590  1.00  0.00    -0.206 F 
ATOM     92  C   UNL     1      -2.514 -10.188  -8.533  1.00  0.00     0.060 A 
BRANCH  92  93
ATOM     93  S   UNL     1      -0.871 -10.404  -7.798  1.00  0.00     0.124 S 
ATOM     94  O   UNL     1      -0.654 -11.836  -7.962  1.00  0.00    -0.237 OA
ATOM     95  O   UNL     1      -0.059  -9.534  -8.644  1.00  0.00    -0.237 OA
ATOM     96  O   UNL     1      -1.058  -9.942  -6.426  1.00  0.00    -0.744 OA
ENDBRANCH  92  93
ENDBRANCH  60  85
BRANCH  72  97
ATOM     97  C   UNL     1     -11.546  -6.541  -8.783  1.00  0.00     0.058 A 
ATOM     98  C   UNL     1     -12.066  -7.702  -8.191  1.00  0.00     0.135 A 
ATOM     99  C   UNL     1     -12.425  -5.428  -8.827  1.00  0.00     0.135 A 
ATOM    100  F   UNL     1     -11.300  -8.778  -7.966  1.00  0.00    -0.206 F 
ATOM    101  C   UNL     1     -13.386  -7.788  -7.760  1.00  0.00     0.059 A 
ATOM    102  C   UNL     1     -13.724  -5.471  -8.338  1.00  0.00     0.059 A 
ATOM    103  F   UNL     1     -12.048  -4.244  -9.331  1.00  0.00    -0.206 F 
ATOM    104  C   UNL     1     -14.208  -6.669  -7.838  1.00  0.00     0.060 A 
BRANCH 104 105
ATOM    105  S   UNL     1     -15.900  -6.771  -7.243  1.00  0.00     0.124 S 
ATOM    106  O   UNL     1     -16.591  -7.266  -8.429  1.00  0.00    -0.237 OA
ATOM    107  O   UNL     1     -15.793  -7.715  -6.135  1.00  0.00    -0.237 OA
ATOM    108  O   UNL     1     -16.204  -5.397  -6.858  1.00  0.00    -0.744 OA
ENDBRANCH 104 105
ENDBRANCH  72  97
ENDBRANCH  46  47
ENDBRANCH  39  41
ENDBRANCH  38  39
ENDBRANCH  37  38
ENDBRANCH   1  37
TORSDOF 17
