REMARK SMILES Cc1ccc(-c2cc([C@@H](C)C(=O)OCCOC(=O)c3ccc(-c4c5nc(c(-c6c(F)cc(S(=O)(=O)[O-])cc6F)c6ccc([nH]6)c(-c6c(F)cc(S(=O)(=O)[O-])cc6F)c6nc(c(-c7c(F)cc(S(=O)(=O)[O-])cc7F)c7ccc4[nH]7)C=C6)C=C5)cc3)ccc2C[C@H]2CCCC2=O)cc1
REMARK SMILES IDX 14 1 13 2 11 3 12 4 9 5 10 6 8 7 6 8 7 9 87 10 86 11 85 12
REMARK SMILES IDX 5 13 1 14 2 15 3 16 96 17 4 18 95 19 88 20 89 21 90 22 93 23
REMARK SMILES IDX 91 24 92 25 94 26 15 27 16 28 17 29 18 30 19 31 20 32 84 33
REMARK SMILES IDX 21 34 83 35 22 36 23 37 24 38 77 39 25 40 82 41 76 42 78 43
REMARK SMILES IDX 26 44 81 45 75 46 74 47 27 49 61 50 40 51 60 52 41 53 44 54
REMARK SMILES IDX 59 55 79 56 42 57 43 58 58 60 80 61 45 62 28 63 29 64 38 65
REMARK SMILES IDX 30 66 31 67 37 68 39 69 32 70 33 71 34 72 35 73 36 74 62 75
REMARK SMILES IDX 63 76 72 77 64 78 65 79 71 80 73 81 66 82 67 83 68 84 69 85
REMARK SMILES IDX 70 86 46 87 47 88 56 89 48 90 49 91 55 92 57 93 50 94 51 95
REMARK SMILES IDX 52 96 53 97 54 98
REMARK H PARENT 78 48 44 59
REMARK Flexibility Score: inf
ROOT
ATOM      1  C   UNL     1      -7.755   2.491   1.037  1.00  0.00     0.274 C 
ENDROOT
BRANCH   1   2
ATOM      2  O   UNL     1      -6.894   1.720   0.201  1.00  0.00    -0.462 OA
BRANCH   2   3
ATOM      3  C   UNL     1      -7.494   0.787  -0.597  1.00  0.00     0.313 C 
ATOM      4  O   UNL     1      -8.669   0.465  -0.494  1.00  0.00    -0.252 OA
BRANCH   3   5
ATOM      5  C   UNL     1      -6.446   0.140  -1.524  1.00  0.00     0.126 C 
ATOM      6  C   UNL     1      -6.987  -0.826  -2.572  1.00  0.00     0.025 C 
BRANCH   5   7
ATOM      7  C   UNL     1      -5.434  -0.538  -0.639  1.00  0.00    -0.033 A 
ATOM      8  C   UNL     1      -3.215  -0.546   0.338  1.00  0.00    -0.015 A 
ATOM      9  C   UNL     1      -4.093  -0.140  -0.670  1.00  0.00     0.013 A 
ATOM     10  C   UNL     1      -3.748  -1.270   1.433  1.00  0.00    -0.039 A 
ATOM     11  C   UNL     1      -5.050  -1.788   1.363  1.00  0.00     0.004 A 
ATOM     12  C   UNL     1      -5.885  -1.442   0.323  1.00  0.00     0.005 A 
BRANCH   8  13
ATOM     13  C   UNL     1      -1.774  -0.302   0.186  1.00  0.00    -0.018 A 
ATOM     14  C   UNL     1       2.514   0.160  -0.075  1.00  0.00     0.044 C 
ATOM     15  C   UNL     1       1.024   0.020  -0.027  1.00  0.00    -0.051 A 
ATOM     16  C   UNL     1       0.459  -1.257  -0.036  1.00  0.00     0.004 A 
ATOM     17  C   UNL     1       0.179   1.136   0.034  1.00  0.00     0.004 A 
ATOM     18  C   UNL     1      -0.921  -1.411   0.059  1.00  0.00     0.009 A 
ATOM     19  C   UNL     1      -1.210   0.978   0.132  1.00  0.00     0.009 A 
ENDBRANCH   8  13
BRANCH  10  20
ATOM     20  C   UNL     1      -3.012  -1.437   2.744  1.00  0.00     0.047 C 
BRANCH  20  21
ATOM     21  C   UNL     1      -3.464  -0.493   3.872  1.00  0.00     0.060 C 
ATOM     22  C   UNL     1      -3.263   1.005   3.634  1.00  0.00     0.012 C 
ATOM     23  C   UNL     1      -4.941  -0.568   4.190  1.00  0.00     0.136 C 
ATOM     24  C   UNL     1      -4.615   1.584   3.247  1.00  0.00     0.009 C 
ATOM     25  C   UNL     1      -5.670   0.720   3.919  1.00  0.00     0.076 C 
ATOM     26  O   UNL     1      -5.485  -1.565   4.653  1.00  0.00    -0.299 OA
ENDBRANCH  20  21
ENDBRANCH  10  20
ENDBRANCH   5   7
ENDBRANCH   3   5
ENDBRANCH   2   3
ENDBRANCH   1   2
BRANCH   1  27
ATOM     27  C   UNL     1      -7.021   3.738   1.571  1.00  0.00     0.275 C 
BRANCH  27  28
ATOM     28  O   UNL     1      -6.229   4.585   0.690  1.00  0.00    -0.458 OA
BRANCH  28  29
ATOM     29  C   UNL     1      -5.693   4.090  -0.459  1.00  0.00     0.338 C 
ATOM     30  O   UNL     1      -4.581   3.562  -0.508  1.00  0.00    -0.246 OA
BRANCH  29  31
ATOM     31  C   UNL     1      -6.703   4.079  -1.550  1.00  0.00     0.060 A 
ATOM     32  C   UNL     1      -6.502   3.329  -2.722  1.00  0.00     0.016 A 
ATOM     33  C   UNL     1      -7.971   4.543  -1.226  1.00  0.00     0.016 A 
ATOM     34  C   UNL     1      -7.600   2.901  -3.476  1.00  0.00     0.010 A 
ATOM     35  C   UNL     1      -9.042   3.946  -1.826  1.00  0.00     0.010 A 
ATOM     36  C   UNL     1      -8.873   3.163  -2.979  1.00  0.00    -0.014 A 
BRANCH  36  37
ATOM     37  C   UNL     1     -10.142   2.922  -3.652  1.00  0.00     0.031 A 
ATOM     38  C   UNL     1     -10.826   1.619  -3.693  1.00  0.00     0.074 A 
ATOM     39  C   UNL     1     -10.749   4.092  -3.951  1.00  0.00     0.049 A 
ATOM     40  N   UNL     1     -11.919   1.407  -4.333  1.00  0.00    -0.248 NA
ATOM     41  C   UNL     1     -10.359   0.422  -3.020  1.00  0.00     0.031 C 
ATOM     42  C   UNL     1     -12.129   4.425  -4.232  1.00  0.00     0.029 A 
ATOM     43  N   UNL     1     -10.073   5.302  -4.153  1.00  0.00    -0.354 N 
ATOM     44  C   UNL     1     -12.434   0.183  -3.939  1.00  0.00     0.074 A 
ATOM     45  C   UNL     1     -11.379  -0.430  -3.180  1.00  0.00     0.031 C 
ATOM     46  C   UNL     1     -12.149   5.606  -4.885  1.00  0.00     0.029 A 
ATOM     47  C   UNL     1     -10.763   5.985  -5.153  1.00  0.00     0.049 A 
ATOM     48  H   UNL     1      -9.266   5.610  -3.681  1.00  0.00     0.167 HD
ATOM     49  C   UNL     1     -13.743  -0.077  -4.223  1.00  0.00     0.037 A 
ATOM     50  C   UNL     1     -10.133   6.011  -6.370  1.00  0.00     0.037 A 
ATOM     51  C   UNL     1     -14.261   1.000  -5.069  1.00  0.00     0.049 A 
ATOM     52  C   UNL     1     -10.822   5.088  -7.363  1.00  0.00     0.074 A 
ATOM     53  C   UNL     1     -14.933   2.183  -4.819  1.00  0.00     0.029 A 
ATOM     54  N   UNL     1     -13.735   1.117  -6.337  1.00  0.00    -0.354 N 
ATOM     55  N   UNL     1     -11.730   4.207  -7.033  1.00  0.00    -0.248 NA
ATOM     56  C   UNL     1     -10.568   5.093  -8.801  1.00  0.00     0.031 C 
ATOM     57  C   UNL     1     -14.698   3.053  -5.931  1.00  0.00     0.029 A 
ATOM     58  C   UNL     1     -13.895   2.389  -6.844  1.00  0.00     0.049 A 
ATOM     59  H   UNL     1     -13.297   0.381  -6.823  1.00  0.00     0.167 HD
ATOM     60  C   UNL     1     -12.225   3.596  -8.146  1.00  0.00     0.074 A 
ATOM     61  C   UNL     1     -11.432   4.153  -9.230  1.00  0.00     0.031 C 
ATOM     62  C   UNL     1     -13.258   2.703  -8.114  1.00  0.00     0.037 A 
BRANCH  49  63
ATOM     63  C   UNL     1     -14.636  -1.161  -3.651  1.00  0.00     0.058 A 
ATOM     64  C   UNL     1     -16.041  -1.008  -3.740  1.00  0.00     0.135 A 
ATOM     65  C   UNL     1     -14.222  -2.335  -2.987  1.00  0.00     0.135 A 
ATOM     66  F   UNL     1     -16.596   0.034  -4.373  1.00  0.00    -0.206 F 
ATOM     67  C   UNL     1     -16.951  -1.901  -3.177  1.00  0.00     0.059 A 
ATOM     68  C   UNL     1     -15.120  -3.241  -2.397  1.00  0.00     0.059 A 
ATOM     69  F   UNL     1     -12.932  -2.680  -2.904  1.00  0.00    -0.206 F 
ATOM     70  C   UNL     1     -16.485  -3.010  -2.492  1.00  0.00     0.060 A 
BRANCH  70  71
ATOM     71  S   UNL     1     -17.695  -4.126  -1.756  1.00  0.00     0.124 S 
ATOM     72  O   UNL     1     -18.387  -3.247  -0.818  1.00  0.00    -0.237 OA
ATOM     73  O   UNL     1     -18.470  -4.547  -2.919  1.00  0.00    -0.237 OA
ATOM     74  O   UNL     1     -16.874  -5.166  -1.143  1.00  0.00    -0.744 OA
ENDBRANCH  70  71
ENDBRANCH  49  63
BRANCH  50  75
ATOM     75  C   UNL     1      -8.646   6.258  -6.208  1.00  0.00     0.058 A 
ATOM     76  C   UNL     1      -8.254   7.399  -5.459  1.00  0.00     0.135 A 
ATOM     77  C   UNL     1      -7.669   5.264  -6.374  1.00  0.00     0.135 A 
ATOM     78  F   UNL     1      -9.132   8.396  -5.251  1.00  0.00    -0.206 F 
ATOM     79  C   UNL     1      -7.035   7.478  -4.786  1.00  0.00     0.059 A 
ATOM     80  C   UNL     1      -6.418   5.341  -5.735  1.00  0.00     0.059 A 
ATOM     81  F   UNL     1      -7.947   4.152  -7.071  1.00  0.00    -0.206 F 
ATOM     82  C   UNL     1      -6.134   6.424  -4.898  1.00  0.00     0.060 A 
BRANCH  82  83
ATOM     83  S   UNL     1      -4.679   6.437  -3.815  1.00  0.00     0.124 S 
ATOM     84  O   UNL     1      -3.905   7.547  -4.359  1.00  0.00    -0.237 OA
ATOM     85  O   UNL     1      -5.279   6.671  -2.504  1.00  0.00    -0.237 OA
ATOM     86  O   UNL     1      -4.101   5.111  -4.011  1.00  0.00    -0.744 OA
ENDBRANCH  82  83
ENDBRANCH  50  75
BRANCH  62  87
ATOM     87  C   UNL     1     -13.779   2.041  -9.348  1.00  0.00     0.058 A 
ATOM     88  C   UNL     1     -14.171   2.782 -10.469  1.00  0.00     0.135 A 
ATOM     89  C   UNL     1     -14.016   0.650  -9.388  1.00  0.00     0.135 A 
ATOM     90  F   UNL     1     -14.033   4.117 -10.490  1.00  0.00    -0.206 F 
ATOM     91  C   UNL     1     -14.710   2.169 -11.594  1.00  0.00     0.059 A 
ATOM     92  C   UNL     1     -14.624   0.029 -10.466  1.00  0.00     0.059 A 
ATOM     93  F   UNL     1     -13.623  -0.160  -8.392  1.00  0.00    -0.206 F 
ATOM     94  C   UNL     1     -14.931   0.792 -11.582  1.00  0.00     0.060 A 
BRANCH  94  95
ATOM     95  S   UNL     1     -15.596  -0.010 -13.047  1.00  0.00     0.124 S 
ATOM     96  O   UNL     1     -16.567   0.967 -13.530  1.00  0.00    -0.237 OA
ATOM     97  O   UNL     1     -14.391  -0.159 -13.858  1.00  0.00    -0.237 OA
ATOM     98  O   UNL     1     -16.164  -1.249 -12.527  1.00  0.00    -0.744 OA
ENDBRANCH  94  95
ENDBRANCH  62  87
ENDBRANCH  36  37
ENDBRANCH  29  31
ENDBRANCH  28  29
ENDBRANCH  27  28
ENDBRANCH   1  27
TORSDOF 18
