REMARK SMILES CCS(=O)(=O)N1CCC[C@@H](C(=O)OCCOC(=O)c2ccc(-c3c4nc(c(-c5c(F)cc(S(=O)(=O)[O-])cc5F)c5ccc([nH]5)c(-c5c(F)cc(S(=O)(=O)[O-])cc5F)c5nc(c(-c6c(F)cc(S(=O)(=O)[O-])cc6F)c6ccc3[nH]6)C=C5)C=C4)cc2)C1
REMARK SMILES IDX 15 1 14 2 13 3 11 4 12 5 10 6 6 7 7 8 85 9 8 10 9 11 3 12
REMARK SMILES IDX 4 13 5 14 2 15 1 16 16 17 17 18 18 19 19 20 20 21 84 22
REMARK SMILES IDX 21 23 83 24 22 25 23 26 24 27 77 28 25 29 82 30 76 31 78 32
REMARK SMILES IDX 26 33 81 34 75 35 74 36 27 38 61 39 40 40 60 41 41 42 44 43
REMARK SMILES IDX 59 44 79 45 42 46 43 47 58 49 80 50 45 51 28 52 29 53 38 54
REMARK SMILES IDX 30 55 31 56 37 57 39 58 32 59 33 60 34 61 35 62 36 63 62 64
REMARK SMILES IDX 63 65 72 66 64 67 65 68 71 69 73 70 66 71 67 72 68 73 69 74
REMARK SMILES IDX 70 75 46 76 47 77 56 78 48 79 49 80 55 81 57 82 50 83 51 84
REMARK SMILES IDX 52 85 53 86 54 87
REMARK H PARENT 78 37 44 48
REMARK Flexibility Score: inf
ROOT
ATOM      1  C   UNL     1       5.532   3.066  -0.657  1.00  0.00     0.275 C 
ENDROOT
BRANCH   1   2
ATOM      2  C   UNL     1       6.066   1.719  -1.156  1.00  0.00     0.274 C 
BRANCH   2   3
ATOM      3  O   UNL     1       5.381   0.606  -0.545  1.00  0.00    -0.462 OA
BRANCH   3   4
ATOM      4  C   UNL     1       6.020   0.010   0.498  1.00  0.00     0.310 C 
ATOM      5  O   UNL     1       7.146   0.302   0.881  1.00  0.00    -0.252 OA
BRANCH   4   6
ATOM      6  C   UNL     1       5.217  -1.117   1.117  1.00  0.00     0.114 C 
ATOM      7  N   UNL     1       2.974  -2.050   1.608  1.00  0.00    -0.201 NA
ATOM      8  C   UNL     1       3.335  -3.365   1.034  1.00  0.00     0.102 C 
ATOM      9  C   UNL     1       3.710  -0.906   1.009  1.00  0.00     0.117 C 
ATOM     10  C   UNL     1       4.842  -3.586   1.164  1.00  0.00     0.018 C 
ATOM     11  C   UNL     1       5.628  -2.455   0.507  1.00  0.00     0.018 C 
BRANCH   7  12
ATOM     12  S   UNL     1       1.342  -1.790   2.005  1.00  0.00     0.213 S 
ATOM     13  O   UNL     1       1.266  -0.605   2.829  1.00  0.00    -0.212 OA
ATOM     14  O   UNL     1       0.807  -3.053   2.474  1.00  0.00    -0.212 OA
BRANCH  12  15
ATOM     15  C   UNL     1       0.563  -1.443   0.422  1.00  0.00     0.151 C 
ATOM     16  C   UNL     1       0.580   0.019   0.023  1.00  0.00     0.022 C 
ENDBRANCH  12  15
ENDBRANCH   7  12
ENDBRANCH   4   6
ENDBRANCH   3   4
ENDBRANCH   2   3
ENDBRANCH   1   2
BRANCH   1  17
ATOM     17  O   UNL     1       5.795   3.260   0.744  1.00  0.00    -0.458 OA
BRANCH  17  18
ATOM     18  C   UNL     1       4.804   2.845   1.569  1.00  0.00     0.338 C 
ATOM     19  O   UNL     1       3.734   2.368   1.236  1.00  0.00    -0.246 OA
BRANCH  18  20
ATOM     20  C   UNL     1       5.262   2.925   2.965  1.00  0.00     0.060 A 
ATOM     21  C   UNL     1       5.360   1.744   3.707  1.00  0.00     0.016 A 
ATOM     22  C   UNL     1       5.523   4.159   3.560  1.00  0.00     0.016 A 
ATOM     23  C   UNL     1       5.724   1.787   5.051  1.00  0.00     0.010 A 
ATOM     24  C   UNL     1       5.882   4.202   4.909  1.00  0.00     0.010 A 
ATOM     25  C   UNL     1       5.975   3.019   5.664  1.00  0.00    -0.014 A 
BRANCH  25  26
ATOM     26  C   UNL     1       6.244   3.093   7.120  1.00  0.00     0.031 A 
ATOM     27  C   UNL     1       5.172   3.619   8.031  1.00  0.00     0.074 A 
ATOM     28  C   UNL     1       7.436   2.710   7.614  1.00  0.00     0.049 A 
ATOM     29  N   UNL     1       5.246   3.950   9.292  1.00  0.00    -0.248 NA
ATOM     30  C   UNL     1       3.838   3.804   7.435  1.00  0.00     0.031 C 
ATOM     31  C   UNL     1       8.524   2.118   6.835  1.00  0.00     0.029 A 
ATOM     32  N   UNL     1       7.936   2.779   8.889  1.00  0.00    -0.354 N 
ATOM     33  C   UNL     1       3.978   4.403   9.638  1.00  0.00     0.074 A 
ATOM     34  C   UNL     1       3.160   4.324   8.447  1.00  0.00     0.031 C 
ATOM     35  C   UNL     1       9.570   1.892   7.647  1.00  0.00     0.029 A 
ATOM     36  C   UNL     1       9.247   2.374   8.987  1.00  0.00     0.049 A 
ATOM     37  H   UNL     1       7.408   3.088   9.660  1.00  0.00     0.167 HD
ATOM     38  C   UNL     1       3.541   4.841  10.843  1.00  0.00     0.037 A 
ATOM     39  C   UNL     1      10.099   2.429  10.030  1.00  0.00     0.037 A 
ATOM     40  C   UNL     1       4.368   4.901  12.020  1.00  0.00     0.049 A 
ATOM     41  C   UNL     1       9.614   2.999  11.339  1.00  0.00     0.074 A 
ATOM     42  C   UNL     1       4.034   5.347  13.286  1.00  0.00     0.029 A 
ATOM     43  N   UNL     1       5.694   4.494  12.076  1.00  0.00    -0.354 N 
ATOM     44  N   UNL     1       8.426   3.463  11.647  1.00  0.00    -0.248 NA
ATOM     45  C   UNL     1      10.586   3.062  12.440  1.00  0.00     0.031 C 
ATOM     46  C   UNL     1       5.168   5.247  14.098  1.00  0.00     0.029 A 
ATOM     47  C   UNL     1       6.193   4.686  13.353  1.00  0.00     0.049 A 
ATOM     48  H   UNL     1       6.203   4.123  11.320  1.00  0.00     0.167 HD
ATOM     49  C   UNL     1       8.495   3.828  12.988  1.00  0.00     0.074 A 
ATOM     50  C   UNL     1       9.842   3.537  13.431  1.00  0.00     0.031 C 
ATOM     51  C   UNL     1       7.529   4.352  13.782  1.00  0.00     0.037 A 
BRANCH  38  52
ATOM     52  C   UNL     1       2.117   5.313  10.942  1.00  0.00     0.058 A 
ATOM     53  C   UNL     1       1.035   4.420  10.891  1.00  0.00     0.135 A 
ATOM     54  C   UNL     1       1.831   6.676  11.130  1.00  0.00     0.135 A 
ATOM     55  F   UNL     1       1.250   3.109  10.695  1.00  0.00    -0.206 F 
ATOM     56  C   UNL     1      -0.280   4.862  11.001  1.00  0.00     0.059 A 
ATOM     57  C   UNL     1       0.525   7.137  11.270  1.00  0.00     0.059 A 
ATOM     58  F   UNL     1       2.826   7.574  11.183  1.00  0.00    -0.206 F 
ATOM     59  C   UNL     1      -0.525   6.223  11.192  1.00  0.00     0.060 A 
BRANCH  59  60
ATOM     60  S   UNL     1      -2.235   6.780  11.347  1.00  0.00     0.124 S 
ATOM     61  O   UNL     1      -2.716   6.634   9.976  1.00  0.00    -0.237 OA
ATOM     62  O   UNL     1      -2.785   5.836  12.315  1.00  0.00    -0.237 OA
ATOM     63  O   UNL     1      -2.105   8.154  11.821  1.00  0.00    -0.744 OA
ENDBRANCH  59  60
ENDBRANCH  38  52
BRANCH  39  64
ATOM     64  C   UNL     1      11.503   1.956   9.881  1.00  0.00     0.058 A 
ATOM     65  C   UNL     1      11.961   0.823  10.570  1.00  0.00     0.135 A 
ATOM     66  C   UNL     1      12.421   2.637   9.066  1.00  0.00     0.135 A 
ATOM     67  F   UNL     1      11.126   0.142  11.369  1.00  0.00    -0.206 F 
ATOM     68  C   UNL     1      13.282   0.396  10.478  1.00  0.00     0.059 A 
ATOM     69  C   UNL     1      13.740   2.213   8.934  1.00  0.00     0.059 A 
ATOM     70  F   UNL     1      12.034   3.721   8.376  1.00  0.00    -0.206 F 
ATOM     71  C   UNL     1      14.165   1.100   9.658  1.00  0.00     0.060 A 
BRANCH  71  72
ATOM     72  S   UNL     1      15.874   0.529   9.532  1.00  0.00     0.124 S 
ATOM     73  O   UNL     1      16.410   0.920  10.831  1.00  0.00    -0.237 OA
ATOM     74  O   UNL     1      15.704  -0.904   9.317  1.00  0.00    -0.237 OA
ATOM     75  O   UNL     1      16.393   1.270   8.386  1.00  0.00    -0.744 OA
ENDBRANCH  71  72
ENDBRANCH  39  64
BRANCH  51  76
ATOM     76  C   UNL     1       7.859   4.573  15.232  1.00  0.00     0.058 A 
ATOM     77  C   UNL     1       8.682   5.627  15.657  1.00  0.00     0.135 A 
ATOM     78  C   UNL     1       7.270   3.762  16.217  1.00  0.00     0.135 A 
ATOM     79  F   UNL     1       9.276   6.426  14.756  1.00  0.00    -0.206 F 
ATOM     80  C   UNL     1       8.918   5.863  17.007  1.00  0.00     0.059 A 
ATOM     81  C   UNL     1       7.470   3.997  17.573  1.00  0.00     0.059 A 
ATOM     82  F   UNL     1       6.468   2.745  15.863  1.00  0.00    -0.206 F 
ATOM     83  C   UNL     1       8.301   5.047  17.959  1.00  0.00     0.060 A 
BRANCH  83  84
ATOM     84  S   UNL     1       8.565   5.404  19.708  1.00  0.00     0.124 S 
ATOM     85  O   UNL     1       9.940   4.953  19.898  1.00  0.00    -0.237 OA
ATOM     86  O   UNL     1       8.358   6.848  19.767  1.00  0.00    -0.237 OA
ATOM     87  O   UNL     1       7.544   4.604  20.378  1.00  0.00    -0.744 OA
ENDBRANCH  83  84
ENDBRANCH  51  76
ENDBRANCH  25  26
ENDBRANCH  18  20
ENDBRANCH  17  18
ENDBRANCH   1  17
TORSDOF 16
