REMARK SMILES Cc1ccsc1CNC(=O)N[C@@H]1CCCC[C@H]1C(=O)OCCOC(=O)c1ccc(-c2c3nc(c(-c4c(F)cc(S(=O)(=O)[O-])cc4F)c4ccc([nH]4)c(-c4c(F)cc(S(=O)(=O)[O-])cc4F)c4nc(c(-c5c(F)cc(S(=O)(=O)[O-])cc5F)c5ccc2[nH]5)C=C4)C=C3)cc1
REMARK SMILES IDX 21 1 20 2 18 3 19 4 17 5 12 6 13 7 14 8 16 9 15 10 11 11
REMARK SMILES IDX 8 12 9 13 10 15 7 17 6 18 1 19 2 20 3 21 4 22 5 23 22 24
REMARK SMILES IDX 23 25 24 26 25 27 26 28 27 29 91 30 28 31 90 32 29 33 30 34
REMARK SMILES IDX 31 35 84 36 32 37 89 38 83 39 85 40 33 41 88 42 82 43 81 44
REMARK SMILES IDX 34 46 68 47 47 48 67 49 48 50 51 51 66 52 86 53 49 54 50 55
REMARK SMILES IDX 65 57 87 58 52 59 35 60 36 61 45 62 37 63 38 64 44 65 46 66
REMARK SMILES IDX 39 67 40 68 41 69 42 70 43 71 69 72 70 73 79 74 71 75 72 76
REMARK SMILES IDX 78 77 80 78 73 79 74 80 75 81 76 82 77 83 53 84 54 85 63 86
REMARK SMILES IDX 55 87 56 88 62 89 64 90 57 91 58 92 59 93 60 94 61 95
REMARK H PARENT 8 14 11 16 85 45 51 56
REMARK Flexibility Score: inf
ROOT
ATOM      1  C   UNL     1      -4.889  -2.636  -2.092  1.00  0.00     0.274 C 
ENDROOT
BRANCH   1   2
ATOM      2  O   UNL     1      -3.507  -3.041  -2.203  1.00  0.00    -0.462 OA
BRANCH   2   3
ATOM      3  C   UNL     1      -2.602  -2.042  -2.035  1.00  0.00     0.311 C 
ATOM      4  O   UNL     1      -2.901  -0.862  -1.876  1.00  0.00    -0.252 OA
BRANCH   3   5
ATOM      5  C   UNL     1      -1.158  -2.485  -2.197  1.00  0.00     0.121 C 
ATOM      6  C   UNL     1      -0.837  -3.944  -1.836  1.00  0.00     0.098 C 
ATOM      7  C   UNL     1       0.486  -4.514  -2.381  1.00  0.00     0.026 C 
ATOM      8  C   UNL     1       0.881  -4.002  -3.759  1.00  0.00     0.002 C 
ATOM      9  C   UNL     1      -0.704  -2.082  -3.602  1.00  0.00     0.017 C 
ATOM     10  C   UNL     1       0.733  -2.494  -3.879  1.00  0.00     0.001 C 
BRANCH   6  11
ATOM     11  N   UNL     1      -0.932  -4.239  -0.401  1.00  0.00    -0.335 N 
ATOM     12  N   UNL     1       0.532  -2.871   0.892  1.00  0.00    -0.333 N 
ATOM     13  C   UNL     1      -0.364  -3.847   0.742  1.00  0.00     0.315 C 
ATOM     14  H   UNL     1       0.602  -2.583   1.831  1.00  0.00     0.165 HD
ATOM     15  O   UNL     1      -0.739  -4.434   1.761  1.00  0.00    -0.249 OA
ATOM     16  H   UNL     1      -1.616  -4.926  -0.232  1.00  0.00     0.165 HD
BRANCH  12  17
ATOM     17  C   UNL     1       1.427  -2.126   0.035  1.00  0.00     0.164 C 
BRANCH  17  18
ATOM     18  C   UNL     1       1.328  -0.625   0.208  1.00  0.00     0.027 A 
ATOM     19  C   UNL     1       3.827   0.014   0.281  1.00  0.00     0.045 C 
ATOM     20  C   UNL     1       2.362   0.305   0.291  1.00  0.00    -0.035 A 
ATOM     21  C   UNL     1       1.861   1.650   0.378  1.00  0.00     0.015 A 
ATOM     22  C   UNL     1       0.492   1.715   0.334  1.00  0.00     0.065 A 
ATOM     23  S   UNL     1      -0.195   0.175   0.179  1.00  0.00    -0.147 S 
ENDBRANCH  17  18
ENDBRANCH  12  17
ENDBRANCH   6  11
ENDBRANCH   3   5
ENDBRANCH   2   3
ENDBRANCH   1   2
BRANCH   1  24
ATOM     24  C   UNL     1      -5.463  -3.051  -0.741  1.00  0.00     0.275 C 
BRANCH  24  25
ATOM     25  O   UNL     1      -4.684  -2.475   0.318  1.00  0.00    -0.458 OA
BRANCH  25  26
ATOM     26  C   UNL     1      -4.630  -3.216   1.454  1.00  0.00     0.338 C 
ATOM     27  O   UNL     1      -5.213  -4.269   1.652  1.00  0.00    -0.246 OA
BRANCH  26  28
ATOM     28  C   UNL     1      -3.769  -2.555   2.461  1.00  0.00     0.060 A 
ATOM     29  C   UNL     1      -2.605  -1.892   2.083  1.00  0.00     0.016 A 
ATOM     30  C   UNL     1      -4.073  -2.691   3.818  1.00  0.00     0.016 A 
ATOM     31  C   UNL     1      -1.697  -1.466   3.058  1.00  0.00     0.010 A 
ATOM     32  C   UNL     1      -3.196  -2.189   4.790  1.00  0.00     0.010 A 
ATOM     33  C   UNL     1      -1.969  -1.613   4.423  1.00  0.00    -0.014 A 
BRANCH  33  34
ATOM     34  C   UNL     1      -0.935  -1.274   5.446  1.00  0.00     0.031 A 
ATOM     35  C   UNL     1      -0.435  -2.344   6.385  1.00  0.00     0.074 A 
ATOM     36  C   UNL     1      -0.392  -0.041   5.526  1.00  0.00     0.049 A 
ATOM     37  N   UNL     1       0.274  -2.223   7.480  1.00  0.00    -0.248 NA
ATOM     38  C   UNL     1      -0.782  -3.733   6.045  1.00  0.00     0.031 C 
ATOM     39  C   UNL     1      -0.680   1.080   4.632  1.00  0.00     0.029 A 
ATOM     40  N   UNL     1       0.527   0.473   6.413  1.00  0.00    -0.354 N 
ATOM     41  C   UNL     1       0.401  -3.509   7.994  1.00  0.00     0.074 A 
ATOM     42  C   UNL     1      -0.298  -4.395   7.087  1.00  0.00     0.031 C 
ATOM     43  C   UNL     1       0.056   2.140   5.002  1.00  0.00     0.029 A 
ATOM     44  C   UNL     1       0.802   1.805   6.212  1.00  0.00     0.049 A 
ATOM     45  H   UNL     1       0.948  -0.063   7.123  1.00  0.00     0.167 HD
ATOM     46  C   UNL     1       1.039  -3.916   9.118  1.00  0.00     0.037 A 
ATOM     47  C   UNL     1       1.525   2.678   6.942  1.00  0.00     0.037 A 
ATOM     48  C   UNL     1       1.791  -3.049   9.989  1.00  0.00     0.049 A 
ATOM     49  C   UNL     1       2.184   2.223   8.215  1.00  0.00     0.074 A 
ATOM     50  C   UNL     1       2.449  -3.368  11.165  1.00  0.00     0.029 A 
ATOM     51  N   UNL     1       2.009  -1.698   9.766  1.00  0.00    -0.354 N 
ATOM     52  N   UNL     1       2.199   1.028   8.754  1.00  0.00    -0.248 NA
ATOM     53  C   UNL     1       2.907   3.242   8.991  1.00  0.00     0.031 C 
ATOM     54  C   UNL     1       3.048  -2.205  11.664  1.00  0.00     0.029 A 
ATOM     55  C   UNL     1       2.790  -1.169  10.782  1.00  0.00     0.049 A 
ATOM     56  H   UNL     1       1.660  -1.190   8.999  1.00  0.00     0.167 HD
ATOM     57  C   UNL     1       2.935   1.150   9.928  1.00  0.00     0.074 A 
ATOM     58  C   UNL     1       3.367   2.530  10.011  1.00  0.00     0.031 C 
ATOM     59  C   UNL     1       3.220   0.204  10.856  1.00  0.00     0.037 A 
BRANCH  46  60
ATOM     60  C   UNL     1       0.913  -5.365   9.496  1.00  0.00     0.058 A 
ATOM     61  C   UNL     1       1.623  -6.374   8.830  1.00  0.00     0.135 A 
ATOM     62  C   UNL     1       0.074  -5.743  10.558  1.00  0.00     0.135 A 
ATOM     63  F   UNL     1       2.427  -6.067   7.799  1.00  0.00    -0.206 F 
ATOM     64  C   UNL     1       1.484  -7.713   9.183  1.00  0.00     0.059 A 
ATOM     65  C   UNL     1      -0.062  -7.073  10.943  1.00  0.00     0.059 A 
ATOM     66  F   UNL     1      -0.625  -4.815  11.230  1.00  0.00    -0.206 F 
ATOM     67  C   UNL     1       0.633  -8.053  10.237  1.00  0.00     0.060 A 
BRANCH  67  68
ATOM     68  S   UNL     1       0.453  -9.793  10.685  1.00  0.00     0.124 S 
ATOM     69  O   UNL     1      -0.441 -10.273   9.636  1.00  0.00    -0.237 OA
ATOM     70  O   UNL     1       1.827 -10.281  10.618  1.00  0.00    -0.237 OA
ATOM     71  O   UNL     1      -0.123  -9.740  12.025  1.00  0.00    -0.744 OA
ENDBRANCH  67  68
ENDBRANCH  46  60
BRANCH  47  72
ATOM     72  C   UNL     1       1.608   4.100   6.516  1.00  0.00     0.058 A 
ATOM     73  C   UNL     1       2.802   4.641   6.019  1.00  0.00     0.135 A 
ATOM     74  C   UNL     1       0.486   4.942   6.587  1.00  0.00     0.135 A 
ATOM     75  F   UNL     1       3.905   3.880   5.949  1.00  0.00    -0.206 F 
ATOM     76  C   UNL     1       2.884   5.968   5.609  1.00  0.00     0.059 A 
ATOM     77  C   UNL     1       0.536   6.264   6.158  1.00  0.00     0.059 A 
ATOM     78  F   UNL     1      -0.681   4.470   7.051  1.00  0.00    -0.206 F 
ATOM     79  C   UNL     1       1.742   6.770   5.677  1.00  0.00     0.060 A 
BRANCH  79  80
ATOM     80  S   UNL     1       1.833   8.470   5.073  1.00  0.00     0.124 S 
ATOM     81  O   UNL     1       2.488   9.142   6.188  1.00  0.00    -0.237 OA
ATOM     82  O   UNL     1       2.628   8.325   3.857  1.00  0.00    -0.237 OA
ATOM     83  O   UNL     1       0.432   8.820   4.855  1.00  0.00    -0.744 OA
ENDBRANCH  79  80
ENDBRANCH  47  72
BRANCH  59  84
ATOM     84  C   UNL     1       4.061   0.618  12.031  1.00  0.00     0.058 A 
ATOM     85  C   UNL     1       3.528   1.378  13.084  1.00  0.00     0.135 A 
ATOM     86  C   UNL     1       5.404   0.220  12.123  1.00  0.00     0.135 A 
ATOM     87  F   UNL     1       2.251   1.789  13.041  1.00  0.00    -0.206 F 
ATOM     88  C   UNL     1       4.304   1.747  14.179  1.00  0.00     0.059 A 
ATOM     89  C   UNL     1       6.193   0.561  13.218  1.00  0.00     0.059 A 
ATOM     90  F   UNL     1       5.960  -0.514  11.146  1.00  0.00    -0.206 F 
ATOM     91  C   UNL     1       5.637   1.336  14.236  1.00  0.00     0.060 A 
BRANCH  91  92
ATOM     92  S   UNL     1       6.631   1.799  15.671  1.00  0.00     0.124 S 
ATOM     93  O   UNL     1       6.945   3.192  15.373  1.00  0.00    -0.237 OA
ATOM     94  O   UNL     1       5.707   1.580  16.780  1.00  0.00    -0.237 OA
ATOM     95  O   UNL     1       7.760   0.874  15.613  1.00  0.00    -0.744 OA
ENDBRANCH  91  92
ENDBRANCH  59  84
ENDBRANCH  33  34
ENDBRANCH  26  28
ENDBRANCH  25  26
ENDBRANCH  24  25
ENDBRANCH   1  24
TORSDOF 17
