REMARK SMILES O=C(NC1(C(=O)OCCOC(=O)c2ccc(-c3c4nc(c(-c5c(F)cc(S(=O)(=O)[O-])cc5F)c5ccc([nH]5)c(-c5c(F)cc(S(=O)(=O)[O-])cc5F)c5nc(c(-c6c(F)cc(S(=O)(=O)[O-])cc6F)c6ccc3[nH]6)C=C5)C=C4)cc2)CC[NH2+]CC1)OCC1c2ccccc2-c2ccccc21
REMARK SMILES IDX 8 1 7 2 5 3 6 4 4 5 79 6 83 7 80 8 82 9 81 10 3 13 1 14 2 15
REMARK SMILES IDX 84 17 85 18 86 19 87 20 98 21 88 22 92 23 93 24 97 25 89 26
REMARK SMILES IDX 91 27 94 28 96 29 90 30 95 31 9 32 10 33 11 34 12 35 13 36
REMARK SMILES IDX 14 37 78 38 15 39 77 40 16 41 17 42 18 43 71 44 19 45 76 46
REMARK SMILES IDX 70 47 72 48 20 49 75 50 69 51 68 52 21 54 55 55 34 56 54 57
REMARK SMILES IDX 35 58 38 59 53 60 73 61 36 62 37 63 52 65 74 66 39 67 22 68
REMARK SMILES IDX 23 69 32 70 24 71 25 72 31 73 33 74 26 75 27 76 28 77 29 78
REMARK SMILES IDX 30 79 56 80 57 81 66 82 58 83 59 84 65 85 67 86 60 87 61 88
REMARK SMILES IDX 62 89 63 90 64 91 40 92 41 93 50 94 42 95 43 96 49 97 51 98
REMARK SMILES IDX 44 99 45 100 46 101 47 102 48 103
REMARK H PARENT 81 11 81 12 3 16 72 53 38 64
REMARK Flexibility Score: inf
ROOT
ATOM      1  C   UNL     1       6.708   1.151   2.085  1.00  0.00     0.274 C 
ENDROOT
BRANCH   1   2
ATOM      2  O   UNL     1       5.994  -0.215   0.711  1.00  0.00    -0.460 OA
BRANCH   2   3
ATOM      3  C   UNL     1       6.078  -1.292  -0.257  1.00  0.00     0.332 C 
ATOM      4  O   UNL     1       7.080  -1.987  -0.456  1.00  0.00    -0.249 OA
BRANCH   3   5
ATOM      5  C   UNL     1       4.849  -1.439  -1.220  1.00  0.00     0.151 C 
ATOM      6  C   UNL     1       5.187  -0.533  -2.428  1.00  0.00     0.102 C 
ATOM      7  C   UNL     1       4.759  -2.908  -1.710  1.00  0.00     0.102 C 
ATOM      8  C   UNL     1       4.323  -0.800  -3.655  1.00  0.00     0.263 C 
ATOM      9  C   UNL     1       3.878  -3.056  -2.947  1.00  0.00     0.263 C 
ATOM     10  N   UNL     1       4.361  -2.209  -4.035  1.00  0.00    -0.346 N 
ATOM     11  H   UNL     1       5.321  -2.468  -4.260  1.00  0.00     0.346 HD
ATOM     12  H   UNL     1       3.756  -2.344  -4.846  1.00  0.00     0.346 HD
BRANCH   5  13
ATOM     13  N   UNL     1       3.572  -1.030  -0.633  1.00  0.00    -0.305 N 
ATOM     14  O   UNL     1       2.063  -1.086   1.055  1.00  0.00    -0.225 OA
ATOM     15  C   UNL     1       3.133  -1.435   0.582  1.00  0.00     0.408 C 
ATOM     16  H   UNL     1       2.997  -0.423  -1.154  1.00  0.00     0.168 HD
BRANCH  15  17
ATOM     17  O   UNL     1       4.078  -2.158   1.220  1.00  0.00    -0.449 OA
BRANCH  17  18
ATOM     18  C   UNL     1       4.394  -1.620   2.486  1.00  0.00     0.248 C 
BRANCH  18  19
ATOM     19  C   UNL     1       5.365  -0.416   2.436  1.00  0.00     0.088 C 
ATOM     20  C   UNL     1       7.263  -0.823   1.975  1.00  0.00    -0.029 A 
ATOM     21  C   UNL     1       4.872   1.131   1.266  1.00  0.00    -0.029 A 
ATOM     22  C   UNL     1       8.077  -1.707   2.599  1.00  0.00     0.005 A 
ATOM     23  C   UNL     1       7.835   0.253   0.602  1.00  0.00    -0.014 A 
ATOM     24  C   UNL     1       6.442   1.497   0.121  1.00  0.00    -0.014 A 
ATOM     25  C   UNL     1       4.000   2.486   2.012  1.00  0.00     0.005 A 
ATOM     26  C   UNL     1       9.377  -1.656   2.047  1.00  0.00     0.000 A 
ATOM     27  C   UNL     1       9.133   0.189   0.212  1.00  0.00     0.009 A 
ATOM     28  C   UNL     1       6.897   3.180  -0.200  1.00  0.00     0.009 A 
ATOM     29  C   UNL     1       4.564   4.162   1.657  1.00  0.00     0.000 A 
ATOM     30  C   UNL     1       9.865  -0.779   0.948  1.00  0.00     0.001 A 
ATOM     31  C   UNL     1       5.957   4.497   0.574  1.00  0.00     0.001 A 
ENDBRANCH  18  19
ENDBRANCH  17  18
ENDBRANCH  15  17
ENDBRANCH   5  13
ENDBRANCH   3   5
ENDBRANCH   2   3
ENDBRANCH   1   2
BRANCH   1  32
ATOM     32  C   UNL     1       6.179   2.655   1.869  1.00  0.00     0.275 C 
BRANCH  32  33
ATOM     33  O   UNL     1       4.980   2.799   0.270  1.00  0.00    -0.458 OA
BRANCH  33  34
ATOM     34  C   UNL     1       4.074   2.892  -0.771  1.00  0.00     0.338 C 
ATOM     35  O   UNL     1       4.441   3.014  -1.941  1.00  0.00    -0.246 OA
BRANCH  34  36
ATOM     36  C   UNL     1       2.603   2.771  -0.550  1.00  0.00     0.060 A 
ATOM     37  C   UNL     1       1.918   1.793  -1.275  1.00  0.00     0.016 A 
ATOM     38  C   UNL     1       1.853   3.660   0.226  1.00  0.00     0.016 A 
ATOM     39  C   UNL     1       0.545   1.589  -1.095  1.00  0.00     0.010 A 
ATOM     40  C   UNL     1       0.481   3.461   0.419  1.00  0.00     0.010 A 
ATOM     41  C   UNL     1      -0.180   2.412  -0.228  1.00  0.00    -0.014 A 
BRANCH  41  42
ATOM     42  C   UNL     1      -1.649   2.279  -0.110  1.00  0.00     0.031 A 
ATOM     43  C   UNL     1      -2.527   3.127  -0.984  1.00  0.00     0.074 A 
ATOM     44  C   UNL     1      -2.196   1.424   0.772  1.00  0.00     0.049 A 
ATOM     45  N   UNL     1      -3.832   3.193  -1.032  1.00  0.00    -0.248 NA
ATOM     46  C   UNL     1      -1.839   4.022  -1.928  1.00  0.00     0.031 C 
ATOM     47  C   UNL     1      -1.457   0.541   1.674  1.00  0.00     0.029 A 
ATOM     48  N   UNL     1      -3.515   1.165   1.054  1.00  0.00    -0.354 N 
ATOM     49  C   UNL     1      -4.124   4.133  -2.010  1.00  0.00     0.074 A 
ATOM     50  C   UNL     1      -2.860   4.624  -2.520  1.00  0.00     0.031 C 
ATOM     51  C   UNL     1      -2.335  -0.160   2.414  1.00  0.00     0.029 A 
ATOM     52  C   UNL     1      -3.694   0.225   2.039  1.00  0.00     0.049 A 
ATOM     53  H   UNL     1      -4.261   1.611   0.593  1.00  0.00     0.167 HD
ATOM     54  C   UNL     1      -5.333   4.548  -2.454  1.00  0.00     0.037 A 
ATOM     55  C   UNL     1      -4.829  -0.268   2.572  1.00  0.00     0.037 A 
ATOM     56  C   UNL     1      -6.593   4.074  -1.957  1.00  0.00     0.049 A 
ATOM     57  C   UNL     1      -6.163   0.209   2.067  1.00  0.00     0.074 A 
ATOM     58  C   UNL     1      -7.870   4.450  -2.332  1.00  0.00     0.029 A 
ATOM     59  N   UNL     1      -6.732   3.109  -0.971  1.00  0.00    -0.354 N 
ATOM     60  N   UNL     1      -6.422   1.096   1.138  1.00  0.00    -0.248 NA
ATOM     61  C   UNL     1      -7.359  -0.388   2.681  1.00  0.00     0.031 C 
ATOM     62  C   UNL     1      -8.785   3.712  -1.567  1.00  0.00     0.029 A 
ATOM     63  C   UNL     1      -8.073   2.874  -0.724  1.00  0.00     0.049 A 
ATOM     64  H   UNL     1      -5.986   2.658  -0.513  1.00  0.00     0.167 HD
ATOM     65  C   UNL     1      -7.808   1.157   1.048  1.00  0.00     0.074 A 
ATOM     66  C   UNL     1      -8.335   0.216   2.015  1.00  0.00     0.031 C 
ATOM     67  C   UNL     1      -8.575   1.926   0.236  1.00  0.00     0.037 A 
BRANCH  54  68
ATOM     68  C   UNL     1      -5.316   5.579  -3.539  1.00  0.00     0.058 A 
ATOM     69  C   UNL     1      -5.144   5.210  -4.881  1.00  0.00     0.135 A 
ATOM     70  C   UNL     1      -5.389   6.945  -3.232  1.00  0.00     0.135 A 
ATOM     71  F   UNL     1      -5.045   3.915  -5.217  1.00  0.00    -0.206 F 
ATOM     72  C   UNL     1      -5.006   6.165  -5.883  1.00  0.00     0.059 A 
ATOM     73  C   UNL     1      -5.261   7.917  -4.219  1.00  0.00     0.059 A 
ATOM     74  F   UNL     1      -5.538   7.344  -1.959  1.00  0.00    -0.206 F 
ATOM     75  C   UNL     1      -5.044   7.517  -5.539  1.00  0.00     0.060 A 
BRANCH  75  76
ATOM     76  S   UNL     1      -4.790   8.764  -6.817  1.00  0.00     0.124 S 
ATOM     77  O   UNL     1      -3.337   8.909  -6.791  1.00  0.00    -0.237 OA
ATOM     78  O   UNL     1      -5.340   8.126  -8.009  1.00  0.00    -0.237 OA
ATOM     79  O   UNL     1      -5.547   9.907  -6.317  1.00  0.00    -0.744 OA
ENDBRANCH  75  76
ENDBRANCH  54  68
BRANCH  55  80
ATOM     80  C   UNL     1      -4.759  -1.289   3.645  1.00  0.00     0.058 A 
ATOM     81  C   UNL     1      -4.901  -2.651   3.351  1.00  0.00     0.135 A 
ATOM     82  C   UNL     1      -4.561  -0.921   4.982  1.00  0.00     0.135 A 
ATOM     83  F   UNL     1      -5.101  -3.046   2.084  1.00  0.00    -0.206 F 
ATOM     84  C   UNL     1      -4.856  -3.619   4.350  1.00  0.00     0.059 A 
ATOM     85  C   UNL     1      -4.507  -1.871   5.998  1.00  0.00     0.059 A 
ATOM     86  F   UNL     1      -4.419   0.372   5.308  1.00  0.00    -0.206 F 
ATOM     87  C   UNL     1      -4.665  -3.219   5.673  1.00  0.00     0.060 A 
BRANCH  87  88
ATOM     88  S   UNL     1      -4.566  -4.463   6.978  1.00  0.00     0.124 S 
ATOM     89  O   UNL     1      -5.960  -4.560   7.394  1.00  0.00    -0.237 OA
ATOM     90  O   UNL     1      -4.028  -5.624   6.276  1.00  0.00    -0.237 OA
ATOM     91  O   UNL     1      -3.656  -3.849   7.940  1.00  0.00    -0.744 OA
ENDBRANCH  87  88
ENDBRANCH  55  80
BRANCH  67  92
ATOM     92  C   UNL     1     -10.060   1.773   0.351  1.00  0.00     0.058 A 
ATOM     93  C   UNL     1     -10.791   2.494   1.305  1.00  0.00     0.135 A 
ATOM     94  C   UNL     1     -10.765   0.946  -0.535  1.00  0.00     0.135 A 
ATOM     95  F   UNL     1     -10.158   3.295   2.176  1.00  0.00    -0.206 F 
ATOM     96  C   UNL     1     -12.178   2.402   1.379  1.00  0.00     0.059 A 
ATOM     97  C   UNL     1     -12.151   0.842  -0.483  1.00  0.00     0.059 A 
ATOM     98  F   UNL     1     -10.107   0.236  -1.465  1.00  0.00    -0.206 F 
ATOM     99  C   UNL     1     -12.850   1.571   0.481  1.00  0.00     0.060 A 
BRANCH  99 100
ATOM    100  S   UNL     1     -14.653   1.486   0.532  1.00  0.00     0.124 S 
ATOM    101  O   UNL     1     -14.868   0.409   1.492  1.00  0.00    -0.237 OA
ATOM    102  O   UNL     1     -15.028   2.822   0.985  1.00  0.00    -0.237 OA
ATOM    103  O   UNL     1     -15.007   1.181  -0.851  1.00  0.00    -0.744 OA
ENDBRANCH  99 100
ENDBRANCH  67  92
ENDBRANCH  41  42
ENDBRANCH  34  36
ENDBRANCH  33  34
ENDBRANCH  32  33
ENDBRANCH   1  32
TORSDOF 18
