REMARK SMILES COc1ccc(-c2[nH]nc3nc(-c4ccc(C(F)(F)F)cc4)cc(C(=O)OCCOC(=O)c4ccc(-c5c6nc(c(-c7c(F)cc(S(=O)(=O)[O-])cc7F)c7ccc([nH]7)c(-c7c(F)cc(S(=O)(=O)[O-])cc7F)c7nc(c(-c8c(F)cc(S(=O)(=O)[O-])cc8F)c8ccc5[nH]8)C=C7)C=C6)cc4)c23)cc1
REMARK SMILES IDX 29 1 28 2 27 3 25 4 26 5 24 6 7 7 8 8 99 9 9 10 10 12 11 13
REMARK SMILES IDX 23 14 12 15 6 16 3 17 4 18 101 19 5 20 100 21 2 22 1 23
REMARK SMILES IDX 13 24 14 25 22 26 15 27 21 28 16 29 17 30 18 31 19 32 20 33
REMARK SMILES IDX 30 34 31 35 32 36 33 37 34 38 98 39 35 40 97 41 36 42 37 43
REMARK SMILES IDX 38 44 91 45 39 46 96 47 90 48 92 49 40 50 95 51 89 52 88 53
REMARK SMILES IDX 41 55 75 56 54 57 74 58 55 59 58 60 73 61 93 62 56 63 57 64
REMARK SMILES IDX 72 66 94 67 59 68 42 69 43 70 52 71 44 72 45 73 51 74 53 75
REMARK SMILES IDX 46 76 47 77 48 78 49 79 50 80 76 81 77 82 86 83 78 84 79 85
REMARK SMILES IDX 85 86 87 87 80 88 81 89 82 90 83 91 84 92 60 93 61 94 70 95
REMARK SMILES IDX 62 96 63 97 69 98 71 99 64 100 65 101 66 102 67 103 68 104
REMARK H PARENT 8 11 92 54 58 65
REMARK Flexibility Score: inf
ROOT
ATOM      1  C   UNL     1       5.547   3.423  -3.264  1.00  0.00     0.275 C 
ENDROOT
BRANCH   1   2
ATOM      2  C   UNL     1       4.762   4.285  -4.234  1.00  0.00     0.275 C 
BRANCH   2   3
ATOM      3  O   UNL     1       4.551   5.575  -3.646  1.00  0.00    -0.458 OA
BRANCH   3   4
ATOM      4  C   UNL     1       3.370   5.740  -2.991  1.00  0.00     0.339 C 
ATOM      5  O   UNL     1       2.365   5.074  -3.161  1.00  0.00    -0.246 OA
BRANCH   4   6
ATOM      6  C   UNL     1       3.512   6.853  -2.040  1.00  0.00     0.075 A 
ATOM      7  C   UNL     1       1.696   6.412  -0.328  1.00  0.00     0.075 A 
ATOM      8  N   UNL     1       1.322   7.176   0.755  1.00  0.00    -0.275 N 
ATOM      9  C   UNL     1       2.718   7.141  -0.922  1.00  0.00     0.061 A 
ATOM     10  N   UNL     1       1.999   8.326   0.905  1.00  0.00    -0.154 NA
ATOM     11  H   UNL     1       0.609   6.900   1.375  1.00  0.00     0.190 HD
ATOM     12  C   UNL     1       2.887   8.304  -0.088  1.00  0.00     0.182 A 
ATOM     13  N   UNL     1       3.840   9.248  -0.315  1.00  0.00    -0.226 NA
ATOM     14  C   UNL     1       4.507   7.831  -2.219  1.00  0.00     0.045 A 
ATOM     15  C   UNL     1       4.625   8.975  -1.394  1.00  0.00     0.074 A 
BRANCH   7  16
ATOM     16  C   UNL     1       1.165   5.059  -0.481  1.00  0.00     0.001 A 
ATOM     17  C   UNL     1       0.275   2.382  -0.702  1.00  0.00     0.118 A 
ATOM     18  C   UNL     1      -0.559   3.451  -1.051  1.00  0.00     0.047 A 
ATOM     19  C   UNL     1       1.545   2.661  -0.221  1.00  0.00     0.047 A 
ATOM     20  C   UNL     1      -0.124   4.784  -0.937  1.00  0.00     0.014 A 
ATOM     21  C   UNL     1       1.967   3.986  -0.098  1.00  0.00     0.014 A 
BRANCH  17  22
ATOM     22  O   UNL     1      -0.243   1.130  -0.892  1.00  0.00    -0.497 OA
ATOM     23  C   UNL     1       0.440   0.054  -0.251  1.00  0.00     0.278 C 
ENDBRANCH  17  22
ENDBRANCH   7  16
BRANCH  15  24
ATOM     24  C   UNL     1       5.597  10.023  -1.774  1.00  0.00     0.000 A 
ATOM     25  C   UNL     1       6.518  10.567  -0.867  1.00  0.00     0.011 A 
ATOM     26  C   UNL     1       5.631  10.496  -3.100  1.00  0.00     0.011 A 
ATOM     27  C   UNL     1       7.451  11.534  -1.278  1.00  0.00     0.014 A 
ATOM     28  C   UNL     1       6.555  11.459  -3.513  1.00  0.00     0.014 A 
ATOM     29  C   UNL     1       7.479  11.988  -2.607  1.00  0.00     0.056 A 
BRANCH  29  30
ATOM     30  C   UNL     1       8.475  13.031  -3.049  1.00  0.00     0.416 C 
ATOM     31  F   UNL     1       8.339  14.209  -2.378  1.00  0.00    -0.166 F 
ATOM     32  F   UNL     1       9.767  12.642  -2.867  1.00  0.00    -0.166 F 
ATOM     33  F   UNL     1       8.373  13.351  -4.373  1.00  0.00    -0.166 F 
ENDBRANCH  29  30
ENDBRANCH  15  24
ENDBRANCH   4   6
ENDBRANCH   3   4
ENDBRANCH   2   3
ENDBRANCH   1   2
BRANCH   1  34
ATOM     34  O   UNL     1       4.935   3.436  -1.980  1.00  0.00    -0.458 OA
BRANCH  34  35
ATOM     35  C   UNL     1       5.575   4.153  -1.022  1.00  0.00     0.338 C 
ATOM     36  O   UNL     1       6.233   5.160  -1.149  1.00  0.00    -0.246 OA
BRANCH  35  37
ATOM     37  C   UNL     1       5.371   3.397   0.219  1.00  0.00     0.060 A 
ATOM     38  C   UNL     1       5.272   4.043   1.458  1.00  0.00     0.016 A 
ATOM     39  C   UNL     1       5.247   2.006   0.092  1.00  0.00     0.016 A 
ATOM     40  C   UNL     1       5.063   3.270   2.590  1.00  0.00     0.010 A 
ATOM     41  C   UNL     1       5.015   1.250   1.200  1.00  0.00     0.010 A 
ATOM     42  C   UNL     1       4.980   1.883   2.442  1.00  0.00    -0.014 A 
BRANCH  42  43
ATOM     43  C   UNL     1       4.914   1.004   3.588  1.00  0.00     0.031 A 
ATOM     44  C   UNL     1       3.568   0.835   4.200  1.00  0.00     0.074 A 
ATOM     45  C   UNL     1       5.981   0.202   3.798  1.00  0.00     0.049 A 
ATOM     46  N   UNL     1       3.230   1.028   5.431  1.00  0.00    -0.248 NA
ATOM     47  C   UNL     1       2.418   0.540   3.325  1.00  0.00     0.031 C 
ATOM     48  C   UNL     1       7.220   0.125   3.007  1.00  0.00     0.029 A 
ATOM     49  N   UNL     1       6.105  -0.846   4.650  1.00  0.00    -0.354 N 
ATOM     50  C   UNL     1       1.897   0.630   5.540  1.00  0.00     0.074 A 
ATOM     51  C   UNL     1       1.405   0.525   4.194  1.00  0.00     0.031 C 
ATOM     52  C   UNL     1       7.835  -1.051   3.247  1.00  0.00     0.029 A 
ATOM     53  C   UNL     1       7.119  -1.741   4.299  1.00  0.00     0.049 A 
ATOM     54  H   UNL     1       5.533  -0.966   5.443  1.00  0.00     0.167 HD
ATOM     55  C   UNL     1       1.395   0.186   6.728  1.00  0.00     0.037 A 
ATOM     56  C   UNL     1       7.243  -3.003   4.785  1.00  0.00     0.037 A 
ATOM     57  C   UNL     1       2.252   0.585   7.819  1.00  0.00     0.049 A 
ATOM     58  C   UNL     1       6.493  -3.016   6.080  1.00  0.00     0.074 A 
ATOM     59  C   UNL     1       2.726   1.804   8.268  1.00  0.00     0.029 A 
ATOM     60  N   UNL     1       3.095  -0.361   8.357  1.00  0.00    -0.354 N 
ATOM     61  N   UNL     1       6.831  -2.272   7.106  1.00  0.00    -0.248 NA
ATOM     62  C   UNL     1       5.091  -3.413   6.038  1.00  0.00     0.031 C 
ATOM     63  C   UNL     1       4.099   1.565   8.570  1.00  0.00     0.029 A 
ATOM     64  C   UNL     1       4.346   0.202   8.400  1.00  0.00     0.049 A 
ATOM     65  H   UNL     1       2.847  -1.266   8.654  1.00  0.00     0.167 HD
ATOM     66  C   UNL     1       5.633  -1.761   7.591  1.00  0.00     0.074 A 
ATOM     67  C   UNL     1       4.590  -2.540   6.919  1.00  0.00     0.031 C 
ATOM     68  C   UNL     1       5.567  -0.559   8.243  1.00  0.00     0.037 A 
BRANCH  55  69
ATOM     69  C   UNL     1       0.370  -0.920   6.884  1.00  0.00     0.058 A 
ATOM     70  C   UNL     1      -0.075  -1.253   8.183  1.00  0.00     0.135 A 
ATOM     71  C   UNL     1       0.046  -1.857   5.878  1.00  0.00     0.135 A 
ATOM     72  F   UNL     1       0.151  -0.427   9.218  1.00  0.00    -0.206 F 
ATOM     73  C   UNL     1      -0.681  -2.473   8.480  1.00  0.00     0.059 A 
ATOM     74  C   UNL     1      -0.602  -3.060   6.146  1.00  0.00     0.059 A 
ATOM     75  F   UNL     1       0.416  -1.703   4.603  1.00  0.00    -0.206 F 
ATOM     76  C   UNL     1      -0.917  -3.382   7.456  1.00  0.00     0.060 A 
BRANCH  76  77
ATOM     77  S   UNL     1      -1.585  -5.005   7.857  1.00  0.00     0.124 S 
ATOM     78  O   UNL     1      -0.476  -5.603   8.590  1.00  0.00    -0.237 OA
ATOM     79  O   UNL     1      -2.762  -4.658   8.646  1.00  0.00    -0.237 OA
ATOM     80  O   UNL     1      -1.865  -5.585   6.547  1.00  0.00    -0.744 OA
ENDBRANCH  76  77
ENDBRANCH  55  69
BRANCH  56  81
ATOM     81  C   UNL     1       7.534  -4.220   3.968  1.00  0.00     0.058 A 
ATOM     82  C   UNL     1       7.791  -5.467   4.566  1.00  0.00     0.135 A 
ATOM     83  C   UNL     1       7.322  -4.245   2.571  1.00  0.00     0.135 A 
ATOM     84  F   UNL     1       7.990  -5.549   5.890  1.00  0.00    -0.206 F 
ATOM     85  C   UNL     1       7.788  -6.666   3.834  1.00  0.00     0.059 A 
ATOM     86  C   UNL     1       7.332  -5.419   1.821  1.00  0.00     0.059 A 
ATOM     87  F   UNL     1       7.006  -3.135   1.890  1.00  0.00    -0.206 F 
ATOM     88  C   UNL     1       7.536  -6.632   2.462  1.00  0.00     0.060 A 
BRANCH  88  89
ATOM     89  S   UNL     1       7.338  -8.173   1.534  1.00  0.00     0.124 S 
ATOM     90  O   UNL     1       8.700  -8.695   1.519  1.00  0.00    -0.237 OA
ATOM     91  O   UNL     1       6.380  -8.906   2.354  1.00  0.00    -0.237 OA
ATOM     92  O   UNL     1       6.829  -7.725   0.239  1.00  0.00    -0.744 OA
ENDBRANCH  88  89
ENDBRANCH  56  81
BRANCH  68  93
ATOM     93  C   UNL     1       6.842   0.150   8.635  1.00  0.00     0.058 A 
ATOM     94  C   UNL     1       7.810   0.622   7.728  1.00  0.00     0.135 A 
ATOM     95  C   UNL     1       6.986   0.549   9.972  1.00  0.00     0.135 A 
ATOM     96  F   UNL     1       7.692   0.395   6.415  1.00  0.00    -0.206 F 
ATOM     97  C   UNL     1       8.889   1.409   8.136  1.00  0.00     0.059 A 
ATOM     98  C   UNL     1       8.034   1.360  10.398  1.00  0.00     0.059 A 
ATOM     99  F   UNL     1       6.059   0.199  10.880  1.00  0.00    -0.206 F 
ATOM    100  C   UNL     1       8.993   1.773   9.477  1.00  0.00     0.060 A 
BRANCH 100 101
ATOM    101  S   UNL     1      10.362   2.827  10.002  1.00  0.00     0.124 S 
ATOM    102  O   UNL     1      11.507   1.935   9.852  1.00  0.00    -0.237 OA
ATOM    103  O   UNL     1      10.292   3.934   9.053  1.00  0.00    -0.237 OA
ATOM    104  O   UNL     1      10.018   3.174  11.378  1.00  0.00    -0.744 OA
ENDBRANCH 100 101
ENDBRANCH  68  93
ENDBRANCH  42  43
ENDBRANCH  35  37
ENDBRANCH  34  35
ENDBRANCH   1  34
TORSDOF 18
