REMARK SMILES O=C(Cc1ccn(C(F)F)c(=O)c1)OCCOC(=O)c1ccc(-c2c3nc(c(-c4c(F)cc(S(=O)(=O)[O-])cc4F)c4ccc([nH]4)c(-c4c(F)cc(S(=O)(=O)[O-])cc4F)c4nc(c(-c5c(F)cc(S(=O)(=O)[O-])cc5F)c5ccc2[nH]5)C=C4)C=C3)cc1
REMARK SMILES IDX 16 1 15 2 14 3 2 4 1 5 3 6 4 7 5 8 13 9 6 10 11 11 7 12
REMARK SMILES IDX 12 13 8 14 9 15 10 16 17 17 18 18 19 19 20 20 21 21 85 22
REMARK SMILES IDX 22 23 84 24 23 25 24 26 25 27 78 28 26 29 83 30 77 31 79 32
REMARK SMILES IDX 27 33 82 34 76 35 75 36 28 38 62 39 41 40 61 41 42 42 45 43
REMARK SMILES IDX 60 44 80 45 43 46 44 47 59 49 81 50 46 51 29 52 30 53 39 54
REMARK SMILES IDX 31 55 32 56 38 57 40 58 33 59 34 60 35 61 36 62 37 63 63 64
REMARK SMILES IDX 64 65 73 66 65 67 66 68 72 69 74 70 67 71 68 72 69 73 70 74
REMARK SMILES IDX 71 75 47 76 48 77 57 78 49 79 50 80 56 81 58 82 51 83 52 84
REMARK SMILES IDX 53 85 54 86 55 87
REMARK H PARENT 79 37 45 48
REMARK Flexibility Score: inf
ROOT
ATOM      1  C   UNL     1       4.413   1.109  -1.664  1.00  0.00     0.275 C 
ENDROOT
BRANCH   1   2
ATOM      2  C   UNL     1       4.334  -0.259  -0.985  1.00  0.00     0.274 C 
BRANCH   2   3
ATOM      3  O   UNL     1       2.961  -0.687  -0.835  1.00  0.00    -0.462 OA
BRANCH   3   4
ATOM      4  C   UNL     1       2.237  -0.664   0.309  1.00  0.00     0.310 C 
ATOM      5  O   UNL     1       1.099  -1.128   0.329  1.00  0.00    -0.252 OA
BRANCH   4   6
ATOM      6  C   UNL     1       2.863  -0.083   1.566  1.00  0.00     0.158 C 
BRANCH   6   7
ATOM      7  C   UNL     1       3.808  -0.990   2.302  1.00  0.00    -0.030 A 
ATOM      8  C   UNL     1       4.878  -0.338   3.034  1.00  0.00     0.023 A 
ATOM      9  C   UNL     1       3.735  -2.331   2.303  1.00  0.00     0.076 A 
ATOM     10  C   UNL     1       5.799  -1.064   3.675  1.00  0.00     0.095 A 
ATOM     11  C   UNL     1       4.763  -3.154   3.000  1.00  0.00     0.255 A 
ATOM     12  N   UNL     1       5.752  -2.446   3.664  1.00  0.00    -0.258 N 
ATOM     13  O   UNL     1       4.689  -4.376   2.918  1.00  0.00    -0.269 OA
BRANCH  12  14
ATOM     14  C   UNL     1       6.773  -3.213   4.327  1.00  0.00     0.451 C 
ATOM     15  F   UNL     1       6.243  -4.103   5.199  1.00  0.00    -0.185 F 
ATOM     16  F   UNL     1       7.512  -3.903   3.422  1.00  0.00    -0.185 F 
ENDBRANCH  12  14
ENDBRANCH   6   7
ENDBRANCH   4   6
ENDBRANCH   3   4
ENDBRANCH   2   3
ENDBRANCH   1   2
BRANCH   1  17
ATOM     17  O   UNL     1       4.010   2.128  -0.734  1.00  0.00    -0.458 OA
BRANCH  17  18
ATOM     18  C   UNL     1       2.724   2.552  -0.833  1.00  0.00     0.338 C 
ATOM     19  O   UNL     1       1.935   2.277  -1.719  1.00  0.00    -0.246 OA
BRANCH  18  20
ATOM     20  C   UNL     1       2.355   3.226   0.435  1.00  0.00     0.060 A 
ATOM     21  C   UNL     1       3.292   3.948   1.183  1.00  0.00     0.016 A 
ATOM     22  C   UNL     1       1.050   3.059   0.917  1.00  0.00     0.016 A 
ATOM     23  C   UNL     1       2.917   4.513   2.403  1.00  0.00     0.010 A 
ATOM     24  C   UNL     1       0.674   3.632   2.135  1.00  0.00     0.010 A 
ATOM     25  C   UNL     1       1.601   4.375   2.879  1.00  0.00    -0.014 A 
BRANCH  25  26
ATOM     26  C   UNL     1       1.168   5.163   4.058  1.00  0.00     0.031 A 
ATOM     27  C   UNL     1       1.024   4.553   5.419  1.00  0.00     0.074 A 
ATOM     28  C   UNL     1       0.913   6.472   3.872  1.00  0.00     0.049 A 
ATOM     29  N   UNL     1       0.779   5.151   6.557  1.00  0.00    -0.248 NA
ATOM     30  C   UNL     1       1.170   3.094   5.524  1.00  0.00     0.031 C 
ATOM     31  C   UNL     1       0.984   7.162   2.581  1.00  0.00     0.029 A 
ATOM     32  N   UNL     1       0.556   7.455   4.757  1.00  0.00    -0.354 N 
ATOM     33  C   UNL     1       0.765   4.151   7.520  1.00  0.00     0.074 A 
ATOM     34  C   UNL     1       0.986   2.899   6.826  1.00  0.00     0.031 C 
ATOM     35  C   UNL     1       0.706   8.462   2.764  1.00  0.00     0.029 A 
ATOM     36  C   UNL     1       0.422   8.693   4.176  1.00  0.00     0.049 A 
ATOM     37  H   UNL     1       0.410   7.290   5.717  1.00  0.00     0.167 HD
ATOM     38  C   UNL     1       0.600   4.277   8.859  1.00  0.00     0.037 A 
ATOM     39  C   UNL     1       0.114   9.886   4.719  1.00  0.00     0.037 A 
ATOM     40  C   UNL     1       0.364   5.528   9.537  1.00  0.00     0.049 A 
ATOM     41  C   UNL     1      -0.103   9.989   6.200  1.00  0.00     0.074 A 
ATOM     42  C   UNL     1       0.244   5.757  10.898  1.00  0.00     0.029 A 
ATOM     43  N   UNL     1       0.190   6.754   8.912  1.00  0.00    -0.354 N 
ATOM     44  N   UNL     1      -0.013   9.049   7.109  1.00  0.00    -0.248 NA
ATOM     45  C   UNL     1      -0.457  11.312   6.732  1.00  0.00     0.031 C 
ATOM     46  C   UNL     1      -0.048   7.110  11.093  1.00  0.00     0.029 A 
ATOM     47  C   UNL     1      -0.067   7.735   9.857  1.00  0.00     0.049 A 
ATOM     48  H   UNL     1       0.241   6.905   7.941  1.00  0.00     0.167 HD
ATOM     49  C   UNL     1      -0.281   9.669   8.323  1.00  0.00     0.074 A 
ATOM     50  C   UNL     1      -0.529  11.067   8.035  1.00  0.00     0.031 C 
ATOM     51  C   UNL     1      -0.315   9.124   9.562  1.00  0.00     0.037 A 
BRANCH  38  52
ATOM     52  C   UNL     1       0.694   3.039   9.707  1.00  0.00     0.058 A 
ATOM     53  C   UNL     1       1.935   2.448   9.987  1.00  0.00     0.135 A 
ATOM     54  C   UNL     1      -0.442   2.516  10.346  1.00  0.00     0.135 A 
ATOM     55  F   UNL     1       3.051   2.904   9.396  1.00  0.00    -0.206 F 
ATOM     56  C   UNL     1       2.048   1.382  10.873  1.00  0.00     0.059 A 
ATOM     57  C   UNL     1      -0.350   1.461  11.250  1.00  0.00     0.059 A 
ATOM     58  F   UNL     1      -1.652   3.049  10.114  1.00  0.00    -0.206 F 
ATOM     59  C   UNL     1       0.900   0.900  11.506  1.00  0.00     0.060 A 
BRANCH  59  60
ATOM     60  S   UNL     1       1.079  -0.451  12.691  1.00  0.00     0.124 S 
ATOM     61  O   UNL     1       1.400  -1.569  11.809  1.00  0.00    -0.237 OA
ATOM     62  O   UNL     1       2.171   0.021  13.537  1.00  0.00    -0.237 OA
ATOM     63  O   UNL     1      -0.228  -0.515  13.335  1.00  0.00    -0.744 OA
ENDBRANCH  59  60
ENDBRANCH  38  52
BRANCH  39  64
ATOM     64  C   UNL     1       0.038  11.084   3.846  1.00  0.00     0.058 A 
ATOM     65  C   UNL     1       1.048  12.056   3.873  1.00  0.00     0.135 A 
ATOM     66  C   UNL     1      -1.015  11.252   2.934  1.00  0.00     0.135 A 
ATOM     67  F   UNL     1       2.073  11.934   4.729  1.00  0.00    -0.206 F 
ATOM     68  C   UNL     1       1.014  13.159   3.029  1.00  0.00     0.059 A 
ATOM     69  C   UNL     1      -1.060  12.336   2.065  1.00  0.00     0.059 A 
ATOM     70  F   UNL     1      -1.992  10.335   2.859  1.00  0.00    -0.206 F 
ATOM     71  C   UNL     1      -0.042  13.288   2.125  1.00  0.00     0.060 A 
BRANCH  71  72
ATOM     72  S   UNL     1      -0.040  14.691   0.989  1.00  0.00     0.124 S 
ATOM     73  O   UNL     1      -0.394  15.789   1.881  1.00  0.00    -0.237 OA
ATOM     74  O   UNL     1       1.335  14.685   0.497  1.00  0.00    -0.237 OA
ATOM     75  O   UNL     1      -1.052  14.326   0.003  1.00  0.00    -0.744 OA
ENDBRANCH  71  72
ENDBRANCH  39  64
BRANCH  51  76
ATOM     76  C   UNL     1      -0.627  10.033  10.717  1.00  0.00     0.058 A 
ATOM     77  C   UNL     1      -1.938  10.461  10.974  1.00  0.00     0.135 A 
ATOM     78  C   UNL     1       0.376  10.398  11.630  1.00  0.00     0.135 A 
ATOM     79  F   UNL     1      -2.929  10.149  10.125  1.00  0.00    -0.206 F 
ATOM     80  C   UNL     1      -2.246  11.216  12.101  1.00  0.00     0.059 A 
ATOM     81  C   UNL     1       0.086  11.135  12.774  1.00  0.00     0.059 A 
ATOM     82  F   UNL     1       1.645  10.009  11.430  1.00  0.00    -0.206 F 
ATOM     83  C   UNL     1      -1.229  11.540  13.001  1.00  0.00     0.060 A 
BRANCH  83  84
ATOM     84  S   UNL     1      -1.660  12.452  14.499  1.00  0.00     0.124 S 
ATOM     85  O   UNL     1      -1.930  13.783  13.966  1.00  0.00    -0.237 OA
ATOM     86  O   UNL     1      -2.822  11.716  14.987  1.00  0.00    -0.237 OA
ATOM     87  O   UNL     1      -0.461  12.337  15.324  1.00  0.00    -0.744 OA
ENDBRANCH  83  84
ENDBRANCH  51  76
ENDBRANCH  25  26
ENDBRANCH  18  20
ENDBRANCH  17  18
ENDBRANCH   1  17
TORSDOF 16
