REMARK SMILES C[C@@H]1C(C(=O)OCCOC(=O)c2ccc(-c3c4nc(c(-c5c(F)cc(S(=O)(=O)[O-])cc5F)c5ccc([nH]5)c(-c5c(F)cc(S(=O)(=O)[O-])cc5F)c5nc(c(-c6c(F)cc(S(=O)(=O)[O-])cc6F)c6ccc3[nH]6)C=C5)C=C4)cc2)=NC2=C1C(=O)C[C@H](c1ccccc1)C2
REMARK SMILES IDX 8 1 7 2 6 3 4 4 5 5 3 6 1 7 2 8 80 9 78 10 79 11 81 12 91 13
REMARK SMILES IDX 82 14 83 15 84 16 85 17 86 18 90 19 87 20 89 21 88 22 9 23
REMARK SMILES IDX 10 24 11 25 12 26 13 27 77 28 14 29 76 30 15 31 16 32 17 33
REMARK SMILES IDX 70 34 18 35 75 36 69 37 71 38 19 39 74 40 68 41 67 42 20 44
REMARK SMILES IDX 54 45 33 46 53 47 34 48 37 49 52 50 72 51 35 52 36 53 51 55
REMARK SMILES IDX 73 56 38 57 21 58 22 59 31 60 23 61 24 62 30 63 32 64 25 65
REMARK SMILES IDX 26 66 27 67 28 68 29 69 55 70 56 71 65 72 57 73 58 74 64 75
REMARK SMILES IDX 66 76 59 77 60 78 61 79 62 80 63 81 39 82 40 83 49 84 41 85
REMARK SMILES IDX 42 86 48 87 50 88 43 89 44 90 45 91 46 92 47 93
REMARK H PARENT 71 43 37 54
REMARK Flexibility Score: inf
ROOT
ATOM      1  C   UNL     1       4.241   0.788  -1.345  1.00  0.00     0.275 C 
ENDROOT
BRANCH   1   2
ATOM      2  C   UNL     1       3.367   1.474  -0.312  1.00  0.00     0.275 C 
BRANCH   2   3
ATOM      3  O   UNL     1       2.075   0.843  -0.278  1.00  0.00    -0.458 OA
BRANCH   3   4
ATOM      4  C   UNL     1       1.156   1.312  -1.161  1.00  0.00     0.353 C 
ATOM      5  O   UNL     1       1.092   2.430  -1.636  1.00  0.00    -0.245 OA
BRANCH   4   6
ATOM      6  C   UNL     1       0.290   0.141  -1.608  1.00  0.00     0.133 C 
ATOM      7  C   UNL     1      -1.329  -0.712   0.057  1.00  0.00     0.020 C 
ATOM      8  C   UNL     1       0.001  -0.981  -0.640  1.00  0.00     0.078 C 
ATOM      9  C   UNL     1      -0.132  -1.978  -1.731  1.00  0.00     0.026 C 
ATOM     10  N   UNL     1      -0.166  -0.019  -2.829  1.00  0.00    -0.249 NA
ATOM     11  C   UNL     1      -0.351  -1.385  -2.907  1.00  0.00     0.049 C 
ATOM     12  C   UNL     1       0.490  -3.308  -1.719  1.00  0.00     0.161 C 
ATOM     13  C   UNL     1      -0.175  -2.155  -4.185  1.00  0.00     0.065 C 
ATOM     14  O   UNL     1       0.353  -4.025  -0.729  1.00  0.00    -0.294 OA
ATOM     15  C   UNL     1       1.345  -3.722  -2.921  1.00  0.00     0.089 C 
ATOM     16  C   UNL     1       1.221  -2.821  -4.182  1.00  0.00     0.033 C 
BRANCH  16  17
ATOM     17  C   UNL     1       2.355  -1.791  -4.357  1.00  0.00    -0.044 A 
ATOM     18  C   UNL     1       1.964  -0.108  -4.949  1.00  0.00     0.004 A 
ATOM     19  C   UNL     1       4.075  -2.142  -3.802  1.00  0.00     0.004 A 
ATOM     20  C   UNL     1       3.205   1.207  -4.935  1.00  0.00     0.000 A 
ATOM     21  C   UNL     1       5.320  -0.813  -3.755  1.00  0.00     0.000 A 
ATOM     22  C   UNL     1       4.901   0.877  -4.312  1.00  0.00     0.000 A 
ENDBRANCH  16  17
ENDBRANCH   4   6
ENDBRANCH   3   4
ENDBRANCH   2   3
ENDBRANCH   1   2
BRANCH   1  23
ATOM     23  O   UNL     1       3.680   1.020  -2.661  1.00  0.00    -0.458 OA
BRANCH  23  24
ATOM     24  C   UNL     1       3.367  -0.228  -3.432  1.00  0.00     0.338 C 
ATOM     25  O   UNL     1       2.740  -0.837  -2.526  1.00  0.00    -0.246 OA
BRANCH  24  26
ATOM     26  C   UNL     1       3.982  -0.735  -5.445  1.00  0.00     0.060 A 
ATOM     27  C   UNL     1       3.643  -1.879  -6.308  1.00  0.00     0.016 A 
ATOM     28  C   UNL     1       5.051  -0.170  -6.288  1.00  0.00     0.016 A 
ATOM     29  C   UNL     1       4.589  -2.670  -6.991  1.00  0.00     0.010 A 
ATOM     30  C   UNL     1       6.130  -0.927  -6.742  1.00  0.00     0.010 A 
ATOM     31  C   UNL     1       5.910  -2.247  -7.048  1.00  0.00    -0.014 A 
BRANCH  31  32
ATOM     32  C   UNL     1       6.800  -2.805  -8.064  1.00  0.00     0.031 A 
ATOM     33  C   UNL     1       6.240  -2.407  -9.390  1.00  0.00     0.074 A 
ATOM     34  C   UNL     1       8.000  -3.403  -7.897  1.00  0.00     0.049 A 
ATOM     35  N   UNL     1       5.428  -3.128 -10.094  1.00  0.00    -0.248 NA
ATOM     36  C   UNL     1       6.222  -0.976  -9.775  1.00  0.00     0.031 C 
ATOM     37  C   UNL     1       8.769  -3.625  -6.674  1.00  0.00     0.029 A 
ATOM     38  N   UNL     1       8.827  -3.917  -8.859  1.00  0.00    -0.354 N 
ATOM     39  C   UNL     1       5.099  -2.329 -11.177  1.00  0.00     0.074 A 
ATOM     40  C   UNL     1       5.310  -0.979 -10.751  1.00  0.00     0.031 C 
ATOM     41  C   UNL     1      10.028  -4.026  -6.992  1.00  0.00     0.029 A 
ATOM     42  C   UNL     1      10.126  -4.222  -8.430  1.00  0.00     0.049 A 
ATOM     43  H   UNL     1       8.531  -4.062  -9.786  1.00  0.00     0.167 HD
ATOM     44  C   UNL     1       5.116  -2.870 -12.423  1.00  0.00     0.037 A 
ATOM     45  C   UNL     1      11.179  -4.601  -9.217  1.00  0.00     0.037 A 
ATOM     46  C   UNL     1       5.038  -4.313 -12.338  1.00  0.00     0.049 A 
ATOM     47  C   UNL     1      10.594  -5.139 -10.477  1.00  0.00     0.074 A 
ATOM     48  C   UNL     1       4.171  -5.203 -11.730  1.00  0.00     0.029 A 
ATOM     49  N   UNL     1       6.213  -4.999 -12.529  1.00  0.00    -0.354 N 
ATOM     50  N   UNL     1       9.885  -6.233 -10.523  1.00  0.00    -0.248 NA
ATOM     51  C   UNL     1      10.354  -4.189 -11.551  1.00  0.00     0.031 C 
ATOM     52  C   UNL     1       5.006  -6.217 -11.175  1.00  0.00     0.029 A 
ATOM     53  C   UNL     1       6.321  -5.971 -11.570  1.00  0.00     0.049 A 
ATOM     54  H   UNL     1       6.871  -4.821 -13.240  1.00  0.00     0.167 HD
ATOM     55  C   UNL     1       8.797  -5.906 -11.319  1.00  0.00     0.074 A 
ATOM     56  C   UNL     1       9.170  -4.647 -11.969  1.00  0.00     0.031 C 
ATOM     57  C   UNL     1       7.588  -6.514 -11.132  1.00  0.00     0.037 A 
BRANCH  44  58
ATOM     58  C   UNL     1       5.708  -2.155 -13.620  1.00  0.00     0.058 A 
ATOM     59  C   UNL     1       5.605  -2.771 -14.882  1.00  0.00     0.135 A 
ATOM     60  C   UNL     1       6.601  -1.056 -13.557  1.00  0.00     0.135 A 
ATOM     61  F   UNL     1       4.805  -3.834 -15.057  1.00  0.00    -0.206 F 
ATOM     62  C   UNL     1       6.373  -2.369 -15.974  1.00  0.00     0.059 A 
ATOM     63  C   UNL     1       7.335  -0.608 -14.644  1.00  0.00     0.059 A 
ATOM     64  F   UNL     1       6.886  -0.402 -12.428  1.00  0.00    -0.206 F 
ATOM     65  C   UNL     1       7.237  -1.286 -15.842  1.00  0.00     0.060 A 
BRANCH  65  66
ATOM     66  S   UNL     1       8.240  -0.772 -17.241  1.00  0.00     0.124 S 
ATOM     67  O   UNL     1       9.148  -1.904 -17.381  1.00  0.00    -0.237 OA
ATOM     68  O   UNL     1       7.232  -0.621 -18.285  1.00  0.00    -0.237 OA
ATOM     69  O   UNL     1       8.846   0.474 -16.779  1.00  0.00    -0.744 OA
ENDBRANCH  65  66
ENDBRANCH  44  58
BRANCH  45  70
ATOM     70  C   UNL     1      12.625  -4.209  -9.153  1.00  0.00     0.058 A 
ATOM     71  C   UNL     1      13.594  -4.782 -10.010  1.00  0.00     0.135 A 
ATOM     72  C   UNL     1      13.030  -3.041  -8.482  1.00  0.00     0.135 A 
ATOM     73  F   UNL     1      13.305  -5.891 -10.709  1.00  0.00    -0.206 F 
ATOM     74  C   UNL     1      14.853  -4.198 -10.235  1.00  0.00     0.059 A 
ATOM     75  C   UNL     1      14.277  -2.442  -8.688  1.00  0.00     0.059 A 
ATOM     76  F   UNL     1      12.184  -2.388  -7.673  1.00  0.00    -0.206 F 
ATOM     77  C   UNL     1      15.175  -3.008  -9.587  1.00  0.00     0.060 A 
BRANCH  77  78
ATOM     78  S   UNL     1      16.710  -2.134 -10.005  1.00  0.00     0.124 S 
ATOM     79  O   UNL     1      17.726  -3.012  -9.435  1.00  0.00    -0.237 OA
ATOM     80  O   UNL     1      16.655  -2.085 -11.462  1.00  0.00    -0.237 OA
ATOM     81  O   UNL     1      16.556  -0.844  -9.336  1.00  0.00    -0.744 OA
ENDBRANCH  77  78
ENDBRANCH  45  70
BRANCH  57  82
ATOM     82  C   UNL     1       7.540  -7.774 -10.303  1.00  0.00     0.058 A 
ATOM     83  C   UNL     1       7.886  -7.884  -8.943  1.00  0.00     0.135 A 
ATOM     84  C   UNL     1       7.000  -8.915 -10.916  1.00  0.00     0.135 A 
ATOM     85  F   UNL     1       8.308  -6.817  -8.248  1.00  0.00    -0.206 F 
ATOM     86  C   UNL     1       7.754  -9.091  -8.247  1.00  0.00     0.059 A 
ATOM     87  C   UNL     1       6.826 -10.113 -10.236  1.00  0.00     0.059 A 
ATOM     88  F   UNL     1       6.593  -8.861 -12.195  1.00  0.00    -0.206 F 
ATOM     89  C   UNL     1       7.228 -10.203  -8.907  1.00  0.00     0.060 A 
BRANCH  89  90
ATOM     90  S   UNL     1       7.046 -11.766  -8.021  1.00  0.00     0.124 S 
ATOM     91  O   UNL     1       8.434 -12.161  -7.808  1.00  0.00    -0.237 OA
ATOM     92  O   UNL     1       6.308 -11.368  -6.826  1.00  0.00    -0.237 OA
ATOM     93  O   UNL     1       6.297 -12.603  -8.955  1.00  0.00    -0.744 OA
ENDBRANCH  89  90
ENDBRANCH  57  82
ENDBRANCH  31  32
ENDBRANCH  24  26
ENDBRANCH  23  24
ENDBRANCH   1  23
TORSDOF 15
