REMARK SMILES Cc1ccc(N2C(=O)N[C@@H]3CCN(C(=O)CC4(CC(=O)OCCOC(=O)c5ccc(-c6c7nc(c(-c8c(F)cc(S(=O)(=O)[O-])cc8F)c8ccc([nH]8)c(-c8c(F)cc(S(=O)(=O)[O-])cc8F)c8nc(c(-c9c(F)cc(S(=O)(=O)[O-])cc9F)c9ccc6[nH]9)C=C8)C=C7)cc5)CCCC4)[C@@H]3C2=O)cc1
REMARK SMILES IDX 22 1 21 2 19 3 20 4 18 5 17 6 93 7 96 8 94 9 95 10 16 11
REMARK SMILES IDX 14 12 15 13 13 14 6 15 7 16 98 17 8 18 9 19 97 20 99 21
REMARK SMILES IDX 10 22 11 24 12 25 5 26 1 27 2 28 3 29 101 30 4 31 100 32
REMARK SMILES IDX 23 33 24 34 25 35 26 36 27 37 28 38 92 39 29 40 91 41 30 42
REMARK SMILES IDX 31 43 32 44 85 45 33 46 90 47 84 48 86 49 34 50 89 51 83 52
REMARK SMILES IDX 82 53 35 55 69 56 48 57 68 58 49 59 52 60 67 61 87 62 50 63
REMARK SMILES IDX 51 64 66 66 88 67 53 68 36 69 37 70 46 71 38 72 39 73 45 74
REMARK SMILES IDX 47 75 40 76 41 77 42 78 43 79 44 80 70 81 71 82 80 83 72 84
REMARK SMILES IDX 73 85 79 86 81 87 74 88 75 89 76 90 77 91 78 92 54 93 55 94
REMARK SMILES IDX 64 95 56 96 57 97 63 98 65 99 58 100 59 101 60 102 61 103
REMARK SMILES IDX 62 104
REMARK H PARENT 9 23 86 54 52 65
REMARK Flexibility Score: inf
ROOT
ATOM      1  C   UNL     1     -11.100   1.225  -5.543  1.00  0.00     0.274 C 
ENDROOT
BRANCH   1   2
ATOM      2  O   UNL     1      -9.720   0.900  -5.344  1.00  0.00    -0.462 OA
BRANCH   2   3
ATOM      3  C   UNL     1      -9.244  -0.172  -6.022  1.00  0.00     0.306 C 
ATOM      4  O   UNL     1      -9.942  -0.935  -6.677  1.00  0.00    -0.252 OA
BRANCH   3   5
ATOM      5  C   UNL     1      -7.743  -0.363  -5.807  1.00  0.00     0.130 C 
BRANCH   5   6
ATOM      6  C   UNL     1      -7.324  -0.405  -4.315  1.00  0.00    -0.011 C 
ATOM      7  C   UNL     1      -5.884  -0.945  -4.206  1.00  0.00     0.008 C 
ATOM      8  C   UNL     1      -8.210  -1.520  -3.701  1.00  0.00     0.008 C 
ATOM      9  C   UNL     1      -6.007  -2.455  -4.289  1.00  0.00     0.001 C 
ATOM     10  C   UNL     1      -7.364  -2.793  -3.685  1.00  0.00     0.001 C 
BRANCH   6  11
ATOM     11  C   UNL     1      -7.433   1.035  -3.710  1.00  0.00     0.107 C 
BRANCH  11  12
ATOM     12  C   UNL     1      -6.446   1.554  -2.652  1.00  0.00     0.223 C 
ATOM     13  O   UNL     1      -5.755   2.553  -2.853  1.00  0.00    -0.275 OA
BRANCH  12  14
ATOM     14  N   UNL     1      -6.391   0.915  -1.437  1.00  0.00    -0.328 N 
ATOM     15  N   UNL     1      -3.265   0.221   0.302  1.00  0.00    -0.230 N 
ATOM     16  C   UNL     1      -3.770  -0.178   1.531  1.00  0.00     0.329 C 
ATOM     17  C   UNL     1      -4.019   0.747  -0.750  1.00  0.00     0.260 C 
ATOM     18  O   UNL     1      -3.166  -0.805   2.401  1.00  0.00    -0.248 OA
ATOM     19  N   UNL     1      -5.044   0.197   1.821  1.00  0.00    -0.332 N 
ATOM     20  C   UNL     1      -5.418   1.279  -0.406  1.00  0.00     0.197 C 
ATOM     21  O   UNL     1      -3.581   0.794  -1.905  1.00  0.00    -0.271 OA
ATOM     22  C   UNL     1      -5.997   0.654   0.858  1.00  0.00     0.118 C 
ATOM     23  H   UNL     1      -5.331   0.151   2.762  1.00  0.00     0.165 HD
ATOM     24  C   UNL     1      -6.812  -0.533   0.371  1.00  0.00     0.049 C 
ATOM     25  C   UNL     1      -7.271  -0.126  -0.998  1.00  0.00     0.122 C 
BRANCH  15  26
ATOM     26  C   UNL     1      -1.860   0.088   0.089  1.00  0.00     0.054 A 
ATOM     27  C   UNL     1       2.438  -0.096  -0.076  1.00  0.00     0.044 C 
ATOM     28  C   UNL     1       0.941  -0.032  -0.050  1.00  0.00    -0.051 A 
ATOM     29  C   UNL     1       0.190  -1.196   0.154  1.00  0.00     0.005 A 
ATOM     30  C   UNL     1       0.278   1.184  -0.241  1.00  0.00     0.005 A 
ATOM     31  C   UNL     1      -1.203  -1.135   0.245  1.00  0.00     0.027 A 
ATOM     32  C   UNL     1      -1.114   1.241  -0.191  1.00  0.00     0.027 A 
ENDBRANCH  15  26
ENDBRANCH  12  14
ENDBRANCH  11  12
ENDBRANCH   6  11
ENDBRANCH   5   6
ENDBRANCH   3   5
ENDBRANCH   2   3
ENDBRANCH   1   2
BRANCH   1  33
ATOM     33  C   UNL     1     -11.366   2.686  -5.128  1.00  0.00     0.275 C 
BRANCH  33  34
ATOM     34  O   UNL     1     -10.648   3.743  -5.815  1.00  0.00    -0.458 OA
BRANCH  34  35
ATOM     35  C   UNL     1      -9.300   3.622  -5.977  1.00  0.00     0.338 C 
ATOM     36  O   UNL     1      -8.500   3.739  -5.042  1.00  0.00    -0.246 OA
BRANCH  35  37
ATOM     37  C   UNL     1      -9.022   3.022  -7.314  1.00  0.00     0.060 A 
ATOM     38  C   UNL     1      -7.790   2.434  -7.650  1.00  0.00     0.016 A 
ATOM     39  C   UNL     1     -10.147   2.719  -8.067  1.00  0.00     0.016 A 
ATOM     40  C   UNL     1      -7.728   1.441  -8.650  1.00  0.00     0.010 A 
ATOM     41  C   UNL     1     -10.132   1.572  -8.809  1.00  0.00     0.010 A 
ATOM     42  C   UNL     1      -8.924   0.961  -9.180  1.00  0.00    -0.014 A 
BRANCH  42  43
ATOM     43  C   UNL     1      -9.112   0.050 -10.312  1.00  0.00     0.031 A 
ATOM     44  C   UNL     1      -8.914  -1.416 -10.313  1.00  0.00     0.074 A 
ATOM     45  C   UNL     1      -9.736   0.685 -11.335  1.00  0.00     0.049 A 
ATOM     46  N   UNL     1      -9.007  -2.128 -11.384  1.00  0.00    -0.248 NA
ATOM     47  C   UNL     1      -8.610  -2.235  -9.150  1.00  0.00     0.031 C 
ATOM     48  C   UNL     1     -10.428   0.197 -12.509  1.00  0.00     0.029 A 
ATOM     49  N   UNL     1      -9.746   2.078 -11.511  1.00  0.00    -0.354 N 
ATOM     50  C   UNL     1      -9.026  -3.468 -11.044  1.00  0.00     0.074 A 
ATOM     51  C   UNL     1      -8.729  -3.482  -9.634  1.00  0.00     0.031 C 
ATOM     52  C   UNL     1     -10.477   1.201 -13.411  1.00  0.00     0.029 A 
ATOM     53  C   UNL     1      -9.691   2.313 -12.878  1.00  0.00     0.049 A 
ATOM     54  H   UNL     1      -9.785   2.758 -10.801  1.00  0.00     0.167 HD
ATOM     55  C   UNL     1      -9.390  -4.368 -12.008  1.00  0.00     0.037 A 
ATOM     56  C   UNL     1      -8.490   2.786 -13.332  1.00  0.00     0.037 A 
ATOM     57  C   UNL     1      -9.485  -3.681 -13.299  1.00  0.00     0.049 A 
ATOM     58  C   UNL     1      -7.760   1.744 -14.152  1.00  0.00     0.074 A 
ATOM     59  C   UNL     1     -10.523  -3.107 -14.011  1.00  0.00     0.029 A 
ATOM     60  N   UNL     1      -8.319  -3.199 -13.860  1.00  0.00    -0.354 N 
ATOM     61  N   UNL     1      -8.130   0.495 -14.242  1.00  0.00    -0.248 NA
ATOM     62  C   UNL     1      -6.546   2.016 -14.914  1.00  0.00     0.031 C 
ATOM     63  C   UNL     1      -9.952  -2.184 -14.940  1.00  0.00     0.029 A 
ATOM     64  C   UNL     1      -8.574  -2.222 -14.802  1.00  0.00     0.049 A 
ATOM     65  H   UNL     1      -7.418  -3.513 -13.619  1.00  0.00     0.167 HD
ATOM     66  C   UNL     1      -7.278  -0.185 -15.055  1.00  0.00     0.074 A 
ATOM     67  C   UNL     1      -6.280   0.803 -15.430  1.00  0.00     0.031 C 
ATOM     68  C   UNL     1      -7.449  -1.500 -15.375  1.00  0.00     0.037 A 
BRANCH  55  69
ATOM     69  C   UNL     1      -9.819  -5.817 -11.834  1.00  0.00     0.058 A 
ATOM     70  C   UNL     1     -10.592  -6.438 -12.849  1.00  0.00     0.135 A 
ATOM     71  C   UNL     1      -9.561  -6.644 -10.722  1.00  0.00     0.135 A 
ATOM     72  F   UNL     1     -10.894  -5.804 -13.990  1.00  0.00    -0.206 F 
ATOM     73  C   UNL     1     -11.113  -7.729 -12.745  1.00  0.00     0.059 A 
ATOM     74  C   UNL     1     -10.089  -7.940 -10.588  1.00  0.00     0.059 A 
ATOM     75  F   UNL     1      -8.761  -6.249  -9.726  1.00  0.00    -0.206 F 
ATOM     76  C   UNL     1     -10.875  -8.471 -11.602  1.00  0.00     0.060 A 
BRANCH  76  77
ATOM     77  S   UNL     1     -11.606 -10.115 -11.482  1.00  0.00     0.124 S 
ATOM     78  O   UNL     1     -13.033  -9.823 -11.581  1.00  0.00    -0.237 OA
ATOM     79  O   UNL     1     -11.019 -10.798 -12.630  1.00  0.00    -0.237 OA
ATOM     80  O   UNL     1     -11.161 -10.594 -10.176  1.00  0.00    -0.744 OA
ENDBRANCH  76  77
ENDBRANCH  55  69
BRANCH  56  81
ATOM     81  C   UNL     1      -7.855   3.770 -12.372  1.00  0.00     0.058 A 
ATOM     82  C   UNL     1      -8.623   4.882 -11.945  1.00  0.00     0.135 A 
ATOM     83  C   UNL     1      -6.708   3.481 -11.615  1.00  0.00     0.135 A 
ATOM     84  F   UNL     1      -9.748   5.213 -12.602  1.00  0.00    -0.206 F 
ATOM     85  C   UNL     1      -8.336   5.593 -10.780  1.00  0.00     0.059 A 
ATOM     86  C   UNL     1      -6.384   4.204 -10.455  1.00  0.00     0.059 A 
ATOM     87  F   UNL     1      -5.931   2.436 -11.933  1.00  0.00    -0.206 F 
ATOM     88  C   UNL     1      -7.224   5.235 -10.027  1.00  0.00     0.060 A 
BRANCH  88  89
ATOM     89  S   UNL     1      -6.990   6.033  -8.416  1.00  0.00     0.124 S 
ATOM     90  O   UNL     1      -6.467   7.338  -8.804  1.00  0.00    -0.237 OA
ATOM     91  O   UNL     1      -8.347   6.033  -7.876  1.00  0.00    -0.237 OA
ATOM     92  O   UNL     1      -6.047   5.147  -7.742  1.00  0.00    -0.744 OA
ENDBRANCH  88  89
ENDBRANCH  56  81
BRANCH  68  93
ATOM     93  C   UNL     1      -6.521  -2.201 -16.308  1.00  0.00     0.058 A 
ATOM     94  C   UNL     1      -6.199  -1.656 -17.559  1.00  0.00     0.135 A 
ATOM     95  C   UNL     1      -6.006  -3.480 -16.017  1.00  0.00     0.135 A 
ATOM     96  F   UNL     1      -6.707  -0.473 -17.944  1.00  0.00    -0.206 F 
ATOM     97  C   UNL     1      -5.347  -2.306 -18.442  1.00  0.00     0.059 A 
ATOM     98  C   UNL     1      -5.207  -4.177 -16.912  1.00  0.00     0.059 A 
ATOM     99  F   UNL     1      -6.231  -4.075 -14.836  1.00  0.00    -0.206 F 
ATOM    100  C   UNL     1      -4.851  -3.564 -18.105  1.00  0.00     0.060 A 
BRANCH 100 101
ATOM    101  S   UNL     1      -3.725  -4.394 -19.235  1.00  0.00     0.124 S 
ATOM    102  O   UNL     1      -4.264  -4.036 -20.543  1.00  0.00    -0.237 OA
ATOM    103  O   UNL     1      -2.455  -3.768 -18.881  1.00  0.00    -0.237 OA
ATOM    104  O   UNL     1      -3.859  -5.801 -18.871  1.00  0.00    -0.744 OA
ENDBRANCH 100 101
ENDBRANCH  68  93
ENDBRANCH  42  43
ENDBRANCH  35  37
ENDBRANCH  34  35
ENDBRANCH  33  34
ENDBRANCH   1  33
TORSDOF 19
