REMARK SMILES NS(=O)(=O)c1ccc(-n2nc(C(=O)OCCOC(=O)c3ccc(-c4c5nc(c(-c6c(F)cc(S(=O)(=O)[O-])cc6F)c6ccc([nH]6)c(-c6c(F)cc(S(=O)(=O)[O-])cc6F)c6nc(c(-c7c(F)cc(S(=O)(=O)[O-])cc7F)c7ccc4[nH]7)C=C6)C=C5)cc3)cc2-c2ccc(Cl)s2)cc1
REMARK SMILES IDX 15 1 14 2 12 3 13 4 11 5 9 6 10 7 87 8 86 9 8 10 5 11 6 12
REMARK SMILES IDX 95 13 7 14 94 15 2 16 3 17 4 18 1 19 88 22 89 23 93 24 90 25
REMARK SMILES IDX 91 26 92 27 16 28 17 29 18 30 19 31 20 32 21 33 85 34 22 35
REMARK SMILES IDX 84 36 23 37 24 38 25 39 78 40 26 41 83 42 77 43 79 44 27 45
REMARK SMILES IDX 82 46 76 47 75 48 28 50 62 51 41 52 61 53 42 54 45 55 60 56
REMARK SMILES IDX 80 57 43 58 44 59 59 61 81 62 46 63 29 64 30 65 39 66 31 67
REMARK SMILES IDX 32 68 38 69 40 70 33 71 34 72 35 73 36 74 37 75 63 76 64 77
REMARK SMILES IDX 73 78 65 79 66 80 72 81 74 82 67 83 68 84 69 85 70 86 71 87
REMARK SMILES IDX 47 88 48 89 57 90 49 91 50 92 56 93 58 94 51 95 52 96 53 97
REMARK SMILES IDX 54 98 55 99
REMARK H PARENT 1 20 1 21 79 49 45 60
REMARK Flexibility Score: inf
ROOT
ATOM      1  C   UNL     1       4.540  -9.741  -6.916  1.00  0.00     0.275 C 
ENDROOT
BRANCH   1   2
ATOM      2  O   UNL     1       3.495  -9.041  -6.215  1.00  0.00    -0.457 OA
BRANCH   2   3
ATOM      3  C   UNL     1       3.821  -8.500  -4.993  1.00  0.00     0.358 C 
ATOM      4  O   UNL     1       4.840  -8.782  -4.371  1.00  0.00    -0.244 OA
BRANCH   3   5
ATOM      5  C   UNL     1       2.817  -7.514  -4.553  1.00  0.00     0.171 A 
ATOM      6  N   UNL     1       1.875  -5.905  -3.492  1.00  0.00    -0.231 N 
ATOM      7  N   UNL     1       3.053  -6.566  -3.621  1.00  0.00    -0.160 NA
ATOM      8  C   UNL     1       0.889  -6.429  -4.310  1.00  0.00     0.085 A 
ATOM      9  C   UNL     1       1.496  -7.414  -5.050  1.00  0.00     0.068 A 
BRANCH   6  10
ATOM     10  C   UNL     1       1.699  -4.936  -2.476  1.00  0.00     0.065 A 
ATOM     11  C   UNL     1       1.063  -2.907  -0.686  1.00  0.00     0.082 A 
ATOM     12  C   UNL     1       0.427  -4.149  -0.579  1.00  0.00     0.024 A 
ATOM     13  C   UNL     1       2.034  -2.682  -1.671  1.00  0.00     0.024 A 
ATOM     14  C   UNL     1       0.739  -5.163  -1.481  1.00  0.00     0.030 A 
ATOM     15  C   UNL     1       2.372  -3.711  -2.560  1.00  0.00     0.030 A 
BRANCH  11  16
ATOM     16  S   UNL     1       0.564  -1.643   0.447  1.00  0.00     0.238 S 
ATOM     17  O   UNL     1       1.217  -1.882   1.710  1.00  0.00    -0.207 OA
ATOM     18  O   UNL     1      -0.871  -1.482   0.339  1.00  0.00    -0.207 OA
BRANCH  16  19
ATOM     19  N   UNL     1       1.216  -0.223  -0.156  1.00  0.00    -0.225 NA
ATOM     20  H   UNL     1       0.964   0.554   0.456  1.00  0.00     0.137 HD
ATOM     21  H   UNL     1       0.849  -0.051  -1.092  1.00  0.00     0.137 HD
ENDBRANCH  16  19
ENDBRANCH  11  16
ENDBRANCH   6  10
BRANCH   8  22
ATOM     22  C   UNL     1      -0.481  -6.018  -4.357  1.00  0.00     0.054 A 
ATOM     23  C   UNL     1      -1.573  -6.852  -4.207  1.00  0.00     0.024 A 
ATOM     24  S   UNL     1      -0.960  -4.395  -4.627  1.00  0.00    -0.122 S 
ATOM     25  C   UNL     1      -2.805  -6.138  -4.241  1.00  0.00     0.033 A 
ATOM     26  C   UNL     1      -2.592  -4.800  -4.450  1.00  0.00     0.094 A 
ATOM     27  Cl  UNL     1      -3.794  -3.578  -4.541  1.00  0.00    -0.072 Cl
ENDBRANCH   8  22
ENDBRANCH   3   5
ENDBRANCH   2   3
ENDBRANCH   1   2
BRANCH   1  28
ATOM     28  C   UNL     1       5.393  -8.790  -7.748  1.00  0.00     0.275 C 
BRANCH  28  29
ATOM     29  O   UNL     1       6.183  -7.975  -6.891  1.00  0.00    -0.458 OA
BRANCH  29  30
ATOM     30  C   UNL     1       5.629  -6.791  -6.538  1.00  0.00     0.338 C 
ATOM     31  O   UNL     1       4.496  -6.416  -6.790  1.00  0.00    -0.246 OA
BRANCH  30  32
ATOM     32  C   UNL     1       6.676  -5.936  -5.972  1.00  0.00     0.060 A 
ATOM     33  C   UNL     1       6.324  -4.601  -5.761  1.00  0.00     0.016 A 
ATOM     34  C   UNL     1       8.010  -6.357  -6.064  1.00  0.00     0.016 A 
ATOM     35  C   UNL     1       7.296  -3.648  -5.948  1.00  0.00     0.010 A 
ATOM     36  C   UNL     1       8.972  -5.407  -6.274  1.00  0.00     0.010 A 
ATOM     37  C   UNL     1       8.573  -4.074  -6.322  1.00  0.00    -0.014 A 
BRANCH  37  38
ATOM     38  C   UNL     1       9.528  -3.078  -6.740  1.00  0.00     0.031 A 
ATOM     39  C   UNL     1      10.096  -2.328  -5.603  1.00  0.00     0.074 A 
ATOM     40  C   UNL     1       9.928  -2.983  -8.022  1.00  0.00     0.049 A 
ATOM     41  N   UNL     1       9.906  -1.089  -5.295  1.00  0.00    -0.248 NA
ATOM     42  C   UNL     1      10.786  -3.111  -4.563  1.00  0.00     0.031 C 
ATOM     43  C   UNL     1       9.628  -3.876  -9.146  1.00  0.00     0.029 A 
ATOM     44  N   UNL     1      10.806  -2.101  -8.562  1.00  0.00    -0.354 N 
ATOM     45  C   UNL     1      10.661  -0.884  -4.147  1.00  0.00     0.074 A 
ATOM     46  C   UNL     1      10.972  -2.187  -3.622  1.00  0.00     0.031 C 
ATOM     47  C   UNL     1      10.494  -3.626 -10.155  1.00  0.00     0.029 A 
ATOM     48  C   UNL     1      11.316  -2.485  -9.797  1.00  0.00     0.049 A 
ATOM     49  H   UNL     1      11.059  -1.260  -8.118  1.00  0.00     0.167 HD
ATOM     50  C   UNL     1      11.219   0.325  -3.873  1.00  0.00     0.037 A 
ATOM     51  C   UNL     1      12.425  -1.954 -10.374  1.00  0.00     0.037 A 
ATOM     52  C   UNL     1      10.596   1.379  -4.633  1.00  0.00     0.049 A 
ATOM     53  C   UNL     1      12.638  -0.619  -9.734  1.00  0.00     0.074 A 
ATOM     54  C   UNL     1       9.303   1.857  -4.729  1.00  0.00     0.029 A 
ATOM     55  N   UNL     1      11.248   1.839  -5.753  1.00  0.00    -0.354 N 
ATOM     56  N   UNL     1      11.801   0.380  -9.853  1.00  0.00    -0.248 NA
ATOM     57  C   UNL     1      13.499  -0.567  -8.559  1.00  0.00     0.031 C 
ATOM     58  C   UNL     1       9.117   2.144  -6.114  1.00  0.00     0.029 A 
ATOM     59  C   UNL     1      10.323   1.890  -6.769  1.00  0.00     0.049 A 
ATOM     60  H   UNL     1      12.199   2.086  -5.816  1.00  0.00     0.167 HD
ATOM     61  C   UNL     1      11.741   0.958  -8.590  1.00  0.00     0.074 A 
ATOM     62  C   UNL     1      12.851   0.361  -7.848  1.00  0.00     0.031 C 
ATOM     63  C   UNL     1      10.636   1.640  -8.161  1.00  0.00     0.037 A 
BRANCH  50  64
ATOM     64  C   UNL     1      12.562   0.473  -3.209  1.00  0.00     0.058 A 
ATOM     65  C   UNL     1      12.969   1.739  -2.750  1.00  0.00     0.135 A 
ATOM     66  C   UNL     1      13.570  -0.520  -3.242  1.00  0.00     0.135 A 
ATOM     67  F   UNL     1      12.097   2.758  -2.695  1.00  0.00    -0.206 F 
ATOM     68  C   UNL     1      14.293   2.013  -2.407  1.00  0.00     0.059 A 
ATOM     69  C   UNL     1      14.878  -0.286  -2.846  1.00  0.00     0.059 A 
ATOM     70  F   UNL     1      13.365  -1.738  -3.758  1.00  0.00    -0.206 F 
ATOM     71  C   UNL     1      15.242   0.995  -2.473  1.00  0.00     0.060 A 
BRANCH  71  72
ATOM     72  S   UNL     1      16.971   1.370  -2.146  1.00  0.00     0.124 S 
ATOM     73  O   UNL     1      17.310   2.197  -3.299  1.00  0.00    -0.237 OA
ATOM     74  O   UNL     1      16.893   2.059  -0.863  1.00  0.00    -0.237 OA
ATOM     75  O   UNL     1      17.599   0.052  -2.106  1.00  0.00    -0.744 OA
ENDBRANCH  71  72
ENDBRANCH  50  64
BRANCH  51  76
ATOM     76  C   UNL     1      13.511  -2.721 -11.051  1.00  0.00     0.058 A 
ATOM     77  C   UNL     1      14.512  -2.079 -11.802  1.00  0.00     0.135 A 
ATOM     78  C   UNL     1      13.738  -4.085 -10.765  1.00  0.00     0.135 A 
ATOM     79  F   UNL     1      14.400  -0.774 -12.095  1.00  0.00    -0.206 F 
ATOM     80  C   UNL     1      15.677  -2.741 -12.218  1.00  0.00     0.059 A 
ATOM     81  C   UNL     1      14.881  -4.766 -11.177  1.00  0.00     0.059 A 
ATOM     82  F   UNL     1      12.893  -4.784  -9.994  1.00  0.00    -0.206 F 
ATOM     83  C   UNL     1      15.858  -4.084 -11.887  1.00  0.00     0.060 A 
BRANCH  83  84
ATOM     84  S   UNL     1      17.418  -4.910 -12.288  1.00  0.00     0.124 S 
ATOM     85  O   UNL     1      17.354  -4.986 -13.743  1.00  0.00    -0.237 OA
ATOM     86  O   UNL     1      18.406  -3.988 -11.739  1.00  0.00    -0.237 OA
ATOM     87  O   UNL     1      17.312  -6.191 -11.593  1.00  0.00    -0.744 OA
ENDBRANCH  83  84
ENDBRANCH  51  76
BRANCH  63  88
ATOM     88  C   UNL     1       9.546   1.952  -9.159  1.00  0.00     0.058 A 
ATOM     89  C   UNL     1       8.759   0.977  -9.800  1.00  0.00     0.135 A 
ATOM     90  C   UNL     1       9.159   3.290  -9.328  1.00  0.00     0.135 A 
ATOM     91  F   UNL     1       8.991  -0.328  -9.606  1.00  0.00    -0.206 F 
ATOM     92  C   UNL     1       7.662   1.316 -10.597  1.00  0.00     0.059 A 
ATOM     93  C   UNL     1       8.052   3.651 -10.093  1.00  0.00     0.059 A 
ATOM     94  F   UNL     1       9.825   4.266  -8.690  1.00  0.00    -0.206 F 
ATOM     95  C   UNL     1       7.313   2.659 -10.735  1.00  0.00     0.060 A 
BRANCH  95  96
ATOM     96  S   UNL     1       5.846   3.093 -11.695  1.00  0.00     0.124 S 
ATOM     97  O   UNL     1       6.272   2.797 -13.058  1.00  0.00    -0.237 OA
ATOM     98  O   UNL     1       4.829   2.203 -11.142  1.00  0.00    -0.237 OA
ATOM     99  O   UNL     1       5.649   4.510 -11.396  1.00  0.00    -0.744 OA
ENDBRANCH  95  96
ENDBRANCH  63  88
ENDBRANCH  37  38
ENDBRANCH  30  32
ENDBRANCH  29  30
ENDBRANCH  28  29
ENDBRANCH   1  28
TORSDOF 18
