REMARK SMILES Cc1cc2cc(-c3ccc([C@@H](C)C(=O)OCCOC(=O)c4ccc(-c5c6nc(c(-c7c(F)cc(S(=O)(=O)[O-])cc7F)c7ccc([nH]7)c(-c7c(F)cc(S(=O)(=O)[O-])cc7F)c7nc(c(-c8c(F)cc(S(=O)(=O)[O-])cc8F)c8ccc5[nH]8)C=C7)C=C6)cc4)cc3)ccc2[nH]1
REMARK SMILES IDX 17 1 16 2 15 3 13 4 14 5 11 6 12 7 10 8 7 9 8 10 88 11 9 12
REMARK SMILES IDX 87 13 6 14 1 15 2 16 3 17 92 18 4 19 91 20 5 22 90 23 89 24
REMARK SMILES IDX 18 25 19 26 20 27 21 28 22 29 86 30 23 31 85 32 24 33 25 34
REMARK SMILES IDX 26 35 79 36 27 37 84 38 78 39 80 40 28 41 83 42 77 43 76 44
REMARK SMILES IDX 29 46 63 47 42 48 62 49 43 50 46 51 61 52 81 53 44 54 45 55
REMARK SMILES IDX 60 57 82 58 47 59 30 60 31 61 40 62 32 63 33 64 39 65 41 66
REMARK SMILES IDX 34 67 35 68 36 69 37 70 38 71 64 72 65 73 74 74 66 75 67 76
REMARK SMILES IDX 73 77 75 78 68 79 69 80 70 81 71 82 72 83 48 84 49 85 58 86
REMARK SMILES IDX 50 87 51 88 57 89 59 90 52 91 53 92 54 93 55 94 56 95
REMARK H PARENT 92 21 80 45 46 56
REMARK Flexibility Score: inf
ROOT
ATOM      1  C   UNL     1       8.781  -1.855  -3.754  1.00  0.00     0.275 C 
ENDROOT
BRANCH   1   2
ATOM      2  C   UNL     1       8.479  -3.350  -3.632  1.00  0.00     0.274 C 
BRANCH   2   3
ATOM      3  O   UNL     1       7.595  -3.613  -2.526  1.00  0.00    -0.462 OA
BRANCH   3   4
ATOM      4  C   UNL     1       8.165  -4.079  -1.383  1.00  0.00     0.313 C 
ATOM      5  O   UNL     1       9.353  -4.368  -1.275  1.00  0.00    -0.252 OA
BRANCH   4   6
ATOM      6  C   UNL     1       7.175  -4.280  -0.241  1.00  0.00     0.126 C 
ATOM      7  C   UNL     1       6.776  -5.753  -0.160  1.00  0.00     0.025 C 
BRANCH   6   8
ATOM      8  C   UNL     1       5.967  -3.357  -0.236  1.00  0.00    -0.034 A 
ATOM      9  C   UNL     1       3.683  -1.671  -0.141  1.00  0.00    -0.018 A 
ATOM     10  C   UNL     1       3.832  -2.639  -1.145  1.00  0.00     0.009 A 
ATOM     11  C   UNL     1       4.712  -1.536   0.798  1.00  0.00     0.009 A 
ATOM     12  C   UNL     1       4.950  -3.473  -1.190  1.00  0.00     0.005 A 
ATOM     13  C   UNL     1       5.836  -2.370   0.755  1.00  0.00     0.005 A 
BRANCH   9  14
ATOM     14  C   UNL     1       2.453  -0.868  -0.062  1.00  0.00    -0.018 A 
ATOM     15  C   UNL     1      -3.567   0.249   0.044  1.00  0.00     0.064 C 
ATOM     16  C   UNL     1      -2.101   0.035   0.038  1.00  0.00     0.013 A 
ATOM     17  C   UNL     1      -1.365  -1.131   0.020  1.00  0.00     0.031 A 
ATOM     18  N   UNL     1      -1.209   1.081   0.054  1.00  0.00    -0.359 N 
ATOM     19  C   UNL     1       0.010  -0.779   0.003  1.00  0.00     0.000 A 
ATOM     20  C   UNL     1       0.085   0.610   0.025  1.00  0.00     0.046 A 
ATOM     21  H   UNL     1      -1.459   2.032   0.083  1.00  0.00     0.166 HD
ATOM     22  C   UNL     1       1.204  -1.520  -0.033  1.00  0.00     0.019 A 
ATOM     23  C   UNL     1       1.304   1.297   0.019  1.00  0.00     0.027 A 
ATOM     24  C   UNL     1       2.481   0.533  -0.027  1.00  0.00     0.011 A 
ENDBRANCH   9  14
ENDBRANCH   6   8
ENDBRANCH   4   6
ENDBRANCH   3   4
ENDBRANCH   2   3
ENDBRANCH   1   2
BRANCH   1  25
ATOM     25  O   UNL     1       9.591  -1.401  -2.655  1.00  0.00    -0.458 OA
BRANCH  25  26
ATOM     26  C   UNL     1       8.911  -0.795  -1.655  1.00  0.00     0.338 C 
ATOM     27  O   UNL     1       7.720  -0.544  -1.615  1.00  0.00    -0.246 OA
BRANCH  26  28
ATOM     28  C   UNL     1       9.815  -0.554  -0.522  1.00  0.00     0.060 A 
ATOM     29  C   UNL     1       9.625  -1.301   0.642  1.00  0.00     0.016 A 
ATOM     30  C   UNL     1      10.769   0.462  -0.567  1.00  0.00     0.016 A 
ATOM     31  C   UNL     1      10.370  -1.019   1.782  1.00  0.00     0.010 A 
ATOM     32  C   UNL     1      11.526   0.739   0.576  1.00  0.00     0.010 A 
ATOM     33  C   UNL     1      11.315   0.015   1.763  1.00  0.00    -0.014 A 
BRANCH  33  34
ATOM     34  C   UNL     1      12.027   0.376   3.012  1.00  0.00     0.031 A 
ATOM     35  C   UNL     1      11.640   1.623   3.755  1.00  0.00     0.074 A 
ATOM     36  C   UNL     1      12.992  -0.430   3.492  1.00  0.00     0.049 A 
ATOM     37  N   UNL     1      12.171   2.142   4.832  1.00  0.00    -0.248 NA
ATOM     38  C   UNL     1      10.507   2.389   3.213  1.00  0.00     0.031 C 
ATOM     39  C   UNL     1      13.428  -1.685   2.876  1.00  0.00     0.029 A 
ATOM     40  N   UNL     1      13.780  -0.314   4.609  1.00  0.00    -0.354 N 
ATOM     41  C   UNL     1      11.452   3.304   5.086  1.00  0.00     0.074 A 
ATOM     42  C   UNL     1      10.457   3.422   4.042  1.00  0.00     0.031 C 
ATOM     43  C   UNL     1      14.404  -2.224   3.626  1.00  0.00     0.029 A 
ATOM     44  C   UNL     1      14.686  -1.336   4.752  1.00  0.00     0.049 A 
ATOM     45  H   UNL     1      13.702   0.432   5.247  1.00  0.00     0.167 HD
ATOM     46  C   UNL     1      11.608   4.189   6.100  1.00  0.00     0.037 A 
ATOM     47  C   UNL     1      15.648  -1.526   5.675  1.00  0.00     0.037 A 
ATOM     48  C   UNL     1      12.589   4.057   7.146  1.00  0.00     0.049 A 
ATOM     49  C   UNL     1      15.816  -0.517   6.779  1.00  0.00     0.074 A 
ATOM     50  C   UNL     1      12.826   4.899   8.218  1.00  0.00     0.029 A 
ATOM     51  N   UNL     1      13.495   3.011   7.253  1.00  0.00    -0.354 N 
ATOM     52  N   UNL     1      15.138   0.584   6.998  1.00  0.00    -0.248 NA
ATOM     53  C   UNL     1      16.878  -0.777   7.760  1.00  0.00     0.031 C 
ATOM     54  C   UNL     1      13.893   4.376   8.959  1.00  0.00     0.029 A 
ATOM     55  C   UNL     1      14.297   3.190   8.367  1.00  0.00     0.049 A 
ATOM     56  H   UNL     1      13.558   2.253   6.628  1.00  0.00     0.167 HD
ATOM     57  C   UNL     1      15.679   1.140   8.152  1.00  0.00     0.074 A 
ATOM     58  C   UNL     1      16.733   0.247   8.591  1.00  0.00     0.031 C 
ATOM     59  C   UNL     1      15.337   2.286   8.790  1.00  0.00     0.037 A 
BRANCH  46  60
ATOM     60  C   UNL     1      10.710   5.394   6.109  1.00  0.00     0.058 A 
ATOM     61  C   UNL     1       9.357   5.304   6.471  1.00  0.00     0.135 A 
ATOM     62  C   UNL     1      11.216   6.658   5.765  1.00  0.00     0.135 A 
ATOM     63  F   UNL     1       8.820   4.116   6.789  1.00  0.00    -0.206 F 
ATOM     64  C   UNL     1       8.529   6.423   6.467  1.00  0.00     0.059 A 
ATOM     65  C   UNL     1      10.411   7.793   5.775  1.00  0.00     0.059 A 
ATOM     66  F   UNL     1      12.502   6.798   5.409  1.00  0.00    -0.206 F 
ATOM     67  C   UNL     1       9.064   7.662   6.112  1.00  0.00     0.060 A 
BRANCH  67  68
ATOM     68  S   UNL     1       7.979   9.105   6.102  1.00  0.00     0.124 S 
ATOM     69  O   UNL     1       7.233   8.899   4.864  1.00  0.00    -0.237 OA
ATOM     70  O   UNL     1       7.217   8.937   7.335  1.00  0.00    -0.237 OA
ATOM     71  O   UNL     1       8.910  10.230   6.093  1.00  0.00    -0.744 OA
ENDBRANCH  67  68
ENDBRANCH  46  60
BRANCH  47  72
ATOM     72  C   UNL     1      16.532  -2.716   5.587  1.00  0.00     0.058 A 
ATOM     73  C   UNL     1      16.415  -3.774   6.499  1.00  0.00     0.135 A 
ATOM     74  C   UNL     1      17.502  -2.824   4.579  1.00  0.00     0.135 A 
ATOM     75  F   UNL     1      15.508  -3.712   7.486  1.00  0.00    -0.206 F 
ATOM     76  C   UNL     1      17.235  -4.896   6.422  1.00  0.00     0.059 A 
ATOM     77  C   UNL     1      18.318  -3.945   4.467  1.00  0.00     0.059 A 
ATOM     78  F   UNL     1      17.645  -1.842   3.675  1.00  0.00    -0.206 F 
ATOM     79  C   UNL     1      18.183  -4.972   5.400  1.00  0.00     0.060 A 
BRANCH  79  80
ATOM     80  S   UNL     1      19.206  -6.455   5.269  1.00  0.00     0.124 S 
ATOM     81  O   UNL     1      20.187  -6.227   6.324  1.00  0.00    -0.237 OA
ATOM     82  O   UNL     1      18.240  -7.521   5.515  1.00  0.00    -0.237 OA
ATOM     83  O   UNL     1      19.718  -6.388   3.903  1.00  0.00    -0.744 OA
ENDBRANCH  79  80
ENDBRANCH  47  72
BRANCH  59  84
ATOM     84  C   UNL     1      16.088   2.621  10.047  1.00  0.00     0.058 A 
ATOM     85  C   UNL     1      17.400   3.117  10.009  1.00  0.00     0.135 A 
ATOM     86  C   UNL     1      15.476   2.473  11.302  1.00  0.00     0.135 A 
ATOM     87  F   UNL     1      18.030   3.271   8.834  1.00  0.00    -0.206 F 
ATOM     88  C   UNL     1      18.090   3.432  11.175  1.00  0.00     0.059 A 
ATOM     89  C   UNL     1      16.140   2.801  12.479  1.00  0.00     0.059 A 
ATOM     90  F   UNL     1      14.219   2.011  11.390  1.00  0.00    -0.206 F 
ATOM     91  C   UNL     1      17.453   3.267  12.407  1.00  0.00     0.060 A 
BRANCH  91  92
ATOM     92  S   UNL     1      18.347   3.695  13.915  1.00  0.00     0.124 S 
ATOM     93  O   UNL     1      19.206   2.528  14.088  1.00  0.00    -0.237 OA
ATOM     94  O   UNL     1      19.026   4.932  13.541  1.00  0.00    -0.237 OA
ATOM     95  O   UNL     1      17.286   3.846  14.906  1.00  0.00    -0.744 OA
ENDBRANCH  91  92
ENDBRANCH  59  84
ENDBRANCH  33  34
ENDBRANCH  26  28
ENDBRANCH  25  26
ENDBRANCH   1  25
TORSDOF 16
