REMARK SMILES C[C@H](NC(=O)N1CC[C@@H](C(=O)OCCOC(=O)c2ccc(-c3c4nc(c(-c5c(F)cc(S(=O)(=O)[O-])cc5F)c5ccc([nH]5)c(-c5c(F)cc(S(=O)(=O)[O-])cc5F)c5nc(c(-c6c(F)cc(S(=O)(=O)[O-])cc6F)c6ccc3[nH]6)C=C5)C=C4)cc2)[C@H]1C)c1ccc(Cl)cc1
REMARK SMILES IDX 13 1 12 2 10 3 11 4 9 5 6 6 7 7 84 8 8 9 85 10 4 11 3 12
REMARK SMILES IDX 5 14 2 15 1 16 86 17 87 18 92 19 88 20 91 21 89 22 90 23
REMARK SMILES IDX 14 24 15 25 16 26 17 27 18 28 19 29 83 30 20 31 82 32 21 33
REMARK SMILES IDX 22 34 23 35 76 36 24 37 81 38 75 39 77 40 25 41 80 42 74 43
REMARK SMILES IDX 73 44 26 46 60 47 39 48 59 49 40 50 43 51 58 52 78 53 41 54
REMARK SMILES IDX 42 55 57 57 79 58 44 59 27 60 28 61 37 62 29 63 30 64 36 65
REMARK SMILES IDX 38 66 31 67 32 68 33 69 34 70 35 71 61 72 62 73 71 74 63 75
REMARK SMILES IDX 64 76 70 77 72 78 65 79 66 80 67 81 68 82 69 83 45 84 46 85
REMARK SMILES IDX 55 86 47 87 48 88 54 89 56 90 49 91 50 92 51 93 52 94 53 95
REMARK H PARENT 3 13 77 45 43 56
REMARK Flexibility Score: inf
ROOT
ATOM      1  C   UNL     1       2.269   7.154   2.245  1.00  0.00     0.274 C 
ENDROOT
BRANCH   1   2
ATOM      2  O   UNL     1       2.545   5.971   1.464  1.00  0.00    -0.462 OA
BRANCH   2   3
ATOM      3  C   UNL     1       3.726   5.356   1.719  1.00  0.00     0.311 C 
ATOM      4  O   UNL     1       4.650   5.866   2.341  1.00  0.00    -0.252 OA
BRANCH   3   5
ATOM      5  C   UNL     1       3.821   3.959   1.149  1.00  0.00     0.123 C 
ATOM      6  N   UNL     1       2.730   2.138   0.065  1.00  0.00    -0.321 N 
ATOM      7  C   UNL     1       3.948   2.466  -0.652  1.00  0.00     0.122 C 
ATOM      8  C   UNL     1       2.641   2.966   1.288  1.00  0.00     0.098 C 
ATOM      9  C   UNL     1       4.166   3.931  -0.334  1.00  0.00     0.039 C 
ATOM     10  C   UNL     1       1.258   3.560   1.498  1.00  0.00     0.032 C 
BRANCH   6  11
ATOM     11  C   UNL     1       2.328   0.825   0.079  1.00  0.00     0.318 C 
ATOM     12  N   UNL     1       1.013   0.581  -0.162  1.00  0.00    -0.331 N 
ATOM     13  H   UNL     1       0.674  -0.304   0.105  1.00  0.00     0.165 HD
ATOM     14  O   UNL     1       3.104  -0.116   0.212  1.00  0.00    -0.249 OA
BRANCH  12  15
ATOM     15  C   UNL     1       0.052   1.485  -0.772  1.00  0.00     0.111 C 
ATOM     16  C   UNL     1       0.207   1.530  -2.291  1.00  0.00     0.036 C 
BRANCH  15  17
ATOM     17  C   UNL     1      -1.382   1.218  -0.349  1.00  0.00    -0.026 A 
ATOM     18  C   UNL     1      -2.237   2.317  -0.144  1.00  0.00     0.007 A 
ATOM     19  C   UNL     1      -1.905  -0.073  -0.171  1.00  0.00     0.007 A 
ATOM     20  C   UNL     1      -3.570   2.136   0.232  1.00  0.00     0.021 A 
ATOM     21  C   UNL     1      -3.238  -0.255   0.215  1.00  0.00     0.021 A 
ATOM     22  C   UNL     1      -4.065   0.849   0.410  1.00  0.00     0.041 A 
ATOM     23  Cl  UNL     1      -5.709   0.623   0.864  1.00  0.00    -0.084 Cl
ENDBRANCH  15  17
ENDBRANCH  12  15
ENDBRANCH   6  11
ENDBRANCH   3   5
ENDBRANCH   2   3
ENDBRANCH   1   2
BRANCH   1  24
ATOM     24  C   UNL     1       1.581   6.777   3.563  1.00  0.00     0.275 C 
BRANCH  24  25
ATOM     25  O   UNL     1       2.507   6.063   4.402  1.00  0.00    -0.458 OA
BRANCH  25  26
ATOM     26  C   UNL     1       2.085   4.893   4.933  1.00  0.00     0.338 C 
ATOM     27  O   UNL     1       0.984   4.385   4.843  1.00  0.00    -0.246 OA
BRANCH  26  28
ATOM     28  C   UNL     1       3.217   4.276   5.639  1.00  0.00     0.060 A 
ATOM     29  C   UNL     1       4.173   3.554   4.920  1.00  0.00     0.016 A 
ATOM     30  C   UNL     1       3.309   4.393   7.024  1.00  0.00     0.016 A 
ATOM     31  C   UNL     1       5.241   2.957   5.583  1.00  0.00     0.010 A 
ATOM     32  C   UNL     1       4.393   3.813   7.686  1.00  0.00     0.010 A 
ATOM     33  C   UNL     1       5.365   3.093   6.970  1.00  0.00    -0.014 A 
BRANCH  33  34
ATOM     34  C   UNL     1       6.506   2.473   7.681  1.00  0.00     0.031 A 
ATOM     35  C   UNL     1       6.278   1.271   8.549  1.00  0.00     0.074 A 
ATOM     36  C   UNL     1       7.737   3.003   7.555  1.00  0.00     0.049 A 
ATOM     37  N   UNL     1       7.108   0.666   9.357  1.00  0.00    -0.248 NA
ATOM     38  C   UNL     1       4.934   0.674   8.504  1.00  0.00     0.031 C 
ATOM     39  C   UNL     1       8.081   4.146   6.706  1.00  0.00     0.029 A 
ATOM     40  N   UNL     1       8.925   2.659   8.148  1.00  0.00    -0.354 N 
ATOM     41  C   UNL     1       6.384  -0.367   9.939  1.00  0.00     0.074 A 
ATOM     42  C   UNL     1       5.043  -0.301   9.396  1.00  0.00     0.031 C 
ATOM     43  C   UNL     1       9.391   4.410   6.835  1.00  0.00     0.029 A 
ATOM     44  C   UNL     1       9.966   3.492   7.814  1.00  0.00     0.049 A 
ATOM     45  H   UNL     1       9.023   1.890   8.754  1.00  0.00     0.167 HD
ATOM     46  C   UNL     1       6.803  -1.283  10.844  1.00  0.00     0.037 A 
ATOM     47  C   UNL     1      11.232   3.531   8.272  1.00  0.00     0.037 A 
ATOM     48  C   UNL     1       8.145  -1.344  11.363  1.00  0.00     0.049 A 
ATOM     49  C   UNL     1      11.663   2.533   9.311  1.00  0.00     0.074 A 
ATOM     50  C   UNL     1       8.677  -2.237  12.276  1.00  0.00     0.029 A 
ATOM     51  N   UNL     1       9.168  -0.474  11.014  1.00  0.00    -0.354 N 
ATOM     52  N   UNL     1      10.964   1.572   9.868  1.00  0.00    -0.248 NA
ATOM     53  C   UNL     1      13.047   2.628   9.792  1.00  0.00     0.031 C 
ATOM     54  C   UNL     1      10.012  -1.885  12.506  1.00  0.00     0.029 A 
ATOM     55  C   UNL     1      10.324  -0.797  11.706  1.00  0.00     0.049 A 
ATOM     56  H   UNL     1       9.085   0.265  10.368  1.00  0.00     0.167 HD
ATOM     57  C   UNL     1      11.825   0.941  10.757  1.00  0.00     0.074 A 
ATOM     58  C   UNL     1      13.102   1.620  10.652  1.00  0.00     0.031 C 
ATOM     59  C   UNL     1      11.582  -0.103  11.588  1.00  0.00     0.037 A 
BRANCH  46  60
ATOM     60  C   UNL     1       5.788  -2.266  11.354  1.00  0.00     0.058 A 
ATOM     61  C   UNL     1       5.323  -3.329  10.564  1.00  0.00     0.135 A 
ATOM     62  C   UNL     1       5.283  -2.150  12.659  1.00  0.00     0.135 A 
ATOM     63  F   UNL     1       5.759  -3.475   9.303  1.00  0.00    -0.206 F 
ATOM     64  C   UNL     1       4.371  -4.226  11.040  1.00  0.00     0.059 A 
ATOM     65  C   UNL     1       4.348  -3.049  13.164  1.00  0.00     0.059 A 
ATOM     66  F   UNL     1       5.693  -1.150  13.456  1.00  0.00    -0.206 F 
ATOM     67  C   UNL     1       3.886  -4.074  12.341  1.00  0.00     0.060 A 
BRANCH  67  68
ATOM     68  S   UNL     1       2.645  -5.238  12.945  1.00  0.00     0.124 S 
ATOM     69  O   UNL     1       1.447  -4.770  12.254  1.00  0.00    -0.237 OA
ATOM     70  O   UNL     1       3.173  -6.523  12.497  1.00  0.00    -0.237 OA
ATOM     71  O   UNL     1       2.657  -5.029  14.389  1.00  0.00    -0.744 OA
ENDBRANCH  67  68
ENDBRANCH  46  60
BRANCH  47  72
ATOM     72  C   UNL     1      12.168   4.572   7.770  1.00  0.00     0.058 A 
ATOM     73  C   UNL     1      13.232   4.240   6.920  1.00  0.00     0.135 A 
ATOM     74  C   UNL     1      11.996   5.925   8.107  1.00  0.00     0.135 A 
ATOM     75  F   UNL     1      13.444   2.960   6.579  1.00  0.00    -0.206 F 
ATOM     76  C   UNL     1      14.096   5.211   6.423  1.00  0.00     0.059 A 
ATOM     77  C   UNL     1      12.832   6.915   7.603  1.00  0.00     0.059 A 
ATOM     78  F   UNL     1      10.986   6.295   8.909  1.00  0.00    -0.206 F 
ATOM     79  C   UNL     1      13.885   6.548   6.766  1.00  0.00     0.060 A 
BRANCH  79  80
ATOM     80  S   UNL     1      14.968   7.809   6.061  1.00  0.00     0.124 S 
ATOM     81  O   UNL     1      16.175   7.641   6.863  1.00  0.00    -0.237 OA
ATOM     82  O   UNL     1      15.065   7.391   4.666  1.00  0.00    -0.237 OA
ATOM     83  O   UNL     1      14.228   9.048   6.284  1.00  0.00    -0.744 OA
ENDBRANCH  79  80
ENDBRANCH  47  72
BRANCH  59  84
ATOM     84  C   UNL     1      12.726  -0.584  12.434  1.00  0.00     0.058 A 
ATOM     85  C   UNL     1      13.150   0.128  13.566  1.00  0.00     0.135 A 
ATOM     86  C   UNL     1      13.376  -1.792  12.134  1.00  0.00     0.135 A 
ATOM     87  F   UNL     1      12.565   1.293  13.890  1.00  0.00    -0.206 F 
ATOM     88  C   UNL     1      14.193  -0.331  14.363  1.00  0.00     0.059 A 
ATOM     89  C   UNL     1      14.407  -2.281  12.929  1.00  0.00     0.059 A 
ATOM     90  F   UNL     1      13.001  -2.514  11.066  1.00  0.00    -0.206 F 
ATOM     91  C   UNL     1      14.816  -1.537  14.035  1.00  0.00     0.060 A 
BRANCH  91  92
ATOM     92  S   UNL     1      16.150  -2.140  15.093  1.00  0.00     0.124 S 
ATOM     93  O   UNL     1      17.261  -1.291  14.677  1.00  0.00    -0.237 OA
ATOM     94  O   UNL     1      15.628  -1.890  16.433  1.00  0.00    -0.237 OA
ATOM     95  O   UNL     1      16.262  -3.549  14.725  1.00  0.00    -0.744 OA
ENDBRANCH  91  92
ENDBRANCH  59  84
ENDBRANCH  33  34
ENDBRANCH  26  28
ENDBRANCH  25  26
ENDBRANCH  24  25
ENDBRANCH   1  24
TORSDOF 17
