REMARK SMILES CC(=O)NS(=O)(=O)c1ccc(-c2ccn(C(F)F)c(=O)c2)cc1C(=O)OCCOC(=O)c1ccc(-c2c3nc(c(-c4c(F)cc(S(=O)(=O)[O-])cc4F)c4ccc([nH]4)c(-c4c(F)cc(S(=O)(=O)[O-])cc4F)c4nc(c(-c5c(F)cc(S(=O)(=O)[O-])cc5F)c5ccc2[nH]5)C=C4)C=C3)cc1
REMARK SMILES IDX 28 1 27 2 26 3 24 4 25 5 23 6 8 7 9 8 10 9 22 10 11 11 5 12
REMARK SMILES IDX 6 13 7 14 4 15 1 16 2 17 3 18 12 20 13 21 21 22 14 23 19 24
REMARK SMILES IDX 15 25 20 26 16 27 17 28 18 29 29 30 30 31 31 32 32 33 33 34
REMARK SMILES IDX 97 35 34 36 96 37 35 38 36 39 37 40 90 41 38 42 95 43 89 44
REMARK SMILES IDX 91 45 39 46 94 47 88 48 87 49 40 51 74 52 53 53 73 54 54 55
REMARK SMILES IDX 57 56 72 57 92 58 55 59 56 60 71 62 93 63 58 64 41 65 42 66
REMARK SMILES IDX 51 67 43 68 44 69 50 70 52 71 45 72 46 73 47 74 48 75 49 76
REMARK SMILES IDX 75 77 76 78 85 79 77 80 78 81 84 82 86 83 79 84 80 85 81 86
REMARK SMILES IDX 82 87 83 88 59 89 60 90 69 91 61 92 62 93 68 94 70 95 63 96
REMARK SMILES IDX 64 97 65 98 66 99 67 100
REMARK H PARENT 4 19 91 50 57 61
REMARK Flexibility Score: inf
ROOT
ATOM      1  C   UNL     1      -2.646  -1.113  -0.673  1.00  0.00     0.275 C 
ENDROOT
BRANCH   1   2
ATOM      2  C   UNL     1      -1.864  -1.551  -1.911  1.00  0.00     0.275 C 
BRANCH   2   3
ATOM      3  O   UNL     1      -0.488  -1.127  -1.795  1.00  0.00    -0.458 OA
BRANCH   3   4
ATOM      4  C   UNL     1       0.055  -0.532  -2.881  1.00  0.00     0.339 C 
ATOM      5  O   UNL     1      -0.517  -0.245  -3.914  1.00  0.00    -0.246 OA
BRANCH   4   6
ATOM      6  C   UNL     1       1.436  -0.079  -2.585  1.00  0.00     0.081 A 
ATOM      7  C   UNL     1       2.442  -0.861  -2.015  1.00  0.00     0.102 A 
ATOM      8  C   UNL     1       3.732  -0.323  -1.842  1.00  0.00     0.024 A 
ATOM      9  C   UNL     1       3.990   1.019  -2.125  1.00  0.00     0.010 A 
ATOM     10  C   UNL     1       1.724   1.262  -2.912  1.00  0.00     0.025 A 
ATOM     11  C   UNL     1       2.974   1.829  -2.628  1.00  0.00    -0.017 A 
BRANCH   7  12
ATOM     12  S   UNL     1       2.199  -2.545  -1.538  1.00  0.00     0.264 S 
ATOM     13  O   UNL     1       3.466  -3.066  -1.079  1.00  0.00    -0.201 OA
ATOM     14  O   UNL     1       1.491  -3.199  -2.621  1.00  0.00    -0.201 OA
BRANCH  12  15
ATOM     15  N   UNL     1       1.186  -2.540  -0.237  1.00  0.00    -0.249 N 
ATOM     16  C   UNL     1       2.096  -0.671   1.155  1.00  0.00     0.115 C 
ATOM     17  C   UNL     1       1.272  -1.915   1.011  1.00  0.00     0.230 C 
ATOM     18  O   UNL     1       0.591  -2.358   1.927  1.00  0.00    -0.274 OA
ATOM     19  H   UNL     1       0.369  -3.075  -0.363  1.00  0.00     0.183 HD
ENDBRANCH  12  15
ENDBRANCH   7  12
BRANCH  11  20
ATOM     20  C   UNL     1       3.182   3.279  -2.776  1.00  0.00    -0.011 A 
ATOM     21  C   UNL     1       2.904   4.209  -1.697  1.00  0.00     0.027 A 
ATOM     22  C   UNL     1       3.624   3.752  -3.951  1.00  0.00     0.080 A 
ATOM     23  C   UNL     1       3.013   5.529  -1.892  1.00  0.00     0.095 A 
ATOM     24  C   UNL     1       3.807   5.218  -4.164  1.00  0.00     0.255 A 
ATOM     25  N   UNL     1       3.430   6.033  -3.109  1.00  0.00    -0.258 N 
ATOM     26  O   UNL     1       4.267   5.589  -5.238  1.00  0.00    -0.269 OA
BRANCH  25  27
ATOM     27  C   UNL     1       3.524   7.461  -3.314  1.00  0.00     0.451 C 
ATOM     28  F   UNL     1       4.818   7.824  -3.499  1.00  0.00    -0.185 F 
ATOM     29  F   UNL     1       2.825   7.833  -4.412  1.00  0.00    -0.185 F 
ENDBRANCH  25  27
ENDBRANCH  11  20
ENDBRANCH   4   6
ENDBRANCH   3   4
ENDBRANCH   2   3
ENDBRANCH   1   2
BRANCH   1  30
ATOM     30  O   UNL     1      -2.674   0.324  -0.613  1.00  0.00    -0.458 OA
BRANCH  30  31
ATOM     31  C   UNL     1      -1.859   0.884   0.308  1.00  0.00     0.338 C 
ATOM     32  O   UNL     1      -1.177   0.325   1.149  1.00  0.00    -0.246 OA
BRANCH  31  33
ATOM     33  C   UNL     1      -1.772   2.325   0.049  1.00  0.00     0.060 A 
ATOM     34  C   UNL     1      -0.986   2.737  -1.023  1.00  0.00     0.016 A 
ATOM     35  C   UNL     1      -2.347   3.257   0.907  1.00  0.00     0.016 A 
ATOM     36  C   UNL     1      -0.714   4.088  -1.210  1.00  0.00     0.010 A 
ATOM     37  C   UNL     1      -2.137   4.621   0.669  1.00  0.00     0.010 A 
ATOM     38  C   UNL     1      -1.297   5.052  -0.376  1.00  0.00    -0.014 A 
BRANCH  38  39
ATOM     39  C   UNL     1      -1.025   6.501  -0.592  1.00  0.00     0.031 A 
ATOM     40  C   UNL     1      -0.417   7.335   0.505  1.00  0.00     0.074 A 
ATOM     41  C   UNL     1      -1.326   7.078  -1.774  1.00  0.00     0.049 A 
ATOM     42  N   UNL     1      -0.270   8.633   0.571  1.00  0.00    -0.248 NA
ATOM     43  C   UNL     1       0.091   6.616   1.684  1.00  0.00     0.031 C 
ATOM     44  C   UNL     1      -1.882   6.385  -2.938  1.00  0.00     0.029 A 
ATOM     45  N   UNL     1      -1.214   8.382  -2.190  1.00  0.00    -0.354 N 
ATOM     46  C   UNL     1       0.280   8.895   1.821  1.00  0.00     0.074 A 
ATOM     47  C   UNL     1       0.460   7.615   2.474  1.00  0.00     0.031 C 
ATOM     48  C   UNL     1      -2.039   7.261  -3.941  1.00  0.00     0.029 A 
ATOM     49  C   UNL     1      -1.687   8.593  -3.465  1.00  0.00     0.049 A 
ATOM     50  H   UNL     1      -0.833   9.097  -1.630  1.00  0.00     0.167 HD
ATOM     51  C   UNL     1       0.595  10.091   2.375  1.00  0.00     0.037 A 
ATOM     52  C   UNL     1      -1.875   9.732  -4.160  1.00  0.00     0.037 A 
ATOM     53  C   UNL     1       0.444  11.359   1.707  1.00  0.00     0.049 A 
ATOM     54  C   UNL     1      -1.546  11.047  -3.516  1.00  0.00     0.074 A 
ATOM     55  C   UNL     1       0.762  12.622   2.176  1.00  0.00     0.029 A 
ATOM     56  N   UNL     1      -0.065  11.527   0.427  1.00  0.00    -0.354 N 
ATOM     57  N   UNL     1      -1.065  11.278  -2.317  1.00  0.00    -0.248 NA
ATOM     58  C   UNL     1      -1.806  12.257  -4.307  1.00  0.00     0.031 C 
ATOM     59  C   UNL     1       0.418  13.556   1.192  1.00  0.00     0.029 A 
ATOM     60  C   UNL     1      -0.077  12.872   0.094  1.00  0.00     0.049 A 
ATOM     61  H   UNL     1      -0.372  10.798  -0.158  1.00  0.00     0.167 HD
ATOM     62  C   UNL     1      -0.959  12.660  -2.213  1.00  0.00     0.074 A 
ATOM     63  C   UNL     1      -1.407  13.211  -3.476  1.00  0.00     0.031 C 
ATOM     64  C   UNL     1      -0.532  13.405  -1.165  1.00  0.00     0.037 A 
BRANCH  51  65
ATOM     65  C   UNL     1       1.104  10.094   3.790  1.00  0.00     0.058 A 
ATOM     66  C   UNL     1       2.398   9.658   4.115  1.00  0.00     0.135 A 
ATOM     67  C   UNL     1       0.294  10.575   4.832  1.00  0.00     0.135 A 
ATOM     68  F   UNL     1       3.206   9.171   3.160  1.00  0.00    -0.206 F 
ATOM     69  C   UNL     1       2.862   9.675   5.427  1.00  0.00     0.059 A 
ATOM     70  C   UNL     1       0.745  10.623   6.148  1.00  0.00     0.059 A 
ATOM     71  F   UNL     1      -0.952  11.004   4.576  1.00  0.00    -0.206 F 
ATOM     72  C   UNL     1       2.026  10.156   6.437  1.00  0.00     0.060 A 
BRANCH  72  73
ATOM     73  S   UNL     1       2.639  10.164   8.136  1.00  0.00     0.124 S 
ATOM     74  O   UNL     1       2.558   8.747   8.477  1.00  0.00    -0.237 OA
ATOM     75  O   UNL     1       3.986  10.702   7.981  1.00  0.00    -0.237 OA
ATOM     76  O   UNL     1       1.696  11.033   8.833  1.00  0.00    -0.744 OA
ENDBRANCH  72  73
ENDBRANCH  51  65
BRANCH  52  77
ATOM     77  C   UNL     1      -2.455   9.672  -5.528  1.00  0.00     0.058 A 
ATOM     78  C   UNL     1      -1.675   9.953  -6.657  1.00  0.00     0.135 A 
ATOM     79  C   UNL     1      -3.794   9.300  -5.732  1.00  0.00     0.135 A 
ATOM     80  F   UNL     1      -0.396  10.330  -6.511  1.00  0.00    -0.206 F 
ATOM     81  C   UNL     1      -2.199   9.866  -7.944  1.00  0.00     0.059 A 
ATOM     82  C   UNL     1      -4.333   9.180  -7.008  1.00  0.00     0.059 A 
ATOM     83  F   UNL     1      -4.579   9.010  -4.682  1.00  0.00    -0.206 F 
ATOM     84  C   UNL     1      -3.529   9.472  -8.108  1.00  0.00     0.060 A 
BRANCH  84  85
ATOM     85  S   UNL     1      -4.185   9.294  -9.781  1.00  0.00     0.124 S 
ATOM     86  O   UNL     1      -4.404  10.686 -10.159  1.00  0.00    -0.237 OA
ATOM     87  O   UNL     1      -3.097   8.608 -10.470  1.00  0.00    -0.237 OA
ATOM     88  O   UNL     1      -5.391   8.496  -9.582  1.00  0.00    -0.744 OA
ENDBRANCH  84  85
ENDBRANCH  52  77
BRANCH  64  89
ATOM     89  C   UNL     1      -0.508  14.896  -1.349  1.00  0.00     0.058 A 
ATOM     90  C   UNL     1      -1.686  15.658  -1.329  1.00  0.00     0.135 A 
ATOM     91  C   UNL     1       0.711  15.572  -1.516  1.00  0.00     0.135 A 
ATOM     92  F   UNL     1      -2.877  15.056  -1.180  1.00  0.00    -0.206 F 
ATOM     93  C   UNL     1      -1.658  17.039  -1.490  1.00  0.00     0.059 A 
ATOM     94  C   UNL     1       0.764  16.954  -1.657  1.00  0.00     0.059 A 
ATOM     95  F   UNL     1       1.866  14.887  -1.534  1.00  0.00    -0.206 F 
ATOM     96  C   UNL     1      -0.428  17.678  -1.655  1.00  0.00     0.060 A 
BRANCH  96  97
ATOM     97  S   UNL     1      -0.400  19.475  -1.835  1.00  0.00     0.124 S 
ATOM     98  O   UNL     1      -0.840  19.637  -3.216  1.00  0.00    -0.237 OA
ATOM     99  O   UNL     1      -1.347  19.908  -0.812  1.00  0.00    -0.237 OA
ATOM    100  O   UNL     1       0.994  19.819  -1.574  1.00  0.00    -0.744 OA
ENDBRANCH  96  97
ENDBRANCH  64  89
ENDBRANCH  38  39
ENDBRANCH  31  33
ENDBRANCH  30  31
ENDBRANCH   1  30
TORSDOF 18
