REMARK SMILES COc1cc2nc(SCC(=O)OCCOC(=O)c3ccc(-c4c5nc(c(-c6c(F)cc(S(=O)(=O)[O-])cc6F)c6ccc([nH]6)c(-c6c(F)cc(S(=O)(=O)[O-])cc6F)c6nc(c(-c7c(F)cc(S(=O)(=O)[O-])cc7F)c7ccc4[nH]7)C=C6)C=C5)cc3)nc(O)c2cc1OC
REMARK SMILES IDX 13 1 12 2 10 3 11 4 9 5 8 6 7 7 3 8 4 9 89 10 5 11 88 12
REMARK SMILES IDX 6 13 87 14 85 15 84 16 2 17 1 18 90 19 91 20 86 21 14 23
REMARK SMILES IDX 15 24 16 25 17 26 18 27 19 28 83 29 20 30 82 31 21 32 22 33
REMARK SMILES IDX 23 34 76 35 24 36 81 37 75 38 77 39 25 40 80 41 74 42 73 43
REMARK SMILES IDX 26 45 60 46 39 47 59 48 40 49 43 50 58 51 78 52 41 53 42 54
REMARK SMILES IDX 57 56 79 57 44 58 27 59 28 60 37 61 29 62 30 63 36 64 38 65
REMARK SMILES IDX 31 66 32 67 33 68 34 69 35 70 61 71 62 72 71 73 63 74 64 75
REMARK SMILES IDX 70 76 72 77 65 78 66 79 67 80 68 81 69 82 45 83 46 84 55 85
REMARK SMILES IDX 47 86 48 87 54 88 56 89 49 90 50 91 51 92 52 93 53 94
REMARK H PARENT 86 22 77 44 43 55
REMARK Flexibility Score: inf
ROOT
ATOM      1  C   UNL     1      -1.031  -9.169   2.599  1.00  0.00     0.274 C 
ENDROOT
BRANCH   1   2
ATOM      2  O   UNL     1      -1.487  -8.034   3.366  1.00  0.00    -0.461 OA
BRANCH   2   3
ATOM      3  C   UNL     1      -1.438  -8.174   4.715  1.00  0.00     0.316 C 
ATOM      4  O   UNL     1      -1.020  -9.182   5.282  1.00  0.00    -0.251 OA
BRANCH   3   5
ATOM      5  C   UNL     1      -1.976  -7.011   5.517  1.00  0.00     0.200 C 
BRANCH   5   6
ATOM      6  S   UNL     1      -2.604  -5.601   4.580  1.00  0.00    -0.074 SA
BRANCH   6   7
ATOM      7  C   UNL     1      -1.136  -4.632   4.321  1.00  0.00     0.192 A 
ATOM      8  C   UNL     1       0.712  -0.975   1.961  1.00  0.00     0.162 A 
ATOM      9  C   UNL     1      -0.387  -1.744   2.356  1.00  0.00     0.079 A 
ATOM     10  C   UNL     1       2.001  -1.285   2.407  1.00  0.00     0.161 A 
ATOM     11  C   UNL     1      -0.241  -2.837   3.194  1.00  0.00     0.083 A 
ATOM     12  C   UNL     1       2.147  -2.330   3.317  1.00  0.00     0.066 A 
ATOM     13  N   UNL     1      -1.307  -3.592   3.486  1.00  0.00    -0.222 NA
ATOM     14  C   UNL     1       1.022  -3.097   3.714  1.00  0.00     0.066 A 
ATOM     15  C   UNL     1       1.039  -4.134   4.636  1.00  0.00     0.223 A 
ATOM     16  N   UNL     1       0.001  -4.921   4.969  1.00  0.00    -0.187 NA
BRANCH   8  17
ATOM     17  O   UNL     1       0.434   0.120   1.182  1.00  0.00    -0.493 OA
ATOM     18  C   UNL     1       0.889  -0.063  -0.156  1.00  0.00     0.278 C 
ENDBRANCH   8  17
BRANCH  10  19
ATOM     19  O   UNL     1       3.034  -0.511   1.955  1.00  0.00    -0.493 OA
ATOM     20  C   UNL     1       4.316  -1.135   1.935  1.00  0.00     0.278 C 
ENDBRANCH  10  19
BRANCH  15  21
ATOM     21  O   UNL     1       2.182  -4.384   5.338  1.00  0.00    -0.493 OA
ATOM     22  H   UNL     1       2.205  -5.081   5.963  1.00  0.00     0.295 HD
ENDBRANCH  15  21
ENDBRANCH   6   7
ENDBRANCH   5   6
ENDBRANCH   3   5
ENDBRANCH   2   3
ENDBRANCH   1   2
BRANCH   1  23
ATOM     23  C   UNL     1       0.413  -8.988   2.140  1.00  0.00     0.275 C 
BRANCH  23  24
ATOM     24  O   UNL     1       1.281  -8.859   3.278  1.00  0.00    -0.458 OA
BRANCH  24  25
ATOM     25  C   UNL     1       1.825  -7.638   3.453  1.00  0.00     0.338 C 
ATOM     26  O   UNL     1       1.716  -6.662   2.720  1.00  0.00    -0.246 OA
BRANCH  25  27
ATOM     27  C   UNL     1       2.628  -7.632   4.681  1.00  0.00     0.060 A 
ATOM     28  C   UNL     1       4.014  -7.518   4.577  1.00  0.00     0.016 A 
ATOM     29  C   UNL     1       2.006  -7.615   5.934  1.00  0.00     0.016 A 
ATOM     30  C   UNL     1       4.780  -7.400   5.737  1.00  0.00     0.010 A 
ATOM     31  C   UNL     1       2.769  -7.435   7.088  1.00  0.00     0.010 A 
ATOM     32  C   UNL     1       4.164  -7.342   7.000  1.00  0.00    -0.014 A 
BRANCH  32  33
ATOM     33  C   UNL     1       4.994  -7.208   8.221  1.00  0.00     0.031 A 
ATOM     34  C   UNL     1       5.165  -8.382   9.143  1.00  0.00     0.074 A 
ATOM     35  C   UNL     1       5.622  -6.045   8.479  1.00  0.00     0.049 A 
ATOM     36  N   UNL     1       5.968  -8.513  10.167  1.00  0.00    -0.248 NA
ATOM     37  C   UNL     1       4.321  -9.561   8.886  1.00  0.00     0.031 C 
ATOM     38  C   UNL     1       5.497  -4.820   7.686  1.00  0.00     0.029 A 
ATOM     39  N   UNL     1       6.508  -5.709   9.473  1.00  0.00    -0.354 N 
ATOM     40  C   UNL     1       5.759  -9.799  10.648  1.00  0.00     0.074 A 
ATOM     41  C   UNL     1       4.695 -10.380   9.859  1.00  0.00     0.031 C 
ATOM     42  C   UNL     1       6.309  -3.880   8.200  1.00  0.00     0.029 A 
ATOM     43  C   UNL     1       7.008  -4.433   9.358  1.00  0.00     0.049 A 
ATOM     44  H   UNL     1       6.762  -6.324  10.199  1.00  0.00     0.167 HD
ATOM     45  C   UNL     1       6.423 -10.454  11.628  1.00  0.00     0.037 A 
ATOM     46  C   UNL     1       7.946  -3.796  10.085  1.00  0.00     0.037 A 
ATOM     47  C   UNL     1       7.472  -9.873  12.421  1.00  0.00     0.049 A 
ATOM     48  C   UNL     1       8.635  -4.528  11.206  1.00  0.00     0.074 A 
ATOM     49  C   UNL     1       8.218 -10.460  13.427  1.00  0.00     0.029 A 
ATOM     50  N   UNL     1       7.920  -8.566  12.300  1.00  0.00    -0.354 N 
ATOM     51  N   UNL     1       8.480  -5.771  11.596  1.00  0.00    -0.248 NA
ATOM     52  C   UNL     1       9.635  -3.775  11.977  1.00  0.00     0.031 C 
ATOM     53  C   UNL     1       9.100  -9.498  13.934  1.00  0.00     0.029 A 
ATOM     54  C   UNL     1       8.923  -8.323  13.222  1.00  0.00     0.049 A 
ATOM     55  H   UNL     1       7.576  -7.909  11.653  1.00  0.00     0.167 HD
ATOM     56  C   UNL     1       9.383  -5.957  12.637  1.00  0.00     0.074 A 
ATOM     57  C   UNL     1      10.084  -4.701  12.814  1.00  0.00     0.031 C 
ATOM     58  C   UNL     1       9.615  -7.069  13.377  1.00  0.00     0.037 A 
BRANCH  45  59
ATOM     59  C   UNL     1       6.058 -11.890  11.864  1.00  0.00     0.058 A 
ATOM     60  C   UNL     1       6.448 -12.889  10.957  1.00  0.00     0.135 A 
ATOM     61  C   UNL     1       5.349 -12.282  13.009  1.00  0.00     0.135 A 
ATOM     62  F   UNL     1       7.113 -12.562   9.837  1.00  0.00    -0.206 F 
ATOM     63  C   UNL     1       6.131 -14.225  11.167  1.00  0.00     0.059 A 
ATOM     64  C   UNL     1       5.038 -13.618  13.250  1.00  0.00     0.059 A 
ATOM     65  F   UNL     1       4.949 -11.365  13.904  1.00  0.00    -0.206 F 
ATOM     66  C   UNL     1       5.424 -14.580  12.317  1.00  0.00     0.060 A 
BRANCH  66  67
ATOM     67  S   UNL     1       5.029 -16.322  12.576  1.00  0.00     0.124 S 
ATOM     68  O   UNL     1       3.983 -16.534  11.580  1.00  0.00    -0.237 OA
ATOM     69  O   UNL     1       6.305 -16.976  12.302  1.00  0.00    -0.237 OA
ATOM     70  O   UNL     1       4.590 -16.368  13.967  1.00  0.00    -0.744 OA
ENDBRANCH  66  67
ENDBRANCH  45  59
BRANCH  46  71
ATOM     71  C   UNL     1       8.343  -2.406   9.739  1.00  0.00     0.058 A 
ATOM     72  C   UNL     1       9.579  -2.146   9.131  1.00  0.00     0.135 A 
ATOM     73  C   UNL     1       7.504  -1.317  10.014  1.00  0.00     0.135 A 
ATOM     74  F   UNL     1      10.417  -3.157   8.854  1.00  0.00    -0.206 F 
ATOM     75  C   UNL     1       9.981  -0.851   8.823  1.00  0.00     0.059 A 
ATOM     76  C   UNL     1       7.875  -0.013   9.699  1.00  0.00     0.059 A 
ATOM     77  F   UNL     1       6.306  -1.517  10.584  1.00  0.00    -0.206 F 
ATOM     78  C   UNL     1       9.122   0.211   9.113  1.00  0.00     0.060 A 
BRANCH  78  79
ATOM     79  S   UNL     1       9.642   1.885   8.681  1.00  0.00     0.124 S 
ATOM     80  O   UNL     1      10.659   2.147   9.693  1.00  0.00    -0.237 OA
ATOM     81  O   UNL     1      10.129   1.712   7.316  1.00  0.00    -0.237 OA
ATOM     82  O   UNL     1       8.412   2.661   8.806  1.00  0.00    -0.744 OA
ENDBRANCH  78  79
ENDBRANCH  46  71
BRANCH  58  83
ATOM     83  C   UNL     1      10.679  -6.992  14.433  1.00  0.00     0.058 A 
ATOM     84  C   UNL     1      10.451  -6.341  15.654  1.00  0.00     0.135 A 
ATOM     85  C   UNL     1      11.909  -7.646  14.254  1.00  0.00     0.135 A 
ATOM     86  F   UNL     1       9.293  -5.697  15.870  1.00  0.00    -0.206 F 
ATOM     87  C   UNL     1      11.409  -6.334  16.662  1.00  0.00     0.059 A 
ATOM     88  C   UNL     1      12.874  -7.668  15.255  1.00  0.00     0.059 A 
ATOM     89  F   UNL     1      12.171  -8.290  13.105  1.00  0.00    -0.206 F 
ATOM     90  C   UNL     1      12.617  -7.005  16.454  1.00  0.00     0.060 A 
BRANCH  90  91
ATOM     91  S   UNL     1      13.828  -7.039  17.793  1.00  0.00     0.124 S 
ATOM     92  O   UNL     1      14.370  -5.686  17.733  1.00  0.00    -0.237 OA
ATOM     93  O   UNL     1      13.000  -7.339  18.957  1.00  0.00    -0.237 OA
ATOM     94  O   UNL     1      14.745  -8.103  17.394  1.00  0.00    -0.744 OA
ENDBRANCH  90  91
ENDBRANCH  58  83
ENDBRANCH  32  33
ENDBRANCH  25  27
ENDBRANCH  24  25
ENDBRANCH  23  24
ENDBRANCH   1  23
TORSDOF 19
