REMARK SMILES O=C(CCN1C(=O)/C(=C/C=C/c2ccco2)SC1=S)Nc1ccc(C(=O)OCCOC(=O)c2ccc(-c3c4nc(c(-c5c(F)cc(S(=O)(=O)[O-])cc5F)c5ccc([nH]5)c(-c5c(F)cc(S(=O)(=O)[O-])cc5F)c5nc(c(-c6c(F)cc(S(=O)(=O)[O-])cc6F)c6ccc3[nH]6)C=C5)C=C4)cc2)c(O)c1
REMARK SMILES IDX 27 1 25 2 26 3 24 4 21 5 22 6 101 7 23 8 99 9 20 10 1 11
REMARK SMILES IDX 2 12 3 14 4 15 5 16 6 17 18 18 7 19 8 20 17 21 19 22 9 23
REMARK SMILES IDX 10 24 11 25 12 26 13 27 16 28 14 29 15 30 100 31 28 33 29 34
REMARK SMILES IDX 30 35 31 36 32 37 33 38 34 39 98 40 35 41 97 42 36 43 37 44
REMARK SMILES IDX 38 45 91 46 39 47 96 48 90 49 92 50 40 51 95 52 89 53 88 54
REMARK SMILES IDX 41 56 75 57 54 58 74 59 55 60 58 61 73 62 93 63 56 64 57 65
REMARK SMILES IDX 72 67 94 68 59 69 42 70 43 71 52 72 44 73 45 74 51 75 53 76
REMARK SMILES IDX 46 77 47 78 48 79 49 80 50 81 76 82 77 83 86 84 78 85 79 86
REMARK SMILES IDX 85 87 87 88 80 89 81 90 82 91 83 92 84 93 60 94 61 95 70 96
REMARK SMILES IDX 62 97 63 98 69 99 71 100 64 101 65 102 66 103 67 104 68 105
REMARK H PARENT 20 13 100 32 92 55 58 66
REMARK Flexibility Score: inf
ROOT
ATOM      1  O   UNL     1       0.302   6.072   3.302  1.00  0.00    -0.458 OA
ENDROOT
BRANCH   1   2
ATOM      2  C   UNL     1       0.628   4.934   3.978  1.00  0.00     0.342 C 
ATOM      3  O   UNL     1       0.349   4.673   5.128  1.00  0.00    -0.246 OA
BRANCH   2   4
ATOM      4  C   UNL     1       1.289   3.975   3.058  1.00  0.00     0.101 A 
ATOM      5  C   UNL     1       2.362   2.041   1.341  1.00  0.00     0.044 A 
ATOM      6  C   UNL     1       1.506   1.652   2.362  1.00  0.00     0.027 A 
ATOM      7  C   UNL     1       2.721   3.387   1.205  1.00  0.00     0.073 A 
ATOM      8  C   UNL     1       1.028   2.611   3.254  1.00  0.00     0.022 A 
ATOM      9  C   UNL     1       2.147   4.356   2.027  1.00  0.00     0.132 A 
BRANCH   5  10
ATOM     10  N   UNL     1       2.942   1.113   0.469  1.00  0.00    -0.326 N 
ATOM     11  O   UNL     1       1.214  -0.400   0.229  1.00  0.00    -0.275 OA
ATOM     12  C   UNL     1       2.372  -0.055   0.015  1.00  0.00     0.226 C 
ATOM     13  H   UNL     1       3.850   1.316   0.148  1.00  0.00     0.169 HD
BRANCH  12  14
ATOM     14  C   UNL     1       3.327  -0.963  -0.744  1.00  0.00     0.122 C 
BRANCH  14  15
ATOM     15  C   UNL     1       4.125  -0.325  -1.890  1.00  0.00     0.137 C 
BRANCH  15  16
ATOM     16  N   UNL     1       5.236   0.547  -1.457  1.00  0.00    -0.292 N 
ATOM     17  C   UNL     1       5.144   1.917  -1.655  1.00  0.00     0.266 C 
ATOM     18  C   UNL     1       6.418   0.097  -0.896  1.00  0.00     0.148 C 
ATOM     19  O   UNL     1       4.227   2.501  -2.212  1.00  0.00    -0.268 OA
ATOM     20  C   UNL     1       6.249   2.614  -0.950  1.00  0.00     0.080 C 
ATOM     21  S   UNL     1       7.408   1.470  -0.412  1.00  0.00    -0.054 SA
ATOM     22  S   UNL     1       6.925  -1.474  -0.663  1.00  0.00    -0.052 S 
ATOM     23  C   UNL     1       6.195   3.929  -0.692  1.00  0.00     0.021 C 
BRANCH  23  24
ATOM     24  C   UNL     1       7.161   4.685   0.078  1.00  0.00     0.005 C 
ATOM     25  C   UNL     1       6.969   5.959   0.457  1.00  0.00     0.047 C 
BRANCH  25  26
ATOM     26  C   UNL     1       7.954   6.672   1.197  1.00  0.00     0.126 A 
ATOM     27  C   UNL     1       9.326   6.465   1.316  1.00  0.00     0.050 A 
ATOM     28  O   UNL     1       7.646   7.785   1.950  1.00  0.00    -0.465 OA
ATOM     29  C   UNL     1       9.850   7.460   2.172  1.00  0.00     0.042 A 
ATOM     30  C   UNL     1       8.780   8.234   2.539  1.00  0.00     0.195 A 
ENDBRANCH  25  26
ENDBRANCH  23  24
ENDBRANCH  15  16
ENDBRANCH  14  15
ENDBRANCH  12  14
ENDBRANCH   5  10
BRANCH   9  31
ATOM     31  O   UNL     1       2.484   5.654   1.756  1.00  0.00    -0.507 OA
ATOM     32  H   UNL     1       2.129   6.348   2.275  1.00  0.00     0.293 HD
ENDBRANCH   9  31
ENDBRANCH   2   4
ENDBRANCH   1   2
BRANCH   1  33
ATOM     33  C   UNL     1      -0.539   6.999   4.021  1.00  0.00     0.275 C 
BRANCH  33  34
ATOM     34  C   UNL     1      -1.998   6.879   3.579  1.00  0.00     0.275 C 
BRANCH  34  35
ATOM     35  O   UNL     1      -2.526   5.593   3.952  1.00  0.00    -0.458 OA
BRANCH  35  36
ATOM     36  C   UNL     1      -2.948   4.814   2.929  1.00  0.00     0.338 C 
ATOM     37  O   UNL     1      -2.962   5.101   1.743  1.00  0.00    -0.246 OA
BRANCH  36  38
ATOM     38  C   UNL     1      -3.359   3.492   3.431  1.00  0.00     0.060 A 
ATOM     39  C   UNL     1      -2.397   2.668   4.001  1.00  0.00     0.016 A 
ATOM     40  C   UNL     1      -4.634   2.994   3.182  1.00  0.00     0.016 A 
ATOM     41  C   UNL     1      -2.649   1.309   4.184  1.00  0.00     0.010 A 
ATOM     42  C   UNL     1      -4.929   1.660   3.498  1.00  0.00     0.010 A 
ATOM     43  C   UNL     1      -3.925   0.779   3.949  1.00  0.00    -0.014 A 
BRANCH  43  44
ATOM     44  C   UNL     1      -4.196  -0.685   4.118  1.00  0.00     0.031 A 
ATOM     45  C   UNL     1      -4.817  -1.477   2.988  1.00  0.00     0.074 A 
ATOM     46  C   UNL     1      -3.882  -1.327   5.264  1.00  0.00     0.049 A 
ATOM     47  N   UNL     1      -5.337  -2.679   3.004  1.00  0.00    -0.248 NA
ATOM     48  C   UNL     1      -4.882  -0.821   1.673  1.00  0.00     0.031 C 
ATOM     49  C   UNL     1      -3.234  -0.724   6.431  1.00  0.00     0.029 A 
ATOM     50  N   UNL     1      -4.063  -2.639   5.638  1.00  0.00    -0.354 N 
ATOM     51  C   UNL     1      -5.856  -2.890   1.730  1.00  0.00     0.074 A 
ATOM     52  C   UNL     1      -5.589  -1.691   0.966  1.00  0.00     0.031 C 
ATOM     53  C   UNL     1      -3.028  -1.666   7.363  1.00  0.00     0.029 A 
ATOM     54  C   UNL     1      -3.625  -2.918   6.912  1.00  0.00     0.049 A 
ATOM     55  H   UNL     1      -4.468  -3.316   5.048  1.00  0.00     0.167 HD
ATOM     56  C   UNL     1      -6.494  -3.982   1.241  1.00  0.00     0.037 A 
ATOM     57  C   UNL     1      -3.732  -4.032   7.664  1.00  0.00     0.037 A 
ATOM     58  C   UNL     1      -6.681  -5.208   1.977  1.00  0.00     0.049 A 
ATOM     59  C   UNL     1      -4.453  -5.228   7.109  1.00  0.00     0.074 A 
ATOM     60  C   UNL     1      -7.295  -6.377   1.560  1.00  0.00     0.029 A 
ATOM     61  N   UNL     1      -6.231  -5.434   3.269  1.00  0.00    -0.354 N 
ATOM     62  N   UNL     1      -5.008  -5.381   5.931  1.00  0.00    -0.248 NA
ATOM     63  C   UNL     1      -4.583  -6.395   7.993  1.00  0.00     0.031 C 
ATOM     64  C   UNL     1      -7.245  -7.298   2.612  1.00  0.00     0.029 A 
ATOM     65  C   UNL     1      -6.562  -6.719   3.669  1.00  0.00     0.049 A 
ATOM     66  H   UNL     1      -5.748  -4.777   3.822  1.00  0.00     0.167 HD
ATOM     67  C   UNL     1      -5.542  -6.665   5.927  1.00  0.00     0.074 A 
ATOM     68  C   UNL     1      -5.228  -7.252   7.213  1.00  0.00     0.031 C 
ATOM     69  C   UNL     1      -6.235  -7.296   4.948  1.00  0.00     0.037 A 
BRANCH  56  70
ATOM     70  C   UNL     1      -7.072  -3.897  -0.148  1.00  0.00     0.058 A 
ATOM     71  C   UNL     1      -6.268  -3.904  -1.298  1.00  0.00     0.135 A 
ATOM     72  C   UNL     1      -8.465  -3.847  -0.328  1.00  0.00     0.135 A 
ATOM     73  F   UNL     1      -4.930  -3.939  -1.187  1.00  0.00    -0.206 F 
ATOM     74  C   UNL     1      -6.821  -3.832  -2.574  1.00  0.00     0.059 A 
ATOM     75  C   UNL     1      -9.041  -3.803  -1.594  1.00  0.00     0.059 A 
ATOM     76  F   UNL     1      -9.284  -3.844   0.736  1.00  0.00    -0.206 F 
ATOM     77  C   UNL     1      -8.209  -3.779  -2.712  1.00  0.00     0.060 A 
BRANCH  77  78
ATOM     78  S   UNL     1      -8.915  -3.688  -4.372  1.00  0.00     0.124 S 
ATOM     79  O   UNL     1      -8.633  -2.302  -4.733  1.00  0.00    -0.237 OA
ATOM     80  O   UNL     1      -8.149  -4.698  -5.095  1.00  0.00    -0.237 OA
ATOM     81  O   UNL     1     -10.323  -4.007  -4.162  1.00  0.00    -0.744 OA
ENDBRANCH  77  78
ENDBRANCH  56  70
BRANCH  57  82
ATOM     82  C   UNL     1      -3.185  -4.047   9.049  1.00  0.00     0.058 A 
ATOM     83  C   UNL     1      -2.072  -4.833   9.379  1.00  0.00     0.135 A 
ATOM     84  C   UNL     1      -3.752  -3.260  10.064  1.00  0.00     0.135 A 
ATOM     85  F   UNL     1      -1.503  -5.615   8.449  1.00  0.00    -0.206 F 
ATOM     86  C   UNL     1      -1.542  -4.843  10.666  1.00  0.00     0.059 A 
ATOM     87  C   UNL     1      -3.222  -3.229  11.350  1.00  0.00     0.059 A 
ATOM     88  F   UNL     1      -4.813  -2.482   9.799  1.00  0.00    -0.206 F 
ATOM     89  C   UNL     1      -2.122  -4.032  11.644  1.00  0.00     0.060 A 
BRANCH  89  90
ATOM     90  S   UNL     1      -1.390  -4.000  13.295  1.00  0.00     0.124 S 
ATOM     91  O   UNL     1      -1.851  -5.270  13.844  1.00  0.00    -0.237 OA
ATOM     92  O   UNL     1       0.036  -3.912  12.999  1.00  0.00    -0.237 OA
ATOM     93  O   UNL     1      -1.972  -2.803  13.896  1.00  0.00    -0.744 OA
ENDBRANCH  89  90
ENDBRANCH  57  82
BRANCH  69  94
ATOM     94  C   UNL     1      -6.669  -8.710   5.213  1.00  0.00     0.058 A 
ATOM     95  C   UNL     1      -7.732  -9.005   6.081  1.00  0.00     0.135 A 
ATOM     96  C   UNL     1      -6.039  -9.781   4.559  1.00  0.00     0.135 A 
ATOM     97  F   UNL     1      -8.362  -8.018   6.737  1.00  0.00    -0.206 F 
ATOM     98  C   UNL     1      -8.142 -10.315   6.308  1.00  0.00     0.059 A 
ATOM     99  C   UNL     1      -6.447 -11.096   4.752  1.00  0.00     0.059 A 
ATOM    100  F   UNL     1      -5.022  -9.552   3.713  1.00  0.00    -0.206 F 
ATOM    101  C   UNL     1      -7.493 -11.355   5.638  1.00  0.00     0.060 A 
BRANCH 101 102
ATOM    102  S   UNL     1      -8.051 -13.049   5.918  1.00  0.00     0.124 S 
ATOM    103  O   UNL     1      -7.505 -13.323   7.243  1.00  0.00    -0.237 OA
ATOM    104  O   UNL     1      -9.503 -12.916   5.846  1.00  0.00    -0.237 OA
ATOM    105  O   UNL     1      -7.441 -13.793   4.820  1.00  0.00    -0.744 OA
ENDBRANCH 101 102
ENDBRANCH  69  94
ENDBRANCH  43  44
ENDBRANCH  36  38
ENDBRANCH  35  36
ENDBRANCH  34  35
ENDBRANCH  33  34
ENDBRANCH   1  33
TORSDOF 21
