REMARK SMILES O=C(C[NH+]1CCN(c2cc(-c3ccccc3)nc(-c3ccccc3F)n2)CC1)OCCOC(=O)c1ccc(-c2c3nc(c(-c4c(F)cc(S(=O)(=O)[O-])cc4F)c4ccc([nH]4)c(-c4c(F)cc(S(=O)(=O)[O-])cc4F)c4nc(c(-c5c(F)cc(S(=O)(=O)[O-])cc5F)c5ccc2[nH]5)C=C4)C=C3)cc1
REMARK SMILES IDX 30 1 29 2 2 3 1 4 3 5 4 6 5 7 28 8 6 10 27 11 7 12 8 13 9 14
REMARK SMILES IDX 26 15 10 16 18 17 17 18 11 19 12 20 16 21 13 22 15 23 14 24
REMARK SMILES IDX 19 25 20 26 24 27 21 28 23 29 25 30 22 31 31 32 32 33 33 34
REMARK SMILES IDX 34 35 35 36 36 37 100 38 37 39 99 40 38 41 39 42 40 43 93 44
REMARK SMILES IDX 41 45 98 46 92 47 94 48 42 49 97 50 91 51 90 52 43 54 77 55
REMARK SMILES IDX 56 56 76 57 57 58 60 59 75 60 95 61 58 62 59 63 74 65 96 66
REMARK SMILES IDX 61 67 44 68 45 69 54 70 46 71 47 72 53 73 55 74 48 75 49 76
REMARK SMILES IDX 50 77 51 78 52 79 78 80 79 81 88 82 80 83 81 84 87 85 89 86
REMARK SMILES IDX 82 87 83 88 84 89 85 90 86 91 62 92 63 93 72 94 64 95 65 96
REMARK SMILES IDX 71 97 73 98 66 99 67 100 68 101 69 102 70 103
REMARK H PARENT 4 9 94 53 60 64
REMARK Flexibility Score: inf
ROOT
ATOM      1  C   UNL     1       4.100   0.285  -1.343  1.00  0.00     0.274 C 
ENDROOT
BRANCH   1   2
ATOM      2  O   UNL     1       2.762   0.054  -0.853  1.00  0.00    -0.458 OA
BRANCH   2   3
ATOM      3  C   UNL     1       2.361   0.118   0.443  1.00  0.00     0.361 C 
ATOM      4  O   UNL     1       1.184  -0.111   0.719  1.00  0.00    -0.245 OA
BRANCH   3   5
ATOM      5  C   UNL     1       3.369   0.495   1.525  1.00  0.00     0.386 C 
BRANCH   5   6
ATOM      6  N   UNL     1       3.878  -0.593   2.375  1.00  0.00    -0.323 N 
ATOM      7  C   UNL     1       2.853  -1.239   3.230  1.00  0.00     0.284 C 
ATOM      8  C   UNL     1       4.705  -1.593   1.692  1.00  0.00     0.284 C 
ATOM      9  H   UNL     1       4.508  -0.088   2.998  1.00  0.00     0.348 HD
ATOM     10  C   UNL     1       2.086  -2.462   2.646  1.00  0.00     0.179 C 
ATOM     11  C   UNL     1       3.907  -2.680   0.957  1.00  0.00     0.179 C 
ATOM     12  N   UNL     1       3.013  -3.318   1.908  1.00  0.00    -0.345 N 
BRANCH  12  13
ATOM     13  C   UNL     1       2.977  -4.679   2.060  1.00  0.00     0.133 A 
ATOM     14  C   UNL     1       4.153  -5.387   2.094  1.00  0.00     0.076 A 
ATOM     15  N   UNL     1       1.802  -5.298   2.202  1.00  0.00    -0.211 NA
ATOM     16  C   UNL     1       4.090  -6.754   2.250  1.00  0.00     0.076 A 
ATOM     17  C   UNL     1       1.820  -6.638   2.347  1.00  0.00     0.165 A 
ATOM     18  N   UNL     1       2.923  -7.413   2.346  1.00  0.00    -0.228 NA
BRANCH  16  19
ATOM     19  C   UNL     1       5.341  -7.519   2.289  1.00  0.00     0.000 A 
ATOM     20  C   UNL     1       5.599  -8.536   1.361  1.00  0.00     0.010 A 
ATOM     21  C   UNL     1       6.367  -7.159   3.186  1.00  0.00     0.010 A 
ATOM     22  C   UNL     1       6.856  -9.146   1.304  1.00  0.00     0.001 A 
ATOM     23  C   UNL     1       7.620  -7.769   3.132  1.00  0.00     0.001 A 
ATOM     24  C   UNL     1       7.866  -8.756   2.184  1.00  0.00     0.000 A 
ENDBRANCH  16  19
BRANCH  17  25
ATOM     25  C   UNL     1       0.516  -7.277   2.486  1.00  0.00     0.055 A 
ATOM     26  C   UNL     1      -0.495  -7.079   1.525  1.00  0.00     0.015 A 
ATOM     27  C   UNL     1       0.204  -8.047   3.609  1.00  0.00     0.134 A 
ATOM     28  C   UNL     1      -1.766  -7.640   1.687  1.00  0.00     0.001 A 
ATOM     29  C   UNL     1      -1.065  -8.600   3.784  1.00  0.00     0.040 A 
ATOM     30  F   UNL     1       1.113  -8.240   4.577  1.00  0.00    -0.206 F 
ATOM     31  C   UNL     1      -2.052  -8.398   2.821  1.00  0.00     0.003 A 
ENDBRANCH  17  25
ENDBRANCH  12  13
ENDBRANCH   5   6
ENDBRANCH   3   5
ENDBRANCH   2   3
ENDBRANCH   1   2
BRANCH   1  32
ATOM     32  C   UNL     1       4.343   1.732  -1.772  1.00  0.00     0.275 C 
BRANCH  32  33
ATOM     33  O   UNL     1       3.928   2.638  -0.742  1.00  0.00    -0.458 OA
BRANCH  33  34
ATOM     34  C   UNL     1       2.652   3.086  -0.877  1.00  0.00     0.338 C 
ATOM     35  O   UNL     1       1.934   2.942  -1.852  1.00  0.00    -0.246 OA
BRANCH  34  36
ATOM     36  C   UNL     1       2.180   3.594   0.427  1.00  0.00     0.060 A 
ATOM     37  C   UNL     1       0.867   3.287   0.804  1.00  0.00     0.016 A 
ATOM     38  C   UNL     1       3.007   4.332   1.282  1.00  0.00     0.016 A 
ATOM     39  C   UNL     1       0.358   3.767   2.007  1.00  0.00     0.010 A 
ATOM     40  C   UNL     1       2.494   4.815   2.489  1.00  0.00     0.010 A 
ATOM     41  C   UNL     1       1.154   4.570   2.834  1.00  0.00    -0.014 A 
BRANCH  41  42
ATOM     42  C   UNL     1       0.512   5.307   3.947  1.00  0.00     0.031 A 
ATOM     43  C   UNL     1       0.050   6.717   3.696  1.00  0.00     0.074 A 
ATOM     44  C   UNL     1       0.291   4.721   5.137  1.00  0.00     0.049 A 
ATOM     45  N   UNL     1      -0.616   7.524   4.479  1.00  0.00    -0.248 NA
ATOM     46  C   UNL     1       0.384   7.292   2.381  1.00  0.00     0.031 C 
ATOM     47  C   UNL     1       0.694   3.363   5.502  1.00  0.00     0.029 A 
ATOM     48  N   UNL     1      -0.334   5.201   6.259  1.00  0.00    -0.354 N 
ATOM     49  C   UNL     1      -0.808   8.687   3.744  1.00  0.00     0.074 A 
ATOM     50  C   UNL     1      -0.136   8.507   2.476  1.00  0.00     0.031 C 
ATOM     51  C   UNL     1       0.314   3.124   6.770  1.00  0.00     0.029 A 
ATOM     52  C   UNL     1      -0.359   4.308   7.303  1.00  0.00     0.049 A 
ATOM     53  H   UNL     1      -0.727   6.102   6.312  1.00  0.00     0.167 HD
ATOM     54  C   UNL     1      -1.506   9.797   4.081  1.00  0.00     0.037 A 
ATOM     55  C   UNL     1      -0.870   4.436   8.543  1.00  0.00     0.037 A 
ATOM     56  C   UNL     1      -2.155   9.988   5.351  1.00  0.00     0.049 A 
ATOM     57  C   UNL     1      -1.602   5.700   8.915  1.00  0.00     0.074 A 
ATOM     58  C   UNL     1      -2.881  11.079   5.793  1.00  0.00     0.029 A 
ATOM     59  N   UNL     1      -2.148   9.066   6.386  1.00  0.00    -0.354 N 
ATOM     60  N   UNL     1      -1.820   6.774   8.192  1.00  0.00    -0.248 NA
ATOM     61  C   UNL     1      -2.176   5.762  10.267  1.00  0.00     0.031 C 
ATOM     62  C   UNL     1      -3.283  10.832   7.111  1.00  0.00     0.029 A 
ATOM     63  C   UNL     1      -2.844   9.569   7.473  1.00  0.00     0.049 A 
ATOM     64  H   UNL     1      -1.713   8.183   6.354  1.00  0.00     0.167 HD
ATOM     65  C   UNL     1      -2.575   7.627   8.992  1.00  0.00     0.074 A 
ATOM     66  C   UNL     1      -2.791   6.936  10.247  1.00  0.00     0.031 C 
ATOM     67  C   UNL     1      -3.047   8.868   8.716  1.00  0.00     0.037 A 
BRANCH  54  68
ATOM     68  C   UNL     1      -1.602  10.886   3.052  1.00  0.00     0.058 A 
ATOM     69  C   UNL     1      -2.404  10.739   1.908  1.00  0.00     0.135 A 
ATOM     70  C   UNL     1      -0.902  12.091   3.212  1.00  0.00     0.135 A 
ATOM     71  F   UNL     1      -3.075   9.595   1.695  1.00  0.00    -0.206 F 
ATOM     72  C   UNL     1      -2.492  11.741   0.949  1.00  0.00     0.059 A 
ATOM     73  C   UNL     1      -0.994  13.117   2.276  1.00  0.00     0.059 A 
ATOM     74  F   UNL     1      -0.115  12.279   4.283  1.00  0.00    -0.206 F 
ATOM     75  C   UNL     1      -1.782  12.927   1.141  1.00  0.00     0.060 A 
BRANCH  75  76
ATOM     76  S   UNL     1      -1.910  14.221  -0.111  1.00  0.00     0.124 S 
ATOM     77  O   UNL     1      -1.103  13.661  -1.191  1.00  0.00    -0.237 OA
ATOM     78  O   UNL     1      -3.347  14.277  -0.357  1.00  0.00    -0.237 OA
ATOM     79  O   UNL     1      -1.345  15.392   0.552  1.00  0.00    -0.744 OA
ENDBRANCH  75  76
ENDBRANCH  54  68
BRANCH  55  80
ATOM     80  C   UNL     1      -0.716   3.334   9.530  1.00  0.00     0.058 A 
ATOM     81  C   UNL     1      -1.813   2.564   9.943  1.00  0.00     0.135 A 
ATOM     82  C   UNL     1       0.535   3.047  10.097  1.00  0.00     0.135 A 
ATOM     83  F   UNL     1      -3.032   2.808   9.437  1.00  0.00    -0.206 F 
ATOM     84  C   UNL     1      -1.682   1.566  10.904  1.00  0.00     0.059 A 
ATOM     85  C   UNL     1       0.696   2.039  11.041  1.00  0.00     0.059 A 
ATOM     86  F   UNL     1       1.619   3.747   9.726  1.00  0.00    -0.206 F 
ATOM     87  C   UNL     1      -0.422   1.313  11.450  1.00  0.00     0.060 A 
BRANCH  87  88
ATOM     88  S   UNL     1      -0.253  -0.001  12.677  1.00  0.00     0.124 S 
ATOM     89  O   UNL     1      -0.817   0.632  13.864  1.00  0.00    -0.237 OA
ATOM     90  O   UNL     1      -1.045  -1.077  12.089  1.00  0.00    -0.237 OA
ATOM     91  O   UNL     1       1.187  -0.240  12.713  1.00  0.00    -0.744 OA
ENDBRANCH  87  88
ENDBRANCH  55  80
BRANCH  67  92
ATOM     92  C   UNL     1      -3.861   9.549   9.783  1.00  0.00     0.058 A 
ATOM     93  C   UNL     1      -3.270  10.049  10.954  1.00  0.00     0.135 A 
ATOM     94  C   UNL     1      -5.245   9.724   9.621  1.00  0.00     0.135 A 
ATOM     95  F   UNL     1      -1.951   9.907  11.158  1.00  0.00    -0.206 F 
ATOM     96  C   UNL     1      -4.028  10.664  11.945  1.00  0.00     0.059 A 
ATOM     97  C   UNL     1      -6.018  10.361  10.587  1.00  0.00     0.059 A 
ATOM     98  F   UNL     1      -5.858   9.280   8.512  1.00  0.00    -0.206 F 
ATOM     99  C   UNL     1      -5.403  10.810  11.755  1.00  0.00     0.060 A 
BRANCH  99 100
ATOM    100  S   UNL     1      -6.379  11.610  13.046  1.00  0.00     0.124 S 
ATOM    101  O   UNL     1      -6.486  10.544  14.036  1.00  0.00    -0.237 OA
ATOM    102  O   UNL     1      -5.537  12.742  13.423  1.00  0.00    -0.237 OA
ATOM    103  O   UNL     1      -7.620  11.963  12.363  1.00  0.00    -0.744 OA
ENDBRANCH  99 100
ENDBRANCH  67  92
ENDBRANCH  41  42
ENDBRANCH  34  36
ENDBRANCH  33  34
ENDBRANCH  32  33
ENDBRANCH   1  32
TORSDOF 18
