REMARK SMILES O=C(OCCOC(=O)c1ccccc1Nc1nc(Cl)nc(Nc2ccc(N3CCOCC3=O)cc2)n1)c1ccc(-c2c3nc(c(-c4c(F)cc(S(=O)(=O)[O-])cc4F)c4ccc([nH]4)c(-c4c(F)cc(S(=O)(=O)[O-])cc4F)c4nc(c(-c5c(F)cc(S(=O)(=O)[O-])cc5F)c5ccc2[nH]5)C=C4)C=C3)cc1
REMARK SMILES IDX 5 1 4 2 3 3 2 4 1 5 37 6 38 7 102 8 39 9 101 10 40 11 41 12
REMARK SMILES IDX 42 13 95 14 43 15 100 16 94 17 96 18 44 19 99 20 93 21 92 22
REMARK SMILES IDX 45 24 79 25 58 26 78 27 59 28 62 29 77 30 97 31 60 32 61 33
REMARK SMILES IDX 76 35 98 36 63 37 46 38 47 39 56 40 48 41 49 42 55 43 57 44
REMARK SMILES IDX 50 45 51 46 52 47 53 48 54 49 80 50 81 51 90 52 82 53 83 54
REMARK SMILES IDX 89 55 91 56 84 57 85 58 86 59 87 60 88 61 64 62 65 63 74 64
REMARK SMILES IDX 66 65 67 66 73 67 75 68 68 69 69 70 70 71 71 72 72 73 6 74
REMARK SMILES IDX 7 75 8 76 9 77 10 78 14 79 11 80 13 81 12 82 15 83 16 85
REMARK SMILES IDX 17 86 36 87 18 88 21 89 19 90 20 91 22 92 23 94 24 95 35 96
REMARK SMILES IDX 25 97 34 98 26 99 27 100 28 101 32 102 29 103 31 104 33 105
REMARK SMILES IDX 30 106
REMARK H PARENT 96 23 62 34 15 84 22 93
REMARK Flexibility Score: inf
ROOT
ATOM      1  C   UNL     1       4.174   2.062  -0.714  1.00  0.00     0.275 C 
ENDROOT
BRANCH   1   2
ATOM      2  C   UNL     1       4.337   0.643  -1.261  1.00  0.00     0.275 C 
BRANCH   2   3
ATOM      3  O   UNL     1       3.186  -0.193  -1.048  1.00  0.00    -0.458 OA
BRANCH   3   4
ATOM      4  C   UNL     1       2.844  -1.006  -0.022  1.00  0.00     0.338 C 
ATOM      5  O   UNL     1       1.854  -1.723  -0.171  1.00  0.00    -0.246 OA
BRANCH   4   6
ATOM      6  C   UNL     1       3.527  -1.052   1.318  1.00  0.00     0.060 A 
ATOM      7  C   UNL     1       4.786  -0.538   1.633  1.00  0.00     0.016 A 
ATOM      8  C   UNL     1       2.812  -1.687   2.358  1.00  0.00     0.016 A 
ATOM      9  C   UNL     1       5.310  -0.640   2.926  1.00  0.00     0.010 A 
ATOM     10  C   UNL     1       3.329  -1.793   3.656  1.00  0.00     0.010 A 
ATOM     11  C   UNL     1       4.594  -1.280   3.940  1.00  0.00    -0.014 A 
BRANCH  11  12
ATOM     12  C   UNL     1       5.253  -1.481   5.251  1.00  0.00     0.031 A 
ATOM     13  C   UNL     1       5.993  -2.755   5.488  1.00  0.00     0.074 A 
ATOM     14  C   UNL     1       5.268  -0.488   6.159  1.00  0.00     0.049 A 
ATOM     15  N   UNL     1       6.764  -3.079   6.488  1.00  0.00    -0.248 NA
ATOM     16  C   UNL     1       5.839  -3.807   4.470  1.00  0.00     0.031 C 
ATOM     17  C   UNL     1       4.543   0.760   5.996  1.00  0.00     0.029 A 
ATOM     18  N   UNL     1       5.918  -0.332   7.354  1.00  0.00    -0.354 N 
ATOM     19  C   UNL     1       7.183  -4.375   6.229  1.00  0.00     0.074 A 
ATOM     20  C   UNL     1       6.571  -4.784   4.983  1.00  0.00     0.031 C 
ATOM     21  C   UNL     1       4.826   1.589   7.012  1.00  0.00     0.029 A 
ATOM     22  C   UNL     1       5.758   0.921   7.909  1.00  0.00     0.049 A 
ATOM     23  H   UNL     1       6.448  -1.046   7.777  1.00  0.00     0.167 HD
ATOM     24  C   UNL     1       7.997  -5.151   6.980  1.00  0.00     0.037 A 
ATOM     25  C   UNL     1       6.325   1.471   9.001  1.00  0.00     0.037 A 
ATOM     26  C   UNL     1       8.551  -4.723   8.236  1.00  0.00     0.049 A 
ATOM     27  C   UNL     1       7.276   0.601   9.786  1.00  0.00     0.074 A 
ATOM     28  C   UNL     1       9.308  -5.444   9.140  1.00  0.00     0.029 A 
ATOM     29  N   UNL     1       8.399  -3.446   8.767  1.00  0.00    -0.354 N 
ATOM     30  N   UNL     1       7.665  -0.629   9.528  1.00  0.00    -0.248 NA
ATOM     31  C   UNL     1       7.851   1.168  11.011  1.00  0.00     0.031 C 
ATOM     32  C   UNL     1       9.587  -4.612  10.232  1.00  0.00     0.029 A 
ATOM     33  C   UNL     1       9.043  -3.358   9.988  1.00  0.00     0.049 A 
ATOM     34  H   UNL     1       7.905  -2.712   8.336  1.00  0.00     0.167 HD
ATOM     35  C   UNL     1       8.518  -0.986  10.563  1.00  0.00     0.074 A 
ATOM     36  C   UNL     1       8.633   0.178  11.421  1.00  0.00     0.031 C 
ATOM     37  C   UNL     1       9.128  -2.173  10.807  1.00  0.00     0.037 A 
BRANCH  24  38
ATOM     38  C   UNL     1       8.259  -6.540   6.476  1.00  0.00     0.058 A 
ATOM     39  C   UNL     1       9.071  -6.777   5.356  1.00  0.00     0.135 A 
ATOM     40  C   UNL     1       7.643  -7.645   7.084  1.00  0.00     0.135 A 
ATOM     41  F   UNL     1       9.655  -5.751   4.715  1.00  0.00    -0.206 F 
ATOM     42  C   UNL     1       9.236  -8.056   4.835  1.00  0.00     0.059 A 
ATOM     43  C   UNL     1       7.812  -8.936   6.594  1.00  0.00     0.059 A 
ATOM     44  F   UNL     1       6.842  -7.472   8.148  1.00  0.00    -0.206 F 
ATOM     45  C   UNL     1       8.595  -9.129   5.457  1.00  0.00     0.060 A 
BRANCH  45  46
ATOM     46  S   UNL     1       8.789 -10.779   4.750  1.00  0.00     0.124 S 
ATOM     47  O   UNL     1       7.955 -10.683   3.556  1.00  0.00    -0.237 OA
ATOM     48  O   UNL     1      10.227 -10.851   4.514  1.00  0.00    -0.237 OA
ATOM     49  O   UNL     1       8.284 -11.659   5.799  1.00  0.00    -0.744 OA
ENDBRANCH  45  46
ENDBRANCH  24  38
BRANCH  25  50
ATOM     50  C   UNL     1       6.022   2.876   9.419  1.00  0.00     0.058 A 
ATOM     51  C   UNL     1       7.021   3.864   9.479  1.00  0.00     0.135 A 
ATOM     52  C   UNL     1       4.730   3.257   9.818  1.00  0.00     0.135 A 
ATOM     53  F   UNL     1       8.275   3.566   9.107  1.00  0.00    -0.206 F 
ATOM     54  C   UNL     1       6.768   5.146   9.977  1.00  0.00     0.059 A 
ATOM     55  C   UNL     1       4.445   4.539  10.285  1.00  0.00     0.059 A 
ATOM     56  F   UNL     1       3.720   2.375   9.763  1.00  0.00    -0.206 F 
ATOM     57  C   UNL     1       5.476   5.470  10.394  1.00  0.00     0.060 A 
BRANCH  57  58
ATOM     58  S   UNL     1       5.168   7.070  11.186  1.00  0.00     0.124 S 
ATOM     59  O   UNL     1       6.069   7.022  12.333  1.00  0.00    -0.237 OA
ATOM     60  O   UNL     1       5.530   8.028  10.151  1.00  0.00    -0.237 OA
ATOM     61  O   UNL     1       3.744   7.024  11.501  1.00  0.00    -0.744 OA
ENDBRANCH  57  58
ENDBRANCH  25  50
BRANCH  37  62
ATOM     62  C   UNL     1       9.952  -2.264  12.059  1.00  0.00     0.058 A 
ATOM     63  C   UNL     1       9.347  -2.330  13.324  1.00  0.00     0.135 A 
ATOM     64  C   UNL     1      11.351  -2.349  11.990  1.00  0.00     0.135 A 
ATOM     65  F   UNL     1       8.012  -2.251  13.440  1.00  0.00    -0.206 F 
ATOM     66  C   UNL     1      10.104  -2.452  14.483  1.00  0.00     0.059 A 
ATOM     67  C   UNL     1      12.126  -2.498  13.135  1.00  0.00     0.059 A 
ATOM     68  F   UNL     1      11.974  -2.304  10.802  1.00  0.00    -0.206 F 
ATOM     69  C   UNL     1      11.493  -2.537  14.377  1.00  0.00     0.060 A 
BRANCH  69  70
ATOM     70  S   UNL     1      12.461  -2.737  15.887  1.00  0.00     0.124 S 
ATOM     71  O   UNL     1      12.414  -1.390  16.446  1.00  0.00    -0.237 OA
ATOM     72  O   UNL     1      11.704  -3.752  16.613  1.00  0.00    -0.237 OA
ATOM     73  O   UNL     1      13.767  -3.169  15.397  1.00  0.00    -0.744 OA
ENDBRANCH  69  70
ENDBRANCH  37  62
ENDBRANCH  11  12
ENDBRANCH   4   6
ENDBRANCH   3   4
ENDBRANCH   2   3
ENDBRANCH   1   2
BRANCH   1  74
ATOM     74  O   UNL     1       3.705   2.085   0.642  1.00  0.00    -0.458 OA
BRANCH  74  75
ATOM     75  C   UNL     1       2.358   2.214   0.785  1.00  0.00     0.340 C 
ATOM     76  O   UNL     1       1.545   2.333  -0.118  1.00  0.00    -0.246 OA
BRANCH  75  77
ATOM     77  C   UNL     1       1.974   2.086   2.210  1.00  0.00     0.083 A 
ATOM     78  C   UNL     1       0.848   1.291   2.478  1.00  0.00     0.018 A 
ATOM     79  C   UNL     1       2.689   2.710   3.255  1.00  0.00     0.055 A 
ATOM     80  C   UNL     1       0.404   1.127   3.786  1.00  0.00     0.001 A 
ATOM     81  C   UNL     1       2.132   2.647   4.541  1.00  0.00     0.027 A 
ATOM     82  C   UNL     1       1.028   1.828   4.812  1.00  0.00     0.002 A 
BRANCH  79  83
ATOM     83  N   UNL     1       3.909   3.382   2.998  1.00  0.00    -0.323 N 
ATOM     84  H   UNL     1       4.058   3.664   2.067  1.00  0.00     0.170 HD
BRANCH  83  85
ATOM     85  C   UNL     1       4.928   3.696   3.903  1.00  0.00     0.233 A 
ATOM     86  N   UNL     1       5.966   2.877   3.904  1.00  0.00    -0.182 NA
ATOM     87  N   UNL     1       4.868   4.829   4.593  1.00  0.00    -0.176 NA
ATOM     88  C   UNL     1       6.912   3.230   4.758  1.00  0.00     0.228 A 
ATOM     89  C   UNL     1       5.949   5.151   5.305  1.00  0.00     0.233 A 
ATOM     90  Cl  UNL     1       8.230   2.156   4.908  1.00  0.00    -0.041 Cl
ATOM     91  N   UNL     1       6.987   4.348   5.451  1.00  0.00    -0.182 NA
BRANCH  89  92
ATOM     92  N   UNL     1       5.941   6.423   5.867  1.00  0.00    -0.324 N 
ATOM     93  H   UNL     1       5.082   6.892   5.763  1.00  0.00     0.170 HD
BRANCH  92  94
ATOM     94  C   UNL     1       6.906   7.172   6.551  1.00  0.00     0.041 A 
ATOM     95  C   UNL     1       6.499   8.345   7.198  1.00  0.00     0.028 A 
ATOM     96  C   UNL     1       8.245   6.792   6.692  1.00  0.00     0.028 A 
ATOM     97  C   UNL     1       7.371   9.058   8.028  1.00  0.00     0.028 A 
ATOM     98  C   UNL     1       9.131   7.519   7.499  1.00  0.00     0.028 A 
ATOM     99  C   UNL     1       8.683   8.629   8.216  1.00  0.00     0.044 A 
BRANCH  99 100
ATOM    100  N   UNL     1       9.491   9.219   9.228  1.00  0.00    -0.308 N 
ATOM    101  C   UNL     1       8.922   9.180  10.590  1.00  0.00     0.154 C 
ATOM    102  C   UNL     1      10.854   9.437   9.032  1.00  0.00     0.253 C 
ATOM    103  C   UNL     1       9.712  10.006  11.598  1.00  0.00     0.183 C 
ATOM    104  C   UNL     1      11.623   9.933  10.267  1.00  0.00     0.260 C 
ATOM    105  O   UNL     1      11.430   9.370   7.942  1.00  0.00    -0.272 OA
ATOM    106  O   UNL     1      11.095   9.654  11.551  1.00  0.00    -0.370 OA
ENDBRANCH  99 100
ENDBRANCH  92  94
ENDBRANCH  89  92
ENDBRANCH  83  85
ENDBRANCH  79  83
ENDBRANCH  75  77
ENDBRANCH  74  75
ENDBRANCH   1  74
TORSDOF 19
