REMARK SMILES CC(C)c1ccc2c(c1)C(=O)C[C@@H]1[C@@]2(C)CCC[C@]1(C)C(=O)OCCOC(=O)c1ccc(-c2c3nc(c(-c4c(F)cc(S(=O)(=O)[O-])cc4F)c4ccc([nH]4)c(-c4c(F)cc(S(=O)(=O)[O-])cc4F)c4nc(c(-c5c(F)cc(S(=O)(=O)[O-])cc5F)c5ccc2[nH]5)C=C4)C=C3)cc1
REMARK SMILES IDX 25 1 24 2 23 3 21 4 22 5 19 6 4 7 5 8 9 9 6 10 8 11 7 12
REMARK SMILES IDX 10 13 14 14 12 15 11 16 13 17 16 18 15 19 17 20 18 21 20 22
REMARK SMILES IDX 2 23 1 24 3 25 26 26 27 27 28 28 29 29 30 30 94 31 31 32
REMARK SMILES IDX 93 33 32 34 33 35 34 36 87 37 35 38 92 39 86 40 88 41 36 42
REMARK SMILES IDX 91 43 85 44 84 45 37 47 71 48 50 49 70 50 51 51 54 52 69 53
REMARK SMILES IDX 89 54 52 55 53 56 68 58 90 59 55 60 38 61 39 62 48 63 40 64
REMARK SMILES IDX 41 65 47 66 49 67 42 68 43 69 44 70 45 71 46 72 72 73 73 74
REMARK SMILES IDX 82 75 74 76 75 77 81 78 83 79 76 80 77 81 78 82 79 83 80 84
REMARK SMILES IDX 56 85 57 86 66 87 58 88 59 89 65 90 67 91 60 92 61 93 62 94
REMARK SMILES IDX 63 95 64 96
REMARK H PARENT 88 46 54 57
REMARK Flexibility Score: inf
ROOT
ATOM      1  C   UNL     1      -6.071  -0.999   4.121  1.00  0.00     0.275 C 
ENDROOT
BRANCH   1   2
ATOM      2  C   UNL     1      -5.388   0.139   3.321  1.00  0.00     0.274 C 
BRANCH   2   3
ATOM      3  O   UNL     1      -5.877   0.571   2.012  1.00  0.00    -0.462 OA
BRANCH   3   4
ATOM      4  C   UNL     1      -6.862  -0.112   1.375  1.00  0.00     0.312 C 
ATOM      5  O   UNL     1      -7.485  -1.029   1.875  1.00  0.00    -0.252 OA
BRANCH   4   6
ATOM      6  C   UNL     1      -7.110   0.422  -0.062  1.00  0.00     0.069 C 
ATOM      7  C   UNL     1      -0.778  -0.162  -1.513  1.00  0.00    -0.045 A 
ATOM      8  C   UNL     1      -1.425   0.279  -2.668  1.00  0.00     0.004 A 
ATOM      9  C   UNL     1      -1.575  -0.620  -0.457  1.00  0.00     0.016 A 
ATOM     10  C   UNL     1      -2.820   0.234  -2.768  1.00  0.00     0.005 A 
ATOM     11  C   UNL     1      -2.981  -0.656  -0.564  1.00  0.00     0.022 A 
ATOM     12  C   UNL     1      -3.638  -0.244  -1.720  1.00  0.00    -0.031 A 
ATOM     13  C   UNL     1      -3.742  -1.243   0.541  1.00  0.00     0.163 C 
ATOM     14  C   UNL     1      -5.166  -0.363  -1.914  1.00  0.00    -0.002 C 
ATOM     15  C   UNL     1      -5.117  -1.753   0.218  1.00  0.00     0.086 C 
ATOM     16  O   UNL     1      -3.207  -1.421   1.631  1.00  0.00    -0.294 OA
ATOM     17  C   UNL     1      -6.043  -0.842  -0.646  1.00  0.00     0.024 C 
ATOM     18  C   UNL     1      -5.644   1.024  -2.386  1.00  0.00     0.012 C 
ATOM     19  C   UNL     1      -5.372  -1.433  -3.023  1.00  0.00     0.017 C 
ATOM     20  C   UNL     1      -7.126   1.074  -2.608  1.00  0.00     0.002 C 
ATOM     21  C   UNL     1      -7.889   0.417  -1.477  1.00  0.00     0.019 C 
ATOM     22  C   UNL     1      -8.664   0.573   0.580  1.00  0.00     0.024 C 
BRANCH   7  23
ATOM     23  C   UNL     1       0.739  -0.221  -1.480  1.00  0.00     0.013 C 
ATOM     24  C   UNL     1       1.340   0.268  -0.161  1.00  0.00     0.012 C 
ATOM     25  C   UNL     1       1.223  -1.638  -1.801  1.00  0.00     0.012 C 
ENDBRANCH   7  23
ENDBRANCH   4   6
ENDBRANCH   3   4
ENDBRANCH   2   3
ENDBRANCH   1   2
BRANCH   1  26
ATOM     26  O   UNL     1      -6.008  -2.281   3.459  1.00  0.00    -0.458 OA
BRANCH  26  27
ATOM     27  C   UNL     1      -7.112  -3.065   3.620  1.00  0.00     0.338 C 
ATOM     28  O   UNL     1      -7.993  -2.920   4.457  1.00  0.00    -0.246 OA
BRANCH  27  29
ATOM     29  C   UNL     1      -7.127  -4.160   2.620  1.00  0.00     0.060 A 
ATOM     30  C   UNL     1      -6.774  -5.444   3.024  1.00  0.00     0.016 A 
ATOM     31  C   UNL     1      -7.598  -3.953   1.313  1.00  0.00     0.016 A 
ATOM     32  C   UNL     1      -6.852  -6.501   2.110  1.00  0.00     0.010 A 
ATOM     33  C   UNL     1      -7.664  -5.005   0.394  1.00  0.00     0.010 A 
ATOM     34  C   UNL     1      -7.293  -6.291   0.789  1.00  0.00    -0.014 A 
BRANCH  34  35
ATOM     35  C   UNL     1      -7.492  -7.455  -0.108  1.00  0.00     0.031 A 
ATOM     36  C   UNL     1      -6.490  -7.815  -1.162  1.00  0.00     0.074 A 
ATOM     37  C   UNL     1      -8.583  -8.221   0.079  1.00  0.00     0.049 A 
ATOM     38  N   UNL     1      -6.392  -8.922  -1.853  1.00  0.00    -0.248 NA
ATOM     39  C   UNL     1      -5.473  -6.806  -1.492  1.00  0.00     0.031 C 
ATOM     40  C   UNL     1      -9.660  -7.926   1.025  1.00  0.00     0.029 A 
ATOM     41  N   UNL     1      -8.951  -9.415  -0.487  1.00  0.00    -0.354 N 
ATOM     42  C   UNL     1      -5.276  -8.768  -2.664  1.00  0.00     0.074 A 
ATOM     43  C   UNL     1      -4.772  -7.429  -2.432  1.00  0.00     0.031 C 
ATOM     44  C   UNL     1     -10.539  -8.939   1.016  1.00  0.00     0.029 A 
ATOM     45  C   UNL     1     -10.092  -9.951   0.062  1.00  0.00     0.049 A 
ATOM     46  H   UNL     1      -8.448  -9.846  -1.216  1.00  0.00     0.167 HD
ATOM     47  C   UNL     1      -4.712  -9.675  -3.498  1.00  0.00     0.037 A 
ATOM     48  C   UNL     1     -10.691 -11.139  -0.149  1.00  0.00     0.037 A 
ATOM     49  C   UNL     1      -5.244 -10.996  -3.735  1.00  0.00     0.049 A 
ATOM     50  C   UNL     1     -10.056 -12.122  -1.094  1.00  0.00     0.074 A 
ATOM     51  C   UNL     1      -4.722 -12.004  -4.528  1.00  0.00     0.029 A 
ATOM     52  N   UNL     1      -6.426 -11.486  -3.198  1.00  0.00    -0.354 N 
ATOM     53  N   UNL     1      -8.938 -12.010  -1.770  1.00  0.00    -0.248 NA
ATOM     54  C   UNL     1     -10.757 -13.398  -1.295  1.00  0.00     0.031 C 
ATOM     55  C   UNL     1      -5.614 -13.082  -4.512  1.00  0.00     0.029 A 
ATOM     56  C   UNL     1      -6.666 -12.769  -3.667  1.00  0.00     0.049 A 
ATOM     57  H   UNL     1      -7.010 -10.995  -2.575  1.00  0.00     0.167 HD
ATOM     58  C   UNL     1      -8.791 -13.207  -2.464  1.00  0.00     0.074 A 
ATOM     59  C   UNL     1      -9.926 -14.035  -2.109  1.00  0.00     0.031 C 
ATOM     60  C   UNL     1      -7.806 -13.582  -3.317  1.00  0.00     0.037 A 
BRANCH  47  61
ATOM     61  C   UNL     1      -3.437  -9.292  -4.201  1.00  0.00     0.058 A 
ATOM     62  C   UNL     1      -2.227  -9.173  -3.499  1.00  0.00     0.135 A 
ATOM     63  C   UNL     1      -3.400  -9.127  -5.595  1.00  0.00     0.135 A 
ATOM     64  F   UNL     1      -2.203  -9.316  -2.164  1.00  0.00    -0.206 F 
ATOM     65  C   UNL     1      -1.031  -8.887  -4.149  1.00  0.00     0.059 A 
ATOM     66  C   UNL     1      -2.210  -8.865  -6.271  1.00  0.00     0.059 A 
ATOM     67  F   UNL     1      -4.526  -9.234  -6.319  1.00  0.00    -0.206 F 
ATOM     68  C   UNL     1      -1.032  -8.738  -5.537  1.00  0.00     0.060 A 
BRANCH  68  69
ATOM     69  S   UNL     1       0.534  -8.382  -6.363  1.00  0.00     0.124 S 
ATOM     70  O   UNL     1       0.807  -7.024  -5.900  1.00  0.00    -0.237 OA
ATOM     71  O   UNL     1       1.410  -9.421  -5.830  1.00  0.00    -0.237 OA
ATOM     72  O   UNL     1       0.209  -8.505  -7.780  1.00  0.00    -0.744 OA
ENDBRANCH  68  69
ENDBRANCH  47  61
BRANCH  48  73
ATOM     73  C   UNL     1     -11.929 -11.478   0.600  1.00  0.00     0.058 A 
ATOM     74  C   UNL     1     -11.920 -12.448   1.613  1.00  0.00     0.135 A 
ATOM     75  C   UNL     1     -13.136 -10.808   0.345  1.00  0.00     0.135 A 
ATOM     76  F   UNL     1     -10.791 -13.118   1.890  1.00  0.00    -0.206 F 
ATOM     77  C   UNL     1     -13.065 -12.749   2.342  1.00  0.00     0.059 A 
ATOM     78  C   UNL     1     -14.288 -11.073   1.078  1.00  0.00     0.059 A 
ATOM     79  F   UNL     1     -13.191  -9.860  -0.603  1.00  0.00    -0.206 F 
ATOM     80  C   UNL     1     -14.244 -12.051   2.071  1.00  0.00     0.060 A 
BRANCH  80  81
ATOM     81  S   UNL     1     -15.710 -12.414   3.061  1.00  0.00     0.124 S 
ATOM     82  O   UNL     1     -16.055 -13.752   2.596  1.00  0.00    -0.237 OA
ATOM     83  O   UNL     1     -15.188 -12.326   4.421  1.00  0.00    -0.237 OA
ATOM     84  O   UNL     1     -16.642 -11.355   2.684  1.00  0.00    -0.744 OA
ENDBRANCH  80  81
ENDBRANCH  48  73
BRANCH  60  85
ATOM     85  C   UNL     1      -7.907 -14.950  -3.937  1.00  0.00     0.058 A 
ATOM     86  C   UNL     1      -8.855 -15.235  -4.933  1.00  0.00     0.135 A 
ATOM     87  C   UNL     1      -7.004 -15.966  -3.584  1.00  0.00     0.135 A 
ATOM     88  F   UNL     1      -9.747 -14.303  -5.303  1.00  0.00    -0.206 F 
ATOM     89  C   UNL     1      -8.914 -16.483  -5.545  1.00  0.00     0.059 A 
ATOM     90  C   UNL     1      -7.027 -17.213  -4.203  1.00  0.00     0.059 A 
ATOM     91  F   UNL     1      -6.071 -15.745  -2.643  1.00  0.00    -0.206 F 
ATOM     92  C   UNL     1      -7.990 -17.464  -5.178  1.00  0.00     0.060 A 
BRANCH  92  93
ATOM     93  S   UNL     1      -8.052 -19.061  -6.018  1.00  0.00     0.124 S 
ATOM     94  O   UNL     1      -9.286 -19.628  -5.485  1.00  0.00    -0.237 OA
ATOM     95  O   UNL     1      -8.089 -18.671  -7.424  1.00  0.00    -0.237 OA
ATOM     96  O   UNL     1      -6.822 -19.721  -5.589  1.00  0.00    -0.744 OA
ENDBRANCH  92  93
ENDBRANCH  60  85
ENDBRANCH  34  35
ENDBRANCH  27  29
ENDBRANCH  26  27
ENDBRANCH   1  26
TORSDOF 15
