REMARK SMILES C=CCCC[C@@]1(C(=O)OCCOC(=O)c2ccc(-c3c4nc(c(-c5c(F)cc(S(=O)(=O)[O-])cc5F)c5ccc([nH]5)c(-c5c(F)cc(S(=O)(=O)[O-])cc5F)c5nc(c(-c6c(F)cc(S(=O)(=O)[O-])cc6F)c6ccc3[nH]6)C=C5)C=C4)cc2)CCCN(C(=O)OC(C)(C)C)C1
REMARK SMILES IDX 10 1 9 2 7 3 8 4 6 5 81 6 92 7 82 8 84 9 83 10 5 11 4 12
REMARK SMILES IDX 3 13 2 14 1 15 85 16 86 17 87 18 88 19 89 20 90 21 91 22
REMARK SMILES IDX 11 23 12 24 13 25 14 26 15 27 16 28 80 29 17 30 79 31 18 32
REMARK SMILES IDX 19 33 20 34 73 35 21 36 78 37 72 38 74 39 22 40 77 41 71 42
REMARK SMILES IDX 70 43 23 45 57 46 36 47 56 48 37 49 40 50 55 51 75 52 38 53
REMARK SMILES IDX 39 54 54 56 76 57 41 58 24 59 25 60 34 61 26 62 27 63 33 64
REMARK SMILES IDX 35 65 28 66 29 67 30 68 31 69 32 70 58 71 59 72 68 73 60 74
REMARK SMILES IDX 61 75 67 76 69 77 62 78 63 79 64 80 65 81 66 82 42 83 43 84
REMARK SMILES IDX 52 85 44 86 45 87 51 88 53 89 46 90 47 91 48 92 49 93 50 94
REMARK H PARENT 74 44 40 55
REMARK Flexibility Score: inf
ROOT
ATOM      1  C   UNL     1       0.307  -1.365  -4.261  1.00  0.00     0.274 C 
ENDROOT
BRANCH   1   2
ATOM      2  O   UNL     1      -0.713  -2.284  -3.823  1.00  0.00    -0.462 OA
BRANCH   2   3
ATOM      3  C   UNL     1      -0.595  -2.836  -2.587  1.00  0.00     0.314 C 
ATOM      4  O   UNL     1       0.302  -2.560  -1.799  1.00  0.00    -0.252 OA
BRANCH   3   5
ATOM      5  C   UNL     1      -1.631  -3.952  -2.334  1.00  0.00     0.086 C 
ATOM      6  C   UNL     1      -0.929  -5.294  -2.674  1.00  0.00     0.022 C 
ATOM      7  C   UNL     1      -2.910  -3.784  -3.170  1.00  0.00     0.141 C 
ATOM      8  C   UNL     1      -0.791  -5.532  -4.180  1.00  0.00     0.023 C 
ATOM      9  N   UNL     1      -2.747  -4.115  -4.577  1.00  0.00    -0.307 N 
ATOM     10  C   UNL     1      -2.136  -5.399  -4.883  1.00  0.00     0.123 C 
BRANCH   5  11
ATOM     11  C   UNL     1      -2.010  -3.973  -0.816  1.00  0.00     0.021 C 
BRANCH  11  12
ATOM     12  C   UNL     1      -2.777  -2.745  -0.297  1.00  0.00     0.005 C 
BRANCH  12  13
ATOM     13  C   UNL     1      -4.308  -2.745  -0.359  1.00  0.00     0.027 C 
BRANCH  13  14
ATOM     14  C   UNL     1      -4.964  -3.804   0.472  1.00  0.00    -0.035 C 
ATOM     15  C   UNL     1      -5.815  -3.531   1.469  1.00  0.00     0.004 C 
ENDBRANCH  13  14
ENDBRANCH  12  13
ENDBRANCH  11  12
ENDBRANCH   5  11
BRANCH   9  16
ATOM     16  C   UNL     1      -3.188  -3.207  -5.519  1.00  0.00     0.410 C 
ATOM     17  O   UNL     1      -3.778  -2.168  -5.229  1.00  0.00    -0.224 OA
BRANCH  16  18
ATOM     18  O   UNL     1      -2.878  -3.564  -6.788  1.00  0.00    -0.444 OA
BRANCH  18  19
ATOM     19  C   UNL     1      -3.153  -2.642  -7.873  1.00  0.00     0.106 C 
ATOM     20  C   UNL     1      -4.651  -2.337  -8.004  1.00  0.00     0.056 C 
ATOM     21  C   UNL     1      -2.316  -1.364  -7.730  1.00  0.00     0.056 C 
ATOM     22  C   UNL     1      -2.696  -3.388  -9.135  1.00  0.00     0.056 C 
ENDBRANCH  18  19
ENDBRANCH  16  18
ENDBRANCH   9  16
ENDBRANCH   3   5
ENDBRANCH   2   3
ENDBRANCH   1   2
BRANCH   1  23
ATOM     23  C   UNL     1      -0.238   0.057  -4.315  1.00  0.00     0.275 C 
BRANCH  23  24
ATOM     24  O   UNL     1      -0.396   0.548  -2.974  1.00  0.00    -0.458 OA
BRANCH  24  25
ATOM     25  C   UNL     1      -1.670   0.764  -2.587  1.00  0.00     0.338 C 
ATOM     26  O   UNL     1      -2.682   0.663  -3.261  1.00  0.00    -0.246 OA
BRANCH  25  27
ATOM     27  C   UNL     1      -1.709   1.126  -1.164  1.00  0.00     0.060 A 
ATOM     28  C   UNL     1      -1.238   0.223  -0.216  1.00  0.00     0.016 A 
ATOM     29  C   UNL     1      -2.405   2.265  -0.767  1.00  0.00     0.016 A 
ATOM     30  C   UNL     1      -1.618   0.370   1.115  1.00  0.00     0.010 A 
ATOM     31  C   UNL     1      -2.646   2.486   0.592  1.00  0.00     0.010 A 
ATOM     32  C   UNL     1      -2.306   1.513   1.550  1.00  0.00    -0.014 A 
BRANCH  32  33
ATOM     33  C   UNL     1      -2.700   1.690   2.980  1.00  0.00     0.031 A 
ATOM     34  C   UNL     1      -4.120   2.064   3.333  1.00  0.00     0.074 A 
ATOM     35  C   UNL     1      -1.798   1.535   3.972  1.00  0.00     0.049 A 
ATOM     36  N   UNL     1      -4.589   2.587   4.437  1.00  0.00    -0.248 NA
ATOM     37  C   UNL     1      -5.144   1.843   2.297  1.00  0.00     0.031 C 
ATOM     38  C   UNL     1      -0.407   1.107   3.805  1.00  0.00     0.029 A 
ATOM     39  N   UNL     1      -1.918   1.723   5.328  1.00  0.00    -0.354 N 
ATOM     40  C   UNL     1      -5.936   2.842   4.199  1.00  0.00     0.074 A 
ATOM     41  C   UNL     1      -6.217   2.394   2.852  1.00  0.00     0.031 C 
ATOM     42  C   UNL     1       0.178   1.016   5.006  1.00  0.00     0.029 A 
ATOM     43  C   UNL     1      -0.746   1.511   6.016  1.00  0.00     0.049 A 
ATOM     44  H   UNL     1      -2.761   1.984   5.765  1.00  0.00     0.167 HD
ATOM     45  C   UNL     1      -6.844   3.413   5.028  1.00  0.00     0.037 A 
ATOM     46  C   UNL     1      -0.413   1.761   7.297  1.00  0.00     0.037 A 
ATOM     47  C   UNL     1      -6.563   3.778   6.394  1.00  0.00     0.049 A 
ATOM     48  C   UNL     1      -1.424   2.407   8.197  1.00  0.00     0.074 A 
ATOM     49  C   UNL     1      -7.403   4.372   7.321  1.00  0.00     0.029 A 
ATOM     50  N   UNL     1      -5.355   3.551   7.040  1.00  0.00    -0.354 N 
ATOM     51  N   UNL     1      -2.654   2.770   7.923  1.00  0.00    -0.248 NA
ATOM     52  C   UNL     1      -0.994   2.711   9.567  1.00  0.00     0.031 C 
ATOM     53  C   UNL     1      -6.696   4.523   8.520  1.00  0.00     0.029 A 
ATOM     54  C   UNL     1      -5.430   3.987   8.352  1.00  0.00     0.049 A 
ATOM     55  H   UNL     1      -4.562   3.140   6.626  1.00  0.00     0.167 HD
ATOM     56  C   UNL     1      -3.150   3.337   9.089  1.00  0.00     0.074 A 
ATOM     57  C   UNL     1      -2.091   3.255  10.076  1.00  0.00     0.031 C 
ATOM     58  C   UNL     1      -4.369   3.881   9.321  1.00  0.00     0.037 A 
BRANCH  45  59
ATOM     59  C   UNL     1      -8.210   3.725   4.477  1.00  0.00     0.058 A 
ATOM     60  C   UNL     1      -9.167   2.730   4.227  1.00  0.00     0.135 A 
ATOM     61  C   UNL     1      -8.584   5.061   4.242  1.00  0.00     0.135 A 
ATOM     62  F   UNL     1      -8.862   1.437   4.420  1.00  0.00    -0.206 F 
ATOM     63  C   UNL     1     -10.435   3.043   3.743  1.00  0.00     0.059 A 
ATOM     64  C   UNL     1      -9.853   5.399   3.781  1.00  0.00     0.059 A 
ATOM     65  F   UNL     1      -7.710   6.055   4.466  1.00  0.00    -0.206 F 
ATOM     66  C   UNL     1     -10.768   4.381   3.521  1.00  0.00     0.060 A 
BRANCH  66  67
ATOM     67  S   UNL     1     -12.418   4.777   2.901  1.00  0.00     0.124 S 
ATOM     68  O   UNL     1     -12.303   4.388   1.498  1.00  0.00    -0.237 OA
ATOM     69  O   UNL     1     -13.276   3.929   3.724  1.00  0.00    -0.237 OA
ATOM     70  O   UNL     1     -12.540   6.210   3.147  1.00  0.00    -0.744 OA
ENDBRANCH  66  67
ENDBRANCH  45  59
BRANCH  46  71
ATOM     71  C   UNL     1       0.965   1.464   7.770  1.00  0.00     0.058 A 
ATOM     72  C   UNL     1       1.210   0.418   8.671  1.00  0.00     0.135 A 
ATOM     73  C   UNL     1       2.071   2.186   7.290  1.00  0.00     0.135 A 
ATOM     74  F   UNL     1       0.185  -0.292   9.167  1.00  0.00    -0.206 F 
ATOM     75  C   UNL     1       2.500   0.095   9.078  1.00  0.00     0.059 A 
ATOM     76  C   UNL     1       3.372   1.862   7.657  1.00  0.00     0.059 A 
ATOM     77  F   UNL     1       1.892   3.188   6.415  1.00  0.00    -0.206 F 
ATOM     78  C   UNL     1       3.576   0.818   8.558  1.00  0.00     0.060 A 
BRANCH  78  79
ATOM     79  S   UNL     1       5.255   0.344   9.027  1.00  0.00     0.124 S 
ATOM     80  O   UNL     1       5.360   0.923  10.361  1.00  0.00    -0.237 OA
ATOM     81  O   UNL     1       5.194  -1.113   8.966  1.00  0.00    -0.237 OA
ATOM     82  O   UNL     1       6.078   0.971   7.997  1.00  0.00    -0.744 OA
ENDBRANCH  78  79
ENDBRANCH  46  71
BRANCH  58  83
ATOM     83  C   UNL     1      -4.639   4.384  10.709  1.00  0.00     0.058 A 
ATOM     84  C   UNL     1      -4.113   5.601  11.166  1.00  0.00     0.135 A 
ATOM     85  C   UNL     1      -5.470   3.656  11.573  1.00  0.00     0.135 A 
ATOM     86  F   UNL     1      -3.304   6.327  10.379  1.00  0.00    -0.206 F 
ATOM     87  C   UNL     1      -4.390   6.073  12.445  1.00  0.00     0.059 A 
ATOM     88  C   UNL     1      -5.777   4.118  12.848  1.00  0.00     0.059 A 
ATOM     89  F   UNL     1      -6.000   2.488  11.177  1.00  0.00    -0.206 F 
ATOM     90  C   UNL     1      -5.224   5.324  13.278  1.00  0.00     0.060 A 
BRANCH  90  91
ATOM     91  S   UNL     1      -5.607   5.962  14.923  1.00  0.00     0.124 S 
ATOM     92  O   UNL     1      -4.370   5.678  15.643  1.00  0.00    -0.237 OA
ATOM     93  O   UNL     1      -5.877   7.372  14.658  1.00  0.00    -0.237 OA
ATOM     94  O   UNL     1      -6.767   5.175  15.330  1.00  0.00    -0.744 OA
ENDBRANCH  90  91
ENDBRANCH  58  83
ENDBRANCH  32  33
ENDBRANCH  25  27
ENDBRANCH  24  25
ENDBRANCH  23  24
ENDBRANCH   1  23
TORSDOF 21
