REMARK SMILES C[C@@H]1CN(C(=O)NC[C@@H]2CC[C@H](C(=O)OCCOC(=O)c3ccc(-c4c5nc(c(-c6c(F)cc(S(=O)(=O)[O-])cc6F)c6ccc([nH]6)c(-c6c(F)cc(S(=O)(=O)[O-])cc6F)c6nc(c(-c7c(F)cc(S(=O)(=O)[O-])cc7F)c7ccc4[nH]7)C=C6)C=C5)cc3)O2)CC(C)(C)O1
REMARK SMILES IDX 16 1 15 2 13 3 14 4 12 5 9 6 10 7 87 8 11 9 8 10 7 11 5 12
REMARK SMILES IDX 6 13 4 15 1 16 2 17 3 18 92 19 89 20 88 21 90 22 91 23 17 24
REMARK SMILES IDX 18 25 19 26 20 27 21 28 22 29 86 30 23 31 85 32 24 33 25 34
REMARK SMILES IDX 26 35 79 36 27 37 84 38 78 39 80 40 28 41 83 42 77 43 76 44
REMARK SMILES IDX 29 46 63 47 42 48 62 49 43 50 46 51 61 52 81 53 44 54 45 55
REMARK SMILES IDX 60 57 82 58 47 59 30 60 31 61 40 62 32 63 33 64 39 65 41 66
REMARK SMILES IDX 34 67 35 68 36 69 37 70 38 71 64 72 65 73 74 74 66 75 67 76
REMARK SMILES IDX 73 77 75 78 68 79 69 80 70 81 71 82 72 83 48 84 49 85 58 86
REMARK SMILES IDX 50 87 51 88 57 89 59 90 52 91 53 92 54 93 55 94 56 95
REMARK H PARENT 7 14 80 45 46 56
REMARK Flexibility Score: inf
ROOT
ATOM      1  C   UNL     1       0.469  -1.726  -5.087  1.00  0.00     0.274 C 
ENDROOT
BRANCH   1   2
ATOM      2  O   UNL     1       1.797  -1.165  -5.124  1.00  0.00    -0.460 OA
BRANCH   2   3
ATOM      3  C   UNL     1       2.817  -2.012  -4.814  1.00  0.00     0.335 C 
ATOM      4  O   UNL     1       2.656  -3.158  -4.409  1.00  0.00    -0.249 OA
BRANCH   3   5
ATOM      5  C   UNL     1       4.208  -1.387  -5.018  1.00  0.00     0.228 C 
ATOM      6  C   UNL     1       4.991  -0.046  -3.279  1.00  0.00     0.138 C 
ATOM      7  C   UNL     1       4.269   0.849  -4.278  1.00  0.00     0.037 C 
ATOM      8  O   UNL     1       4.923  -1.390  -3.778  1.00  0.00    -0.361 OA
ATOM      9  C   UNL     1       4.272   0.032  -5.544  1.00  0.00     0.047 C 
BRANCH   6  10
ATOM     10  C   UNL     1       4.444  -0.044  -1.850  1.00  0.00     0.149 C 
BRANCH  10  11
ATOM     11  N   UNL     1       4.398   1.272  -1.254  1.00  0.00    -0.335 N 
ATOM     12  C   UNL     1       3.503   2.251  -1.088  1.00  0.00     0.317 C 
ATOM     13  O   UNL     1       3.953   3.247  -0.509  1.00  0.00    -0.249 OA
ATOM     14  H   UNL     1       5.268   1.515  -0.863  1.00  0.00     0.165 HD
BRANCH  12  15
ATOM     15  N   UNL     1       2.206   2.191  -1.489  1.00  0.00    -0.319 N 
ATOM     16  C   UNL     1       0.758  -0.340  -0.122  1.00  0.00     0.040 C 
ATOM     17  C   UNL     1       0.284   0.654  -1.177  1.00  0.00     0.135 C 
ATOM     18  C   UNL     1       1.418   1.125  -2.106  1.00  0.00     0.153 C 
ATOM     19  O   UNL     1      -0.475   1.734  -0.608  1.00  0.00    -0.369 OA
ATOM     20  C   UNL     1       0.266   2.875  -0.123  1.00  0.00     0.081 C 
ATOM     21  C   UNL     1       1.345   3.322  -1.134  1.00  0.00     0.156 C 
ATOM     22  C   UNL     1       0.861   2.601   1.264  1.00  0.00     0.044 C 
ATOM     23  C   UNL     1      -0.768   4.001   0.019  1.00  0.00     0.044 C 
ENDBRANCH  12  15
ENDBRANCH  10  11
ENDBRANCH   6  10
ENDBRANCH   3   5
ENDBRANCH   2   3
ENDBRANCH   1   2
BRANCH   1  24
ATOM     24  C   UNL     1      -0.093  -1.883  -6.501  1.00  0.00     0.275 C 
BRANCH  24  25
ATOM     25  O   UNL     1       0.680  -2.823  -7.270  1.00  0.00    -0.458 OA
BRANCH  25  26
ATOM     26  C   UNL     1       1.645  -2.275  -8.043  1.00  0.00     0.338 C 
ATOM     27  O   UNL     1       1.914  -1.091  -8.169  1.00  0.00    -0.246 OA
BRANCH  26  28
ATOM     28  C   UNL     1       2.453  -3.344  -8.644  1.00  0.00     0.060 A 
ATOM     29  C   UNL     1       3.635  -3.711  -8.002  1.00  0.00     0.016 A 
ATOM     30  C   UNL     1       2.102  -3.916  -9.865  1.00  0.00     0.016 A 
ATOM     31  C   UNL     1       4.496  -4.628  -8.589  1.00  0.00     0.010 A 
ATOM     32  C   UNL     1       2.945  -4.879 -10.432  1.00  0.00     0.010 A 
ATOM     33  C   UNL     1       4.151  -5.236  -9.802  1.00  0.00    -0.014 A 
BRANCH  33  34
ATOM     34  C   UNL     1       5.048  -6.263 -10.385  1.00  0.00     0.031 A 
ATOM     35  C   UNL     1       5.780  -5.990 -11.667  1.00  0.00     0.074 A 
ATOM     36  C   UNL     1       5.202  -7.439  -9.746  1.00  0.00     0.049 A 
ATOM     37  N   UNL     1       6.503  -6.806 -12.389  1.00  0.00    -0.248 NA
ATOM     38  C   UNL     1       5.686  -4.626 -12.212  1.00  0.00     0.031 C 
ATOM     39  C   UNL     1       4.569  -7.801  -8.474  1.00  0.00     0.029 A 
ATOM     40  N   UNL     1       5.932  -8.552 -10.080  1.00  0.00    -0.354 N 
ATOM     41  C   UNL     1       6.919  -6.070 -13.492  1.00  0.00     0.074 A 
ATOM     42  C   UNL     1       6.372  -4.738 -13.343  1.00  0.00     0.031 C 
ATOM     43  C   UNL     1       4.941  -9.045  -8.135  1.00  0.00     0.029 A 
ATOM     44  C   UNL     1       5.785  -9.591  -9.192  1.00  0.00     0.049 A 
ATOM     45  H   UNL     1       6.506  -8.601 -10.878  1.00  0.00     0.167 HD
ATOM     46  C   UNL     1       7.684  -6.476 -14.531  1.00  0.00     0.037 A 
ATOM     47  C   UNL     1       6.239 -10.857  -9.245  1.00  0.00     0.037 A 
ATOM     48  C   UNL     1       8.260  -7.791 -14.646  1.00  0.00     0.049 A 
ATOM     49  C   UNL     1       7.046 -11.293 -10.435  1.00  0.00     0.074 A 
ATOM     50  C   UNL     1       9.099  -8.280 -15.633  1.00  0.00     0.029 A 
ATOM     51  N   UNL     1       8.057  -8.826 -13.745  1.00  0.00    -0.354 N 
ATOM     52  N   UNL     1       7.431 -10.585 -11.470  1.00  0.00    -0.248 NA
ATOM     53  C   UNL     1       7.461 -12.701 -10.478  1.00  0.00     0.031 C 
ATOM     54  C   UNL     1       9.373  -9.622 -15.348  1.00  0.00     0.029 A 
ATOM     55  C   UNL     1       8.729  -9.960 -14.169  1.00  0.00     0.049 A 
ATOM     56  H   UNL     1       7.515  -8.763 -12.926  1.00  0.00     0.167 HD
ATOM     57  C   UNL     1       8.134 -11.462 -12.287  1.00  0.00     0.074 A 
ATOM     58  C   UNL     1       8.140 -12.746 -11.616  1.00  0.00     0.031 C 
ATOM     59  C   UNL     1       8.715 -11.228 -13.488  1.00  0.00     0.037 A 
BRANCH  46  60
ATOM     60  C   UNL     1       7.931  -5.505 -15.649  1.00  0.00     0.058 A 
ATOM     61  C   UNL     1       8.875  -4.475 -15.539  1.00  0.00     0.135 A 
ATOM     62  C   UNL     1       7.268  -5.662 -16.877  1.00  0.00     0.135 A 
ATOM     63  F   UNL     1       9.524  -4.272 -14.381  1.00  0.00    -0.206 F 
ATOM     64  C   UNL     1       9.153  -3.630 -16.609  1.00  0.00     0.059 A 
ATOM     65  C   UNL     1       7.541  -4.840 -17.965  1.00  0.00     0.059 A 
ATOM     66  F   UNL     1       6.351  -6.631 -17.029  1.00  0.00    -0.206 F 
ATOM     67  C   UNL     1       8.483  -3.822 -17.819  1.00  0.00     0.060 A 
BRANCH  67  68
ATOM     68  S   UNL     1       8.882  -2.744 -19.212  1.00  0.00     0.124 S 
ATOM     69  O   UNL     1       8.202  -1.511 -18.828  1.00  0.00    -0.237 OA
ATOM     70  O   UNL     1      10.340  -2.703 -19.171  1.00  0.00    -0.237 OA
ATOM     71  O   UNL     1       8.311  -3.445 -20.358  1.00  0.00    -0.744 OA
ENDBRANCH  67  68
ENDBRANCH  46  60
BRANCH  47  72
ATOM     72  C   UNL     1       5.883 -11.823  -8.174  1.00  0.00     0.058 A 
ATOM     73  C   UNL     1       6.849 -12.300  -7.277  1.00  0.00     0.135 A 
ATOM     74  C   UNL     1       4.569 -12.297  -8.036  1.00  0.00     0.135 A 
ATOM     75  F   UNL     1       8.120 -11.882  -7.376  1.00  0.00    -0.206 F 
ATOM     76  C   UNL     1       6.529 -13.227  -6.290  1.00  0.00     0.059 A 
ATOM     77  C   UNL     1       4.220 -13.205  -7.043  1.00  0.00     0.059 A 
ATOM     78  F   UNL     1       3.606 -11.861  -8.864  1.00  0.00    -0.206 F 
ATOM     79  C   UNL     1       5.212 -13.677  -6.184  1.00  0.00     0.060 A 
BRANCH  79  80
ATOM     80  S   UNL     1       4.790 -14.859  -4.886  1.00  0.00     0.124 S 
ATOM     81  O   UNL     1       5.227 -16.115  -5.483  1.00  0.00    -0.237 OA
ATOM     82  O   UNL     1       5.580 -14.379  -3.756  1.00  0.00    -0.237 OA
ATOM     83  O   UNL     1       3.346 -14.693  -4.744  1.00  0.00    -0.744 OA
ENDBRANCH  79  80
ENDBRANCH  47  72
BRANCH  59  84
ATOM     84  C   UNL     1       9.403 -12.385 -14.149  1.00  0.00     0.058 A 
ATOM     85  C   UNL     1       8.671 -13.389 -14.802  1.00  0.00     0.135 A 
ATOM     86  C   UNL     1      10.804 -12.471 -14.166  1.00  0.00     0.135 A 
ATOM     87  F   UNL     1       7.330 -13.354 -14.803  1.00  0.00    -0.206 F 
ATOM     88  C   UNL     1       9.306 -14.449 -15.439  1.00  0.00     0.059 A 
ATOM     89  C   UNL     1      11.460 -13.511 -14.814  1.00  0.00     0.059 A 
ATOM     90  F   UNL     1      11.546 -11.530 -13.560  1.00  0.00    -0.206 F 
ATOM     91  C   UNL     1      10.702 -14.502 -15.439  1.00  0.00     0.060 A 
BRANCH  91  92
ATOM     92  S   UNL     1      11.519 -15.861 -16.300  1.00  0.00     0.124 S 
ATOM     93  O   UNL     1      11.370 -16.948 -15.339  1.00  0.00    -0.237 OA
ATOM     94  O   UNL     1      10.730 -15.983 -17.522  1.00  0.00    -0.237 OA
ATOM     95  O   UNL     1      12.881 -15.370 -16.489  1.00  0.00    -0.744 OA
ENDBRANCH  91  92
ENDBRANCH  59  84
ENDBRANCH  33  34
ENDBRANCH  26  28
ENDBRANCH  25  26
ENDBRANCH  24  25
ENDBRANCH   1  24
TORSDOF 17
