REMARK SMILES CCCc1c(C(=O)OCCOC(=O)c2ccc(-c3c4nc(c(-c5c(F)cc(S(=O)(=O)[O-])cc5F)c5ccc([nH]5)c(-c5c(F)cc(S(=O)(=O)[O-])cc5F)c5nc(c(-c6c(F)cc(S(=O)(=O)[O-])cc6F)c6ccc3[nH]6)C=C5)C=C4)cc2)nnn1[C@@H](C)[C@H](C)O
REMARK SMILES IDX 9 1 8 2 6 3 7 4 5 5 4 6 82 7 80 8 81 9 3 10 2 11 1 12 83 13
REMARK SMILES IDX 84 14 85 15 86 16 87 17 10 19 11 20 12 21 13 22 14 23 15 24
REMARK SMILES IDX 79 25 16 26 78 27 17 28 18 29 19 30 72 31 20 32 77 33 71 34
REMARK SMILES IDX 73 35 21 36 76 37 70 38 69 39 22 41 56 42 35 43 55 44 36 45
REMARK SMILES IDX 39 46 54 47 74 48 37 49 38 50 53 52 75 53 40 54 23 55 24 56
REMARK SMILES IDX 33 57 25 58 26 59 32 60 34 61 27 62 28 63 29 64 30 65 31 66
REMARK SMILES IDX 57 67 58 68 67 69 59 70 60 71 66 72 68 73 61 74 62 75 63 76
REMARK SMILES IDX 64 77 65 78 41 79 42 80 51 81 43 82 44 83 50 84 52 85 45 86
REMARK SMILES IDX 46 87 47 88 48 89 49 90
REMARK H PARENT 87 18 73 40 39 51
REMARK Flexibility Score: inf
ROOT
ATOM      1  C   UNL     1       0.424  -3.989   5.244  1.00  0.00     0.275 C 
ENDROOT
BRANCH   1   2
ATOM      2  O   UNL     1       1.158  -2.768   5.047  1.00  0.00    -0.457 OA
BRANCH   2   3
ATOM      3  C   UNL     1       2.404  -2.896   4.489  1.00  0.00     0.360 C 
ATOM      4  O   UNL     1       2.982  -3.975   4.374  1.00  0.00    -0.244 OA
BRANCH   3   5
ATOM      5  C   UNL     1       2.959  -1.635   4.002  1.00  0.00     0.193 A 
ATOM      6  C   UNL     1       2.569  -0.326   4.266  1.00  0.00     0.074 A 
ATOM      7  N   UNL     1       3.465   0.430   3.539  1.00  0.00    -0.243 N 
ATOM      8  N   UNL     1       4.026  -1.610   3.131  1.00  0.00    -0.123 NA
ATOM      9  N   UNL     1       4.307  -0.350   2.840  1.00  0.00    -0.066 NA
BRANCH   6  10
ATOM     10  C   UNL     1       1.485   0.225   5.129  1.00  0.00     0.058 C 
BRANCH  10  11
ATOM     11  C   UNL     1       1.828   0.160   6.620  1.00  0.00     0.003 C 
ATOM     12  C   UNL     1       3.054   0.976   7.004  1.00  0.00     0.004 C 
ENDBRANCH  10  11
ENDBRANCH   6  10
BRANCH   7  13
ATOM     13  C   UNL     1       3.674   1.872   3.547  1.00  0.00     0.135 C 
ATOM     14  C   UNL     1       5.074   2.210   4.081  1.00  0.00     0.036 C 
BRANCH  13  15
ATOM     15  C   UNL     1       3.393   2.561   2.192  1.00  0.00     0.135 C 
ATOM     16  C   UNL     1       2.157   2.057   1.457  1.00  0.00     0.040 C 
BRANCH  15  17
ATOM     17  O   UNL     1       4.515   2.501   1.311  1.00  0.00    -0.391 OA
ATOM     18  H   UNL     1       4.685   1.578   1.065  1.00  0.00     0.211 HD
ENDBRANCH  15  17
ENDBRANCH  13  15
ENDBRANCH   7  13
ENDBRANCH   3   5
ENDBRANCH   2   3
ENDBRANCH   1   2
BRANCH   1  19
ATOM     19  C   UNL     1      -0.383  -4.364   4.009  1.00  0.00     0.275 C 
BRANCH  19  20
ATOM     20  O   UNL     1       0.465  -4.721   2.920  1.00  0.00    -0.458 OA
BRANCH  20  21
ATOM     21  C   UNL     1       0.730  -3.710   2.059  1.00  0.00     0.338 C 
ATOM     22  O   UNL     1       0.626  -2.515   2.282  1.00  0.00    -0.246 OA
BRANCH  21  23
ATOM     23  C   UNL     1       0.910  -4.262   0.715  1.00  0.00     0.060 A 
ATOM     24  C   UNL     1       1.306  -3.383  -0.298  1.00  0.00     0.016 A 
ATOM     25  C   UNL     1       0.381  -5.529   0.437  1.00  0.00     0.016 A 
ATOM     26  C   UNL     1       1.014  -3.713  -1.606  1.00  0.00     0.010 A 
ATOM     27  C   UNL     1       0.059  -5.839  -0.859  1.00  0.00     0.010 A 
ATOM     28  C   UNL     1       0.322  -4.901  -1.856  1.00  0.00    -0.014 A 
BRANCH  28  29
ATOM     29  C   UNL     1      -0.020  -5.244  -3.221  1.00  0.00     0.031 A 
ATOM     30  C   UNL     1       1.148  -5.766  -3.972  1.00  0.00     0.074 A 
ATOM     31  C   UNL     1      -1.302  -5.263  -3.638  1.00  0.00     0.049 A 
ATOM     32  N   UNL     1       1.759  -5.229  -4.974  1.00  0.00    -0.248 NA
ATOM     33  C   UNL     1       1.858  -6.928  -3.399  1.00  0.00     0.031 C 
ATOM     34  C   UNL     1      -2.504  -5.045  -2.825  1.00  0.00     0.029 A 
ATOM     35  N   UNL     1      -1.817  -5.600  -4.849  1.00  0.00    -0.354 N 
ATOM     36  C   UNL     1       2.764  -6.133  -5.312  1.00  0.00     0.074 A 
ATOM     37  C   UNL     1       2.940  -6.987  -4.173  1.00  0.00     0.031 C 
ATOM     38  C   UNL     1      -3.590  -5.480  -3.504  1.00  0.00     0.029 A 
ATOM     39  C   UNL     1      -3.179  -5.891  -4.835  1.00  0.00     0.049 A 
ATOM     40  H   UNL     1      -1.273  -5.636  -5.669  1.00  0.00     0.167 HD
ATOM     41  C   UNL     1       3.121  -6.323  -6.611  1.00  0.00     0.037 A 
ATOM     42  C   UNL     1      -3.885  -6.492  -5.828  1.00  0.00     0.037 A 
ATOM     43  C   UNL     1       2.659  -5.229  -7.428  1.00  0.00     0.049 A 
ATOM     44  C   UNL     1      -3.071  -6.375  -7.065  1.00  0.00     0.074 A 
ATOM     45  C   UNL     1       2.911  -3.874  -7.494  1.00  0.00     0.029 A 
ATOM     46  N   UNL     1       1.484  -5.447  -8.102  1.00  0.00    -0.354 N 
ATOM     47  N   UNL     1      -2.812  -5.243  -7.660  1.00  0.00    -0.248 NA
ATOM     48  C   UNL     1      -2.187  -7.476  -7.419  1.00  0.00     0.031 C 
ATOM     49  C   UNL     1       1.681  -3.279  -7.902  1.00  0.00     0.029 A 
ATOM     50  C   UNL     1       0.748  -4.294  -8.121  1.00  0.00     0.049 A 
ATOM     51  H   UNL     1       1.213  -6.301  -8.510  1.00  0.00     0.167 HD
ATOM     52  C   UNL     1      -1.509  -5.370  -8.114  1.00  0.00     0.074 A 
ATOM     53  C   UNL     1      -1.229  -6.801  -8.060  1.00  0.00     0.031 C 
ATOM     54  C   UNL     1      -0.698  -4.274  -8.204  1.00  0.00     0.037 A 
BRANCH  41  55
ATOM     55  C   UNL     1       3.442  -7.683  -7.209  1.00  0.00     0.058 A 
ATOM     56  C   UNL     1       3.848  -7.747  -8.559  1.00  0.00     0.135 A 
ATOM     57  C   UNL     1       3.084  -8.925  -6.632  1.00  0.00     0.135 A 
ATOM     58  F   UNL     1       4.216  -6.634  -9.215  1.00  0.00    -0.206 F 
ATOM     59  C   UNL     1       3.807  -8.929  -9.300  1.00  0.00     0.059 A 
ATOM     60  C   UNL     1       3.089 -10.122  -7.337  1.00  0.00     0.059 A 
ATOM     61  F   UNL     1       2.618  -9.043  -5.385  1.00  0.00    -0.206 F 
ATOM     62  C   UNL     1       3.406 -10.109  -8.682  1.00  0.00     0.060 A 
BRANCH  62  63
ATOM     63  S   UNL     1       3.244 -11.615  -9.653  1.00  0.00     0.124 S 
ATOM     64  O   UNL     1       2.099 -11.293 -10.496  1.00  0.00    -0.237 OA
ATOM     65  O   UNL     1       4.537 -11.682 -10.323  1.00  0.00    -0.237 OA
ATOM     66  O   UNL     1       3.014 -12.643  -8.641  1.00  0.00    -0.744 OA
ENDBRANCH  62  63
ENDBRANCH  41  55
BRANCH  42  67
ATOM     67  C   UNL     1      -5.037  -7.430  -5.726  1.00  0.00     0.058 A 
ATOM     68  C   UNL     1      -5.818  -7.754  -6.852  1.00  0.00     0.135 A 
ATOM     69  C   UNL     1      -5.218  -8.248  -4.593  1.00  0.00     0.135 A 
ATOM     70  F   UNL     1      -5.699  -7.041  -7.982  1.00  0.00    -0.206 F 
ATOM     71  C   UNL     1      -6.684  -8.854  -6.872  1.00  0.00     0.059 A 
ATOM     72  C   UNL     1      -6.081  -9.344  -4.586  1.00  0.00     0.059 A 
ATOM     73  F   UNL     1      -4.487  -8.063  -3.484  1.00  0.00    -0.206 F 
ATOM     74  C   UNL     1      -6.793  -9.658  -5.738  1.00  0.00     0.060 A 
BRANCH  74  75
ATOM     75  S   UNL     1      -7.769 -11.181  -5.813  1.00  0.00     0.124 S 
ATOM     76  O   UNL     1      -9.130 -10.663  -5.891  1.00  0.00    -0.237 OA
ATOM     77  O   UNL     1      -7.258 -11.817  -7.023  1.00  0.00    -0.237 OA
ATOM     78  O   UNL     1      -7.431 -11.861  -4.565  1.00  0.00    -0.744 OA
ENDBRANCH  74  75
ENDBRANCH  42  67
BRANCH  54  79
ATOM     79  C   UNL     1      -1.360  -2.922  -8.208  1.00  0.00     0.058 A 
ATOM     80  C   UNL     1      -2.042  -2.354  -7.118  1.00  0.00     0.135 A 
ATOM     81  C   UNL     1      -1.186  -2.119  -9.345  1.00  0.00     0.135 A 
ATOM     82  F   UNL     1      -2.169  -3.019  -5.961  1.00  0.00    -0.206 F 
ATOM     83  C   UNL     1      -2.562  -1.059  -7.173  1.00  0.00     0.059 A 
ATOM     84  C   UNL     1      -1.666  -0.817  -9.410  1.00  0.00     0.059 A 
ATOM     85  F   UNL     1      -0.493  -2.587 -10.397  1.00  0.00    -0.206 F 
ATOM     86  C   UNL     1      -2.368  -0.297  -8.325  1.00  0.00     0.060 A 
BRANCH  86  87
ATOM     87  S   UNL     1      -2.980   1.401  -8.376  1.00  0.00     0.124 S 
ATOM     88  O   UNL     1      -4.423   1.205  -8.470  1.00  0.00    -0.237 OA
ATOM     89  O   UNL     1      -2.496   1.952  -7.114  1.00  0.00    -0.237 OA
ATOM     90  O   UNL     1      -2.347   1.956  -9.570  1.00  0.00    -0.744 OA
ENDBRANCH  86  87
ENDBRANCH  54  79
ENDBRANCH  28  29
ENDBRANCH  21  23
ENDBRANCH  20  21
ENDBRANCH  19  20
ENDBRANCH   1  19
TORSDOF 19
