REMARK SMILES O=C(OCCOC(=O)[C@H]1CC=CC[C@@H]1C(=O)N[C@@H]1CCCN(c2ccccc2F)C1=O)c1ccc(-c2c3nc(c(-c4c(F)cc(S(=O)(=O)[O-])cc4F)c4ccc([nH]4)c(-c4c(F)cc(S(=O)(=O)[O-])cc4F)c4nc(c(-c5c(F)cc(S(=O)(=O)[O-])cc5F)c5ccc2[nH]5)C=C4)C=C3)cc1
REMARK SMILES IDX 4 1 3 2 2 3 1 4 32 5 33 6 97 7 34 8 96 9 35 10 36 11 37 12
REMARK SMILES IDX 90 13 38 14 95 15 89 16 91 17 39 18 94 19 88 20 87 21 40 23
REMARK SMILES IDX 74 24 53 25 73 26 54 27 57 28 72 29 92 30 55 31 56 32 71 34
REMARK SMILES IDX 93 35 58 36 41 37 42 38 51 39 43 40 44 41 50 42 52 43 45 44
REMARK SMILES IDX 46 45 47 46 48 47 49 48 75 49 76 50 85 51 77 52 78 53 84 54
REMARK SMILES IDX 86 55 79 56 80 57 81 58 82 59 83 60 59 61 60 62 69 63 61 64
REMARK SMILES IDX 62 65 68 66 70 67 63 68 64 69 65 70 66 71 67 72 5 73 6 74
REMARK SMILES IDX 7 75 8 76 9 77 10 78 14 79 11 80 13 81 12 82 15 83 16 84
REMARK SMILES IDX 17 85 18 87 19 88 30 89 20 90 22 91 31 92 21 93 23 94 24 95
REMARK SMILES IDX 28 96 25 97 27 98 29 99 26 100
REMARK H PARENT 91 22 57 33 17 86
REMARK Flexibility Score: inf
ROOT
ATOM      1  C   UNL     1       3.275   3.587  -1.700  1.00  0.00     0.275 C 
ENDROOT
BRANCH   1   2
ATOM      2  O   UNL     1       4.281   3.877  -0.708  1.00  0.00    -0.458 OA
BRANCH   2   3
ATOM      3  C   UNL     1       4.331   4.801   0.283  1.00  0.00     0.338 C 
ATOM      4  O   UNL     1       5.331   4.829   1.000  1.00  0.00    -0.246 OA
BRANCH   3   5
ATOM      5  C   UNL     1       3.217   5.745   0.626  1.00  0.00     0.060 A 
ATOM      6  C   UNL     1       2.293   6.278  -0.274  1.00  0.00     0.016 A 
ATOM      7  C   UNL     1       3.123   6.152   1.973  1.00  0.00     0.016 A 
ATOM      8  C   UNL     1       1.260   7.123   0.163  1.00  0.00     0.010 A 
ATOM      9  C   UNL     1       2.088   6.989   2.418  1.00  0.00     0.010 A 
ATOM     10  C   UNL     1       1.144   7.482   1.510  1.00  0.00    -0.014 A 
BRANCH  10  11
ATOM     11  C   UNL     1       0.151   8.510   1.914  1.00  0.00     0.031 A 
ATOM     12  C   UNL     1       0.615   9.935   1.984  1.00  0.00     0.074 A 
ATOM     13  C   UNL     1      -1.148   8.216   2.130  1.00  0.00     0.049 A 
ATOM     14  N   UNL     1      -0.100  11.018   2.127  1.00  0.00    -0.248 NA
ATOM     15  C   UNL     1       2.057  10.181   1.803  1.00  0.00     0.031 C 
ATOM     16  C   UNL     1      -1.754   6.901   1.970  1.00  0.00     0.029 A 
ATOM     17  N   UNL     1      -2.206   8.999   2.521  1.00  0.00    -0.354 N 
ATOM     18  C   UNL     1       0.786  12.071   1.957  1.00  0.00     0.074 A 
ATOM     19  C   UNL     1       2.106  11.505   1.798  1.00  0.00     0.031 C 
ATOM     20  C   UNL     1      -3.041   6.933   2.350  1.00  0.00     0.029 A 
ATOM     21  C   UNL     1      -3.379   8.300   2.707  1.00  0.00     0.049 A 
ATOM     22  H   UNL     1      -2.133   9.972   2.656  1.00  0.00     0.167 HD
ATOM     23  C   UNL     1       0.506  13.390   1.883  1.00  0.00     0.037 A 
ATOM     24  C   UNL     1      -4.603   8.720   3.078  1.00  0.00     0.037 A 
ATOM     25  C   UNL     1      -0.802  13.943   2.100  1.00  0.00     0.049 A 
ATOM     26  C   UNL     1      -4.845  10.191   3.186  1.00  0.00     0.074 A 
ATOM     27  C   UNL     1      -1.190  15.270   2.076  1.00  0.00     0.029 A 
ATOM     28  N   UNL     1      -1.933  13.199   2.405  1.00  0.00    -0.354 N 
ATOM     29  N   UNL     1      -4.004  11.172   2.969  1.00  0.00    -0.248 NA
ATOM     30  C   UNL     1      -6.209  10.614   3.521  1.00  0.00     0.031 C 
ATOM     31  C   UNL     1      -2.543  15.333   2.423  1.00  0.00     0.029 A 
ATOM     32  C   UNL     1      -3.010  14.043   2.612  1.00  0.00     0.049 A 
ATOM     33  H   UNL     1      -1.964  12.217   2.466  1.00  0.00     0.167 HD
ATOM     34  C   UNL     1      -4.746  12.334   3.103  1.00  0.00     0.074 A 
ATOM     35  C   UNL     1      -6.103  11.931   3.420  1.00  0.00     0.031 C 
ATOM     36  C   UNL     1      -4.343  13.619   2.957  1.00  0.00     0.037 A 
BRANCH  23  37
ATOM     37  C   UNL     1       1.633  14.315   1.537  1.00  0.00     0.058 A 
ATOM     38  C   UNL     1       2.187  15.167   2.502  1.00  0.00     0.135 A 
ATOM     39  C   UNL     1       2.130  14.389   0.225  1.00  0.00     0.135 A 
ATOM     40  F   UNL     1       1.760  15.117   3.773  1.00  0.00    -0.206 F 
ATOM     41  C   UNL     1       3.178  16.084   2.172  1.00  0.00     0.059 A 
ATOM     42  C   UNL     1       3.133  15.287  -0.123  1.00  0.00     0.059 A 
ATOM     43  F   UNL     1       1.653  13.569  -0.726  1.00  0.00    -0.206 F 
ATOM     44  C   UNL     1       3.638  16.143   0.854  1.00  0.00     0.060 A 
BRANCH  44  45
ATOM     45  S   UNL     1       4.915  17.350   0.444  1.00  0.00     0.124 S 
ATOM     46  O   UNL     1       4.201  18.610   0.611  1.00  0.00    -0.237 OA
ATOM     47  O   UNL     1       5.939  17.059   1.443  1.00  0.00    -0.237 OA
ATOM     48  O   UNL     1       5.276  17.008  -0.929  1.00  0.00    -0.744 OA
ENDBRANCH  44  45
ENDBRANCH  23  37
BRANCH  24  49
ATOM     49  C   UNL     1      -5.706   7.758   3.324  1.00  0.00     0.058 A 
ATOM     50  C   UNL     1      -5.810   7.109   4.561  1.00  0.00     0.135 A 
ATOM     51  C   UNL     1      -6.687   7.491   2.358  1.00  0.00     0.135 A 
ATOM     52  F   UNL     1      -4.893   7.325   5.515  1.00  0.00    -0.206 F 
ATOM     53  C   UNL     1      -6.836   6.208   4.825  1.00  0.00     0.059 A 
ATOM     54  C   UNL     1      -7.721   6.589   2.598  1.00  0.00     0.059 A 
ATOM     55  F   UNL     1      -6.644   8.116   1.172  1.00  0.00    -0.206 F 
ATOM     56  C   UNL     1      -7.769   5.932   3.827  1.00  0.00     0.060 A 
BRANCH  56  57
ATOM     57  S   UNL     1      -9.011   4.661   4.145  1.00  0.00     0.124 S 
ATOM     58  O   UNL     1      -8.214   3.450   3.967  1.00  0.00    -0.237 OA
ATOM     59  O   UNL     1      -9.417   4.957   5.515  1.00  0.00    -0.237 OA
ATOM     60  O   UNL     1     -10.018   4.914   3.122  1.00  0.00    -0.744 OA
ENDBRANCH  56  57
ENDBRANCH  24  49
BRANCH  36  61
ATOM     61  C   UNL     1      -5.385  14.676   3.148  1.00  0.00     0.058 A 
ATOM     62  C   UNL     1      -5.860  15.412   2.052  1.00  0.00     0.135 A 
ATOM     63  C   UNL     1      -5.887  14.982   4.422  1.00  0.00     0.135 A 
ATOM     64  F   UNL     1      -5.411  15.152   0.814  1.00  0.00    -0.206 F 
ATOM     65  C   UNL     1      -6.789  16.429   2.216  1.00  0.00     0.059 A 
ATOM     66  C   UNL     1      -6.840  15.975   4.604  1.00  0.00     0.059 A 
ATOM     67  F   UNL     1      -5.476  14.287   5.495  1.00  0.00    -0.206 F 
ATOM     68  C   UNL     1      -7.273  16.703   3.496  1.00  0.00     0.060 A 
BRANCH  68  69
ATOM     69  S   UNL     1      -8.505  18.006   3.687  1.00  0.00     0.124 S 
ATOM     70  O   UNL     1      -7.700  19.206   3.488  1.00  0.00    -0.237 OA
ATOM     71  O   UNL     1      -9.453  17.692   2.623  1.00  0.00    -0.237 OA
ATOM     72  O   UNL     1      -9.005  17.801   5.043  1.00  0.00    -0.744 OA
ENDBRANCH  68  69
ENDBRANCH  36  61
ENDBRANCH  10  11
ENDBRANCH   3   5
ENDBRANCH   2   3
ENDBRANCH   1   2
BRANCH   1  73
ATOM     73  C   UNL     1       2.127   2.723  -1.197  1.00  0.00     0.274 C 
BRANCH  73  74
ATOM     74  O   UNL     1       1.618   3.226   0.036  1.00  0.00    -0.462 OA
BRANCH  74  75
ATOM     75  C   UNL     1       1.915   2.542   1.177  1.00  0.00     0.310 C 
ATOM     76  O   UNL     1       2.598   1.522   1.217  1.00  0.00    -0.252 OA
BRANCH  75  77
ATOM     77  C   UNL     1       1.331   3.253   2.393  1.00  0.00     0.115 C 
ATOM     78  C   UNL     1       0.063   4.015   2.017  1.00  0.00     0.043 C 
ATOM     79  C   UNL     1       1.018   2.292   3.546  1.00  0.00     0.097 C 
ATOM     80  C   UNL     1      -1.079   3.093   1.701  1.00  0.00    -0.030 C 
ATOM     81  C   UNL     1      -0.066   1.292   3.117  1.00  0.00     0.041 C 
ATOM     82  C   UNL     1      -1.114   1.841   2.179  1.00  0.00    -0.030 C 
BRANCH  79  83
ATOM     83  C   UNL     1       0.942   3.115   4.862  1.00  0.00     0.224 C 
ATOM     84  O   UNL     1       2.009   3.462   5.391  1.00  0.00    -0.275 OA
ATOM     85  N   UNL     1      -0.184   3.622   5.435  1.00  0.00    -0.344 N 
ATOM     86  H   UNL     1      -0.033   4.281   6.150  1.00  0.00     0.164 HD
BRANCH  85  87
ATOM     87  C   UNL     1      -1.574   3.330   5.143  1.00  0.00     0.172 C 
ATOM     88  C   UNL     1      -2.593   4.341   5.631  1.00  0.00     0.037 C 
ATOM     89  C   UNL     1      -1.981   1.953   5.678  1.00  0.00     0.249 C 
ATOM     90  C   UNL     1      -3.913   3.987   4.943  1.00  0.00     0.025 C 
ATOM     91  N   UNL     1      -3.212   1.551   5.139  1.00  0.00    -0.308 N 
ATOM     92  O   UNL     1      -1.186   1.272   6.319  1.00  0.00    -0.272 OA
ATOM     93  C   UNL     1      -4.320   2.516   5.103  1.00  0.00     0.126 C 
BRANCH  91  94
ATOM     94  C   UNL     1      -3.402   0.207   4.674  1.00  0.00     0.080 A 
ATOM     95  C   UNL     1      -4.091  -0.010   3.468  1.00  0.00     0.029 A 
ATOM     96  C   UNL     1      -2.783  -0.908   5.264  1.00  0.00     0.146 A 
ATOM     97  C   UNL     1      -4.090  -1.268   2.849  1.00  0.00     0.002 A 
ATOM     98  C   UNL     1      -2.776  -2.159   4.648  1.00  0.00     0.041 A 
ATOM     99  F   UNL     1      -2.235  -0.846   6.485  1.00  0.00    -0.205 F 
ATOM    100  C   UNL     1      -3.417  -2.339   3.429  1.00  0.00     0.003 A 
ENDBRANCH  91  94
ENDBRANCH  85  87
ENDBRANCH  79  83
ENDBRANCH  75  77
ENDBRANCH  74  75
ENDBRANCH  73  74
ENDBRANCH   1  73
TORSDOF 17
