REMARK SMILES Cc1ccccc1C[C@H](CCSc1ccccc1)C(=O)OCCOC(=O)c1ccc(-c2c3nc(c(-c4c(F)cc(S(=O)(=O)[O-])cc4F)c4ccc([nH]4)c(-c4c(F)cc(S(=O)(=O)[O-])cc4F)c4nc(c(-c5c(F)cc(S(=O)(=O)[O-])cc5F)c5ccc2[nH]5)C=C4)C=C3)cc1
REMARK SMILES IDX 22 1 21 2 19 3 20 4 9 5 8 6 7 7 1 8 2 9 3 10 4 11 6 12 5 13
REMARK SMILES IDX 10 14 11 15 12 16 13 17 14 18 18 19 15 20 17 21 16 22 23 23
REMARK SMILES IDX 24 24 25 25 26 26 27 27 28 28 92 29 29 30 91 31 30 32 31 33
REMARK SMILES IDX 32 34 85 35 33 36 90 37 84 38 86 39 34 40 89 41 83 42 82 43
REMARK SMILES IDX 35 45 69 46 48 47 68 48 49 49 52 50 67 51 87 52 50 53 51 54
REMARK SMILES IDX 66 56 88 57 53 58 36 59 37 60 46 61 38 62 39 63 45 64 47 65
REMARK SMILES IDX 40 66 41 67 42 68 43 69 44 70 70 71 71 72 80 73 72 74 73 75
REMARK SMILES IDX 79 76 81 77 74 78 75 79 76 80 77 81 78 82 54 83 55 84 64 85
REMARK SMILES IDX 56 86 57 87 63 88 65 89 58 90 59 91 60 92 61 93 62 94
REMARK H PARENT 86 44 52 55
REMARK Flexibility Score: inf
ROOT
ATOM      1  C   UNL     1       3.770   7.287  -0.275  1.00  0.00     0.274 C 
ENDROOT
BRANCH   1   2
ATOM      2  O   UNL     1       2.553   6.574  -0.137  1.00  0.00    -0.462 OA
BRANCH   2   3
ATOM      3  C   UNL     1       2.323   5.482  -1.090  1.00  0.00     0.309 C 
ATOM      4  O   UNL     1       3.087   5.762  -2.060  1.00  0.00    -0.252 OA
BRANCH   3   5
ATOM      5  C   UNL     1       0.861   3.894  -0.765  1.00  0.00     0.104 C 
BRANCH   5   6
ATOM      6  C   UNL     1      -0.947   4.094  -0.553  1.00  0.00     0.051 C 
BRANCH   6   7
ATOM      7  C   UNL     1      -1.653   5.284  -1.154  1.00  0.00    -0.044 A 
ATOM      8  C   UNL     1      -3.168   4.080  -3.295  1.00  0.00     0.044 C 
ATOM      9  C   UNL     1      -2.123   5.130  -2.901  1.00  0.00    -0.048 A 
ATOM     10  C   UNL     1      -2.288   6.591  -3.898  1.00  0.00     0.004 A 
ATOM     11  C   UNL     1      -2.156   8.217  -3.140  1.00  0.00     0.000 A 
ATOM     12  C   UNL     1      -1.466   6.986  -0.394  1.00  0.00     0.004 A 
ATOM     13  C   UNL     1      -1.772   8.436  -1.392  1.00  0.00     0.000 A 
ENDBRANCH   6   7
ENDBRANCH   5   6
BRANCH   5  14
ATOM     14  C   UNL     1       0.817   2.391   0.137  1.00  0.00     0.027 C 
BRANCH  14  15
ATOM     15  C   UNL     1      -0.333   1.332  -0.217  1.00  0.00     0.076 C 
BRANCH  15  16
ATOM     16  S   UNL     1      -0.237   0.158  -1.674  1.00  0.00    -0.126 SA
BRANCH  16  17
ATOM     17  C   UNL     1      -0.985   0.836  -3.168  1.00  0.00     0.007 A 
ATOM     18  C   UNL     1      -0.720   2.108  -3.636  1.00  0.00     0.015 A 
ATOM     19  C   UNL     1      -1.676   0.005  -4.065  1.00  0.00     0.015 A 
ATOM     20  C   UNL     1      -1.057   2.553  -4.919  1.00  0.00     0.001 A 
ATOM     21  C   UNL     1      -2.041   0.443  -5.361  1.00  0.00     0.001 A 
ATOM     22  C   UNL     1      -1.714   1.720  -5.796  1.00  0.00     0.000 A 
ENDBRANCH  16  17
ENDBRANCH  15  16
ENDBRANCH  14  15
ENDBRANCH   5  14
ENDBRANCH   3   5
ENDBRANCH   2   3
ENDBRANCH   1   2
BRANCH   1  23
ATOM     23  C   UNL     1       4.850   6.400   0.344  1.00  0.00     0.275 C 
BRANCH  23  24
ATOM     24  O   UNL     1       5.056   5.096  -0.299  1.00  0.00    -0.458 OA
BRANCH  24  25
ATOM     25  C   UNL     1       4.500   3.914   0.125  1.00  0.00     0.338 C 
ATOM     26  O   UNL     1       5.141   3.013   0.644  1.00  0.00    -0.246 OA
BRANCH  25  27
ATOM     27  C   UNL     1       3.043   3.740  -0.221  1.00  0.00     0.060 A 
ATOM     28  C   UNL     1       2.658   3.594  -1.954  1.00  0.00     0.016 A 
ATOM     29  C   UNL     1       1.998   4.667   0.853  1.00  0.00     0.016 A 
ATOM     30  C   UNL     1       1.355   4.616  -2.715  1.00  0.00     0.010 A 
ATOM     31  C   UNL     1       0.702   5.694   0.151  1.00  0.00     0.010 A 
ATOM     32  C   UNL     1       0.423   5.757  -1.681  1.00  0.00    -0.014 A 
BRANCH  32  33
ATOM     33  C   UNL     1      -0.767   6.767  -2.362  1.00  0.00     0.031 A 
ATOM     34  C   UNL     1      -2.852   6.751  -1.823  1.00  0.00     0.074 A 
ATOM     35  C   UNL     1       0.227   7.630  -2.991  1.00  0.00     0.049 A 
ATOM     36  N   UNL     1      -4.018   7.081  -2.462  1.00  0.00    -0.248 NA
ATOM     37  C   UNL     1      -3.642   6.152  -0.387  1.00  0.00     0.031 C 
ATOM     38  C   UNL     1       0.237   9.118  -3.223  1.00  0.00     0.029 A 
ATOM     39  N   UNL     1       0.947   7.215  -4.156  1.00  0.00    -0.354 N 
ATOM     40  C   UNL     1      -5.002   7.405  -1.553  1.00  0.00     0.074 A 
ATOM     41  C   UNL     1      -4.918   6.436  -0.536  1.00  0.00     0.031 C 
ATOM     42  C   UNL     1       0.440   9.402  -4.516  1.00  0.00     0.029 A 
ATOM     43  C   UNL     1       0.742   8.172  -5.182  1.00  0.00     0.049 A 
ATOM     44  H   UNL     1       1.495   6.401  -4.232  1.00  0.00     0.167 HD
ATOM     45  C   UNL     1      -5.508   8.678  -1.534  1.00  0.00     0.037 A 
ATOM     46  C   UNL     1       0.456   7.892  -6.475  1.00  0.00     0.037 A 
ATOM     47  C   UNL     1      -4.996   9.476  -2.680  1.00  0.00     0.049 A 
ATOM     48  C   UNL     1      -0.936   8.361  -6.913  1.00  0.00     0.074 A 
ATOM     49  C   UNL     1      -4.277  10.655  -2.821  1.00  0.00     0.029 A 
ATOM     50  N   UNL     1      -4.964   8.895  -3.950  1.00  0.00    -0.354 N 
ATOM     51  N   UNL     1      -1.882   8.848  -6.134  1.00  0.00    -0.248 NA
ATOM     52  C   UNL     1      -1.359   8.329  -8.310  1.00  0.00     0.031 C 
ATOM     53  C   UNL     1      -3.907  10.812  -4.197  1.00  0.00     0.029 A 
ATOM     54  C   UNL     1      -4.333   9.692  -4.894  1.00  0.00     0.049 A 
ATOM     55  H   UNL     1      -5.350   8.012  -4.154  1.00  0.00     0.167 HD
ATOM     56  C   UNL     1      -3.064   9.017  -6.856  1.00  0.00     0.074 A 
ATOM     57  C   UNL     1      -2.618   8.791  -8.222  1.00  0.00     0.031 C 
ATOM     58  C   UNL     1      -4.312   9.267  -6.300  1.00  0.00     0.037 A 
BRANCH  45  59
ATOM     59  C   UNL     1      -6.274   9.282  -0.339  1.00  0.00     0.058 A 
ATOM     60  C   UNL     1      -6.596  10.657  -0.332  1.00  0.00     0.135 A 
ATOM     61  C   UNL     1      -6.739   8.605   0.821  1.00  0.00     0.135 A 
ATOM     62  F   UNL     1      -6.289  11.457  -1.360  1.00  0.00    -0.206 F 
ATOM     63  C   UNL     1      -7.283  11.291   0.711  1.00  0.00     0.059 A 
ATOM     64  C   UNL     1      -7.402   9.220   1.888  1.00  0.00     0.059 A 
ATOM     65  F   UNL     1      -6.653   7.289   0.998  1.00  0.00    -0.206 F 
ATOM     66  C   UNL     1      -7.692  10.562   1.816  1.00  0.00     0.060 A 
BRANCH  66  67
ATOM     67  S   UNL     1      -8.685  11.352   3.087  1.00  0.00     0.124 S 
ATOM     68  O   UNL     1      -7.825  12.455   3.506  1.00  0.00    -0.237 OA
ATOM     69  O   UNL     1      -9.883  11.723   2.342  1.00  0.00    -0.237 OA
ATOM     70  O   UNL     1      -8.871  10.299   4.082  1.00  0.00    -0.744 OA
ENDBRANCH  66  67
ENDBRANCH  45  59
BRANCH  46  71
ATOM     71  C   UNL     1       1.302   6.750  -6.941  1.00  0.00     0.058 A 
ATOM     72  C   UNL     1       2.701   6.990  -6.960  1.00  0.00     0.135 A 
ATOM     73  C   UNL     1       0.891   5.435  -6.719  1.00  0.00     0.135 A 
ATOM     74  F   UNL     1       3.162   8.222  -7.234  1.00  0.00    -0.206 F 
ATOM     75  C   UNL     1       3.621   6.039  -6.522  1.00  0.00     0.059 A 
ATOM     76  C   UNL     1       1.806   4.451  -6.316  1.00  0.00     0.059 A 
ATOM     77  F   UNL     1      -0.417   5.145  -6.730  1.00  0.00    -0.206 F 
ATOM     78  C   UNL     1       3.154   4.784  -6.149  1.00  0.00     0.060 A 
BRANCH  78  79
ATOM     79  S   UNL     1       4.308   3.645  -5.339  1.00  0.00     0.124 S 
ATOM     80  O   UNL     1       5.238   3.337  -6.418  1.00  0.00    -0.237 OA
ATOM     81  O   UNL     1       4.857   4.459  -4.261  1.00  0.00    -0.237 OA
ATOM     82  O   UNL     1       3.450   2.542  -4.918  1.00  0.00    -0.744 OA
ENDBRANCH  78  79
ENDBRANCH  46  71
BRANCH  58  83
ATOM     83  C   UNL     1      -5.715   9.175  -6.977  1.00  0.00     0.058 A 
ATOM     84  C   UNL     1      -5.975   8.840  -8.314  1.00  0.00     0.135 A 
ATOM     85  C   UNL     1      -6.915   9.399  -6.223  1.00  0.00     0.135 A 
ATOM     86  F   UNL     1      -5.017   8.471  -9.164  1.00  0.00    -0.206 F 
ATOM     87  C   UNL     1      -7.262   8.830  -8.870  1.00  0.00     0.059 A 
ATOM     88  C   UNL     1      -8.208   9.306  -6.732  1.00  0.00     0.059 A 
ATOM     89  F   UNL     1      -6.920   9.736  -4.928  1.00  0.00    -0.206 F 
ATOM     90  C   UNL     1      -8.372   9.068  -8.074  1.00  0.00     0.060 A 
BRANCH  90  91
ATOM     91  S   UNL     1     -10.008   9.079  -8.810  1.00  0.00     0.124 S 
ATOM     92  O   UNL     1      -9.933  10.262  -9.663  1.00  0.00    -0.237 OA
ATOM     93  O   UNL     1     -10.037   7.797  -9.507  1.00  0.00    -0.237 OA
ATOM     94  O   UNL     1     -10.905   9.187  -7.664  1.00  0.00    -0.744 OA
ENDBRANCH  90  91
ENDBRANCH  58  83
ENDBRANCH  32  33
ENDBRANCH  25  27
ENDBRANCH  24  25
ENDBRANCH  23  24
ENDBRANCH   1  23
TORSDOF 20
