REMARK SMILES C[C@H](Nc1cccc(F)c1C(=O)OCCOC(=O)c1ccc(-c2c3nc(c(-c4c(F)cc(S(=O)(=O)[O-])cc4F)c4ccc([nH]4)c(-c4c(F)cc(S(=O)(=O)[O-])cc4F)c4nc(c(-c5c(F)cc(S(=O)(=O)[O-])cc5F)c5ccc2[nH]5)C=C4)C=C3)cc1)c1cccc(Cl)c1
REMARK SMILES IDX 14 1 13 2 11 3 12 4 10 5 4 6 5 7 6 8 8 9 7 10 9 11 3 12 2 14
REMARK SMILES IDX 1 15 85 16 86 17 91 18 87 19 89 20 88 21 90 22 15 23 16 24
REMARK SMILES IDX 17 25 18 26 19 27 20 28 84 29 21 30 83 31 22 32 23 33 24 34
REMARK SMILES IDX 77 35 25 36 82 37 76 38 78 39 26 40 81 41 75 42 74 43 27 45
REMARK SMILES IDX 61 46 40 47 60 48 41 49 44 50 59 51 79 52 42 53 43 54 58 56
REMARK SMILES IDX 80 57 45 58 28 59 29 60 38 61 30 62 31 63 37 64 39 65 32 66
REMARK SMILES IDX 33 67 34 68 35 69 36 70 62 71 63 72 72 73 64 74 65 75 71 76
REMARK SMILES IDX 73 77 66 78 67 79 68 80 69 81 70 82 46 83 47 84 56 85 48 86
REMARK SMILES IDX 49 87 55 88 57 89 50 90 51 91 52 92 53 93 54 94
REMARK H PARENT 3 13 78 44 44 55
REMARK Flexibility Score: inf
ROOT
ATOM      1  C   UNL     1       0.565  -4.038   2.159  1.00  0.00     0.275 C 
ENDROOT
BRANCH   1   2
ATOM      2  O   UNL     1       1.566  -3.137   1.645  1.00  0.00    -0.458 OA
BRANCH   2   3
ATOM      3  C   UNL     1       1.685  -3.113   0.291  1.00  0.00     0.343 C 
ATOM      4  O   UNL     1       1.051  -3.776  -0.510  1.00  0.00    -0.246 OA
BRANCH   3   5
ATOM      5  C   UNL     1       2.789  -2.224  -0.093  1.00  0.00     0.118 A 
ATOM      6  C   UNL     1       2.604  -1.019  -0.803  1.00  0.00     0.052 A 
ATOM      7  C   UNL     1       3.753  -0.282  -1.135  1.00  0.00     0.027 A 
ATOM      8  C   UNL     1       5.036  -0.751  -0.831  1.00  0.00     0.005 A 
ATOM      9  C   UNL     1       4.072  -2.693   0.197  1.00  0.00     0.139 A 
ATOM     10  C   UNL     1       5.195  -1.964  -0.169  1.00  0.00     0.040 A 
ATOM     11  F   UNL     1       4.248  -3.865   0.828  1.00  0.00    -0.206 F 
BRANCH   6  12
ATOM     12  N   UNL     1       1.357  -0.436  -0.983  1.00  0.00    -0.378 N 
ATOM     13  H   UNL     1       0.857  -0.214  -0.164  1.00  0.00     0.161 HD
BRANCH  12  14
ATOM     14  C   UNL     1       0.695  -0.113  -2.260  1.00  0.00     0.106 C 
ATOM     15  C   UNL     1       1.312  -0.786  -3.475  1.00  0.00     0.036 C 
BRANCH  14  16
ATOM     16  C   UNL     1      -0.802  -0.418  -2.160  1.00  0.00    -0.025 A 
ATOM     17  C   UNL     1      -1.740   0.408  -2.796  1.00  0.00     0.006 A 
ATOM     18  C   UNL     1      -1.298  -1.524  -1.451  1.00  0.00     0.026 A 
ATOM     19  C   UNL     1      -3.118   0.170  -2.667  1.00  0.00     0.002 A 
ATOM     20  C   UNL     1      -2.671  -1.733  -1.289  1.00  0.00     0.041 A 
ATOM     21  C   UNL     1      -3.586  -0.874  -1.877  1.00  0.00     0.020 A 
ATOM     22  Cl  UNL     1      -3.231  -3.059  -0.345  1.00  0.00    -0.084 Cl
ENDBRANCH  14  16
ENDBRANCH  12  14
ENDBRANCH   6  12
ENDBRANCH   3   5
ENDBRANCH   2   3
ENDBRANCH   1   2
BRANCH   1  23
ATOM     23  C   UNL     1      -0.114  -3.415   3.376  1.00  0.00     0.275 C 
BRANCH  23  24
ATOM     24  O   UNL     1      -0.739  -2.174   2.994  1.00  0.00    -0.458 OA
BRANCH  24  25
ATOM     25  C   UNL     1      -0.185  -1.057   3.522  1.00  0.00     0.338 C 
ATOM     26  O   UNL     1       0.709  -0.993   4.352  1.00  0.00    -0.246 OA
BRANCH  25  27
ATOM     27  C   UNL     1      -0.757   0.145   2.891  1.00  0.00     0.060 A 
ATOM     28  C   UNL     1      -0.498   0.356   1.546  1.00  0.00     0.016 A 
ATOM     29  C   UNL     1      -1.362   1.151   3.640  1.00  0.00     0.016 A 
ATOM     30  C   UNL     1      -0.721   1.613   0.976  1.00  0.00     0.010 A 
ATOM     31  C   UNL     1      -1.687   2.380   3.033  1.00  0.00     0.010 A 
ATOM     32  C   UNL     1      -1.322   2.654   1.702  1.00  0.00    -0.014 A 
BRANCH  32  33
ATOM     33  C   UNL     1      -1.487   4.012   1.073  1.00  0.00     0.031 A 
ATOM     34  C   UNL     1      -0.917   5.244   1.725  1.00  0.00     0.074 A 
ATOM     35  C   UNL     1      -2.078   4.164  -0.134  1.00  0.00     0.049 A 
ATOM     36  N   UNL     1      -1.084   6.496   1.379  1.00  0.00    -0.248 NA
ATOM     37  C   UNL     1      -0.071   5.059   2.913  1.00  0.00     0.031 C 
ATOM     38  C   UNL     1      -2.667   3.074  -0.896  1.00  0.00     0.029 A 
ATOM     39  N   UNL     1      -2.256   5.260  -0.955  1.00  0.00    -0.354 N 
ATOM     40  C   UNL     1      -0.435   7.249   2.347  1.00  0.00     0.074 A 
ATOM     41  C   UNL     1       0.153   6.314   3.282  1.00  0.00     0.031 C 
ATOM     42  C   UNL     1      -3.026   3.523  -2.105  1.00  0.00     0.029 A 
ATOM     43  C   UNL     1      -2.839   4.959  -2.169  1.00  0.00     0.049 A 
ATOM     44  H   UNL     1      -1.991   6.173  -0.698  1.00  0.00     0.167 HD
ATOM     45  C   UNL     1      -0.360   8.596   2.450  1.00  0.00     0.037 A 
ATOM     46  C   UNL     1      -3.249   5.718  -3.209  1.00  0.00     0.037 A 
ATOM     47  C   UNL     1      -0.908   9.523   1.490  1.00  0.00     0.049 A 
ATOM     48  C   UNL     1      -3.164   7.207  -3.066  1.00  0.00     0.074 A 
ATOM     49  C   UNL     1      -0.900  10.907   1.538  1.00  0.00     0.029 A 
ATOM     50  N   UNL     1      -1.540   9.171   0.306  1.00  0.00    -0.354 N 
ATOM     51  N   UNL     1      -2.642   7.898  -2.083  1.00  0.00    -0.248 NA
ATOM     52  C   UNL     1      -3.778   8.022  -4.123  1.00  0.00     0.031 C 
ATOM     53  C   UNL     1      -1.565  11.391   0.408  1.00  0.00     0.029 A 
ATOM     54  C   UNL     1      -1.934  10.312  -0.377  1.00  0.00     0.049 A 
ATOM     55  H   UNL     1      -1.688   8.248  -0.003  1.00  0.00     0.167 HD
ATOM     56  C   UNL     1      -2.885   9.228  -2.391  1.00  0.00     0.074 A 
ATOM     57  C   UNL     1      -3.555   9.250  -3.675  1.00  0.00     0.031 C 
ATOM     58  C   UNL     1      -2.600  10.328  -1.655  1.00  0.00     0.037 A 
BRANCH  45  59
ATOM     59  C   UNL     1       0.287   9.168   3.679  1.00  0.00     0.058 A 
ATOM     60  C   UNL     1      -0.506   9.795   4.654  1.00  0.00     0.135 A 
ATOM     61  C   UNL     1       1.677   9.168   3.861  1.00  0.00     0.135 A 
ATOM     62  F   UNL     1      -1.843   9.810   4.533  1.00  0.00    -0.206 F 
ATOM     63  C   UNL     1       0.059  10.432   5.751  1.00  0.00     0.059 A 
ATOM     64  C   UNL     1       2.264   9.777   4.967  1.00  0.00     0.059 A 
ATOM     65  F   UNL     1       2.475   8.554   2.974  1.00  0.00    -0.206 F 
ATOM     66  C   UNL     1       1.447  10.424   5.896  1.00  0.00     0.060 A 
BRANCH  66  67
ATOM     67  S   UNL     1       2.162  11.263   7.325  1.00  0.00     0.124 S 
ATOM     68  O   UNL     1       1.865  12.661   7.032  1.00  0.00    -0.237 OA
ATOM     69  O   UNL     1       1.414  10.671   8.430  1.00  0.00    -0.237 OA
ATOM     70  O   UNL     1       3.573  10.893   7.263  1.00  0.00    -0.744 OA
ENDBRANCH  66  67
ENDBRANCH  45  59
BRANCH  46  71
ATOM     71  C   UNL     1      -3.870   5.102  -4.427  1.00  0.00     0.058 A 
ATOM     72  C   UNL     1      -5.059   4.356  -4.346  1.00  0.00     0.135 A 
ATOM     73  C   UNL     1      -3.294   5.249  -5.701  1.00  0.00     0.135 A 
ATOM     74  F   UNL     1      -5.669   4.184  -3.163  1.00  0.00    -0.206 F 
ATOM     75  C   UNL     1      -5.619   3.737  -5.458  1.00  0.00     0.059 A 
ATOM     76  C   UNL     1      -3.866   4.680  -6.840  1.00  0.00     0.059 A 
ATOM     77  F   UNL     1      -2.175   5.974  -5.851  1.00  0.00    -0.206 F 
ATOM     78  C   UNL     1      -5.018   3.907  -6.703  1.00  0.00     0.060 A 
BRANCH  78  79
ATOM     79  S   UNL     1      -5.789   3.121  -8.135  1.00  0.00     0.124 S 
ATOM     80  O   UNL     1      -5.472   1.717  -7.898  1.00  0.00    -0.237 OA
ATOM     81  O   UNL     1      -7.191   3.493  -7.969  1.00  0.00    -0.237 OA
ATOM     82  O   UNL     1      -5.107   3.740  -9.267  1.00  0.00    -0.744 OA
ENDBRANCH  78  79
ENDBRANCH  46  71
BRANCH  58  83
ATOM     83  C   UNL     1      -2.990  11.657  -2.229  1.00  0.00     0.058 A 
ATOM     84  C   UNL     1      -2.006  12.542  -2.696  1.00  0.00     0.135 A 
ATOM     85  C   UNL     1      -4.329  12.079  -2.267  1.00  0.00     0.135 A 
ATOM     86  F   UNL     1      -0.713  12.182  -2.686  1.00  0.00    -0.206 F 
ATOM     87  C   UNL     1      -2.333  13.810  -3.157  1.00  0.00     0.059 A 
ATOM     88  C   UNL     1      -4.682  13.334  -2.752  1.00  0.00     0.059 A 
ATOM     89  F   UNL     1      -5.308  11.258  -1.853  1.00  0.00    -0.206 F 
ATOM     90  C   UNL     1      -3.673  14.199  -3.177  1.00  0.00     0.060 A 
BRANCH  90  91
ATOM     91  S   UNL     1      -4.074  15.851  -3.781  1.00  0.00     0.124 S 
ATOM     92  O   UNL     1      -3.531  16.695  -2.722  1.00  0.00    -0.237 OA
ATOM     93  O   UNL     1      -3.363  15.893  -5.055  1.00  0.00    -0.237 OA
ATOM     94  O   UNL     1      -5.530  15.831  -3.884  1.00  0.00    -0.744 OA
ENDBRANCH  90  91
ENDBRANCH  58  83
ENDBRANCH  32  33
ENDBRANCH  25  27
ENDBRANCH  24  25
ENDBRANCH  23  24
ENDBRANCH   1  23
TORSDOF 17
