REMARK SMILES O=C(OCCOC(=O)c1cc(Br)cn(Cc2cccc(F)c2)c1=O)c1ccc(-c2c3nc(c(-c4c(F)cc(S(=O)(=O)[O-])cc4F)c4ccc([nH]4)c(-c4c(F)cc(S(=O)(=O)[O-])cc4F)c4nc(c(-c5c(F)cc(S(=O)(=O)[O-])cc5F)c5ccc2[nH]5)C=C4)C=C3)cc1
REMARK SMILES IDX 4 1 3 2 2 3 1 4 25 5 26 6 90 7 27 8 89 9 28 10 29 11 30 12
REMARK SMILES IDX 83 13 31 14 88 15 82 16 84 17 32 18 87 19 81 20 80 21 33 23
REMARK SMILES IDX 67 24 46 25 66 26 47 27 50 28 65 29 85 30 48 31 49 32 64 34
REMARK SMILES IDX 86 35 51 36 34 37 35 38 44 39 36 40 37 41 43 42 45 43 38 44
REMARK SMILES IDX 39 45 40 46 41 47 42 48 68 49 69 50 78 51 70 52 71 53 77 54
REMARK SMILES IDX 79 55 72 56 73 57 74 58 75 59 76 60 52 61 53 62 62 63 54 64
REMARK SMILES IDX 55 65 61 66 63 67 56 68 57 69 58 70 59 71 60 72 5 73 6 74
REMARK SMILES IDX 7 75 8 76 9 77 10 78 23 79 11 80 14 81 24 82 12 83 13 84
REMARK SMILES IDX 15 85 16 86 17 87 22 88 18 89 20 90 19 91 21 92
REMARK H PARENT 84 22 50 33
REMARK Flexibility Score: inf
ROOT
ATOM      1  C   UNL     1       4.257  -1.404  -0.492  1.00  0.00     0.275 C 
ENDROOT
BRANCH   1   2
ATOM      2  O   UNL     1       3.275  -1.063   0.503  1.00  0.00    -0.458 OA
BRANCH   2   3
ATOM      3  C   UNL     1       3.228   0.030   1.304  1.00  0.00     0.338 C 
ATOM      4  O   UNL     1       2.503   0.015   2.296  1.00  0.00    -0.246 OA
BRANCH   3   5
ATOM      5  C   UNL     1       3.862   1.327   0.922  1.00  0.00     0.060 A 
ATOM      6  C   UNL     1       3.097   2.481   1.156  1.00  0.00     0.016 A 
ATOM      7  C   UNL     1       5.150   1.487   0.405  1.00  0.00     0.016 A 
ATOM      8  C   UNL     1       3.562   3.743   0.777  1.00  0.00     0.010 A 
ATOM      9  C   UNL     1       5.625   2.753   0.035  1.00  0.00     0.010 A 
ATOM     10  C   UNL     1       4.830   3.891   0.199  1.00  0.00    -0.014 A 
BRANCH  10  11
ATOM     11  C   UNL     1       5.374   5.247  -0.058  1.00  0.00     0.031 A 
ATOM     12  C   UNL     1       5.583   5.785  -1.444  1.00  0.00     0.074 A 
ATOM     13  C   UNL     1       5.684   6.012   1.005  1.00  0.00     0.049 A 
ATOM     14  N   UNL     1       5.771   7.029  -1.806  1.00  0.00    -0.248 NA
ATOM     15  C   UNL     1       5.541   4.840  -2.567  1.00  0.00     0.031 C 
ATOM     16  C   UNL     1       5.598   5.584   2.404  1.00  0.00     0.029 A 
ATOM     17  N   UNL     1       6.154   7.296   1.077  1.00  0.00    -0.354 N 
ATOM     18  C   UNL     1       5.731   7.034  -3.194  1.00  0.00     0.074 A 
ATOM     19  C   UNL     1       5.621   5.656  -3.615  1.00  0.00     0.031 C 
ATOM     20  C   UNL     1       6.027   6.580   3.193  1.00  0.00     0.029 A 
ATOM     21  C   UNL     1       6.430   7.706   2.358  1.00  0.00     0.049 A 
ATOM     22  H   UNL     1       6.282   7.870   0.287  1.00  0.00     0.167 HD
ATOM     23  C   UNL     1       5.717   8.106  -4.020  1.00  0.00     0.037 A 
ATOM     24  C   UNL     1       6.971   8.852   2.809  1.00  0.00     0.037 A 
ATOM     25  C   UNL     1       6.005   9.450  -3.593  1.00  0.00     0.049 A 
ATOM     26  C   UNL     1       7.265   9.951   1.832  1.00  0.00     0.074 A 
ATOM     27  C   UNL     1       6.012  10.614  -4.340  1.00  0.00     0.029 A 
ATOM     28  N   UNL     1       6.427   9.789  -2.317  1.00  0.00    -0.354 N 
ATOM     29  N   UNL     1       6.989  10.000   0.551  1.00  0.00    -0.248 NA
ATOM     30  C   UNL     1       7.937  11.146   2.353  1.00  0.00     0.031 C 
ATOM     31  C   UNL     1       6.517  11.643  -3.533  1.00  0.00     0.029 A 
ATOM     32  C   UNL     1       6.789  11.124  -2.277  1.00  0.00     0.049 A 
ATOM     33  H   UNL     1       6.463   9.171  -1.552  1.00  0.00     0.167 HD
ATOM     34  C   UNL     1       7.438  11.239   0.113  1.00  0.00     0.074 A 
ATOM     35  C   UNL     1       7.999  11.910   1.270  1.00  0.00     0.031 C 
ATOM     36  C   UNL     1       7.378  11.773  -1.133  1.00  0.00     0.037 A 
BRANCH  23  37
ATOM     37  C   UNL     1       5.320   7.895  -5.450  1.00  0.00     0.058 A 
ATOM     38  C   UNL     1       3.970   8.028  -5.815  1.00  0.00     0.135 A 
ATOM     39  C   UNL     1       6.255   7.675  -6.467  1.00  0.00     0.135 A 
ATOM     40  F   UNL     1       3.045   8.276  -4.875  1.00  0.00    -0.206 F 
ATOM     41  C   UNL     1       3.556   7.937  -7.140  1.00  0.00     0.059 A 
ATOM     42  C   UNL     1       5.865   7.586  -7.803  1.00  0.00     0.059 A 
ATOM     43  F   UNL     1       7.558   7.552  -6.170  1.00  0.00    -0.206 F 
ATOM     44  C   UNL     1       4.513   7.712  -8.129  1.00  0.00     0.060 A 
BRANCH  44  45
ATOM     45  S   UNL     1       3.981   7.640  -9.855  1.00  0.00     0.124 S 
ATOM     46  O   UNL     1       3.478   6.273  -9.950  1.00  0.00    -0.237 OA
ATOM     47  O   UNL     1       2.974   8.694  -9.925  1.00  0.00    -0.237 OA
ATOM     48  O   UNL     1       5.210   7.907 -10.596  1.00  0.00    -0.744 OA
ENDBRANCH  44  45
ENDBRANCH  23  37
BRANCH  24  49
ATOM     49  C   UNL     1       7.285   8.978   4.253  1.00  0.00     0.058 A 
ATOM     50  C   UNL     1       6.536   9.808   5.095  1.00  0.00     0.135 A 
ATOM     51  C   UNL     1       8.300   8.196   4.831  1.00  0.00     0.135 A 
ATOM     52  F   UNL     1       5.561  10.575   4.587  1.00  0.00    -0.206 F 
ATOM     53  C   UNL     1       6.771   9.850   6.466  1.00  0.00     0.059 A 
ATOM     54  C   UNL     1       8.540   8.204   6.200  1.00  0.00     0.059 A 
ATOM     55  F   UNL     1       9.036   7.376   4.064  1.00  0.00    -0.206 F 
ATOM     56  C   UNL     1       7.768   9.035   7.010  1.00  0.00     0.060 A 
BRANCH  56  57
ATOM     57  S   UNL     1       8.002   9.029   8.800  1.00  0.00     0.124 S 
ATOM     58  O   UNL     1       8.621  10.330   9.020  1.00  0.00    -0.237 OA
ATOM     59  O   UNL     1       6.633   8.881   9.285  1.00  0.00    -0.237 OA
ATOM     60  O   UNL     1       8.866   7.872   9.022  1.00  0.00    -0.744 OA
ENDBRANCH  56  57
ENDBRANCH  24  49
BRANCH  36  61
ATOM     61  C   UNL     1       7.965  13.140  -1.323  1.00  0.00     0.058 A 
ATOM     62  C   UNL     1       9.354  13.334  -1.344  1.00  0.00     0.135 A 
ATOM     63  C   UNL     1       7.140  14.256  -1.532  1.00  0.00     0.135 A 
ATOM     64  F   UNL     1      10.184  12.299  -1.138  1.00  0.00    -0.206 F 
ATOM     65  C   UNL     1       9.907  14.592  -1.547  1.00  0.00     0.059 A 
ATOM     66  C   UNL     1       7.671  15.520  -1.764  1.00  0.00     0.059 A 
ATOM     67  F   UNL     1       5.804  14.120  -1.530  1.00  0.00    -0.206 F 
ATOM     68  C   UNL     1       9.057  15.680  -1.758  1.00  0.00     0.060 A 
BRANCH  68  69
ATOM     69  S   UNL     1       9.789  17.303  -2.051  1.00  0.00     0.124 S 
ATOM     70  O   UNL     1      10.240  17.666  -0.712  1.00  0.00    -0.237 OA
ATOM     71  O   UNL     1      10.842  17.002  -3.015  1.00  0.00    -0.237 OA
ATOM     72  O   UNL     1       8.675  18.088  -2.573  1.00  0.00    -0.744 OA
ENDBRANCH  68  69
ENDBRANCH  36  61
ENDBRANCH  10  11
ENDBRANCH   3   5
ENDBRANCH   2   3
ENDBRANCH   1   2
BRANCH   1  73
ATOM     73  C   UNL     1       3.911  -0.952  -1.911  1.00  0.00     0.275 C 
BRANCH  73  74
ATOM     74  O   UNL     1       3.361   0.370  -1.947  1.00  0.00    -0.458 OA
BRANCH  74  75
ATOM     75  C   UNL     1       2.008   0.436  -2.064  1.00  0.00     0.343 C 
ATOM     76  O   UNL     1       1.251  -0.522  -2.156  1.00  0.00    -0.246 OA
BRANCH  75  77
ATOM     77  C   UNL     1       1.545   1.819  -1.875  1.00  0.00     0.126 A 
ATOM     78  C   UNL     1       0.568   2.004  -0.969  1.00  0.00     0.038 A 
ATOM     79  C   UNL     1       2.150   2.986  -2.579  1.00  0.00     0.265 A 
ATOM     80  C   UNL     1       0.127   3.331  -0.615  1.00  0.00     0.035 A 
ATOM     81  N   UNL     1       1.650   4.241  -2.205  1.00  0.00    -0.309 N 
ATOM     82  O   UNL     1       3.018   2.814  -3.430  1.00  0.00    -0.268 OA
ATOM     83  Br  UNL     1      -1.142   3.510   0.735  1.00  0.00    -0.049 Br
ATOM     84  C   UNL     1       0.679   4.388  -1.225  1.00  0.00     0.105 A 
BRANCH  81  85
ATOM     85  C   UNL     1       2.160   5.440  -2.874  1.00  0.00     0.161 C 
BRANCH  85  86
ATOM     86  C   UNL     1       1.158   6.051  -3.819  1.00  0.00    -0.025 A 
ATOM     87  C   UNL     1       0.321   7.098  -3.404  1.00  0.00     0.006 A 
ATOM     88  C   UNL     1       1.069   5.586  -5.138  1.00  0.00     0.044 A 
ATOM     89  C   UNL     1      -0.588   7.673  -4.294  1.00  0.00     0.003 A 
ATOM     90  C   UNL     1       0.164   6.171  -6.015  1.00  0.00     0.123 A 
ATOM     91  C   UNL     1      -0.663   7.209  -5.605  1.00  0.00     0.039 A 
ATOM     92  F   UNL     1       0.085   5.724  -7.275  1.00  0.00    -0.207 F 
ENDBRANCH  85  86
ENDBRANCH  81  85
ENDBRANCH  75  77
ENDBRANCH  74  75
ENDBRANCH  73  74
ENDBRANCH   1  73
TORSDOF 16
