REMARK SMILES O=C(CCN/C(=[NH+]\S(=O)(=O)c1ccccc1)c1ccccc1)OCCOC(=O)c1ccc(-c2c3nc(c(-c4c(F)cc(S(=O)(=O)[O-])cc4F)c4ccc([nH]4)c(-c4c(F)cc(S(=O)(=O)[O-])cc4F)c4nc(c(-c5c(F)cc(S(=O)(=O)[O-])cc5F)c5ccc2[nH]5)C=C4)C=C3)cc1
REMARK SMILES IDX 24 1 23 2 2 3 1 4 3 5 4 6 5 7 6 8 7 10 17 12 18 13 22 14
REMARK SMILES IDX 19 15 21 16 20 17 8 18 9 19 10 20 11 21 12 22 16 23 13 24
REMARK SMILES IDX 15 25 14 26 25 27 26 28 27 29 28 30 29 31 30 32 94 33 31 34
REMARK SMILES IDX 93 35 32 36 33 37 34 38 87 39 35 40 92 41 86 42 88 43 36 44
REMARK SMILES IDX 91 45 85 46 84 47 37 49 71 50 50 51 70 52 51 53 54 54 69 55
REMARK SMILES IDX 89 56 52 57 53 58 68 60 90 61 55 62 38 63 39 64 48 65 40 66
REMARK SMILES IDX 41 67 47 68 49 69 42 70 43 71 44 72 45 73 46 74 72 75 73 76
REMARK SMILES IDX 82 77 74 78 75 79 81 80 83 81 76 82 77 83 78 84 79 85 80 86
REMARK SMILES IDX 56 87 57 88 66 89 58 90 59 91 65 92 67 93 60 94 61 95 62 96
REMARK SMILES IDX 63 97 64 98
REMARK H PARENT 5 9 7 11 88 48 54 59
REMARK Flexibility Score: inf
ROOT
ATOM      1  C   UNL     1       3.873  -1.279   0.033  1.00  0.00     0.274 C 
ENDROOT
BRANCH   1   2
ATOM      2  O   UNL     1       2.583  -0.721   0.344  1.00  0.00    -0.462 OA
BRANCH   2   3
ATOM      3  C   UNL     1       2.398   0.582   0.656  1.00  0.00     0.309 C 
ATOM      4  O   UNL     1       1.403   0.929   1.290  1.00  0.00    -0.252 OA
BRANCH   3   5
ATOM      5  C   UNL     1       3.385   1.610   0.160  1.00  0.00     0.168 C 
BRANCH   5   6
ATOM      6  C   UNL     1       4.077   2.311   1.318  1.00  0.00     0.245 C 
BRANCH   6   7
ATOM      7  N   UNL     1       5.241   1.575   1.791  1.00  0.00    -0.273 N 
ATOM      8  C   UNL     1       6.513   1.477   1.256  1.00  0.00     0.290 C 
ATOM      9  H   UNL     1       5.100   1.068   2.623  1.00  0.00     0.305 HD
ATOM     10  N   UNL     1       7.340   0.493   1.473  1.00  0.00    -0.162 N 
ATOM     11  H   UNL     1       8.279   0.587   1.193  1.00  0.00     0.327 HD
BRANCH   8  12
ATOM     12  C   UNL     1       7.023   2.546   0.325  1.00  0.00     0.064 A 
ATOM     13  C   UNL     1       7.722   2.158  -0.827  1.00  0.00     0.016 A 
ATOM     14  C   UNL     1       6.793   3.904   0.565  1.00  0.00     0.016 A 
ATOM     15  C   UNL     1       8.141   3.118  -1.752  1.00  0.00     0.001 A 
ATOM     16  C   UNL     1       7.195   4.860  -0.372  1.00  0.00     0.001 A 
ATOM     17  C   UNL     1       7.862   4.466  -1.532  1.00  0.00     0.000 A 
ENDBRANCH   8  12
BRANCH  10  18
ATOM     18  S   UNL     1       6.864  -0.878   2.191  1.00  0.00     0.328 S 
ATOM     19  O   UNL     1       5.877  -0.601   3.220  1.00  0.00    -0.179 OA
ATOM     20  O   UNL     1       6.558  -1.829   1.135  1.00  0.00    -0.179 OA
BRANCH  18  21
ATOM     21  C   UNL     1       8.254  -1.577   3.042  1.00  0.00     0.109 A 
ATOM     22  C   UNL     1       8.305  -2.973   3.168  1.00  0.00     0.024 A 
ATOM     23  C   UNL     1       9.252  -0.772   3.586  1.00  0.00     0.024 A 
ATOM     24  C   UNL     1       9.356  -3.569   3.858  1.00  0.00     0.001 A 
ATOM     25  C   UNL     1      10.302  -1.378   4.279  1.00  0.00     0.001 A 
ATOM     26  C   UNL     1      10.352  -2.770   4.417  1.00  0.00     0.000 A 
ENDBRANCH  18  21
ENDBRANCH  10  18
ENDBRANCH   6   7
ENDBRANCH   5   6
ENDBRANCH   3   5
ENDBRANCH   2   3
ENDBRANCH   1   2
BRANCH   1  27
ATOM     27  C   UNL     1       3.987  -1.730  -1.420  1.00  0.00     0.275 C 
BRANCH  27  28
ATOM     28  O   UNL     1       3.700  -0.631  -2.298  1.00  0.00    -0.458 OA
BRANCH  28  29
ATOM     29  C   UNL     1       2.405  -0.557  -2.697  1.00  0.00     0.338 C 
ATOM     30  O   UNL     1       1.539  -1.396  -2.538  1.00  0.00    -0.246 OA
BRANCH  29  31
ATOM     31  C   UNL     1       2.143   0.807  -3.197  1.00  0.00     0.060 A 
ATOM     32  C   UNL     1       0.951   1.426  -2.801  1.00  0.00     0.016 A 
ATOM     33  C   UNL     1       3.050   1.476  -4.024  1.00  0.00     0.016 A 
ATOM     34  C   UNL     1       0.654   2.713  -3.249  1.00  0.00     0.010 A 
ATOM     35  C   UNL     1       2.747   2.760  -4.478  1.00  0.00     0.010 A 
ATOM     36  C   UNL     1       1.540   3.377  -4.107  1.00  0.00    -0.014 A 
BRANCH  36  37
ATOM     37  C   UNL     1       1.172   4.687  -4.690  1.00  0.00     0.031 A 
ATOM     38  C   UNL     1       0.539   4.729  -6.052  1.00  0.00     0.074 A 
ATOM     39  C   UNL     1       1.426   5.825  -4.019  1.00  0.00     0.049 A 
ATOM     40  N   UNL     1       0.187   5.765  -6.765  1.00  0.00    -0.248 NA
ATOM     41  C   UNL     1       0.270   3.432  -6.697  1.00  0.00     0.031 C 
ATOM     42  C   UNL     1       2.030   5.905  -2.689  1.00  0.00     0.029 A 
ATOM     43  N   UNL     1       1.226   7.134  -4.378  1.00  0.00    -0.354 N 
ATOM     44  C   UNL     1      -0.345   5.251  -7.941  1.00  0.00     0.074 A 
ATOM     45  C   UNL     1      -0.251   3.810  -7.856  1.00  0.00     0.031 C 
ATOM     46  C   UNL     1       2.180   7.200  -2.357  1.00  0.00     0.029 A 
ATOM     47  C   UNL     1       1.702   8.036  -3.457  1.00  0.00     0.049 A 
ATOM     48  H   UNL     1       0.784   7.402  -5.216  1.00  0.00     0.167 HD
ATOM     49  C   UNL     1      -0.871   5.923  -8.991  1.00  0.00     0.037 A 
ATOM     50  C   UNL     1       1.770   9.380  -3.511  1.00  0.00     0.037 A 
ATOM     51  C   UNL     1      -0.967   7.356  -9.070  1.00  0.00     0.049 A 
ATOM     52  C   UNL     1       1.238  10.101  -4.723  1.00  0.00     0.074 A 
ATOM     53  C   UNL     1      -1.547   8.124 -10.064  1.00  0.00     0.029 A 
ATOM     54  N   UNL     1      -0.457   8.236  -8.129  1.00  0.00    -0.354 N 
ATOM     55  N   UNL     1       0.668   9.603  -5.793  1.00  0.00    -0.248 NA
ATOM     56  C   UNL     1       1.363  11.566  -4.736  1.00  0.00     0.031 C 
ATOM     57  C   UNL     1      -1.344   9.472  -9.749  1.00  0.00     0.029 A 
ATOM     58  C   UNL     1      -0.671   9.541  -8.540  1.00  0.00     0.049 A 
ATOM     59  H   UNL     1      -0.008   7.973  -7.293  1.00  0.00     0.167 HD
ATOM     60  C   UNL     1       0.353  10.692  -6.599  1.00  0.00     0.074 A 
ATOM     61  C   UNL     1       0.782  11.878  -5.887  1.00  0.00     0.031 C 
ATOM     62  C   UNL     1      -0.236  10.710  -7.820  1.00  0.00     0.037 A 
BRANCH  49  63
ATOM     63  C   UNL     1      -1.379   5.122 -10.153  1.00  0.00     0.058 A 
ATOM     64  C   UNL     1      -2.611   4.453 -10.097  1.00  0.00     0.135 A 
ATOM     65  C   UNL     1      -0.663   5.087 -11.359  1.00  0.00     0.135 A 
ATOM     66  F   UNL     1      -3.325   4.444  -8.960  1.00  0.00    -0.206 F 
ATOM     67  C   UNL     1      -3.117   3.775 -11.201  1.00  0.00     0.059 A 
ATOM     68  C   UNL     1      -1.157   4.428 -12.480  1.00  0.00     0.059 A 
ATOM     69  F   UNL     1       0.525   5.705 -11.457  1.00  0.00    -0.206 F 
ATOM     70  C   UNL     1      -2.384   3.772 -12.390  1.00  0.00     0.060 A 
BRANCH  70  71
ATOM     71  S   UNL     1      -3.073   2.922 -13.826  1.00  0.00     0.124 S 
ATOM     72  O   UNL     1      -2.873   1.523 -13.460  1.00  0.00    -0.237 OA
ATOM     73  O   UNL     1      -4.457   3.385 -13.829  1.00  0.00    -0.237 OA
ATOM     74  O   UNL     1      -2.252   3.404 -14.932  1.00  0.00    -0.744 OA
ENDBRANCH  70  71
ENDBRANCH  49  63
BRANCH  50  75
ATOM     75  C   UNL     1       2.407  10.143  -2.406  1.00  0.00     0.058 A 
ATOM     76  C   UNL     1       1.649  10.961  -1.556  1.00  0.00     0.135 A 
ATOM     77  C   UNL     1       3.796  10.098  -2.206  1.00  0.00     0.135 A 
ATOM     78  F   UNL     1       0.320  11.044  -1.716  1.00  0.00    -0.206 F 
ATOM     79  C   UNL     1       2.247  11.730  -0.562  1.00  0.00     0.059 A 
ATOM     80  C   UNL     1       4.414  10.841  -1.207  1.00  0.00     0.059 A 
ATOM     81  F   UNL     1       4.563   9.320  -2.985  1.00  0.00    -0.206 F 
ATOM     82  C   UNL     1       3.632  11.667  -0.400  1.00  0.00     0.060 A 
BRANCH  82  83
ATOM     83  S   UNL     1       4.406  12.653   0.900  1.00  0.00     0.124 S 
ATOM     84  O   UNL     1       4.430  13.976   0.288  1.00  0.00    -0.237 OA
ATOM     85  O   UNL     1       3.480  12.479   2.014  1.00  0.00    -0.237 OA
ATOM     86  O   UNL     1       5.706  12.010   1.072  1.00  0.00    -0.744 OA
ENDBRANCH  82  83
ENDBRANCH  50  75
BRANCH  62  87
ATOM     87  C   UNL     1      -0.458  12.048  -8.465  1.00  0.00     0.058 A 
ATOM     88  C   UNL     1       0.601  12.761  -9.050  1.00  0.00     0.135 A 
ATOM     89  C   UNL     1      -1.749  12.592  -8.561  1.00  0.00     0.135 A 
ATOM     90  F   UNL     1       1.855  12.287  -8.977  1.00  0.00    -0.206 F 
ATOM     91  C   UNL     1       0.389  13.972  -9.698  1.00  0.00     0.059 A 
ATOM     92  C   UNL     1      -1.987  13.791  -9.225  1.00  0.00     0.059 A 
ATOM     93  F   UNL     1      -2.796  11.945  -8.026  1.00  0.00    -0.206 F 
ATOM     94  C   UNL     1      -0.910  14.478  -9.784  1.00  0.00     0.060 A 
BRANCH  94  95
ATOM     95  S   UNL     1      -1.180  16.027 -10.673  1.00  0.00     0.124 S 
ATOM     96  O   UNL     1      -0.704  17.008  -9.704  1.00  0.00    -0.237 OA
ATOM     97  O   UNL     1      -0.352  15.856 -11.862  1.00  0.00    -0.237 OA
ATOM     98  O   UNL     1      -2.620  16.031 -10.915  1.00  0.00    -0.744 OA
ENDBRANCH  94  95
ENDBRANCH  62  87
ENDBRANCH  36  37
ENDBRANCH  29  31
ENDBRANCH  28  29
ENDBRANCH  27  28
ENDBRANCH   1  27
TORSDOF 19
