REMARK SMILES Cc1cc(NC(=O)CC2(CC(=O)OCCOC(=O)c3ccc(-c4c5nc(c(-c6c(F)cc(S(=O)(=O)[O-])cc6F)c6ccc([nH]6)c(-c6c(F)cc(S(=O)(=O)[O-])cc6F)c6nc(c(-c7c(F)cc(S(=O)(=O)[O-])cc7F)c7ccc4[nH]7)C=C6)C=C5)cc3)CCCC2)ccn1
REMARK SMILES IDX 14 1 13 2 11 3 12 4 10 5 9 6 85 7 88 8 86 9 87 10 8 11 6 12
REMARK SMILES IDX 5 13 7 15 4 16 1 17 2 18 3 19 91 20 90 21 89 22 15 23 16 24
REMARK SMILES IDX 17 25 18 26 19 27 20 28 84 29 21 30 83 31 22 32 23 33 24 34
REMARK SMILES IDX 77 35 25 36 82 37 76 38 78 39 26 40 81 41 75 42 74 43 27 45
REMARK SMILES IDX 61 46 40 47 60 48 41 49 44 50 59 51 79 52 42 53 43 54 58 56
REMARK SMILES IDX 80 57 45 58 28 59 29 60 38 61 30 62 31 63 37 64 39 65 32 66
REMARK SMILES IDX 33 67 34 68 35 69 36 70 62 71 63 72 72 73 64 74 65 75 71 76
REMARK SMILES IDX 73 77 66 78 67 79 68 80 69 81 70 82 46 83 47 84 56 85 48 86
REMARK SMILES IDX 49 87 55 88 57 89 50 90 51 91 52 92 53 93 54 94
REMARK H PARENT 5 14 78 44 44 55
REMARK Flexibility Score: inf
ROOT
ATOM      1  C   UNL     1      -8.024   0.056   1.925  1.00  0.00     0.274 C 
ENDROOT
BRANCH   1   2
ATOM      2  O   UNL     1      -6.587   0.053   1.805  1.00  0.00    -0.462 OA
BRANCH   2   3
ATOM      3  C   UNL     1      -5.940  -0.714   2.712  1.00  0.00     0.306 C 
ATOM      4  O   UNL     1      -6.500  -1.390   3.571  1.00  0.00    -0.252 OA
BRANCH   3   5
ATOM      5  C   UNL     1      -4.429  -0.647   2.649  1.00  0.00     0.130 C 
BRANCH   5   6
ATOM      6  C   UNL     1      -3.656   0.132   1.546  1.00  0.00    -0.011 C 
ATOM      7  C   UNL     1      -2.209   0.316   2.066  1.00  0.00     0.008 C 
ATOM      8  C   UNL     1      -4.055   1.617   1.411  1.00  0.00     0.008 C 
ATOM      9  C   UNL     1      -2.264   1.481   3.052  1.00  0.00     0.001 C 
ATOM     10  C   UNL     1      -3.468   2.318   2.630  1.00  0.00     0.001 C 
BRANCH   6  11
ATOM     11  C   UNL     1      -3.749  -0.571   0.164  1.00  0.00     0.108 C 
BRANCH  11  12
ATOM     12  C   UNL     1      -2.885  -1.805  -0.033  1.00  0.00     0.224 C 
ATOM     13  N   UNL     1      -1.569  -1.780  -0.376  1.00  0.00    -0.326 N 
ATOM     14  H   UNL     1      -1.166  -2.678  -0.407  1.00  0.00     0.169 HD
ATOM     15  O   UNL     1      -3.361  -2.917   0.210  1.00  0.00    -0.275 OA
BRANCH  13  16
ATOM     16  C   UNL     1      -0.660  -0.762  -0.696  1.00  0.00     0.044 A 
ATOM     17  C   UNL     1       3.014  -0.172  -0.013  1.00  0.00     0.067 C 
ATOM     18  C   UNL     1       1.609   0.014  -0.504  1.00  0.00     0.039 A 
ATOM     19  C   UNL     1       0.675  -1.007  -0.364  1.00  0.00     0.049 A 
ATOM     20  N   UNL     1       1.282   1.234  -0.986  1.00  0.00    -0.261 NA
ATOM     21  C   UNL     1       0.003   1.419  -1.374  1.00  0.00     0.113 A 
ATOM     22  C   UNL     1      -0.991   0.461  -1.260  1.00  0.00     0.046 A 
ENDBRANCH  13  16
ENDBRANCH  11  12
ENDBRANCH   6  11
ENDBRANCH   5   6
ENDBRANCH   3   5
ENDBRANCH   2   3
ENDBRANCH   1   2
BRANCH   1  23
ATOM     23  C   UNL     1      -8.665  -0.868   0.895  1.00  0.00     0.275 C 
BRANCH  23  24
ATOM     24  O   UNL     1      -8.081  -2.178   0.972  1.00  0.00    -0.458 OA
BRANCH  24  25
ATOM     25  C   UNL     1      -7.419  -2.584  -0.135  1.00  0.00     0.338 C 
ATOM     26  O   UNL     1      -7.333  -1.990  -1.201  1.00  0.00    -0.246 OA
BRANCH  25  27
ATOM     27  C   UNL     1      -6.803  -3.898   0.103  1.00  0.00     0.060 A 
ATOM     28  C   UNL     1      -5.898  -4.074   1.148  1.00  0.00     0.016 A 
ATOM     29  C   UNL     1      -7.037  -4.931  -0.805  1.00  0.00     0.016 A 
ATOM     30  C   UNL     1      -5.159  -5.253   1.236  1.00  0.00     0.010 A 
ATOM     31  C   UNL     1      -6.360  -6.144  -0.660  1.00  0.00     0.010 A 
ATOM     32  C   UNL     1      -5.389  -6.308   0.343  1.00  0.00    -0.014 A 
BRANCH  32  33
ATOM     33  C   UNL     1      -4.624  -7.581   0.442  1.00  0.00     0.031 A 
ATOM     34  C   UNL     1      -3.797  -8.064  -0.720  1.00  0.00     0.074 A 
ATOM     35  C   UNL     1      -4.706  -8.328   1.560  1.00  0.00     0.049 A 
ATOM     36  N   UNL     1      -3.265  -9.243  -0.923  1.00  0.00    -0.248 NA
ATOM     37  C   UNL     1      -3.545  -7.099  -1.803  1.00  0.00     0.031 C 
ATOM     38  C   UNL     1      -5.437  -7.960   2.775  1.00  0.00     0.029 A 
ATOM     39  N   UNL     1      -4.183  -9.563   1.851  1.00  0.00    -0.354 N 
ATOM     40  C   UNL     1      -2.667  -9.182  -2.176  1.00  0.00     0.074 A 
ATOM     41  C   UNL     1      -2.895  -7.846  -2.687  1.00  0.00     0.031 C 
ATOM     42  C   UNL     1      -5.311  -8.941   3.680  1.00  0.00     0.029 A 
ATOM     43  C   UNL     1      -4.562 -10.041   3.083  1.00  0.00     0.049 A 
ATOM     44  H   UNL     1      -3.594 -10.059   1.238  1.00  0.00     0.167 HD
ATOM     45  C   UNL     1      -1.994 -10.155  -2.838  1.00  0.00     0.037 A 
ATOM     46  C   UNL     1      -4.380 -11.247   3.653  1.00  0.00     0.037 A 
ATOM     47  C   UNL     1      -1.728 -11.466  -2.299  1.00  0.00     0.049 A 
ATOM     48  C   UNL     1      -3.653 -12.317   2.893  1.00  0.00     0.074 A 
ATOM     49  C   UNL     1      -1.034 -12.513  -2.882  1.00  0.00     0.029 A 
ATOM     50  N   UNL     1      -2.131 -11.905  -1.046  1.00  0.00    -0.354 N 
ATOM     51  N   UNL     1      -3.137 -12.264   1.688  1.00  0.00    -0.248 NA
ATOM     52  C   UNL     1      -3.497 -13.616   3.561  1.00  0.00     0.031 C 
ATOM     53  C   UNL     1      -1.042 -13.594  -1.993  1.00  0.00     0.029 A 
ATOM     54  C   UNL     1      -1.709 -13.209  -0.842  1.00  0.00     0.049 A 
ATOM     55  H   UNL     1      -2.643 -11.370  -0.398  1.00  0.00     0.167 HD
ATOM     56  C   UNL     1      -2.585 -13.518   1.458  1.00  0.00     0.074 A 
ATOM     57  C   UNL     1      -2.817 -14.303   2.653  1.00  0.00     0.031 C 
ATOM     58  C   UNL     1      -1.945 -13.976   0.354  1.00  0.00     0.037 A 
BRANCH  45  59
ATOM     59  C   UNL     1      -1.516  -9.858  -4.232  1.00  0.00     0.058 A 
ATOM     60  C   UNL     1      -0.404  -9.039  -4.478  1.00  0.00     0.135 A 
ATOM     61  C   UNL     1      -2.147 -10.455  -5.337  1.00  0.00     0.135 A 
ATOM     62  F   UNL     1       0.228  -8.433  -3.461  1.00  0.00    -0.206 F 
ATOM     63  C   UNL     1       0.057  -8.809  -5.772  1.00  0.00     0.059 A 
ATOM     64  C   UNL     1      -1.690 -10.256  -6.637  1.00  0.00     0.059 A 
ATOM     65  F   UNL     1      -3.214 -11.249  -5.158  1.00  0.00    -0.206 F 
ATOM     66  C   UNL     1      -0.593  -9.422  -6.845  1.00  0.00     0.060 A 
BRANCH  66  67
ATOM     67  S   UNL     1       0.027  -9.130  -8.517  1.00  0.00     0.124 S 
ATOM     68  O   UNL     1      -0.463  -7.780  -8.777  1.00  0.00    -0.237 OA
ATOM     69  O   UNL     1       1.470  -9.257  -8.344  1.00  0.00    -0.237 OA
ATOM     70  O   UNL     1      -0.602 -10.189  -9.301  1.00  0.00    -0.744 OA
ENDBRANCH  66  67
ENDBRANCH  45  59
BRANCH  46  71
ATOM     71  C   UNL     1      -4.938 -11.509   5.004  1.00  0.00     0.058 A 
ATOM     72  C   UNL     1      -4.099 -11.612   6.122  1.00  0.00     0.135 A 
ATOM     73  C   UNL     1      -6.322 -11.621   5.209  1.00  0.00     0.135 A 
ATOM     74  F   UNL     1      -2.769 -11.520   5.973  1.00  0.00    -0.206 F 
ATOM     75  C   UNL     1      -4.612 -11.818   7.398  1.00  0.00     0.059 A 
ATOM     76  C   UNL     1      -6.860 -11.802   6.478  1.00  0.00     0.059 A 
ATOM     77  F   UNL     1      -7.167 -11.515   4.171  1.00  0.00    -0.206 F 
ATOM     78  C   UNL     1      -5.995 -11.907   7.566  1.00  0.00     0.060 A 
BRANCH  78  79
ATOM     79  S   UNL     1      -6.659 -12.104   9.234  1.00  0.00     0.124 S 
ATOM     80  O   UNL     1      -6.440 -13.526   9.470  1.00  0.00    -0.237 OA
ATOM     81  O   UNL     1      -5.826 -11.192  10.011  1.00  0.00    -0.237 OA
ATOM     82  O   UNL     1      -8.053 -11.694   9.088  1.00  0.00    -0.744 OA
ENDBRANCH  78  79
ENDBRANCH  46  71
BRANCH  58  83
ATOM     83  C   UNL     1      -1.423 -15.383   0.403  1.00  0.00     0.058 A 
ATOM     84  C   UNL     1      -2.277 -16.488   0.266  1.00  0.00     0.135 A 
ATOM     85  C   UNL     1      -0.050 -15.626   0.559  1.00  0.00     0.135 A 
ATOM     86  F   UNL     1      -3.599 -16.307   0.124  1.00  0.00    -0.206 F 
ATOM     87  C   UNL     1      -1.788 -17.790   0.303  1.00  0.00     0.059 A 
ATOM     88  C   UNL     1       0.463 -16.919   0.579  1.00  0.00     0.059 A 
ATOM     89  F   UNL     1       0.808 -14.601   0.688  1.00  0.00    -0.206 F 
ATOM     90  C   UNL     1      -0.416 -17.995   0.463  1.00  0.00     0.060 A 
BRANCH  90  91
ATOM     91  S   UNL     1       0.213 -19.687   0.486  1.00  0.00     0.124 S 
ATOM     92  O   UNL     1      -0.134 -20.110   1.839  1.00  0.00    -0.237 OA
ATOM     93  O   UNL     1      -0.543 -20.321  -0.589  1.00  0.00    -0.237 OA
ATOM     94  O   UNL     1       1.640 -19.521   0.226  1.00  0.00    -0.744 OA
ENDBRANCH  90  91
ENDBRANCH  58  83
ENDBRANCH  32  33
ENDBRANCH  25  27
ENDBRANCH  24  25
ENDBRANCH  23  24
ENDBRANCH   1  23
TORSDOF 18
