REMARK SMILES O=C(OCCOC(=O)C1CCN(c2ccc(C(F)(F)F)cc2[N+](=O)[O-])CC1)c1ccc(-c2c3nc(c(-c4c(F)cc(S(=O)(=O)[O-])cc4F)c4ccc([nH]4)c(-c4c(F)cc(S(=O)(=O)[O-])cc4F)c4nc(c(-c5c(F)cc(S(=O)(=O)[O-])cc5F)c5ccc2[nH]5)C=C4)C=C3)cc1
REMARK SMILES IDX 4 1 3 2 2 3 1 4 28 5 29 6 93 7 30 8 92 9 31 10 32 11 33 12
REMARK SMILES IDX 86 13 34 14 91 15 85 16 87 17 35 18 90 19 84 20 83 21 36 23
REMARK SMILES IDX 70 24 49 25 69 26 50 27 53 28 68 29 88 30 51 31 52 32 67 34
REMARK SMILES IDX 89 35 54 36 37 37 38 38 47 39 39 40 40 41 46 42 48 43 41 44
REMARK SMILES IDX 42 45 43 46 44 47 45 48 71 49 72 50 81 51 73 52 74 53 80 54
REMARK SMILES IDX 82 55 75 56 76 57 77 58 78 59 79 60 55 61 56 62 65 63 57 64
REMARK SMILES IDX 58 65 64 66 66 67 59 68 60 69 61 70 62 71 63 72 5 73 6 74
REMARK SMILES IDX 7 75 8 76 9 77 10 78 27 79 11 80 26 81 12 82 13 83 14 84
REMARK SMILES IDX 22 85 15 86 21 87 16 88 23 89 24 90 25 91 17 92 18 93 19 94
REMARK SMILES IDX 20 95
REMARK H PARENT 87 22 53 33
REMARK Flexibility Score: inf
ROOT
ATOM      1  C   UNL     1       4.419   1.066   0.749  1.00  0.00     0.275 C 
ENDROOT
BRANCH   1   2
ATOM      2  O   UNL     1       3.287   1.174  -0.138  1.00  0.00    -0.458 OA
BRANCH   2   3
ATOM      3  C   UNL     1       2.966   0.520  -1.281  1.00  0.00     0.338 C 
ATOM      4  O   UNL     1       1.955   0.893  -1.879  1.00  0.00    -0.246 OA
BRANCH   3   5
ATOM      5  C   UNL     1       3.674  -0.691  -1.832  1.00  0.00     0.060 A 
ATOM      6  C   UNL     1       4.954  -1.138  -1.495  1.00  0.00     0.016 A 
ATOM      7  C   UNL     1       2.942  -1.482  -2.752  1.00  0.00     0.016 A 
ATOM      8  C   UNL     1       5.437  -2.374  -1.965  1.00  0.00     0.010 A 
ATOM      9  C   UNL     1       3.430  -2.707  -3.243  1.00  0.00     0.010 A 
ATOM     10  C   UNL     1       4.672  -3.183  -2.822  1.00  0.00    -0.014 A 
BRANCH  10  11
ATOM     11  C   UNL     1       5.273  -4.439  -3.344  1.00  0.00     0.031 A 
ATOM     12  C   UNL     1       6.213  -4.327  -4.501  1.00  0.00     0.074 A 
ATOM     13  C   UNL     1       5.038  -5.648  -2.791  1.00  0.00     0.049 A 
ATOM     14  N   UNL     1       6.910  -5.263  -5.079  1.00  0.00    -0.248 NA
ATOM     15  C   UNL     1       6.328  -3.000  -5.130  1.00  0.00     0.031 C 
ATOM     16  C   UNL     1       4.000  -5.934  -1.815  1.00  0.00     0.029 A 
ATOM     17  N   UNL     1       5.654  -6.866  -2.950  1.00  0.00    -0.354 N 
ATOM     18  C   UNL     1       7.494  -4.661  -6.181  1.00  0.00     0.074 A 
ATOM     19  C   UNL     1       7.110  -3.266  -6.165  1.00  0.00     0.031 C 
ATOM     20  C   UNL     1       4.132  -7.188  -1.350  1.00  0.00     0.029 A 
ATOM     21  C   UNL     1       5.227  -7.829  -2.054  1.00  0.00     0.049 A 
ATOM     22  H   UNL     1       6.338  -7.037  -3.638  1.00  0.00     0.167 HD
ATOM     23  C   UNL     1       8.235  -5.243  -7.149  1.00  0.00     0.037 A 
ATOM     24  C   UNL     1       5.649  -9.093  -1.851  1.00  0.00     0.037 A 
ATOM     25  C   UNL     1       8.577  -6.638  -7.167  1.00  0.00     0.049 A 
ATOM     26  C   UNL     1       6.611  -9.665  -2.856  1.00  0.00     0.074 A 
ATOM     27  C   UNL     1       9.332  -7.324  -8.100  1.00  0.00     0.029 A 
ATOM     28  N   UNL     1       8.173  -7.564  -6.216  1.00  0.00    -0.354 N 
ATOM     29  N   UNL     1       7.169  -9.072  -3.883  1.00  0.00    -0.248 NA
ATOM     30  C   UNL     1       6.924 -11.097  -2.737  1.00  0.00     0.031 C 
ATOM     31  C   UNL     1       9.352  -8.674  -7.736  1.00  0.00     0.029 A 
ATOM     32  C   UNL     1       8.656  -8.818  -6.547  1.00  0.00     0.049 A 
ATOM     33  H   UNL     1       7.625  -7.360  -5.424  1.00  0.00     0.167 HD
ATOM     34  C   UNL     1       7.829 -10.076  -4.575  1.00  0.00     0.074 A 
ATOM     35  C   UNL     1       7.683 -11.292  -3.804  1.00  0.00     0.031 C 
ATOM     36  C   UNL     1       8.455 -10.012  -5.773  1.00  0.00     0.037 A 
BRANCH  23  37
ATOM     37  C   UNL     1       8.652  -4.382  -8.299  1.00  0.00     0.058 A 
ATOM     38  C   UNL     1       9.661  -3.417  -8.173  1.00  0.00     0.135 A 
ATOM     39  C   UNL     1       8.040  -4.542  -9.552  1.00  0.00     0.135 A 
ATOM     40  F   UNL     1      10.244  -3.198  -6.984  1.00  0.00    -0.206 F 
ATOM     41  C   UNL     1      10.049  -2.635  -9.254  1.00  0.00     0.059 A 
ATOM     42  C   UNL     1       8.429  -3.789 -10.652  1.00  0.00     0.059 A 
ATOM     43  F   UNL     1       7.050  -5.435  -9.712  1.00  0.00    -0.206 F 
ATOM     44  C   UNL     1       9.433  -2.835 -10.491  1.00  0.00     0.060 A 
BRANCH  44  45
ATOM     45  S   UNL     1       9.984  -1.845 -11.894  1.00  0.00     0.124 S 
ATOM     46  O   UNL     1       9.434  -0.535 -11.560  1.00  0.00    -0.237 OA
ATOM     47  O   UNL     1      11.436  -1.965 -11.805  1.00  0.00    -0.237 OA
ATOM     48  O   UNL     1       9.372  -2.510 -13.041  1.00  0.00    -0.744 OA
ENDBRANCH  44  45
ENDBRANCH  23  37
BRANCH  24  49
ATOM     49  C   UNL     1       5.119  -9.990  -0.782  1.00  0.00     0.058 A 
ATOM     50  C   UNL     1       5.967 -10.455   0.239  1.00  0.00     0.135 A 
ATOM     51  C   UNL     1       3.846 -10.567  -0.879  1.00  0.00     0.135 A 
ATOM     52  F   UNL     1       7.207  -9.957   0.359  1.00  0.00    -0.206 F 
ATOM     53  C   UNL     1       5.599 -11.509   1.074  1.00  0.00     0.059 A 
ATOM     54  C   UNL     1       3.454 -11.618  -0.052  1.00  0.00     0.059 A 
ATOM     55  F   UNL     1       2.987 -10.145  -1.820  1.00  0.00    -0.206 F 
ATOM     56  C   UNL     1       4.355 -12.111   0.893  1.00  0.00     0.060 A 
BRANCH  56  57
ATOM     57  S   UNL     1       3.931 -13.573   1.877  1.00  0.00     0.124 S 
ATOM     58  O   UNL     1       4.539 -14.637   1.089  1.00  0.00    -0.237 OA
ATOM     59  O   UNL     1       4.568 -13.287   3.159  1.00  0.00    -0.237 OA
ATOM     60  O   UNL     1       2.472 -13.552   1.886  1.00  0.00    -0.744 OA
ENDBRANCH  56  57
ENDBRANCH  24  49
BRANCH  36  61
ATOM     61  C   UNL     1       8.983 -11.302  -6.317  1.00  0.00     0.058 A 
ATOM     62  C   UNL     1       8.123 -12.268  -6.862  1.00  0.00     0.135 A 
ATOM     63  C   UNL     1      10.360 -11.563  -6.312  1.00  0.00     0.135 A 
ATOM     64  F   UNL     1       6.795 -12.066  -6.869  1.00  0.00    -0.206 F 
ATOM     65  C   UNL     1       8.613 -13.462  -7.375  1.00  0.00     0.059 A 
ATOM     66  C   UNL     1      10.873 -12.739  -6.842  1.00  0.00     0.059 A 
ATOM     67  F   UNL     1      11.216 -10.666  -5.797  1.00  0.00    -0.206 F 
ATOM     68  C   UNL     1       9.991 -13.685  -7.364  1.00  0.00     0.060 A 
BRANCH  68  69
ATOM     69  S   UNL     1      10.622 -15.217  -8.074  1.00  0.00     0.124 S 
ATOM     70  O   UNL     1      10.246 -16.192  -7.056  1.00  0.00    -0.237 OA
ATOM     71  O   UNL     1       9.891 -15.301  -9.335  1.00  0.00    -0.237 OA
ATOM     72  O   UNL     1      12.055 -14.965  -8.204  1.00  0.00    -0.744 OA
ENDBRANCH  68  69
ENDBRANCH  36  61
ENDBRANCH  10  11
ENDBRANCH   3   5
ENDBRANCH   2   3
ENDBRANCH   1   2
BRANCH   1  73
ATOM     73  C   UNL     1       4.255  -0.005   1.826  1.00  0.00     0.274 C 
BRANCH  73  74
ATOM     74  O   UNL     1       3.619  -1.167   1.290  1.00  0.00    -0.462 OA
BRANCH  74  75
ATOM     75  C   UNL     1       2.354  -1.429   1.724  1.00  0.00     0.309 C 
ATOM     76  O   UNL     1       1.766  -0.802   2.587  1.00  0.00    -0.252 OA
BRANCH  75  77
ATOM     77  C   UNL     1       1.724  -2.566   0.934  1.00  0.00     0.103 C 
ATOM     78  C   UNL     1       0.837  -3.438   1.825  1.00  0.00     0.037 C 
ATOM     79  C   UNL     1       2.733  -3.470   0.236  1.00  0.00     0.037 C 
ATOM     80  C   UNL     1       1.679  -4.284   2.783  1.00  0.00     0.117 C 
ATOM     81  C   UNL     1       3.605  -4.260   1.202  1.00  0.00     0.117 C 
ATOM     82  N   UNL     1       2.710  -5.017   2.047  1.00  0.00    -0.366 N 
BRANCH  82  83
ATOM     83  C   UNL     1       2.651  -6.395   1.981  1.00  0.00     0.116 A 
ATOM     84  C   UNL     1       1.457  -6.972   1.514  1.00  0.00     0.034 A 
ATOM     85  C   UNL     1       3.650  -7.278   2.433  1.00  0.00     0.293 A 
ATOM     86  C   UNL     1       1.176  -8.320   1.697  1.00  0.00     0.016 A 
ATOM     87  C   UNL     1       3.367  -8.639   2.649  1.00  0.00     0.101 A 
ATOM     88  C   UNL     1       2.089  -9.138   2.364  1.00  0.00     0.062 A 
BRANCH  85  89
ATOM     89  N   UNL     1       5.005  -6.827   2.753  1.00  0.00     0.064 N 
ATOM     90  O   UNL     1       5.936  -7.566   2.397  1.00  0.00    -0.258 OA
ATOM     91  O   UNL     1       5.156  -5.765   3.375  1.00  0.00    -0.258 OA
ENDBRANCH  85  89
BRANCH  88  92
ATOM     92  C   UNL     1       1.616 -10.481   2.867  1.00  0.00     0.416 C 
ATOM     93  F   UNL     1       0.672 -10.311   3.841  1.00  0.00    -0.166 F 
ATOM     94  F   UNL     1       1.014 -11.208   1.896  1.00  0.00    -0.166 F 
ATOM     95  F   UNL     1       2.599 -11.210   3.432  1.00  0.00    -0.166 F 
ENDBRANCH  88  92
ENDBRANCH  82  83
ENDBRANCH  75  77
ENDBRANCH  74  75
ENDBRANCH  73  74
ENDBRANCH   1  73
TORSDOF 17
