REMARK SMILES COc1ccc2cc([C@@H](C)C(=O)OCCOC(=O)c3ccc(-c4c5nc(c(-c6c(F)cc(S(=O)(=O)[O-])cc6F)c6ccc([nH]6)c(-c6c(F)cc(S(=O)(=O)[O-])cc6F)c6nc(c(-c7c(F)cc(S(=O)(=O)[O-])cc7F)c7ccc4[nH]7)C=C6)C=C5)cc3)ccc2c1
REMARK SMILES IDX 15 1 14 2 13 3 11 4 12 5 9 6 10 7 8 8 3 9 4 10 88 11 5 12
REMARK SMILES IDX 87 13 6 14 86 15 7 16 85 17 2 18 1 19 16 20 17 21 18 22
REMARK SMILES IDX 19 23 20 24 84 25 21 26 83 27 22 28 23 29 24 30 77 31 25 32
REMARK SMILES IDX 82 33 76 34 78 35 26 36 81 37 75 38 74 39 27 41 61 42 40 43
REMARK SMILES IDX 60 44 41 45 44 46 59 47 79 48 42 49 43 50 58 52 80 53 45 54
REMARK SMILES IDX 28 55 29 56 38 57 30 58 31 59 37 60 39 61 32 62 33 63 34 64
REMARK SMILES IDX 35 65 36 66 62 67 63 68 72 69 64 70 65 71 71 72 73 73 66 74
REMARK SMILES IDX 67 75 68 76 69 77 70 78 46 79 47 80 56 81 48 82 49 83 55 84
REMARK SMILES IDX 57 85 50 86 51 87 52 88 53 89 54 90
REMARK H PARENT 78 40 44 51
REMARK Flexibility Score: inf
ROOT
ATOM      1  C   UNL     1       3.882   8.633  -4.325  1.00  0.00     0.275 C 
ENDROOT
BRANCH   1   2
ATOM      2  C   UNL     1       4.399   8.919  -2.915  1.00  0.00     0.274 C 
BRANCH   2   3
ATOM      3  O   UNL     1       3.480   8.444  -1.913  1.00  0.00    -0.462 OA
BRANCH   3   4
ATOM      4  C   UNL     1       2.687   9.374  -1.320  1.00  0.00     0.313 C 
ATOM      5  O   UNL     1       2.768  10.581  -1.529  1.00  0.00    -0.252 OA
BRANCH   4   6
ATOM      6  C   UNL     1       1.708   8.795  -0.304  1.00  0.00     0.126 C 
ATOM      7  C   UNL     1       2.231   9.036   1.111  1.00  0.00     0.025 C 
BRANCH   6   8
ATOM      8  C   UNL     1       1.287   7.350  -0.527  1.00  0.00    -0.033 A 
ATOM      9  C   UNL     1       0.921   2.287  -0.834  1.00  0.00     0.119 A 
ATOM     10  C   UNL     1       2.238   2.559  -0.468  1.00  0.00     0.047 A 
ATOM     11  C   UNL     1       0.040   3.340  -1.085  1.00  0.00     0.055 A 
ATOM     12  C   UNL     1       2.657   3.882  -0.305  1.00  0.00     0.012 A 
ATOM     13  C   UNL     1       0.445   4.673  -0.914  1.00  0.00    -0.015 A 
ATOM     14  C   UNL     1       1.768   4.948  -0.509  1.00  0.00    -0.018 A 
ATOM     15  C   UNL     1      -0.437   5.740  -1.132  1.00  0.00     0.009 A 
ATOM     16  C   UNL     1       2.171   6.280  -0.320  1.00  0.00     0.013 A 
ATOM     17  C   UNL     1      -0.022   7.060  -0.938  1.00  0.00     0.005 A 
BRANCH   9  18
ATOM     18  O   UNL     1       0.413   1.028  -1.012  1.00  0.00    -0.497 OA
ATOM     19  C   UNL     1       0.912   0.059  -0.097  1.00  0.00     0.278 C 
ENDBRANCH   9  18
ENDBRANCH   6   8
ENDBRANCH   4   6
ENDBRANCH   3   4
ENDBRANCH   2   3
ENDBRANCH   1   2
BRANCH   1  20
ATOM     20  O   UNL     1       2.725   9.432  -4.628  1.00  0.00    -0.458 OA
BRANCH  20  21
ATOM     21  C   UNL     1       1.536   8.810  -4.447  1.00  0.00     0.338 C 
ATOM     22  O   UNL     1       1.347   7.656  -4.110  1.00  0.00    -0.246 OA
BRANCH  21  23
ATOM     23  C   UNL     1       0.448   9.784  -4.609  1.00  0.00     0.060 A 
ATOM     24  C   UNL     1      -0.273  10.162  -3.474  1.00  0.00     0.016 A 
ATOM     25  C   UNL     1       0.087  10.254  -5.872  1.00  0.00     0.016 A 
ATOM     26  C   UNL     1      -1.372  11.006  -3.595  1.00  0.00     0.010 A 
ATOM     27  C   UNL     1      -1.013  11.110  -5.992  1.00  0.00     0.010 A 
ATOM     28  C   UNL     1      -1.756  11.480  -4.856  1.00  0.00    -0.014 A 
BRANCH  28  29
ATOM     29  C   UNL     1      -2.958  12.336  -4.985  1.00  0.00     0.031 A 
ATOM     30  C   UNL     1      -4.223  11.767  -5.562  1.00  0.00     0.074 A 
ATOM     31  C   UNL     1      -2.910  13.618  -4.579  1.00  0.00     0.049 A 
ATOM     32  N   UNL     1      -5.351  12.371  -5.833  1.00  0.00    -0.248 NA
ATOM     33  C   UNL     1      -4.218  10.330  -5.880  1.00  0.00     0.031 C 
ATOM     34  C   UNL     1      -1.744  14.272  -3.983  1.00  0.00     0.029 A 
ATOM     35  N   UNL     1      -3.863  14.605  -4.617  1.00  0.00    -0.354 N 
ATOM     36  C   UNL     1      -6.180  11.400  -6.379  1.00  0.00     0.074 A 
ATOM     37  C   UNL     1      -5.425  10.165  -6.405  1.00  0.00     0.031 C 
ATOM     38  C   UNL     1      -2.046  15.555  -3.724  1.00  0.00     0.029 A 
ATOM     39  C   UNL     1      -3.410  15.822  -4.168  1.00  0.00     0.049 A 
ATOM     40  H   UNL     1      -4.782  14.455  -4.936  1.00  0.00     0.167 HD
ATOM     41  C   UNL     1      -7.454  11.530  -6.819  1.00  0.00     0.037 A 
ATOM     42  C   UNL     1      -4.017  17.025  -4.148  1.00  0.00     0.037 A 
ATOM     43  C   UNL     1      -8.208  12.755  -6.764  1.00  0.00     0.049 A 
ATOM     44  C   UNL     1      -5.428  17.145  -4.656  1.00  0.00     0.074 A 
ATOM     45  C   UNL     1      -9.520  12.976  -7.146  1.00  0.00     0.029 A 
ATOM     46  N   UNL     1      -7.717  13.966  -6.299  1.00  0.00    -0.354 N 
ATOM     47  N   UNL     1      -6.205  16.213  -5.153  1.00  0.00    -0.248 NA
ATOM     48  C   UNL     1      -6.043  18.479  -4.604  1.00  0.00     0.031 C 
ATOM     49  C   UNL     1      -9.812  14.330  -6.943  1.00  0.00     0.029 A 
ATOM     50  C   UNL     1      -8.693  14.943  -6.402  1.00  0.00     0.049 A 
ATOM     51  H   UNL     1      -6.809  14.110  -5.947  1.00  0.00     0.167 HD
ATOM     52  C   UNL     1      -7.404  16.844  -5.463  1.00  0.00     0.074 A 
ATOM     53  C   UNL     1      -7.256  18.234  -5.082  1.00  0.00     0.031 C 
ATOM     54  C   UNL     1      -8.526  16.321  -6.016  1.00  0.00     0.037 A 
BRANCH  41  55
ATOM     55  C   UNL     1      -8.110  10.323  -7.425  1.00  0.00     0.058 A 
ATOM     56  C   UNL     1      -8.588   9.266  -6.636  1.00  0.00     0.135 A 
ATOM     57  C   UNL     1      -8.305  10.247  -8.814  1.00  0.00     0.135 A 
ATOM     58  F   UNL     1      -8.412   9.283  -5.305  1.00  0.00    -0.206 F 
ATOM     59  C   UNL     1      -9.226   8.168  -7.204  1.00  0.00     0.059 A 
ATOM     60  C   UNL     1      -8.956   9.167  -9.402  1.00  0.00     0.059 A 
ATOM     61  F   UNL     1      -7.861  11.230  -9.613  1.00  0.00    -0.206 F 
ATOM     62  C   UNL     1      -9.404   8.127  -8.589  1.00  0.00     0.060 A 
BRANCH  62  63
ATOM     63  S   UNL     1     -10.249   6.705  -9.313  1.00  0.00     0.124 S 
ATOM     64  O   UNL     1      -9.205   5.686  -9.254  1.00  0.00    -0.237 OA
ATOM     65  O   UNL     1     -11.375   6.511  -8.405  1.00  0.00    -0.237 OA
ATOM     66  O   UNL     1     -10.601   7.165 -10.653  1.00  0.00    -0.744 OA
ENDBRANCH  62  63
ENDBRANCH  41  55
BRANCH  42  67
ATOM     67  C   UNL     1      -3.278  18.218  -3.660  1.00  0.00     0.058 A 
ATOM     68  C   UNL     1      -3.599  18.822  -2.437  1.00  0.00     0.135 A 
ATOM     69  C   UNL     1      -2.228  18.771  -4.410  1.00  0.00     0.135 A 
ATOM     70  F   UNL     1      -4.600  18.334  -1.690  1.00  0.00    -0.206 F 
ATOM     71  C   UNL     1      -2.914  19.943  -1.978  1.00  0.00     0.059 A 
ATOM     72  C   UNL     1      -1.514  19.877  -3.963  1.00  0.00     0.059 A 
ATOM     73  F   UNL     1      -1.876  18.220  -5.583  1.00  0.00    -0.206 F 
ATOM     74  C   UNL     1      -1.873  20.464  -2.750  1.00  0.00     0.060 A 
BRANCH  74  75
ATOM     75  S   UNL     1      -0.954  21.890  -2.129  1.00  0.00     0.124 S 
ATOM     76  O   UNL     1      -1.863  22.985  -2.451  1.00  0.00    -0.237 OA
ATOM     77  O   UNL     1      -0.810  21.576  -0.711  1.00  0.00    -0.237 OA
ATOM     78  O   UNL     1       0.285  21.848  -2.900  1.00  0.00    -0.744 OA
ENDBRANCH  74  75
ENDBRANCH  42  67
BRANCH  54  79
ATOM     79  C   UNL     1      -9.686  17.251  -6.225  1.00  0.00     0.058 A 
ATOM     80  C   UNL     1      -9.701  18.178  -7.278  1.00  0.00     0.135 A 
ATOM     81  C   UNL     1     -10.814  17.182  -5.392  1.00  0.00     0.135 A 
ATOM     82  F   UNL     1      -8.642  18.287  -8.096  1.00  0.00    -0.206 F 
ATOM     83  C   UNL     1     -10.788  19.020  -7.488  1.00  0.00     0.059 A 
ATOM     84  C   UNL     1     -11.921  18.000  -5.596  1.00  0.00     0.059 A 
ATOM     85  F   UNL     1     -10.852  16.305  -4.376  1.00  0.00    -0.206 F 
ATOM     86  C   UNL     1     -11.894  18.924  -6.640  1.00  0.00     0.060 A 
BRANCH  86  87
ATOM     87  S   UNL     1     -13.315  19.996  -6.939  1.00  0.00     0.124 S 
ATOM     88  O   UNL     1     -12.854  21.259  -6.371  1.00  0.00    -0.237 OA
ATOM     89  O   UNL     1     -13.437  19.963  -8.394  1.00  0.00    -0.237 OA
ATOM     90  O   UNL     1     -14.395  19.336  -6.212  1.00  0.00    -0.744 OA
ENDBRANCH  86  87
ENDBRANCH  54  79
ENDBRANCH  28  29
ENDBRANCH  21  23
ENDBRANCH  20  21
ENDBRANCH   1  20
TORSDOF 16
