REMARK SMILES Nc1ccc2[nH]cc(C(=O)OCCOC(=O)c3ccc(-c4c5nc(c(-c6c(F)cc(S(=O)(=O)[O-])cc6F)c6ccc([nH]6)c(-c6c(F)cc(S(=O)(=O)[O-])cc6F)c6nc(c(-c7c(F)cc(S(=O)(=O)[O-])cc7F)c7ccc4[nH]7)C=C6)C=C5)cc3)c2c1
REMARK SMILES IDX 13 1 12 2 11 3 9 4 10 5 8 6 2 7 3 8 84 9 4 10 83 11 5 12
REMARK SMILES IDX 6 13 7 14 1 16 14 19 15 20 16 21 17 22 18 23 82 24 19 25
REMARK SMILES IDX 81 26 20 27 21 28 22 29 75 30 23 31 80 32 74 33 76 34 24 35
REMARK SMILES IDX 79 36 73 37 72 38 25 40 59 41 38 42 58 43 39 44 42 45 57 46
REMARK SMILES IDX 77 47 40 48 41 49 56 51 78 52 43 53 26 54 27 55 36 56 28 57
REMARK SMILES IDX 29 58 35 59 37 60 30 61 31 62 32 63 33 64 34 65 60 66 61 67
REMARK SMILES IDX 70 68 62 69 63 70 69 71 71 72 64 73 65 74 66 75 67 76 68 77
REMARK SMILES IDX 44 78 45 79 54 80 46 81 47 82 53 83 55 84 48 85 49 86 50 87
REMARK SMILES IDX 51 88 52 89
REMARK H PARENT 6 15 1 17 1 18 76 39 42 50
REMARK Flexibility Score: inf
ROOT
ATOM      1  C   UNL     1      -4.186   4.973   0.035  1.00  0.00     0.275 C 
ENDROOT
BRANCH   1   2
ATOM      2  C   UNL     1      -3.793   3.574   0.528  1.00  0.00     0.275 C 
BRANCH   2   3
ATOM      3  O   UNL     1      -2.834   2.945  -0.355  1.00  0.00    -0.458 OA
BRANCH   3   4
ATOM      4  C   UNL     1      -3.300   1.933  -1.149  1.00  0.00     0.340 C 
ATOM      5  O   UNL     1      -4.465   1.557  -1.166  1.00  0.00    -0.246 OA
BRANCH   4   6
ATOM      6  C   UNL     1      -2.274   1.367  -2.020  1.00  0.00     0.085 A 
ATOM      7  C   UNL     1       1.068   0.230  -0.575  1.00  0.00     0.032 A 
ATOM      8  C   UNL     1       1.625  -0.167  -1.792  1.00  0.00     0.027 A 
ATOM      9  C   UNL     1      -0.169   0.887  -0.554  1.00  0.00     0.036 A 
ATOM     10  C   UNL     1       0.916  -0.063  -2.989  1.00  0.00     0.029 A 
ATOM     11  C   UNL     1      -0.934   0.959  -1.732  1.00  0.00     0.016 A 
ATOM     12  C   UNL     1      -0.376   0.450  -2.909  1.00  0.00     0.046 A 
ATOM     13  N   UNL     1      -1.338   0.512  -3.879  1.00  0.00    -0.360 N 
ATOM     14  C   UNL     1      -2.494   0.956  -3.318  1.00  0.00     0.099 A 
ATOM     15  H   UNL     1      -1.214   0.276  -4.827  1.00  0.00     0.166 HD
BRANCH   7  16
ATOM     16  N   UNL     1       1.790   0.073   0.606  1.00  0.00    -0.399 N 
ATOM     17  H   UNL     1       2.660  -0.389   0.593  1.00  0.00     0.156 HD
ATOM     18  H   UNL     1       1.431   0.423   1.453  1.00  0.00     0.156 HD
ENDBRANCH   7  16
ENDBRANCH   4   6
ENDBRANCH   3   4
ENDBRANCH   2   3
ENDBRANCH   1   2
BRANCH   1  19
ATOM     19  O   UNL     1      -5.158   4.829  -1.007  1.00  0.00    -0.458 OA
BRANCH  19  20
ATOM     20  C   UNL     1      -4.760   5.196  -2.250  1.00  0.00     0.338 C 
ATOM     21  O   UNL     1      -3.932   6.033  -2.535  1.00  0.00    -0.246 OA
BRANCH  20  22
ATOM     22  C   UNL     1      -5.280   4.160  -3.172  1.00  0.00     0.060 A 
ATOM     23  C   UNL     1      -6.432   3.417  -2.875  1.00  0.00     0.016 A 
ATOM     24  C   UNL     1      -4.451   3.789  -4.229  1.00  0.00     0.016 A 
ATOM     25  C   UNL     1      -6.666   2.213  -3.535  1.00  0.00     0.010 A 
ATOM     26  C   UNL     1      -4.714   2.607  -4.909  1.00  0.00     0.010 A 
ATOM     27  C   UNL     1      -5.765   1.768  -4.504  1.00  0.00    -0.014 A 
BRANCH  27  28
ATOM     28  C   UNL     1      -6.063   0.543  -5.253  1.00  0.00     0.031 A 
ATOM     29  C   UNL     1      -6.722   0.848  -6.535  1.00  0.00     0.074 A 
ATOM     30  C   UNL     1      -5.784  -0.757  -5.005  1.00  0.00     0.049 A 
ATOM     31  N   UNL     1      -7.994   0.910  -6.737  1.00  0.00    -0.248 NA
ATOM     32  C   UNL     1      -5.897   1.299  -7.662  1.00  0.00     0.031 C 
ATOM     33  C   UNL     1      -4.913  -1.362  -3.999  1.00  0.00     0.029 A 
ATOM     34  N   UNL     1      -6.222  -1.848  -5.716  1.00  0.00    -0.354 N 
ATOM     35  C   UNL     1      -8.129   1.180  -8.086  1.00  0.00     0.074 A 
ATOM     36  C   UNL     1      -6.843   1.650  -8.533  1.00  0.00     0.031 C 
ATOM     37  C   UNL     1      -4.713  -2.671  -4.300  1.00  0.00     0.029 A 
ATOM     38  C   UNL     1      -5.598  -3.046  -5.391  1.00  0.00     0.049 A 
ATOM     39  H   UNL     1      -6.924  -1.785  -6.403  1.00  0.00     0.167 HD
ATOM     40  C   UNL     1      -9.202   0.728  -8.786  1.00  0.00     0.037 A 
ATOM     41  C   UNL     1      -5.819  -4.259  -5.960  1.00  0.00     0.037 A 
ATOM     42  C   UNL     1     -10.234   0.218  -7.912  1.00  0.00     0.049 A 
ATOM     43  C   UNL     1      -7.199  -4.241  -6.508  1.00  0.00     0.074 A 
ATOM     44  C   UNL     1     -10.972   0.721  -6.859  1.00  0.00     0.029 A 
ATOM     45  N   UNL     1     -10.382  -1.147  -7.863  1.00  0.00    -0.354 N 
ATOM     46  N   UNL     1      -8.280  -4.216  -5.778  1.00  0.00    -0.248 NA
ATOM     47  C   UNL     1      -7.401  -3.988  -7.928  1.00  0.00     0.031 C 
ATOM     48  C   UNL     1     -11.212  -0.386  -5.991  1.00  0.00     0.029 A 
ATOM     49  C   UNL     1     -10.628  -1.515  -6.564  1.00  0.00     0.049 A 
ATOM     50  H   UNL     1     -10.320  -1.760  -8.631  1.00  0.00     0.167 HD
ATOM     51  C   UNL     1      -9.208  -3.542  -6.550  1.00  0.00     0.074 A 
ATOM     52  C   UNL     1      -8.672  -3.583  -7.903  1.00  0.00     0.031 C 
ATOM     53  C   UNL     1     -10.161  -2.756  -5.975  1.00  0.00     0.037 A 
BRANCH  40  54
ATOM     54  C   UNL     1      -9.160   0.386 -10.255  1.00  0.00     0.058 A 
ATOM     55  C   UNL     1     -10.373   0.161 -10.934  1.00  0.00     0.135 A 
ATOM     56  C   UNL     1      -7.989   0.012 -10.952  1.00  0.00     0.135 A 
ATOM     57  F   UNL     1     -11.546   0.461 -10.354  1.00  0.00    -0.206 F 
ATOM     58  C   UNL     1     -10.422  -0.454 -12.183  1.00  0.00     0.059 A 
ATOM     59  C   UNL     1      -8.012  -0.536 -12.227  1.00  0.00     0.059 A 
ATOM     60  F   UNL     1      -6.772   0.057 -10.395  1.00  0.00    -0.206 F 
ATOM     61  C   UNL     1      -9.234  -0.812 -12.813  1.00  0.00     0.060 A 
BRANCH  61  62
ATOM     62  S   UNL     1      -9.292  -1.714 -14.368  1.00  0.00     0.124 S 
ATOM     63  O   UNL     1      -9.718  -3.033 -13.914  1.00  0.00    -0.237 OA
ATOM     64  O   UNL     1     -10.274  -0.949 -15.129  1.00  0.00    -0.237 OA
ATOM     65  O   UNL     1      -7.920  -1.623 -14.857  1.00  0.00    -0.744 OA
ENDBRANCH  61  62
ENDBRANCH  40  54
BRANCH  41  66
ATOM     66  C   UNL     1      -4.910  -5.412  -6.203  1.00  0.00     0.058 A 
ATOM     67  C   UNL     1      -5.419  -6.653  -6.641  1.00  0.00     0.135 A 
ATOM     68  C   UNL     1      -3.519  -5.240  -6.323  1.00  0.00     0.135 A 
ATOM     69  F   UNL     1      -6.734  -6.912  -6.570  1.00  0.00    -0.206 F 
ATOM     70  C   UNL     1      -4.615  -7.625  -7.242  1.00  0.00     0.059 A 
ATOM     71  C   UNL     1      -2.693  -6.204  -6.908  1.00  0.00     0.059 A 
ATOM     72  F   UNL     1      -2.935  -4.086  -5.967  1.00  0.00    -0.206 F 
ATOM     73  C   UNL     1      -3.255  -7.378  -7.400  1.00  0.00     0.060 A 
BRANCH  73  74
ATOM     74  S   UNL     1      -2.259  -8.536  -8.369  1.00  0.00     0.124 S 
ATOM     75  O   UNL     1      -2.252  -9.720  -7.517  1.00  0.00    -0.237 OA
ATOM     76  O   UNL     1      -3.029  -8.644  -9.604  1.00  0.00    -0.237 OA
ATOM     77  O   UNL     1      -0.974  -7.852  -8.498  1.00  0.00    -0.744 OA
ENDBRANCH  73  74
ENDBRANCH  41  66
BRANCH  53  78
ATOM     78  C   UNL     1     -10.567  -3.040  -4.552  1.00  0.00     0.058 A 
ATOM     79  C   UNL     1      -9.720  -2.956  -3.434  1.00  0.00     0.135 A 
ATOM     80  C   UNL     1     -11.928  -3.292  -4.306  1.00  0.00     0.135 A 
ATOM     81  F   UNL     1      -8.426  -2.630  -3.568  1.00  0.00    -0.206 F 
ATOM     82  C   UNL     1     -10.202  -3.141  -2.135  1.00  0.00     0.059 A 
ATOM     83  C   UNL     1     -12.435  -3.444  -3.019  1.00  0.00     0.059 A 
ATOM     84  F   UNL     1     -12.799  -3.342  -5.329  1.00  0.00    -0.206 F 
ATOM     85  C   UNL     1     -11.563  -3.375  -1.936  1.00  0.00     0.060 A 
BRANCH  85  86
ATOM     86  S   UNL     1     -12.202  -3.494  -0.250  1.00  0.00     0.124 S 
ATOM     87  O   UNL     1     -11.715  -4.802   0.173  1.00  0.00    -0.237 OA
ATOM     88  O   UNL     1     -11.585  -2.344   0.405  1.00  0.00    -0.237 OA
ATOM     89  O   UNL     1     -13.649  -3.394  -0.425  1.00  0.00    -0.744 OA
ENDBRANCH  85  86
ENDBRANCH  53  78
ENDBRANCH  27  28
ENDBRANCH  20  22
ENDBRANCH  19  20
ENDBRANCH   1  19
TORSDOF 15
