REMARK SMILES O=C(CS(=O)(=O)[C@@H]1CCOC2(CCCCC2)C1)OCCOC(=O)c1ccc(-c2c3nc(c(-c4c(F)cc(S(=O)(=O)[O-])cc4F)c4ccc([nH]4)c(-c4c(F)cc(S(=O)(=O)[O-])cc4F)c4nc(c(-c5c(F)cc(S(=O)(=O)[O-])cc5F)c5ccc2[nH]5)C=C4)C=C3)cc1
REMARK SMILES IDX 20 1 19 2 18 3 2 4 1 5 3 6 4 7 5 8 6 9 7 10 8 11 17 12 9 13
REMARK SMILES IDX 11 14 10 15 12 16 16 17 13 18 15 19 14 20 21 21 22 22 23 23
REMARK SMILES IDX 24 24 25 25 89 26 26 27 88 28 27 29 28 30 29 31 82 32 30 33
REMARK SMILES IDX 87 34 81 35 83 36 31 37 86 38 80 39 79 40 32 42 66 43 45 44
REMARK SMILES IDX 65 45 46 46 49 47 64 48 84 49 47 50 48 51 63 53 85 54 50 55
REMARK SMILES IDX 33 56 34 57 43 58 35 59 36 60 42 61 44 62 37 63 38 64 39 65
REMARK SMILES IDX 40 66 41 67 67 68 68 69 77 70 69 71 70 72 76 73 78 74 71 75
REMARK SMILES IDX 72 76 73 77 74 78 75 79 51 80 52 81 61 82 53 83 54 84 60 85
REMARK SMILES IDX 62 86 55 87 56 88 57 89 58 90 59 91
REMARK H PARENT 83 41 49 52
REMARK Flexibility Score: inf
ROOT
ATOM      1  C   UNL     1       4.398  -0.658  -2.324  1.00  0.00     0.275 C 
ENDROOT
BRANCH   1   2
ATOM      2  C   UNL     1       4.507  -0.559  -0.803  1.00  0.00     0.274 C 
BRANCH   2   3
ATOM      3  O   UNL     1       3.197  -0.583  -0.185  1.00  0.00    -0.461 OA
BRANCH   3   4
ATOM      4  C   UNL     1       2.466   0.473   0.229  1.00  0.00     0.321 C 
ATOM      5  O   UNL     1       1.306   0.292   0.601  1.00  0.00    -0.251 OA
BRANCH   4   6
ATOM      6  C   UNL     1       3.020   1.842   0.221  1.00  0.00     0.259 C 
BRANCH   6   7
ATOM      7  S   UNL     1       3.961   2.317   1.624  1.00  0.00     0.164 S 
ATOM      8  O   UNL     1       5.263   1.698   1.488  1.00  0.00    -0.228 OA
ATOM      9  O   UNL     1       3.906   3.771   1.617  1.00  0.00    -0.228 OA
BRANCH   7  10
ATOM     10  C   UNL     1       3.189   1.806   3.178  1.00  0.00     0.114 C 
ATOM     11  C   UNL     1       4.030   2.308   4.361  1.00  0.00     0.048 C 
ATOM     12  C   UNL     1       2.853   0.335   3.409  1.00  0.00     0.055 C 
ATOM     13  C   UNL     1       5.179   1.361   4.685  1.00  0.00     0.162 C 
ATOM     14  C   UNL     1       3.986  -0.592   3.903  1.00  0.00     0.069 C 
ATOM     15  O   UNL     1       4.707   0.043   4.963  1.00  0.00    -0.375 OA
ATOM     16  C   UNL     1       4.922  -1.056   2.772  1.00  0.00     0.035 C 
ATOM     17  C   UNL     1       3.314  -1.854   4.511  1.00  0.00     0.035 C 
ATOM     18  C   UNL     1       5.920  -2.131   3.189  1.00  0.00     0.003 C 
ATOM     19  C   UNL     1       4.306  -2.948   4.911  1.00  0.00     0.003 C 
ATOM     20  C   UNL     1       5.204  -3.346   3.749  1.00  0.00     0.000 C 
ENDBRANCH   7  10
ENDBRANCH   6   7
ENDBRANCH   4   6
ENDBRANCH   3   4
ENDBRANCH   2   3
ENDBRANCH   1   2
BRANCH   1  21
ATOM     21  O   UNL     1       3.915   0.597  -2.826  1.00  0.00    -0.458 OA
BRANCH  21  22
ATOM     22  C   UNL     1       2.585   0.658  -3.096  1.00  0.00     0.338 C 
ATOM     23  O   UNL     1       1.813  -0.273  -3.158  1.00  0.00    -0.246 OA
BRANCH  22  24
ATOM     24  C   UNL     1       2.181   2.086  -3.030  1.00  0.00     0.060 A 
ATOM     25  C   UNL     1       0.910   2.383  -2.519  1.00  0.00     0.016 A 
ATOM     26  C   UNL     1       3.074   3.119  -3.341  1.00  0.00     0.016 A 
ATOM     27  C   UNL     1       0.528   3.712  -2.333  1.00  0.00     0.010 A 
ATOM     28  C   UNL     1       2.690   4.447  -3.153  1.00  0.00     0.010 A 
ATOM     29  C   UNL     1       1.408   4.749  -2.670  1.00  0.00    -0.014 A 
BRANCH  29  30
ATOM     30  C   UNL     1       0.925   6.147  -2.713  1.00  0.00     0.031 A 
ATOM     31  C   UNL     1       0.388   6.662  -4.020  1.00  0.00     0.074 A 
ATOM     32  C   UNL     1       0.980   6.946  -1.633  1.00  0.00     0.049 A 
ATOM     33  N   UNL     1      -0.076   7.846  -4.316  1.00  0.00    -0.248 NA
ATOM     34  C   UNL     1       0.382   5.711  -5.145  1.00  0.00     0.031 C 
ATOM     35  C   UNL     1       1.487   6.564  -0.316  1.00  0.00     0.029 A 
ATOM     36  N   UNL     1       0.612   8.260  -1.483  1.00  0.00    -0.354 N 
ATOM     37  C   UNL     1      -0.438   7.781  -5.656  1.00  0.00     0.074 A 
ATOM     38  C   UNL     1      -0.107   6.454  -6.126  1.00  0.00     0.031 C 
ATOM     39  C   UNL     1       1.409   7.627   0.506  1.00  0.00     0.029 A 
ATOM     40  C   UNL     1       0.864   8.766  -0.230  1.00  0.00     0.049 A 
ATOM     41  H   UNL     1       0.206   8.790  -2.206  1.00  0.00     0.167 HD
ATOM     42  C   UNL     1      -1.007   8.738  -6.424  1.00  0.00     0.037 A 
ATOM     43  C   UNL     1       0.685  10.011   0.255  1.00  0.00     0.037 A 
ATOM     44  C   UNL     1      -1.320  10.061  -5.963  1.00  0.00     0.049 A 
ATOM     45  C   UNL     1       0.099  11.077  -0.638  1.00  0.00     0.074 A 
ATOM     46  C   UNL     1      -1.916  11.096  -6.660  1.00  0.00     0.029 A 
ATOM     47  N   UNL     1      -1.048  10.537  -4.690  1.00  0.00    -0.354 N 
ATOM     48  N   UNL     1      -0.298  10.984  -1.886  1.00  0.00    -0.248 NA
ATOM     49  C   UNL     1      -0.068  12.418  -0.056  1.00  0.00     0.031 C 
ATOM     50  C   UNL     1      -1.970  12.213  -5.819  1.00  0.00     0.029 A 
ATOM     51  C   UNL     1      -1.445  11.859  -4.586  1.00  0.00     0.049 A 
ATOM     52  H   UNL     1      -0.634  10.013  -3.966  1.00  0.00     0.167 HD
ATOM     53  C   UNL     1      -0.786  12.243  -2.226  1.00  0.00     0.074 A 
ATOM     54  C   UNL     1      -0.642  13.078  -1.052  1.00  0.00     0.031 C 
ATOM     55  C   UNL     1      -1.308  12.669  -3.403  1.00  0.00     0.037 A 
BRANCH  42  56
ATOM     56  C   UNL     1      -1.315   8.382  -7.848  1.00  0.00     0.058 A 
ATOM     57  C   UNL     1      -2.390   7.539  -8.173  1.00  0.00     0.135 A 
ATOM     58  C   UNL     1      -0.544   8.903  -8.898  1.00  0.00     0.135 A 
ATOM     59  F   UNL     1      -3.140   6.994  -7.202  1.00  0.00    -0.206 F 
ATOM     60  C   UNL     1      -2.680   7.212  -9.492  1.00  0.00     0.059 A 
ATOM     61  C   UNL     1      -0.830   8.606 -10.226  1.00  0.00     0.059 A 
ATOM     62  F   UNL     1       0.501   9.703  -8.636  1.00  0.00    -0.206 F 
ATOM     63  C   UNL     1      -1.894   7.750 -10.512  1.00  0.00     0.060 A 
BRANCH  63  64
ATOM     64  S   UNL     1      -2.290   7.326 -12.221  1.00  0.00     0.124 S 
ATOM     65  O   UNL     1      -1.802   5.952 -12.299  1.00  0.00    -0.237 OA
ATOM     66  O   UNL     1      -3.740   7.486 -12.256  1.00  0.00    -0.237 OA
ATOM     67  O   UNL     1      -1.536   8.305 -12.998  1.00  0.00    -0.744 OA
ENDBRANCH  63  64
ENDBRANCH  42  56
BRANCH  43  68
ATOM     68  C   UNL     1       1.066  10.335   1.656  1.00  0.00     0.058 A 
ATOM     69  C   UNL     1       0.090  10.605   2.627  1.00  0.00     0.135 A 
ATOM     70  C   UNL     1       2.412  10.421   2.042  1.00  0.00     0.135 A 
ATOM     71  F   UNL     1      -1.211  10.549   2.303  1.00  0.00    -0.206 F 
ATOM     72  C   UNL     1       0.433  10.972   3.924  1.00  0.00     0.059 A 
ATOM     73  C   UNL     1       2.781  10.764   3.339  1.00  0.00     0.059 A 
ATOM     74  F   UNL     1       3.384  10.168   1.152  1.00  0.00    -0.206 F 
ATOM     75  C   UNL     1       1.783  11.053   4.270  1.00  0.00     0.060 A 
BRANCH  75  76
ATOM     76  S   UNL     1       2.221  11.511   5.962  1.00  0.00     0.124 S 
ATOM     77  O   UNL     1       1.978  12.949   5.948  1.00  0.00    -0.237 OA
ATOM     78  O   UNL     1       1.288  10.713   6.750  1.00  0.00    -0.237 OA
ATOM     79  O   UNL     1       3.621  11.108   6.065  1.00  0.00    -0.744 OA
ENDBRANCH  75  76
ENDBRANCH  43  68
BRANCH  55  80
ATOM     80  C   UNL     1      -1.800  14.088  -3.476  1.00  0.00     0.058 A 
ATOM     81  C   UNL     1      -0.913  15.171  -3.561  1.00  0.00     0.135 A 
ATOM     82  C   UNL     1      -3.177  14.359  -3.533  1.00  0.00     0.135 A 
ATOM     83  F   UNL     1       0.412  14.965  -3.507  1.00  0.00    -0.206 F 
ATOM     84  C   UNL     1      -1.374  16.478  -3.684  1.00  0.00     0.059 A 
ATOM     85  C   UNL     1      -3.659  15.655  -3.681  1.00  0.00     0.059 A 
ATOM     86  F   UNL     1      -4.067  13.356  -3.469  1.00  0.00    -0.206 F 
ATOM     87  C   UNL     1      -2.750  16.710  -3.745  1.00  0.00     0.060 A 
BRANCH  87  88
ATOM     88  S   UNL     1      -3.337  18.405  -3.952  1.00  0.00     0.124 S 
ATOM     89  O   UNL     1      -3.164  18.942  -2.607  1.00  0.00    -0.237 OA
ATOM     90  O   UNL     1      -2.429  18.932  -4.967  1.00  0.00    -0.237 OA
ATOM     91  O   UNL     1      -4.720  18.233  -4.388  1.00  0.00    -0.744 OA
ENDBRANCH  87  88
ENDBRANCH  55  80
ENDBRANCH  29  30
ENDBRANCH  22  24
ENDBRANCH  21  22
ENDBRANCH   1  21
TORSDOF 16
