REMARK SMILES CSc1ccc(CNc2ccc(N3CCOCC3)c(C(=O)OCCOC(=O)c3ccc(-c4c5nc(c(-c6c(F)cc(S(=O)(=O)[O-])cc6F)c6ccc([nH]6)c(-c6c(F)cc(S(=O)(=O)[O-])cc6F)c6nc(c(-c7c(F)cc(S(=O)(=O)[O-])cc7F)c7ccc4[nH]7)C=C6)C=C5)cc3)c2)cc1
REMARK SMILES IDX 23 1 22 2 20 3 21 4 19 5 9 6 10 7 94 8 11 9 12 10 8 11 7 13
REMARK SMILES IDX 6 14 3 15 4 16 96 17 5 18 95 19 2 20 1 21 13 22 14 23 18 24
REMARK SMILES IDX 15 25 17 26 16 27 24 28 25 29 26 30 27 31 28 32 29 33 93 34
REMARK SMILES IDX 30 35 92 36 31 37 32 38 33 39 86 40 34 41 91 42 85 43 87 44
REMARK SMILES IDX 35 45 90 46 84 47 83 48 36 50 70 51 49 52 69 53 50 54 53 55
REMARK SMILES IDX 68 56 88 57 51 58 52 59 67 61 89 62 54 63 37 64 38 65 47 66
REMARK SMILES IDX 39 67 40 68 46 69 48 70 41 71 42 72 43 73 44 74 45 75 71 76
REMARK SMILES IDX 72 77 81 78 73 79 74 80 80 81 82 82 75 83 76 84 77 85 78 86
REMARK SMILES IDX 79 87 55 88 56 89 65 90 57 91 58 92 64 93 66 94 59 95 60 96
REMARK SMILES IDX 61 97 62 98 63 99
REMARK H PARENT 8 12 87 49 53 60
REMARK Flexibility Score: inf
ROOT
ATOM      1  C   UNL     1       5.354   5.764  10.582  1.00  0.00     0.275 C 
ENDROOT
BRANCH   1   2
ATOM      2  O   UNL     1       4.322   5.096   9.843  1.00  0.00    -0.458 OA
BRANCH   2   3
ATOM      3  C   UNL     1       4.466   3.755   9.684  1.00  0.00     0.340 C 
ATOM      4  O   UNL     1       5.470   3.106   9.924  1.00  0.00    -0.246 OA
BRANCH   3   5
ATOM      5  C   UNL     1       3.151   3.218   9.260  1.00  0.00     0.085 A 
ATOM      6  C   UNL     1       1.337   3.401   7.630  1.00  0.00     0.035 A 
ATOM      7  C   UNL     1       0.697   2.363   8.307  1.00  0.00     0.028 A 
ATOM      8  C   UNL     1       2.551   3.842   8.148  1.00  0.00     0.043 A 
ATOM      9  C   UNL     1       1.297   1.726   9.405  1.00  0.00     0.029 A 
ATOM     10  C   UNL     1       2.559   2.106   9.890  1.00  0.00     0.052 A 
BRANCH   6  11
ATOM     11  N   UNL     1       0.802   3.885   6.453  1.00  0.00    -0.381 N 
ATOM     12  H   UNL     1      -0.172   3.814   6.322  1.00  0.00     0.160 HD
BRANCH  11  13
ATOM     13  C   UNL     1       1.594   4.492   5.398  1.00  0.00     0.148 C 
BRANCH  13  14
ATOM     14  C   UNL     1       1.300   3.822   4.074  1.00  0.00    -0.029 A 
ATOM     15  C   UNL     1       0.825   2.556   1.584  1.00  0.00     0.007 A 
ATOM     16  C   UNL     1       1.156   1.803   2.713  1.00  0.00     0.015 A 
ATOM     17  C   UNL     1       0.745   3.949   1.714  1.00  0.00     0.015 A 
ATOM     18  C   UNL     1       1.399   2.429   3.941  1.00  0.00     0.007 A 
ATOM     19  C   UNL     1       0.983   4.578   2.941  1.00  0.00     0.007 A 
BRANCH  15  20
ATOM     20  S   UNL     1       0.465   1.873  -0.030  1.00  0.00    -0.130 SA
ATOM     21  C   UNL     1       0.982   0.143   0.123  1.00  0.00     0.091 C 
ENDBRANCH  15  20
ENDBRANCH  13  14
ENDBRANCH  11  13
ENDBRANCH   6  11
BRANCH  10  22
ATOM     22  N   UNL     1       3.169   1.394  10.908  1.00  0.00    -0.366 N 
ATOM     23  C   UNL     1       3.556   2.057  12.158  1.00  0.00     0.145 C 
ATOM     24  C   UNL     1       3.006  -0.060  11.048  1.00  0.00     0.145 C 
ATOM     25  C   UNL     1       4.767   1.381  12.804  1.00  0.00     0.181 C 
ATOM     26  C   UNL     1       4.280  -0.638  11.691  1.00  0.00     0.181 C 
ATOM     27  O   UNL     1       4.559  -0.030  12.964  1.00  0.00    -0.378 OA
ENDBRANCH  10  22
ENDBRANCH   3   5
ENDBRANCH   2   3
ENDBRANCH   1   2
BRANCH   1  28
ATOM     28  C   UNL     1       4.708   6.642  11.655  1.00  0.00     0.275 C 
BRANCH  28  29
ATOM     29  O   UNL     1       3.893   5.848  12.543  1.00  0.00    -0.458 OA
BRANCH  29  30
ATOM     30  C   UNL     1       2.557   5.843  12.281  1.00  0.00     0.338 C 
ATOM     31  O   UNL     1       1.983   6.493  11.425  1.00  0.00    -0.246 OA
BRANCH  30  32
ATOM     32  C   UNL     1       1.894   4.809  13.120  1.00  0.00     0.060 A 
ATOM     33  C   UNL     1       0.834   4.079  12.565  1.00  0.00     0.016 A 
ATOM     34  C   UNL     1       2.351   4.497  14.408  1.00  0.00     0.016 A 
ATOM     35  C   UNL     1       0.265   3.014  13.277  1.00  0.00     0.010 A 
ATOM     36  C   UNL     1       1.775   3.438  15.123  1.00  0.00     0.010 A 
ATOM     37  C   UNL     1       0.734   2.680  14.560  1.00  0.00    -0.014 A 
BRANCH  37  38
ATOM     38  C   UNL     1       0.002   1.676  15.379  1.00  0.00     0.031 A 
ATOM     39  C   UNL     1      -1.216   2.153  16.116  1.00  0.00     0.074 A 
ATOM     40  C   UNL     1       0.380   0.386  15.491  1.00  0.00     0.049 A 
ATOM     41  N   UNL     1      -2.088   1.471  16.809  1.00  0.00    -0.248 NA
ATOM     42  C   UNL     1      -1.477   3.601  16.062  1.00  0.00     0.031 C 
ATOM     43  C   UNL     1       1.555  -0.216  14.870  1.00  0.00     0.029 A 
ATOM     44  N   UNL     1      -0.194  -0.659  16.181  1.00  0.00    -0.354 N 
ATOM     45  C   UNL     1      -3.026   2.399  17.237  1.00  0.00     0.074 A 
ATOM     46  C   UNL     1      -2.584   3.699  16.778  1.00  0.00     0.031 C 
ATOM     47  C   UNL     1       1.615  -1.520  15.198  1.00  0.00     0.029 A 
ATOM     48  C   UNL     1       0.487  -1.851  16.066  1.00  0.00     0.049 A 
ATOM     49  H   UNL     1      -1.019  -0.562  16.710  1.00  0.00     0.167 HD
ATOM     50  C   UNL     1      -4.163   2.193  17.938  1.00  0.00     0.037 A 
ATOM     51  C   UNL     1       0.229  -3.066  16.599  1.00  0.00     0.037 A 
ATOM     52  C   UNL     1      -4.566   0.925  18.476  1.00  0.00     0.049 A 
ATOM     53  C   UNL     1      -1.000  -3.253  17.460  1.00  0.00     0.074 A 
ATOM     54  C   UNL     1      -5.688   0.627  19.228  1.00  0.00     0.029 A 
ATOM     55  N   UNL     1      -3.843  -0.251  18.350  1.00  0.00    -0.354 N 
ATOM     56  N   UNL     1      -1.931  -2.384  17.776  1.00  0.00    -0.248 NA
ATOM     57  C   UNL     1      -1.220  -4.593  18.029  1.00  0.00     0.031 C 
ATOM     58  C   UNL     1      -5.616  -0.718  19.604  1.00  0.00     0.029 A 
ATOM     59  C   UNL     1      -4.484  -1.274  19.029  1.00  0.00     0.049 A 
ATOM     60  H   UNL     1      -2.999  -0.346  17.852  1.00  0.00     0.167 HD
ATOM     61  C   UNL     1      -2.868  -3.084  18.535  1.00  0.00     0.074 A 
ATOM     62  C   UNL     1      -2.392  -4.447  18.631  1.00  0.00     0.031 C 
ATOM     63  C   UNL     1      -4.021  -2.638  19.094  1.00  0.00     0.037 A 
BRANCH  50  64
ATOM     64  C   UNL     1      -5.025   3.397  18.176  1.00  0.00     0.058 A 
ATOM     65  C   UNL     1      -5.731   4.003  17.123  1.00  0.00     0.135 A 
ATOM     66  C   UNL     1      -5.115   3.974  19.451  1.00  0.00     0.135 A 
ATOM     67  F   UNL     1      -5.652   3.504  15.879  1.00  0.00    -0.206 F 
ATOM     68  C   UNL     1      -6.467   5.165  17.320  1.00  0.00     0.059 A 
ATOM     69  C   UNL     1      -5.869   5.120  19.676  1.00  0.00     0.059 A 
ATOM     70  F   UNL     1      -4.448   3.439  20.485  1.00  0.00    -0.206 F 
ATOM     71  C   UNL     1      -6.524   5.719  18.600  1.00  0.00     0.060 A 
BRANCH  71  72
ATOM     72  S   UNL     1      -7.461   7.242  18.832  1.00  0.00     0.124 S 
ATOM     73  O   UNL     1      -6.595   8.218  18.177  1.00  0.00    -0.237 OA
ATOM     74  O   UNL     1      -8.714   6.946  18.146  1.00  0.00    -0.237 OA
ATOM     75  O   UNL     1      -7.557   7.364  20.284  1.00  0.00    -0.744 OA
ENDBRANCH  71  72
ENDBRANCH  50  64
BRANCH  51  76
ATOM     76  C   UNL     1       1.130  -4.228  16.336  1.00  0.00     0.058 A 
ATOM     77  C   UNL     1       0.687  -5.333  15.589  1.00  0.00     0.135 A 
ATOM     78  C   UNL     1       2.420  -4.294  16.884  1.00  0.00     0.135 A 
ATOM     79  F   UNL     1      -0.545  -5.331  15.057  1.00  0.00    -0.206 F 
ATOM     80  C   UNL     1       1.474  -6.470  15.424  1.00  0.00     0.059 A 
ATOM     81  C   UNL     1       3.237  -5.409  16.709  1.00  0.00     0.059 A 
ATOM     82  F   UNL     1       2.896  -3.268  17.607  1.00  0.00    -0.206 F 
ATOM     83  C   UNL     1       2.748  -6.500  15.991  1.00  0.00     0.060 A 
BRANCH  83  84
ATOM     84  S   UNL     1       3.764  -7.978  15.760  1.00  0.00     0.124 S 
ATOM     85  O   UNL     1       3.078  -8.944  16.610  1.00  0.00    -0.237 OA
ATOM     86  O   UNL     1       3.653  -8.202  14.322  1.00  0.00    -0.237 OA
ATOM     87  O   UNL     1       5.083  -7.555  16.221  1.00  0.00    -0.744 OA
ENDBRANCH  83  84
ENDBRANCH  51  76
BRANCH  63  88
ATOM     88  C   UNL     1      -4.903  -3.637  19.797  1.00  0.00     0.058 A 
ATOM     89  C   UNL     1      -4.558  -4.209  21.031  1.00  0.00     0.135 A 
ATOM     90  C   UNL     1      -6.157  -3.967  19.253  1.00  0.00     0.135 A 
ATOM     91  F   UNL     1      -3.373  -3.931  21.597  1.00  0.00    -0.206 F 
ATOM     92  C   UNL     1      -5.413  -5.090  21.689  1.00  0.00     0.059 A 
ATOM     93  C   UNL     1      -7.040  -4.819  19.908  1.00  0.00     0.059 A 
ATOM     94  F   UNL     1      -6.546  -3.438  18.081  1.00  0.00    -0.206 F 
ATOM     95  C   UNL     1      -6.654  -5.386  21.121  1.00  0.00     0.060 A 
BRANCH  95  96
ATOM     96  S   UNL     1      -7.772  -6.496  22.003  1.00  0.00     0.124 S 
ATOM     97  O   UNL     1      -7.131  -7.789  21.791  1.00  0.00    -0.237 OA
ATOM     98  O   UNL     1      -7.717  -5.977  23.366  1.00  0.00    -0.237 OA
ATOM     99  O   UNL     1      -9.048  -6.309  21.319  1.00  0.00    -0.744 OA
ENDBRANCH  95  96
ENDBRANCH  63  88
ENDBRANCH  37  38
ENDBRANCH  30  32
ENDBRANCH  29  30
ENDBRANCH  28  29
ENDBRANCH   1  28
TORSDOF 19
