REMARK SMILES COc1ccc(C)cc1S(=O)(=O)N[C@@H](C)C(=O)OCCOC(=O)c1ccc(-c2c3nc(c(-c4c(F)cc(S(=O)(=O)[O-])cc4F)c4ccc([nH]4)c(-c4c(F)cc(S(=O)(=O)[O-])cc4F)c4nc(c(-c5c(F)cc(S(=O)(=O)[O-])cc5F)c5ccc2[nH]5)C=C4)C=C3)cc1
REMARK SMILES IDX 19 1 18 2 16 3 17 4 14 5 15 6 13 7 10 9 11 10 12 11 9 12
REMARK SMILES IDX 3 13 4 14 5 15 8 16 6 17 7 18 2 19 1 20 20 21 21 22 22 23
REMARK SMILES IDX 23 24 24 25 25 26 89 27 26 28 88 29 27 30 28 31 29 32 82 33
REMARK SMILES IDX 30 34 87 35 81 36 83 37 31 38 86 39 80 40 79 41 32 43 66 44
REMARK SMILES IDX 45 45 65 46 46 47 49 48 64 49 84 50 47 51 48 52 63 54 85 55
REMARK SMILES IDX 50 56 33 57 34 58 43 59 35 60 36 61 42 62 44 63 37 64 38 65
REMARK SMILES IDX 39 66 40 67 41 68 67 69 68 70 77 71 69 72 70 73 76 74 78 75
REMARK SMILES IDX 71 76 72 77 73 78 74 79 75 80 51 81 52 82 61 83 53 84 54 85
REMARK SMILES IDX 60 86 62 87 55 88 56 89 57 90 58 91 59 92
REMARK H PARENT 13 8 83 42 49 53
REMARK Flexibility Score: inf
ROOT
ATOM      1  C   UNL     1      -2.512   0.303   4.716  1.00  0.00     0.274 C 
ENDROOT
BRANCH   1   2
ATOM      2  O   UNL     1      -3.026   0.200   3.370  1.00  0.00    -0.461 OA
BRANCH   2   3
ATOM      3  C   UNL     1      -2.035   0.361   2.306  1.00  0.00     0.324 C 
ATOM      4  O   UNL     1      -1.089   0.986   2.872  1.00  0.00    -0.250 OA
BRANCH   3   5
ATOM      5  C   UNL     1      -2.257  -0.352   0.235  1.00  0.00     0.176 C 
ATOM      6  C   UNL     1      -3.275   0.174  -1.039  1.00  0.00     0.038 C 
BRANCH   5   7
ATOM      7  N   UNL     1      -2.083  -2.011  -0.311  1.00  0.00    -0.197 NA
ATOM      8  H   UNL     1      -1.342  -2.393   0.278  1.00  0.00     0.142 HD
BRANCH   7   9
ATOM      9  S   UNL     1      -1.733  -2.610  -1.861  1.00  0.00     0.245 S 
ATOM     10  O   UNL     1      -2.538  -1.930  -2.854  1.00  0.00    -0.207 OA
ATOM     11  O   UNL     1      -1.996  -4.031  -1.676  1.00  0.00    -0.207 OA
BRANCH   9  12
ATOM     12  C   UNL     1      -0.058  -2.594  -2.486  1.00  0.00     0.124 A 
ATOM     13  C   UNL     1       1.089  -2.122  -1.872  1.00  0.00     0.138 A 
ATOM     14  C   UNL     1       2.356  -2.359  -2.446  1.00  0.00     0.048 A 
ATOM     15  C   UNL     1       2.487  -2.889  -3.718  1.00  0.00     0.007 A 
ATOM     16  C   UNL     1       0.091  -3.144  -3.784  1.00  0.00     0.029 A 
ATOM     17  C   UNL     1       1.345  -3.249  -4.419  1.00  0.00    -0.050 A 
ATOM     18  C   UNL     1       1.469  -3.744  -5.827  1.00  0.00     0.044 C 
BRANCH  13  19
ATOM     19  O   UNL     1       1.027  -1.377  -0.746  1.00  0.00    -0.495 OA
ATOM     20  C   UNL     1       1.836  -0.199  -0.860  1.00  0.00     0.278 C 
ENDBRANCH  13  19
ENDBRANCH   9  12
ENDBRANCH   7   9
ENDBRANCH   5   7
ENDBRANCH   3   5
ENDBRANCH   2   3
ENDBRANCH   1   2
BRANCH   1  21
ATOM     21  C   UNL     1      -1.821  -1.022   5.086  1.00  0.00     0.275 C 
BRANCH  21  22
ATOM     22  O   UNL     1      -0.896  -1.473   4.065  1.00  0.00    -0.458 OA
BRANCH  22  23
ATOM     23  C   UNL     1      -1.365  -2.382   3.167  1.00  0.00     0.338 C 
ATOM     24  O   UNL     1      -1.896  -3.450   3.420  1.00  0.00    -0.246 OA
BRANCH  23  25
ATOM     25  C   UNL     1      -1.642  -1.621   1.922  1.00  0.00     0.060 A 
ATOM     26  C   UNL     1      -0.437  -0.439   1.309  1.00  0.00     0.016 A 
ATOM     27  C   UNL     1      -3.388  -1.241   1.802  1.00  0.00     0.016 A 
ATOM     28  C   UNL     1      -0.951   1.233   0.750  1.00  0.00     0.010 A 
ATOM     29  C   UNL     1      -3.896   0.405   1.347  1.00  0.00     0.010 A 
ATOM     30  C   UNL     1      -2.684   1.663   0.883  1.00  0.00    -0.014 A 
BRANCH  30  31
ATOM     31  C   UNL     1      -3.209   2.998   1.140  1.00  0.00     0.031 A 
ATOM     32  C   UNL     1      -4.371   3.388   0.306  1.00  0.00     0.074 A 
ATOM     33  C   UNL     1      -2.702   3.704   2.181  1.00  0.00     0.049 A 
ATOM     34  N   UNL     1      -4.496   4.539  -0.267  1.00  0.00    -0.248 NA
ATOM     35  C   UNL     1      -5.397   2.441  -0.196  1.00  0.00     0.031 C 
ATOM     36  C   UNL     1      -3.256   4.851   2.889  1.00  0.00     0.029 A 
ATOM     37  N   UNL     1      -1.464   3.563   2.790  1.00  0.00    -0.354 N 
ATOM     38  C   UNL     1      -5.804   4.536  -0.714  1.00  0.00     0.074 A 
ATOM     39  C   UNL     1      -6.064   3.191  -1.069  1.00  0.00     0.031 C 
ATOM     40  C   UNL     1      -2.282   5.456   3.601  1.00  0.00     0.029 A 
ATOM     41  C   UNL     1      -1.032   4.766   3.337  1.00  0.00     0.049 A 
ATOM     42  H   UNL     1      -0.956   2.720   2.829  1.00  0.00     0.167 HD
ATOM     43  C   UNL     1      -6.666   5.489  -0.260  1.00  0.00     0.037 A 
ATOM     44  C   UNL     1       0.099   5.360   2.853  1.00  0.00     0.037 A 
ATOM     45  C   UNL     1      -5.902   6.521   0.439  1.00  0.00     0.049 A 
ATOM     46  C   UNL     1      -0.259   6.498   1.913  1.00  0.00     0.074 A 
ATOM     47  C   UNL     1      -5.809   6.934   1.754  1.00  0.00     0.029 A 
ATOM     48  N   UNL     1      -4.789   7.044  -0.207  1.00  0.00    -0.354 N 
ATOM     49  N   UNL     1      -1.454   6.649   1.398  1.00  0.00    -0.248 NA
ATOM     50  C   UNL     1       0.623   7.612   1.574  1.00  0.00     0.031 C 
ATOM     51  C   UNL     1      -4.574   7.649   1.894  1.00  0.00     0.029 A 
ATOM     52  C   UNL     1      -3.936   7.681   0.663  1.00  0.00     0.049 A 
ATOM     53  H   UNL     1      -4.630   6.966  -1.175  1.00  0.00     0.167 HD
ATOM     54  C   UNL     1      -1.542   7.843   0.733  1.00  0.00     0.074 A 
ATOM     55  C   UNL     1      -0.213   8.409   0.883  1.00  0.00     0.031 C 
ATOM     56  C   UNL     1      -2.703   8.272   0.141  1.00  0.00     0.037 A 
BRANCH  43  57
ATOM     57  C   UNL     1      -8.187   5.367  -0.237  1.00  0.00     0.058 A 
ATOM     58  C   UNL     1      -8.950   6.507   0.084  1.00  0.00     0.135 A 
ATOM     59  C   UNL     1      -8.966   4.202  -0.473  1.00  0.00     0.135 A 
ATOM     60  F   UNL     1      -8.355   7.675   0.365  1.00  0.00    -0.206 F 
ATOM     61  C   UNL     1     -10.349   6.503   0.135  1.00  0.00     0.059 A 
ATOM     62  C   UNL     1     -10.363   4.186  -0.475  1.00  0.00     0.059 A 
ATOM     63  F   UNL     1      -8.437   2.989  -0.662  1.00  0.00    -0.206 F 
ATOM     64  C   UNL     1     -11.050   5.342  -0.165  1.00  0.00     0.060 A 
BRANCH  64  65
ATOM     65  S   UNL     1     -12.850   5.360  -0.143  1.00  0.00     0.124 S 
ATOM     66  O   UNL     1     -13.131   5.607   1.267  1.00  0.00    -0.237 OA
ATOM     67  O   UNL     1     -13.155   6.455  -1.058  1.00  0.00    -0.237 OA
ATOM     68  O   UNL     1     -13.212   4.030  -0.626  1.00  0.00    -0.744 OA
ENDBRANCH  64  65
ENDBRANCH  43  57
BRANCH  44  69
ATOM     69  C   UNL     1       1.244   4.401   2.824  1.00  0.00     0.058 A 
ATOM     70  C   UNL     1       1.639   3.880   4.079  1.00  0.00     0.135 A 
ATOM     71  C   UNL     1       1.628   3.667   1.700  1.00  0.00     0.135 A 
ATOM     72  F   UNL     1       1.382   4.577   5.198  1.00  0.00    -0.206 F 
ATOM     73  C   UNL     1       2.180   2.605   4.226  1.00  0.00     0.059 A 
ATOM     74  C   UNL     1       2.250   2.411   1.830  1.00  0.00     0.059 A 
ATOM     75  F   UNL     1       1.300   4.086   0.469  1.00  0.00    -0.206 F 
ATOM     76  C   UNL     1       2.456   1.854   3.094  1.00  0.00     0.060 A 
BRANCH  76  77
ATOM     77  S   UNL     1       3.023   0.144   3.328  1.00  0.00     0.124 S 
ATOM     78  O   UNL     1       4.453   0.338   3.536  1.00  0.00    -0.237 OA
ATOM     79  O   UNL     1       2.265  -0.294   4.496  1.00  0.00    -0.237 OA
ATOM     80  O   UNL     1       2.681  -0.518   2.076  1.00  0.00    -0.744 OA
ENDBRANCH  76  77
ENDBRANCH  44  69
BRANCH  56  81
ATOM     81  C   UNL     1      -2.816   9.334  -0.951  1.00  0.00     0.058 A 
ATOM     82  C   UNL     1      -1.724   9.902  -1.626  1.00  0.00     0.135 A 
ATOM     83  C   UNL     1      -4.085   9.742  -1.456  1.00  0.00     0.135 A 
ATOM     84  F   UNL     1      -0.467   9.492  -1.425  1.00  0.00    -0.206 F 
ATOM     85  C   UNL     1      -1.869  10.893  -2.596  1.00  0.00     0.059 A 
ATOM     86  C   UNL     1      -4.252  10.643  -2.499  1.00  0.00     0.059 A 
ATOM     87  F   UNL     1      -5.243   9.274  -0.973  1.00  0.00    -0.206 F 
ATOM     88  C   UNL     1      -3.137  11.260  -3.024  1.00  0.00     0.060 A 
BRANCH  88  89
ATOM     89  S   UNL     1      -3.305  12.530  -4.278  1.00  0.00     0.124 S 
ATOM     90  O   UNL     1      -2.978  13.730  -3.515  1.00  0.00    -0.237 OA
ATOM     91  O   UNL     1      -2.315  12.118  -5.268  1.00  0.00    -0.237 OA
ATOM     92  O   UNL     1      -4.696  12.412  -4.702  1.00  0.00    -0.744 OA
ENDBRANCH  88  89
ENDBRANCH  56  81
ENDBRANCH  30  31
ENDBRANCH  23  25
ENDBRANCH  22  23
ENDBRANCH  21  22
ENDBRANCH   1  21
TORSDOF 18
