REMARK SMILES COC(=O)c1cscc1NS(=O)(=O)c1cc(C)c(C(=O)OCCOC(=O)c2ccc(-c3c4nc(c(-c5c(F)cc(S(=O)(=O)[O-])cc5F)c5ccc([nH]5)c(-c5c(F)cc(S(=O)(=O)[O-])cc5F)c5nc(c(-c6c(F)cc(S(=O)(=O)[O-])cc6F)c6ccc3[nH]6)C=C5)C=C4)cc2)s1
REMARK SMILES IDX 22 1 21 2 19 3 20 4 18 5 14 6 15 7 93 8 16 9 17 10 11 11
REMARK SMILES IDX 12 12 13 13 10 14 9 16 5 17 6 18 7 19 8 20 3 21 4 22 2 23
REMARK SMILES IDX 1 24 23 25 24 26 25 27 26 28 27 29 28 30 92 31 29 32 91 33
REMARK SMILES IDX 30 34 31 35 32 36 85 37 33 38 90 39 84 40 86 41 34 42 89 43
REMARK SMILES IDX 83 44 82 45 35 47 69 48 48 49 68 50 49 51 52 52 67 53 87 54
REMARK SMILES IDX 50 55 51 56 66 58 88 59 53 60 36 61 37 62 46 63 38 64 39 65
REMARK SMILES IDX 45 66 47 67 40 68 41 69 42 70 43 71 44 72 70 73 71 74 80 75
REMARK SMILES IDX 72 76 73 77 79 78 81 79 74 80 75 81 76 82 77 83 78 84 54 85
REMARK SMILES IDX 55 86 64 87 56 88 57 89 63 90 65 91 58 92 59 93 60 94 61 95
REMARK SMILES IDX 62 96
REMARK H PARENT 10 15 86 46 52 57
REMARK Flexibility Score: inf
ROOT
ATOM      1  C   UNL     1      -0.236  -8.552   8.849  1.00  0.00     0.275 C 
ENDROOT
BRANCH   1   2
ATOM      2  O   UNL     1       0.799  -8.493   7.845  1.00  0.00    -0.458 OA
BRANCH   2   3
ATOM      3  C   UNL     1       0.568  -7.602   6.837  1.00  0.00     0.348 C 
ATOM      4  O   UNL     1      -0.453  -6.934   6.735  1.00  0.00    -0.245 OA
BRANCH   3   5
ATOM      5  C   UNL     1       1.669  -7.562   5.893  1.00  0.00     0.116 A 
ATOM      6  C   UNL     1       3.049  -6.670   4.044  1.00  0.00     0.141 A 
ATOM      7  C   UNL     1       3.159  -8.043   4.178  1.00  0.00     0.038 A 
ATOM      8  S   UNL     1       2.218  -6.024   5.374  1.00  0.00    -0.115 S 
ATOM      9  C   UNL     1       2.382  -8.576   5.272  1.00  0.00    -0.024 A 
ATOM     10  C   UNL     1       2.282 -10.027   5.605  1.00  0.00     0.046 C 
BRANCH   6  11
ATOM     11  S   UNL     1       3.687  -5.499   2.864  1.00  0.00     0.271 S 
ATOM     12  O   UNL     1       4.486  -6.327   1.980  1.00  0.00    -0.200 OA
ATOM     13  O   UNL     1       4.311  -4.453   3.645  1.00  0.00    -0.200 OA
BRANCH  11  14
ATOM     14  N   UNL     1       2.509  -4.778   1.885  1.00  0.00    -0.277 N 
ATOM     15  H   UNL     1       2.779  -4.578   0.960  1.00  0.00     0.180 HD
BRANCH  14  16
ATOM     16  C   UNL     1       1.183  -4.429   2.235  1.00  0.00     0.074 A 
ATOM     17  C   UNL     1       0.572  -3.179   1.814  1.00  0.00     0.094 A 
ATOM     18  C   UNL     1      -0.735  -3.079   2.267  1.00  0.00     0.082 A 
ATOM     19  S   UNL     1      -1.248  -4.462   3.119  1.00  0.00    -0.149 S 
ATOM     20  C   UNL     1       0.253  -5.233   2.857  1.00  0.00     0.092 A 
BRANCH  17  21
ATOM     21  C   UNL     1       1.216  -2.147   1.001  1.00  0.00     0.340 C 
ATOM     22  O   UNL     1       2.347  -2.291   0.547  1.00  0.00    -0.246 OA
BRANCH  21  23
ATOM     23  O   UNL     1       0.418  -1.066   0.781  1.00  0.00    -0.465 OA
ATOM     24  C   UNL     1       0.981  -0.018  -0.012  1.00  0.00     0.282 C 
ENDBRANCH  21  23
ENDBRANCH  17  21
ENDBRANCH  14  16
ENDBRANCH  11  14
ENDBRANCH   6  11
ENDBRANCH   3   5
ENDBRANCH   2   3
ENDBRANCH   1   2
BRANCH   1  25
ATOM     25  C   UNL     1       0.078  -7.665  10.057  1.00  0.00     0.275 C 
BRANCH  25  26
ATOM     26  O   UNL     1      -0.031  -6.267   9.733  1.00  0.00    -0.458 OA
BRANCH  26  27
ATOM     27  C   UNL     1       1.144  -5.644   9.489  1.00  0.00     0.338 C 
ATOM     28  O   UNL     1       2.258  -6.140   9.520  1.00  0.00    -0.246 OA
BRANCH  27  29
ATOM     29  C   UNL     1       0.908  -4.252   9.080  1.00  0.00     0.060 A 
ATOM     30  C   UNL     1       0.708  -3.991   7.729  1.00  0.00     0.016 A 
ATOM     31  C   UNL     1       1.059  -3.199   9.979  1.00  0.00     0.016 A 
ATOM     32  C   UNL     1       0.783  -2.694   7.241  1.00  0.00     0.010 A 
ATOM     33  C   UNL     1       1.017  -1.882   9.502  1.00  0.00     0.010 A 
ATOM     34  C   UNL     1       0.919  -1.618   8.122  1.00  0.00    -0.014 A 
BRANCH  34  35
ATOM     35  C   UNL     1       0.979  -0.232   7.586  1.00  0.00     0.031 A 
ATOM     36  C   UNL     1       2.192   0.625   7.837  1.00  0.00     0.074 A 
ATOM     37  C   UNL     1      -0.045   0.249   6.852  1.00  0.00     0.049 A 
ATOM     38  N   UNL     1       2.369   1.898   7.594  1.00  0.00    -0.248 NA
ATOM     39  C   UNL     1       3.355  -0.035   8.452  1.00  0.00     0.031 C 
ATOM     40  C   UNL     1      -1.254  -0.497   6.491  1.00  0.00     0.029 A 
ATOM     41  N   UNL     1      -0.235   1.479   6.273  1.00  0.00    -0.354 N 
ATOM     42  C   UNL     1       3.640   2.203   8.070  1.00  0.00     0.074 A 
ATOM     43  C   UNL     1       4.187   0.983   8.624  1.00  0.00     0.031 C 
ATOM     44  C   UNL     1      -2.044   0.279   5.736  1.00  0.00     0.029 A 
ATOM     45  C   UNL     1      -1.444   1.603   5.630  1.00  0.00     0.049 A 
ATOM     46  H   UNL     1       0.431   2.203   6.314  1.00  0.00     0.167 HD
ATOM     47  C   UNL     1       4.288   3.393   8.044  1.00  0.00     0.037 A 
ATOM     48  C   UNL     1      -2.030   2.672   5.060  1.00  0.00     0.037 A 
ATOM     49  C   UNL     1       3.750   4.588   7.444  1.00  0.00     0.049 A 
ATOM     50  C   UNL     1      -1.310   3.990   5.078  1.00  0.00     0.074 A 
ATOM     51  C   UNL     1       4.330   5.841   7.351  1.00  0.00     0.029 A 
ATOM     52  N   UNL     1       2.512   4.674   6.824  1.00  0.00    -0.354 N 
ATOM     53  N   UNL     1      -0.129   4.275   5.572  1.00  0.00    -0.248 NA
ATOM     54  C   UNL     1      -2.006   5.135   4.476  1.00  0.00     0.031 C 
ATOM     55  C   UNL     1       3.426   6.694   6.708  1.00  0.00     0.029 A 
ATOM     56  C   UNL     1       2.303   5.962   6.358  1.00  0.00     0.049 A 
ATOM     57  H   UNL     1       1.875   3.929   6.728  1.00  0.00     0.167 HD
ATOM     58  C   UNL     1       0.069   5.628   5.326  1.00  0.00     0.074 A 
ATOM     59  C   UNL     1      -1.109   6.101   4.625  1.00  0.00     0.031 C 
ATOM     60  C   UNL     1       1.127   6.410   5.654  1.00  0.00     0.037 A 
BRANCH  47  61
ATOM     61  C   UNL     1       5.634   3.474   8.714  1.00  0.00     0.058 A 
ATOM     62  C   UNL     1       6.779   2.877   8.165  1.00  0.00     0.135 A 
ATOM     63  C   UNL     1       5.783   4.190   9.914  1.00  0.00     0.135 A 
ATOM     64  F   UNL     1       6.693   2.169   7.028  1.00  0.00    -0.206 F 
ATOM     65  C   UNL     1       8.018   2.963   8.795  1.00  0.00     0.059 A 
ATOM     66  C   UNL     1       7.016   4.312  10.547  1.00  0.00     0.059 A 
ATOM     67  F   UNL     1       4.721   4.782  10.484  1.00  0.00    -0.206 F 
ATOM     68  C   UNL     1       8.126   3.681   9.988  1.00  0.00     0.060 A 
BRANCH  68  69
ATOM     69  S   UNL     1       9.738   3.787  10.795  1.00  0.00     0.124 S 
ATOM     70  O   UNL     1       9.876   2.443  11.349  1.00  0.00    -0.237 OA
ATOM     71  O   UNL     1      10.626   4.107   9.682  1.00  0.00    -0.237 OA
ATOM     72  O   UNL     1       9.559   4.854  11.775  1.00  0.00    -0.744 OA
ENDBRANCH  68  69
ENDBRANCH  47  61
BRANCH  48  73
ATOM     73  C   UNL     1      -3.385   2.542   4.463  1.00  0.00     0.058 A 
ATOM     74  C   UNL     1      -3.576   2.620   3.076  1.00  0.00     0.135 A 
ATOM     75  C   UNL     1      -4.514   2.308   5.266  1.00  0.00     0.135 A 
ATOM     76  F   UNL     1      -2.530   2.849   2.267  1.00  0.00    -0.206 F 
ATOM     77  C   UNL     1      -4.837   2.479   2.506  1.00  0.00     0.059 A 
ATOM     78  C   UNL     1      -5.780   2.134   4.718  1.00  0.00     0.059 A 
ATOM     79  F   UNL     1      -4.383   2.210   6.598  1.00  0.00    -0.206 F 
ATOM     80  C   UNL     1      -5.933   2.231   3.336  1.00  0.00     0.060 A 
BRANCH  80  81
ATOM     81  S   UNL     1      -7.555   1.987   2.581  1.00  0.00     0.124 S 
ATOM     82  O   UNL     1      -7.913   3.351   2.210  1.00  0.00    -0.237 OA
ATOM     83  O   UNL     1      -7.246   1.084   1.477  1.00  0.00    -0.237 OA
ATOM     84  O   UNL     1      -8.341   1.397   3.661  1.00  0.00    -0.744 OA
ENDBRANCH  80  81
ENDBRANCH  48  73
BRANCH  60  85
ATOM     85  C   UNL     1       1.077   7.847   5.221  1.00  0.00     0.058 A 
ATOM     86  C   UNL     1       0.252   8.782   5.864  1.00  0.00     0.135 A 
ATOM     87  C   UNL     1       1.899   8.302   4.177  1.00  0.00     0.135 A 
ATOM     88  F   UNL     1      -0.560   8.395   6.860  1.00  0.00    -0.206 F 
ATOM     89  C   UNL     1       0.226  10.116   5.471  1.00  0.00     0.059 A 
ATOM     90  C   UNL     1       1.909   9.636   3.786  1.00  0.00     0.059 A 
ATOM     91  F   UNL     1       2.712   7.447   3.535  1.00  0.00    -0.206 F 
ATOM     92  C   UNL     1       1.060  10.534   4.431  1.00  0.00     0.060 A 
BRANCH  92  93
ATOM     93  S   UNL     1       1.041  12.274   3.951  1.00  0.00     0.124 S 
ATOM     94  O   UNL     1      -0.219  12.362   3.219  1.00  0.00    -0.237 OA
ATOM     95  O   UNL     1       1.074  12.956   5.241  1.00  0.00    -0.237 OA
ATOM     96  O   UNL     1       2.248  12.416   3.143  1.00  0.00    -0.744 OA
ENDBRANCH  92  93
ENDBRANCH  60  85
ENDBRANCH  34  35
ENDBRANCH  27  29
ENDBRANCH  26  27
ENDBRANCH  25  26
ENDBRANCH   1  25
TORSDOF 19
