REMARK SMILES COc1ccccc1-c1ccc(C(=O)OCCOC(=O)c2ccc(-c3c4nc(c(-c5c(F)cc(S(=O)(=O)[O-])cc5F)c5ccc([nH]5)c(-c5c(F)cc(S(=O)(=O)[O-])cc5F)c5nc(c(-c6c(F)cc(S(=O)(=O)[O-])cc6F)c6ccc3[nH]6)C=C5)C=C4)cc2)c(O)c1
REMARK SMILES IDX 17 1 16 2 15 3 13 4 14 5 12 6 9 7 10 8 89 9 11 10 87 11 8 12
REMARK SMILES IDX 3 13 4 14 5 15 7 16 6 17 2 18 1 19 88 20 18 22 19 23 20 24
REMARK SMILES IDX 21 25 22 26 86 27 23 28 85 29 24 30 25 31 26 32 79 33 27 34
REMARK SMILES IDX 84 35 78 36 80 37 28 38 83 39 77 40 76 41 29 43 63 44 42 45
REMARK SMILES IDX 62 46 43 47 46 48 61 49 81 50 44 51 45 52 60 54 82 55 47 56
REMARK SMILES IDX 30 57 31 58 40 59 32 60 33 61 39 62 41 63 34 64 35 65 36 66
REMARK SMILES IDX 37 67 38 68 64 69 65 70 74 71 66 72 67 73 73 74 75 75 68 76
REMARK SMILES IDX 69 77 70 78 71 79 72 80 48 81 49 82 58 83 50 84 51 85 57 86
REMARK SMILES IDX 59 87 52 88 53 89 54 90 55 91 56 92
REMARK H PARENT 88 21 80 42 46 53
REMARK Flexibility Score: inf
ROOT
ATOM      1  C   UNL     1       8.220  -2.463  -1.949  1.00  0.00     0.275 C 
ENDROOT
BRANCH   1   2
ATOM      2  C   UNL     1       6.882  -2.185  -2.629  1.00  0.00     0.275 C 
BRANCH   2   3
ATOM      3  O   UNL     1       6.158  -1.169  -1.909  1.00  0.00    -0.458 OA
BRANCH   3   4
ATOM      4  C   UNL     1       5.155  -1.629  -1.124  1.00  0.00     0.342 C 
ATOM      5  O   UNL     1       4.832  -2.799  -0.974  1.00  0.00    -0.246 OA
BRANCH   4   6
ATOM      6  C   UNL     1       4.525  -0.549  -0.335  1.00  0.00     0.101 A 
ATOM      7  C   UNL     1       3.037   1.253   1.238  1.00  0.00    -0.011 A 
ATOM      8  C   UNL     1       3.494   0.047   1.780  1.00  0.00     0.010 A 
ATOM      9  C   UNL     1       3.394   1.579  -0.084  1.00  0.00     0.056 A 
ATOM     10  C   UNL     1       4.201  -0.854   0.993  1.00  0.00     0.020 A 
ATOM     11  C   UNL     1       4.133   0.681  -0.867  1.00  0.00     0.130 A 
BRANCH   7  12
ATOM     12  C   UNL     1       2.066   2.042   2.006  1.00  0.00     0.024 A 
ATOM     13  C   UNL     1       0.719   2.151   1.606  1.00  0.00     0.126 A 
ATOM     14  C   UNL     1      -0.219   2.816   2.400  1.00  0.00     0.047 A 
ATOM     15  C   UNL     1       0.163   3.350   3.629  1.00  0.00     0.004 A 
ATOM     16  C   UNL     1       2.432   2.607   3.241  1.00  0.00     0.012 A 
ATOM     17  C   UNL     1       1.488   3.249   4.047  1.00  0.00     0.001 A 
BRANCH  13  18
ATOM     18  O   UNL     1       0.259   1.646   0.413  1.00  0.00    -0.496 OA
ATOM     19  C   UNL     1       0.095   0.226   0.474  1.00  0.00     0.278 C 
ENDBRANCH  13  18
ENDBRANCH   7  12
BRANCH  11  20
ATOM     20  O   UNL     1       4.382   0.986  -2.176  1.00  0.00    -0.507 OA
ATOM     21  H   UNL     1       4.875   0.393  -2.709  1.00  0.00     0.293 HD
ENDBRANCH  11  20
ENDBRANCH   4   6
ENDBRANCH   3   4
ENDBRANCH   2   3
ENDBRANCH   1   2
BRANCH   1  22
ATOM     22  O   UNL     1       7.991  -2.951  -0.615  1.00  0.00    -0.458 OA
BRANCH  22  23
ATOM     23  C   UNL     1       8.774  -2.413   0.349  1.00  0.00     0.338 C 
ATOM     24  O   UNL     1       9.693  -1.626   0.191  1.00  0.00    -0.246 OA
BRANCH  23  25
ATOM     25  C   UNL     1       8.371  -2.919   1.679  1.00  0.00     0.060 A 
ATOM     26  C   UNL     1       7.025  -3.023   2.026  1.00  0.00     0.016 A 
ATOM     27  C   UNL     1       9.350  -3.189   2.633  1.00  0.00     0.016 A 
ATOM     28  C   UNL     1       6.657  -3.280   3.351  1.00  0.00     0.010 A 
ATOM     29  C   UNL     1       8.978  -3.557   3.932  1.00  0.00     0.010 A 
ATOM     30  C   UNL     1       7.627  -3.556   4.328  1.00  0.00    -0.014 A 
BRANCH  30  31
ATOM     31  C   UNL     1       7.254  -3.784   5.760  1.00  0.00     0.031 A 
ATOM     32  C   UNL     1       7.892  -2.954   6.853  1.00  0.00     0.074 A 
ATOM     33  C   UNL     1       6.352  -4.725   6.110  1.00  0.00     0.049 A 
ATOM     34  N   UNL     1       7.873  -3.133   8.151  1.00  0.00    -0.248 NA
ATOM     35  C   UNL     1       8.676  -1.783   6.428  1.00  0.00     0.031 C 
ATOM     36  C   UNL     1       5.628  -5.598   5.185  1.00  0.00     0.029 A 
ATOM     37  N   UNL     1       5.886  -5.102   7.348  1.00  0.00    -0.354 N 
ATOM     38  C   UNL     1       8.708  -2.157   8.686  1.00  0.00     0.074 A 
ATOM     39  C   UNL     1       9.208  -1.379   7.573  1.00  0.00     0.031 C 
ATOM     40  C   UNL     1       4.776  -6.369   5.879  1.00  0.00     0.029 A 
ATOM     41  C   UNL     1       4.951  -6.111   7.305  1.00  0.00     0.049 A 
ATOM     42  H   UNL     1       6.192  -4.688   8.187  1.00  0.00     0.167 HD
ATOM     43  C   UNL     1       9.034  -1.931   9.982  1.00  0.00     0.037 A 
ATOM     44  C   UNL     1       4.329  -6.784   8.293  1.00  0.00     0.037 A 
ATOM     45  C   UNL     1       8.467  -2.638  11.102  1.00  0.00     0.049 A 
ATOM     46  C   UNL     1       4.659  -6.478   9.726  1.00  0.00     0.074 A 
ATOM     47  C   UNL     1       8.716  -2.457  12.452  1.00  0.00     0.029 A 
ATOM     48  N   UNL     1       7.512  -3.638  11.005  1.00  0.00    -0.354 N 
ATOM     49  N   UNL     1       5.511  -5.606  10.207  1.00  0.00    -0.248 NA
ATOM     50  C   UNL     1       3.959  -7.266  10.752  1.00  0.00     0.031 C 
ATOM     51  C   UNL     1       7.920  -3.356  13.172  1.00  0.00     0.029 A 
ATOM     52  C   UNL     1       7.157  -4.079  12.270  1.00  0.00     0.049 A 
ATOM     53  H   UNL     1       7.140  -3.984  10.162  1.00  0.00     0.167 HD
ATOM     54  C   UNL     1       5.456  -5.744  11.589  1.00  0.00     0.074 A 
ATOM     55  C   UNL     1       4.465  -6.763  11.870  1.00  0.00     0.031 C 
ATOM     56  C   UNL     1       6.172  -5.094  12.538  1.00  0.00     0.037 A 
BRANCH  43  57
ATOM     57  C   UNL     1      10.081  -0.889  10.265  1.00  0.00     0.058 A 
ATOM     58  C   UNL     1       9.811   0.485  10.179  1.00  0.00     0.135 A 
ATOM     59  C   UNL     1      11.372  -1.280  10.658  1.00  0.00     0.135 A 
ATOM     60  F   UNL     1       8.599   0.912   9.792  1.00  0.00    -0.206 F 
ATOM     61  C   UNL     1      10.792   1.436  10.446  1.00  0.00     0.059 A 
ATOM     62  C   UNL     1      12.362  -0.347  10.952  1.00  0.00     0.059 A 
ATOM     63  F   UNL     1      11.683  -2.582  10.759  1.00  0.00    -0.206 F 
ATOM     64  C   UNL     1      12.066   1.010  10.827  1.00  0.00     0.060 A 
BRANCH  64  65
ATOM     65  S   UNL     1      13.334   2.249  11.171  1.00  0.00     0.124 S 
ATOM     66  O   UNL     1      13.747   2.622   9.821  1.00  0.00    -0.237 OA
ATOM     67  O   UNL     1      12.591   3.267  11.908  1.00  0.00    -0.237 OA
ATOM     68  O   UNL     1      14.323   1.514  11.951  1.00  0.00    -0.744 OA
ENDBRANCH  64  65
ENDBRANCH  43  57
BRANCH  44  69
ATOM     69  C   UNL     1       3.344  -7.843   7.952  1.00  0.00     0.058 A 
ATOM     70  C   UNL     1       1.970  -7.636   8.140  1.00  0.00     0.135 A 
ATOM     71  C   UNL     1       3.754  -9.066   7.398  1.00  0.00     0.135 A 
ATOM     72  F   UNL     1       1.532  -6.488   8.679  1.00  0.00    -0.206 F 
ATOM     73  C   UNL     1       1.034  -8.603   7.787  1.00  0.00     0.059 A 
ATOM     74  C   UNL     1       2.836 -10.038   7.016  1.00  0.00     0.059 A 
ATOM     75  F   UNL     1       5.058  -9.306   7.191  1.00  0.00    -0.206 F 
ATOM     76  C   UNL     1       1.477  -9.799   7.218  1.00  0.00     0.060 A 
BRANCH  76  77
ATOM     77  S   UNL     1       0.257 -11.015   6.677  1.00  0.00     0.124 S 
ATOM     78  O   UNL     1      -0.062 -11.688   7.930  1.00  0.00    -0.237 OA
ATOM     79  O   UNL     1      -0.797 -10.174   6.118  1.00  0.00    -0.237 OA
ATOM     80  O   UNL     1       0.995 -11.811   5.700  1.00  0.00    -0.744 OA
ENDBRANCH  76  77
ENDBRANCH  44  69
BRANCH  56  81
ATOM     81  C   UNL     1       5.899  -5.458  13.969  1.00  0.00     0.058 A 
ATOM     82  C   UNL     1       6.396  -6.645  14.528  1.00  0.00     0.135 A 
ATOM     83  C   UNL     1       5.148  -4.605  14.792  1.00  0.00     0.135 A 
ATOM     84  F   UNL     1       7.114  -7.496  13.779  1.00  0.00    -0.206 F 
ATOM     85  C   UNL     1       6.134  -6.989  15.851  1.00  0.00     0.059 A 
ATOM     86  C   UNL     1       4.889  -4.921  16.122  1.00  0.00     0.059 A 
ATOM     87  F   UNL     1       4.658  -3.454  14.306  1.00  0.00    -0.206 F 
ATOM     88  C   UNL     1       5.373  -6.123  16.638  1.00  0.00     0.060 A 
BRANCH  88  89
ATOM     89  S   UNL     1       5.040  -6.571  18.356  1.00  0.00     0.124 S 
ATOM     90  O   UNL     1       3.946  -7.524  18.202  1.00  0.00    -0.237 OA
ATOM     91  O   UNL     1       6.314  -7.135  18.791  1.00  0.00    -0.237 OA
ATOM     92  O   UNL     1       4.683  -5.297  18.973  1.00  0.00    -0.744 OA
ENDBRANCH  88  89
ENDBRANCH  56  81
ENDBRANCH  30  31
ENDBRANCH  23  25
ENDBRANCH  22  23
ENDBRANCH   1  22
TORSDOF 17
