REMARK SMILES Cc1nc(C[NH2+][C@@H](C(=O)OCCOC(=O)c2ccc(-c3c4nc(c(-c5c(F)cc(S(=O)(=O)[O-])cc5F)c5ccc([nH]5)c(-c5c(F)cc(S(=O)(=O)[O-])cc5F)c5nc(c(-c6c(F)cc(S(=O)(=O)[O-])cc6F)c6ccc3[nH]6)C=C5)C=C4)cc2)c2ccccc2)sc1C
REMARK SMILES IDX 11 1 10 2 8 3 9 4 7 5 6 6 5 9 4 10 1 11 2 12 3 13 89 14
REMARK SMILES IDX 88 15 90 16 82 17 83 18 87 19 84 20 86 21 85 22 12 23 13 24
REMARK SMILES IDX 14 25 15 26 16 27 17 28 81 29 18 30 80 31 19 32 20 33 21 34
REMARK SMILES IDX 74 35 22 36 79 37 73 38 75 39 23 40 78 41 72 42 71 43 24 45
REMARK SMILES IDX 58 46 37 47 57 48 38 49 41 50 56 51 76 52 39 53 40 54 55 56
REMARK SMILES IDX 77 57 42 58 25 59 26 60 35 61 27 62 28 63 34 64 36 65 29 66
REMARK SMILES IDX 30 67 31 68 32 69 33 70 59 71 60 72 69 73 61 74 62 75 68 76
REMARK SMILES IDX 70 77 63 78 64 79 65 80 66 81 67 82 43 83 44 84 53 85 45 86
REMARK SMILES IDX 46 87 52 88 54 89 47 90 48 91 49 92 50 93 51 94
REMARK H PARENT 6 7 6 8 75 44 41 55
REMARK Flexibility Score: inf
ROOT
ATOM      1  C   UNL     1      -5.807   3.066   0.531  1.00  0.00     0.274 C 
ENDROOT
BRANCH   1   2
ATOM      2  O   UNL     1      -4.374   3.176   0.640  1.00  0.00    -0.457 OA
BRANCH   2   3
ATOM      3  C   UNL     1      -3.850   4.437   0.718  1.00  0.00     0.369 C 
ATOM      4  O   UNL     1      -4.530   5.457   0.663  1.00  0.00    -0.245 OA
BRANCH   3   5
ATOM      5  C   UNL     1      -2.299   4.432   0.826  1.00  0.00     0.325 C 
BRANCH   5   6
ATOM      6  N   UNL     1      -1.735   3.066   0.894  1.00  0.00    -0.325 N 
ATOM      7  H   UNL     1      -0.825   3.115   1.353  1.00  0.00     0.347 HD
ATOM      8  H   UNL     1      -2.399   2.492   1.412  1.00  0.00     0.347 HD
BRANCH   6   9
ATOM      9  C   UNL     1      -1.559   2.444  -0.418  1.00  0.00     0.330 C 
BRANCH   9  10
ATOM     10  C   UNL     1      -0.633   1.260  -0.325  1.00  0.00     0.148 A 
ATOM     11  C   UNL     1       2.735   0.030  -0.131  1.00  0.00     0.068 C 
ATOM     12  C   UNL     1       1.252   0.101  -0.189  1.00  0.00     0.052 A 
ATOM     13  N   UNL     1       0.680   1.343  -0.389  1.00  0.00    -0.240 NA
ATOM     14  C   UNL     1       0.347  -0.939  -0.052  1.00  0.00     0.025 A 
ATOM     15  S   UNL     1      -1.254  -0.327  -0.120  1.00  0.00    -0.118 S 
ATOM     16  C   UNL     1       0.604  -2.389   0.152  1.00  0.00     0.058 C 
ENDBRANCH   9  10
ENDBRANCH   6   9
ENDBRANCH   5   6
BRANCH   5  17
ATOM     17  C   UNL     1      -1.794   5.306   1.977  1.00  0.00     0.021 A 
ATOM     18  C   UNL     1      -1.161   4.774   3.116  1.00  0.00     0.010 A 
ATOM     19  C   UNL     1      -1.945   6.704   1.905  1.00  0.00     0.010 A 
ATOM     20  C   UNL     1      -0.698   5.606   4.139  1.00  0.00     0.001 A 
ATOM     21  C   UNL     1      -1.487   7.534   2.933  1.00  0.00     0.001 A 
ATOM     22  C   UNL     1      -0.861   6.985   4.048  1.00  0.00     0.000 A 
ENDBRANCH   5  17
ENDBRANCH   3   5
ENDBRANCH   2   3
ENDBRANCH   1   2
BRANCH   1  23
ATOM     23  C   UNL     1      -6.355   2.225   1.681  1.00  0.00     0.275 C 
BRANCH  23  24
ATOM     24  O   UNL     1      -6.205   2.944   2.917  1.00  0.00    -0.458 OA
BRANCH  24  25
ATOM     25  C   UNL     1      -5.127   2.592   3.655  1.00  0.00     0.338 C 
ATOM     26  O   UNL     1      -4.336   1.693   3.431  1.00  0.00    -0.246 OA
BRANCH  25  27
ATOM     27  C   UNL     1      -4.969   3.548   4.759  1.00  0.00     0.060 A 
ATOM     28  C   UNL     1      -4.399   4.784   4.477  1.00  0.00     0.016 A 
ATOM     29  C   UNL     1      -5.221   3.169   6.077  1.00  0.00     0.016 A 
ATOM     30  C   UNL     1      -3.965   5.595   5.522  1.00  0.00     0.010 A 
ATOM     31  C   UNL     1      -4.856   4.029   7.123  1.00  0.00     0.010 A 
ATOM     32  C   UNL     1      -4.161   5.224   6.861  1.00  0.00    -0.014 A 
BRANCH  32  33
ATOM     33  C   UNL     1      -3.522   6.021   7.954  1.00  0.00     0.031 A 
ATOM     34  C   UNL     1      -2.540   5.363   8.897  1.00  0.00     0.074 A 
ATOM     35  C   UNL     1      -3.726   7.350   8.062  1.00  0.00     0.049 A 
ATOM     36  N   UNL     1      -1.987   5.843   9.983  1.00  0.00    -0.248 NA
ATOM     37  C   UNL     1      -2.140   3.981   8.588  1.00  0.00     0.031 C 
ATOM     38  C   UNL     1      -4.589   8.153   7.194  1.00  0.00     0.029 A 
ATOM     39  N   UNL     1      -3.177   8.271   8.921  1.00  0.00    -0.354 N 
ATOM     40  C   UNL     1      -1.255   4.796  10.534  1.00  0.00     0.074 A 
ATOM     41  C   UNL     1      -1.412   3.662   9.649  1.00  0.00     0.031 C 
ATOM     42  C   UNL     1      -4.431   9.452   7.497  1.00  0.00     0.029 A 
ATOM     43  C   UNL     1      -3.523   9.570   8.633  1.00  0.00     0.049 A 
ATOM     44  H   UNL     1      -2.591   8.024   9.673  1.00  0.00     0.167 HD
ATOM     45  C   UNL     1      -0.527   4.776  11.678  1.00  0.00     0.037 A 
ATOM     46  C   UNL     1      -3.156  10.727   9.217  1.00  0.00     0.037 A 
ATOM     47  C   UNL     1      -0.280   5.926  12.507  1.00  0.00     0.049 A 
ATOM     48  C   UNL     1      -2.277  10.701  10.434  1.00  0.00     0.074 A 
ATOM     49  C   UNL     1       0.399   5.998  13.712  1.00  0.00     0.029 A 
ATOM     50  N   UNL     1      -0.657   7.221  12.186  1.00  0.00    -0.354 N 
ATOM     51  N   UNL     1      -1.735   9.671  11.037  1.00  0.00    -0.248 NA
ATOM     52  C   UNL     1      -1.988  11.995  11.070  1.00  0.00     0.031 C 
ATOM     53  C   UNL     1       0.440   7.340  14.115  1.00  0.00     0.029 A 
ATOM     54  C   UNL     1      -0.200   8.102  13.152  1.00  0.00     0.049 A 
ATOM     55  H   UNL     1      -1.173   7.476  11.388  1.00  0.00     0.167 HD
ATOM     56  C   UNL     1      -1.055  10.190  12.133  1.00  0.00     0.074 A 
ATOM     57  C   UNL     1      -1.222  11.628  12.090  1.00  0.00     0.031 C 
ATOM     58  C   UNL     1      -0.372   9.530  13.100  1.00  0.00     0.037 A 
BRANCH  45  59
ATOM     59  C   UNL     1       0.011   3.446  12.122  1.00  0.00     0.058 A 
ATOM     60  C   UNL     1       1.143   2.863  11.532  1.00  0.00     0.135 A 
ATOM     61  C   UNL     1      -0.630   2.741  13.153  1.00  0.00     0.135 A 
ATOM     62  F   UNL     1       1.778   3.487  10.528  1.00  0.00    -0.206 F 
ATOM     63  C   UNL     1       1.601   1.609  11.927  1.00  0.00     0.059 A 
ATOM     64  C   UNL     1      -0.178   1.496  13.578  1.00  0.00     0.059 A 
ATOM     65  F   UNL     1      -1.716   3.256  13.750  1.00  0.00    -0.206 F 
ATOM     66  C   UNL     1       0.927   0.928  12.943  1.00  0.00     0.060 A 
BRANCH  66  67
ATOM     67  S   UNL     1       1.502  -0.710  13.440  1.00  0.00     0.124 S 
ATOM     68  O   UNL     1       0.843  -1.558  12.452  1.00  0.00    -0.237 OA
ATOM     69  O   UNL     1       2.951  -0.596  13.310  1.00  0.00    -0.237 OA
ATOM     70  O   UNL     1       1.008  -0.837  14.808  1.00  0.00    -0.744 OA
ENDBRANCH  66  67
ENDBRANCH  45  59
BRANCH  46  71
ATOM     71  C   UNL     1      -3.618  12.019   8.650  1.00  0.00     0.058 A 
ATOM     72  C   UNL     1      -2.728  12.842   7.942  1.00  0.00     0.135 A 
ATOM     73  C   UNL     1      -4.948  12.445   8.777  1.00  0.00     0.135 A 
ATOM     74  F   UNL     1      -1.444  12.479   7.807  1.00  0.00    -0.206 F 
ATOM     75  C   UNL     1      -3.141  14.043   7.377  1.00  0.00     0.059 A 
ATOM     76  C   UNL     1      -5.389  13.632   8.203  1.00  0.00     0.059 A 
ATOM     77  F   UNL     1      -5.836  11.686   9.437  1.00  0.00    -0.206 F 
ATOM     78  C   UNL     1      -4.476  14.428   7.510  1.00  0.00     0.060 A 
BRANCH  78  79
ATOM     79  S   UNL     1      -5.040  15.945   6.708  1.00  0.00     0.124 S 
ATOM     80  O   UNL     1      -4.729  16.945   7.721  1.00  0.00    -0.237 OA
ATOM     81  O   UNL     1      -4.224  15.987   5.498  1.00  0.00    -0.237 OA
ATOM     82  O   UNL     1      -6.460  15.687   6.484  1.00  0.00    -0.744 OA
ENDBRANCH  78  79
ENDBRANCH  46  71
BRANCH  58  83
ATOM     83  C   UNL     1       0.242  10.362  14.185  1.00  0.00     0.058 A 
ATOM     84  C   UNL     1      -0.535  10.868  15.239  1.00  0.00     0.135 A 
ATOM     85  C   UNL     1       1.614  10.653  14.178  1.00  0.00     0.135 A 
ATOM     86  F   UNL     1      -1.853  10.619  15.286  1.00  0.00    -0.206 F 
ATOM     87  C   UNL     1       0.024  11.660  16.236  1.00  0.00     0.059 A 
ATOM     88  C   UNL     1       2.196  11.433  15.172  1.00  0.00     0.059 A 
ATOM     89  F   UNL     1       2.398  10.188  13.193  1.00  0.00    -0.206 F 
ATOM     90  C   UNL     1       1.389  11.945  16.189  1.00  0.00     0.060 A 
BRANCH  90  91
ATOM     91  S   UNL     1       2.113  12.973  17.485  1.00  0.00     0.124 S 
ATOM     92  O   UNL     1       1.794  14.314  17.007  1.00  0.00    -0.237 OA
ATOM     93  O   UNL     1       1.394  12.539  18.679  1.00  0.00    -0.237 OA
ATOM     94  O   UNL     1       3.527  12.612  17.449  1.00  0.00    -0.744 OA
ENDBRANCH  90  91
ENDBRANCH  58  83
ENDBRANCH  32  33
ENDBRANCH  25  27
ENDBRANCH  24  25
ENDBRANCH  23  24
ENDBRANCH   1  23
TORSDOF 18
