REMARK SMILES Cc1c(CC(=O)OCCOC(=O)c2ccc(-c3c4nc(c(-c5c(F)cc(S(=O)(=O)[O-])cc5F)c5ccc([nH]5)c(-c5c(F)cc(S(=O)(=O)[O-])cc5F)c5nc(c(-c6c(F)cc(S(=O)(=O)[O-])cc6F)c6ccc3[nH]6)C=C5)C=C4)cc2)cc(-c2ccccc2)cc1-c1ccccc1
REMARK SMILES IDX 9 1 8 2 7 3 5 4 6 5 4 6 3 7 1 8 2 9 88 10 79 11 87 12 80 13
REMARK SMILES IDX 89 14 90 15 94 16 91 17 93 18 92 19 81 20 82 21 86 22 83 23
REMARK SMILES IDX 85 24 84 25 10 26 11 27 12 28 13 29 14 30 78 31 15 32 77 33
REMARK SMILES IDX 16 34 17 35 18 36 71 37 19 38 76 39 70 40 72 41 20 42 75 43
REMARK SMILES IDX 69 44 68 45 21 47 55 48 34 49 54 50 35 51 38 52 53 53 73 54
REMARK SMILES IDX 36 55 37 56 52 58 74 59 39 60 22 61 23 62 32 63 24 64 25 65
REMARK SMILES IDX 31 66 33 67 26 68 27 69 28 70 29 71 30 72 56 73 57 74 66 75
REMARK SMILES IDX 58 76 59 77 65 78 67 79 60 80 61 81 62 82 63 83 64 84 40 85
REMARK SMILES IDX 41 86 50 87 42 88 43 89 49 90 51 91 44 92 45 93 46 94 47 95
REMARK SMILES IDX 48 96
REMARK H PARENT 72 46 38 57
REMARK Flexibility Score: inf
ROOT
ATOM      1  C   UNL     1      -1.756  -3.671   4.264  1.00  0.00     0.275 C 
ENDROOT
BRANCH   1   2
ATOM      2  C   UNL     1      -0.387  -4.344   4.379  1.00  0.00     0.274 C 
BRANCH   2   3
ATOM      3  O   UNL     1       0.549  -3.589   3.592  1.00  0.00    -0.462 OA
BRANCH   3   4
ATOM      4  C   UNL     1       0.529  -3.824   2.159  1.00  0.00     0.310 C 
ATOM      5  O   UNL     1       0.211  -5.052   2.047  1.00  0.00    -0.252 OA
BRANCH   4   6
ATOM      6  C   UNL     1       0.927  -2.326   0.649  1.00  0.00     0.158 C 
BRANCH   6   7
ATOM      7  C   UNL     1       0.244  -0.794   0.223  1.00  0.00    -0.033 A 
ATOM      8  C   UNL     1       2.515   0.386   0.350  1.00  0.00     0.045 C 
ATOM      9  C   UNL     1       1.011   0.409   0.203  1.00  0.00    -0.039 A 
ATOM     10  C   UNL     1       0.339   1.643  -0.013  1.00  0.00    -0.015 A 
ATOM     11  C   UNL     1      -1.079  -0.730  -0.255  1.00  0.00     0.013 A 
ATOM     12  C   UNL     1      -1.060   1.653  -0.184  1.00  0.00     0.017 A 
ATOM     13  C   UNL     1      -1.781   0.472  -0.304  1.00  0.00    -0.017 A 
BRANCH  10  14
ATOM     14  C   UNL     1       1.030   2.940  -0.055  1.00  0.00    -0.018 A 
ATOM     15  C   UNL     1       0.904   3.850   1.004  1.00  0.00     0.009 A 
ATOM     16  C   UNL     1       1.808   3.303  -1.166  1.00  0.00     0.009 A 
ATOM     17  C   UNL     1       1.554   5.084   0.961  1.00  0.00     0.001 A 
ATOM     18  C   UNL     1       2.469   4.530  -1.203  1.00  0.00     0.001 A 
ATOM     19  C   UNL     1       2.341   5.420  -0.139  1.00  0.00     0.000 A 
ENDBRANCH  10  14
BRANCH  13  20
ATOM     20  C   UNL     1      -3.244   0.439  -0.346  1.00  0.00    -0.018 A 
ATOM     21  C   UNL     1      -3.944  -0.094   0.751  1.00  0.00     0.009 A 
ATOM     22  C   UNL     1      -3.974   0.845  -1.463  1.00  0.00     0.009 A 
ATOM     23  C   UNL     1      -5.322  -0.292   0.709  1.00  0.00     0.001 A 
ATOM     24  C   UNL     1      -5.363   0.679  -1.495  1.00  0.00     0.001 A 
ATOM     25  C   UNL     1      -6.033   0.095  -0.419  1.00  0.00     0.000 A 
ENDBRANCH  13  20
ENDBRANCH   6   7
ENDBRANCH   4   6
ENDBRANCH   3   4
ENDBRANCH   2   3
ENDBRANCH   1   2
BRANCH   1  26
ATOM     26  O   UNL     1      -2.471  -3.903   3.025  1.00  0.00    -0.458 OA
BRANCH  26  27
ATOM     27  C   UNL     1      -2.398  -3.155   1.892  1.00  0.00     0.338 C 
ATOM     28  O   UNL     1      -3.369  -2.922   1.191  1.00  0.00    -0.246 OA
BRANCH  27  29
ATOM     29  C   UNL     1      -1.040  -2.795   1.417  1.00  0.00     0.060 A 
ATOM     30  C   UNL     1      -0.320  -3.969   0.250  1.00  0.00     0.016 A 
ATOM     31  C   UNL     1       0.026  -1.801   2.477  1.00  0.00     0.016 A 
ATOM     32  C   UNL     1       1.463  -4.338   0.333  1.00  0.00     0.010 A 
ATOM     33  C   UNL     1       1.796  -2.155   2.540  1.00  0.00     0.010 A 
ATOM     34  C   UNL     1       2.481  -3.503   1.549  1.00  0.00    -0.014 A 
BRANCH  34  35
ATOM     35  C   UNL     1       3.589  -4.167   2.231  1.00  0.00     0.031 A 
ATOM     36  C   UNL     1       4.869  -3.462   2.370  1.00  0.00     0.074 A 
ATOM     37  C   UNL     1       3.317  -5.271   2.972  1.00  0.00     0.049 A 
ATOM     38  N   UNL     1       5.929  -4.016   2.838  1.00  0.00    -0.248 NA
ATOM     39  C   UNL     1       5.094  -2.082   1.948  1.00  0.00     0.031 C 
ATOM     40  C   UNL     1       4.089  -5.835   4.076  1.00  0.00     0.029 A 
ATOM     41  N   UNL     1       2.303  -6.208   2.827  1.00  0.00    -0.354 N 
ATOM     42  C   UNL     1       6.820  -3.014   3.125  1.00  0.00     0.074 A 
ATOM     43  C   UNL     1       6.338  -1.872   2.394  1.00  0.00     0.031 C 
ATOM     44  C   UNL     1       3.707  -7.111   4.269  1.00  0.00     0.029 A 
ATOM     45  C   UNL     1       2.783  -7.457   3.203  1.00  0.00     0.049 A 
ATOM     46  H   UNL     1       1.390  -6.019   2.510  1.00  0.00     0.167 HD
ATOM     47  C   UNL     1       7.767  -3.256   4.073  1.00  0.00     0.037 A 
ATOM     48  C   UNL     1       2.950  -8.447   2.274  1.00  0.00     0.037 A 
ATOM     49  C   UNL     1       7.829  -4.694   4.376  1.00  0.00     0.049 A 
ATOM     50  C   UNL     1       4.432  -8.690   1.987  1.00  0.00     0.074 A 
ATOM     51  C   UNL     1       7.456  -5.512   5.426  1.00  0.00     0.029 A 
ATOM     52  N   UNL     1       8.072  -5.549   3.314  1.00  0.00    -0.354 N 
ATOM     53  N   UNL     1       5.407  -8.125   2.653  1.00  0.00    -0.248 NA
ATOM     54  C   UNL     1       4.943  -9.529   0.904  1.00  0.00     0.031 C 
ATOM     55  C   UNL     1       7.359  -6.856   4.919  1.00  0.00     0.029 A 
ATOM     56  C   UNL     1       7.730  -6.858   3.583  1.00  0.00     0.049 A 
ATOM     57  H   UNL     1       8.451  -5.253   2.455  1.00  0.00     0.167 HD
ATOM     58  C   UNL     1       6.611  -8.398   2.069  1.00  0.00     0.074 A 
ATOM     59  C   UNL     1       6.269  -9.307   0.985  1.00  0.00     0.031 C 
ATOM     60  C   UNL     1       7.787  -7.828   2.483  1.00  0.00     0.037 A 
BRANCH  47  61
ATOM     61  C   UNL     1       8.549  -2.190   4.808  1.00  0.00     0.058 A 
ATOM     62  C   UNL     1       9.612  -2.559   5.658  1.00  0.00     0.135 A 
ATOM     63  C   UNL     1       8.248  -0.807   4.808  1.00  0.00     0.135 A 
ATOM     64  F   UNL     1       9.985  -3.841   5.779  1.00  0.00    -0.206 F 
ATOM     65  C   UNL     1      10.316  -1.636   6.439  1.00  0.00     0.059 A 
ATOM     66  C   UNL     1       8.972   0.139   5.536  1.00  0.00     0.059 A 
ATOM     67  F   UNL     1       7.193  -0.302   4.158  1.00  0.00    -0.206 F 
ATOM     68  C   UNL     1       9.994  -0.286   6.367  1.00  0.00     0.060 A 
BRANCH  68  69
ATOM     69  S   UNL     1      10.891   0.897   7.388  1.00  0.00     0.124 S 
ATOM     70  O   UNL     1      10.457   0.524   8.730  1.00  0.00    -0.237 OA
ATOM     71  O   UNL     1      12.280   0.599   7.059  1.00  0.00    -0.237 OA
ATOM     72  O   UNL     1      10.406   2.192   6.914  1.00  0.00    -0.744 OA
ENDBRANCH  68  69
ENDBRANCH  47  61
BRANCH  48  73
ATOM     73  C   UNL     1       1.791  -8.558   1.327  1.00  0.00     0.058 A 
ATOM     74  C   UNL     1       0.542  -8.929   1.877  1.00  0.00     0.135 A 
ATOM     75  C   UNL     1       1.761  -7.959   0.060  1.00  0.00     0.135 A 
ATOM     76  F   UNL     1       0.496  -9.543   3.071  1.00  0.00    -0.206 F 
ATOM     77  C   UNL     1      -0.671  -8.586   1.282  1.00  0.00     0.059 A 
ATOM     78  C   UNL     1       0.550  -7.623  -0.569  1.00  0.00     0.059 A 
ATOM     79  F   UNL     1       2.901  -7.558  -0.523  1.00  0.00    -0.206 F 
ATOM     80  C   UNL     1      -0.658  -7.893   0.076  1.00  0.00     0.060 A 
BRANCH  80  81
ATOM     81  S   UNL     1      -2.229  -7.229  -0.544  1.00  0.00     0.124 S 
ATOM     82  O   UNL     1      -2.966  -8.445  -0.869  1.00  0.00    -0.237 OA
ATOM     83  O   UNL     1      -2.718  -6.479   0.607  1.00  0.00    -0.237 OA
ATOM     84  O   UNL     1      -1.821  -6.418  -1.688  1.00  0.00    -0.744 OA
ENDBRANCH  80  81
ENDBRANCH  48  73
BRANCH  60  85
ATOM     85  C   UNL     1       9.115  -8.135   1.830  1.00  0.00     0.058 A 
ATOM     86  C   UNL     1       9.518  -9.450   1.549  1.00  0.00     0.135 A 
ATOM     87  C   UNL     1      10.079  -7.132   1.570  1.00  0.00     0.135 A 
ATOM     88  F   UNL     1       8.710 -10.488   1.818  1.00  0.00    -0.206 F 
ATOM     89  C   UNL     1      10.765  -9.744   0.994  1.00  0.00     0.059 A 
ATOM     90  C   UNL     1      11.354  -7.409   1.091  1.00  0.00     0.059 A 
ATOM     91  F   UNL     1       9.809  -5.829   1.727  1.00  0.00    -0.206 F 
ATOM     92  C   UNL     1      11.678  -8.716   0.772  1.00  0.00     0.060 A 
BRANCH  92  93
ATOM     93  S   UNL     1      13.291  -9.089   0.065  1.00  0.00     0.124 S 
ATOM     94  O   UNL     1      13.658 -10.324   0.751  1.00  0.00    -0.237 OA
ATOM     95  O   UNL     1      12.960  -9.225  -1.350  1.00  0.00    -0.237 OA
ATOM     96  O   UNL     1      14.095  -7.922   0.414  1.00  0.00    -0.744 OA
ENDBRANCH  92  93
ENDBRANCH  60  85
ENDBRANCH  34  35
ENDBRANCH  27  29
ENDBRANCH  26  27
ENDBRANCH   1  26
TORSDOF 17
