REMARK SMILES CC[C@@H]1SC[C@H](C(=O)OCCOC(=O)c2ccc(-c3c4nc(c(-c5c(F)cc(S(=O)(=O)[O-])cc5F)c5ccc([nH]5)c(-c5c(F)cc(S(=O)(=O)[O-])cc5F)c5nc(c(-c6c(F)cc(S(=O)(=O)[O-])cc6F)c6ccc3[nH]6)C=C5)C=C4)cc2)N1C(=O)[C@](C)([NH3+])C(F)(F)F
REMARK SMILES IDX 10 1 9 2 7 3 8 4 6 5 3 6 4 7 81 8 5 9 2 10 1 11 82 12 83 13
REMARK SMILES IDX 84 14 85 15 86 16 87 20 88 21 89 22 90 23 11 24 12 25 13 26
REMARK SMILES IDX 14 27 15 28 16 29 80 30 17 31 79 32 18 33 19 34 20 35 73 36
REMARK SMILES IDX 21 37 78 38 72 39 74 40 22 41 77 42 71 43 70 44 23 46 57 47
REMARK SMILES IDX 36 48 56 49 37 50 40 51 55 52 75 53 38 54 39 55 54 57 76 58
REMARK SMILES IDX 41 59 24 60 25 61 34 62 26 63 27 64 33 65 35 66 28 67 29 68
REMARK SMILES IDX 30 69 31 70 32 71 58 72 59 73 68 74 60 75 61 76 67 77 69 78
REMARK SMILES IDX 62 79 63 80 64 81 65 82 66 83 42 84 43 85 52 86 44 87 45 88
REMARK SMILES IDX 51 89 53 90 46 91 47 92 48 93 49 94 50 95
REMARK H PARENT 86 17 86 18 86 19 74 45 40 56
REMARK Flexibility Score: inf
ROOT
ATOM      1  C   UNL     1      -3.329  -3.693   4.958  1.00  0.00     0.274 C 
ENDROOT
BRANCH   1   2
ATOM      2  O   UNL     1      -2.647  -2.939   3.929  1.00  0.00    -0.461 OA
BRANCH   2   3
ATOM      3  C   UNL     1      -2.520  -1.585   4.112  1.00  0.00     0.329 C 
ATOM      4  O   UNL     1      -2.956  -0.967   5.065  1.00  0.00    -0.250 OA
BRANCH   3   5
ATOM      5  C   UNL     1      -1.804  -0.976   2.897  1.00  0.00     0.206 C 
ATOM      6  C   UNL     1      -0.989   0.786   1.539  1.00  0.00     0.144 C 
ATOM      7  S   UNL     1      -2.426   0.218   0.581  1.00  0.00    -0.134 SA
ATOM      8  N   UNL     1      -1.322   0.442   2.927  1.00  0.00    -0.310 N 
ATOM      9  C   UNL     1      -2.763  -1.145   1.711  1.00  0.00     0.109 C 
BRANCH   6  10
ATOM     10  C   UNL     1      -0.634   2.229   1.181  1.00  0.00     0.033 C 
ATOM     11  C   UNL     1       0.863   2.502   1.340  1.00  0.00     0.007 C 
ENDBRANCH   6  10
BRANCH   8  12
ATOM     12  C   UNL     1      -0.313   0.714   3.843  1.00  0.00     0.294 C 
ATOM     13  O   UNL     1       0.671  -0.038   3.852  1.00  0.00    -0.267 OA
BRANCH  12  14
ATOM     14  C   UNL     1      -0.390   1.937   4.827  1.00  0.00     0.267 C 
ATOM     15  C   UNL     1      -0.957   3.247   4.285  1.00  0.00     0.100 C 
BRANCH  14  16
ATOM     16  N   UNL     1       1.038   2.310   5.156  1.00  0.00    -0.337 N 
ATOM     17  H   UNL     1       1.042   3.104   5.796  1.00  0.00     0.345 HD
ATOM     18  H   UNL     1       1.530   2.561   4.299  1.00  0.00     0.345 HD
ATOM     19  H   UNL     1       1.503   1.516   5.596  1.00  0.00     0.345 HD
ENDBRANCH  14  16
BRANCH  14  20
ATOM     20  C   UNL     1      -1.296   1.525   6.012  1.00  0.00     0.453 C 
ATOM     21  F   UNL     1      -1.180   2.410   7.034  1.00  0.00    -0.164 F 
ATOM     22  F   UNL     1      -2.601   1.514   5.662  1.00  0.00    -0.164 F 
ATOM     23  F   UNL     1      -0.980   0.316   6.515  1.00  0.00    -0.164 F 
ENDBRANCH  14  20
ENDBRANCH  12  14
ENDBRANCH   8  12
ENDBRANCH   3   5
ENDBRANCH   2   3
ENDBRANCH   1   2
BRANCH   1  24
ATOM     24  C   UNL     1      -2.344  -4.644   5.635  1.00  0.00     0.275 C 
BRANCH  24  25
ATOM     25  O   UNL     1      -1.373  -3.847   6.326  1.00  0.00    -0.458 OA
BRANCH  25  26
ATOM     26  C   UNL     1      -0.124  -4.358   6.431  1.00  0.00     0.338 C 
ATOM     27  O   UNL     1       0.243  -5.484   6.131  1.00  0.00    -0.246 OA
BRANCH  26  28
ATOM     28  C   UNL     1       0.752  -3.282   6.931  1.00  0.00     0.060 A 
ATOM     29  C   UNL     1       0.737  -2.068   6.256  1.00  0.00     0.016 A 
ATOM     30  C   UNL     1       1.612  -3.456   8.018  1.00  0.00     0.016 A 
ATOM     31  C   UNL     1       1.566  -1.033   6.670  1.00  0.00     0.010 A 
ATOM     32  C   UNL     1       2.419  -2.385   8.455  1.00  0.00     0.010 A 
ATOM     33  C   UNL     1       2.397  -1.154   7.783  1.00  0.00    -0.014 A 
BRANCH  33  34
ATOM     34  C   UNL     1       3.302  -0.008   8.088  1.00  0.00     0.031 A 
ATOM     35  C   UNL     1       4.757  -0.106   7.726  1.00  0.00     0.074 A 
ATOM     36  C   UNL     1       2.818   1.187   8.491  1.00  0.00     0.049 A 
ATOM     37  N   UNL     1       5.721   0.751   7.938  1.00  0.00    -0.248 NA
ATOM     38  C   UNL     1       5.174  -1.323   7.014  1.00  0.00     0.031 C 
ATOM     39  C   UNL     1       1.407   1.491   8.727  1.00  0.00     0.029 A 
ATOM     40  N   UNL     1       3.453   2.389   8.705  1.00  0.00    -0.354 N 
ATOM     41  C   UNL     1       6.875   0.145   7.459  1.00  0.00     0.074 A 
ATOM     42  C   UNL     1       6.479  -1.129   6.895  1.00  0.00     0.031 C 
ATOM     43  C   UNL     1       1.277   2.809   8.965  1.00  0.00     0.029 A 
ATOM     44  C   UNL     1       2.599   3.431   8.994  1.00  0.00     0.049 A 
ATOM     45  H   UNL     1       4.430   2.496   8.655  1.00  0.00     0.167 HD
ATOM     46  C   UNL     1       8.151   0.592   7.521  1.00  0.00     0.037 A 
ATOM     47  C   UNL     1       2.853   4.728   9.274  1.00  0.00     0.037 A 
ATOM     48  C   UNL     1       8.546   1.873   8.045  1.00  0.00     0.049 A 
ATOM     49  C   UNL     1       4.287   5.190   9.392  1.00  0.00     0.074 A 
ATOM     50  C   UNL     1       9.823   2.373   8.230  1.00  0.00     0.029 A 
ATOM     51  N   UNL     1       7.668   2.866   8.452  1.00  0.00    -0.354 N 
ATOM     52  N   UNL     1       5.391   4.546   9.100  1.00  0.00    -0.248 NA
ATOM     53  C   UNL     1       4.507   6.539   9.939  1.00  0.00     0.031 C 
ATOM     54  C   UNL     1       9.719   3.653   8.786  1.00  0.00     0.029 A 
ATOM     55  C   UNL     1       8.375   3.968   8.905  1.00  0.00     0.049 A 
ATOM     56  H   UNL     1       6.686   2.798   8.423  1.00  0.00     0.167 HD
ATOM     57  C   UNL     1       6.434   5.403   9.444  1.00  0.00     0.074 A 
ATOM     58  C   UNL     1       5.830   6.629   9.922  1.00  0.00     0.031 C 
ATOM     59  C   UNL     1       7.772   5.182   9.394  1.00  0.00     0.037 A 
BRANCH  46  60
ATOM     60  C   UNL     1       9.222  -0.382   7.129  1.00  0.00     0.058 A 
ATOM     61  C   UNL     1       9.514  -0.693   5.794  1.00  0.00     0.135 A 
ATOM     62  C   UNL     1       9.951  -1.038   8.135  1.00  0.00     0.135 A 
ATOM     63  F   UNL     1       8.825  -0.115   4.798  1.00  0.00    -0.206 F 
ATOM     64  C   UNL     1      10.471  -1.650   5.470  1.00  0.00     0.059 A 
ATOM     65  C   UNL     1      10.927  -1.979   7.834  1.00  0.00     0.059 A 
ATOM     66  F   UNL     1       9.702  -0.777   9.428  1.00  0.00    -0.206 F 
ATOM     67  C   UNL     1      11.165  -2.294   6.498  1.00  0.00     0.060 A 
BRANCH  67  68
ATOM     68  S   UNL     1      12.376  -3.562   6.072  1.00  0.00     0.124 S 
ATOM     69  O   UNL     1      11.510  -4.680   5.711  1.00  0.00    -0.237 OA
ATOM     70  O   UNL     1      13.105  -2.943   4.969  1.00  0.00    -0.237 OA
ATOM     71  O   UNL     1      13.139  -3.731   7.305  1.00  0.00    -0.744 OA
ENDBRANCH  67  68
ENDBRANCH  46  60
BRANCH  47  72
ATOM     72  C   UNL     1       1.744   5.693   9.535  1.00  0.00     0.058 A 
ATOM     73  C   UNL     1       1.546   6.808   8.704  1.00  0.00     0.135 A 
ATOM     74  C   UNL     1       0.898   5.558  10.647  1.00  0.00     0.135 A 
ATOM     75  F   UNL     1       2.345   7.004   7.644  1.00  0.00    -0.206 F 
ATOM     76  C   UNL     1       0.559   7.755   8.969  1.00  0.00     0.059 A 
ATOM     77  C   UNL     1      -0.116   6.473  10.914  1.00  0.00     0.059 A 
ATOM     78  F   UNL     1       1.049   4.521  11.486  1.00  0.00    -0.206 F 
ATOM     79  C   UNL     1      -0.269   7.577  10.078  1.00  0.00     0.060 A 
BRANCH  79  80
ATOM     80  S   UNL     1      -1.574   8.784  10.402  1.00  0.00     0.124 S 
ATOM     81  O   UNL     1      -0.823   9.867  11.025  1.00  0.00    -0.237 OA
ATOM     82  O   UNL     1      -2.091   9.053   9.064  1.00  0.00    -0.237 OA
ATOM     83  O   UNL     1      -2.485   8.058  11.283  1.00  0.00    -0.744 OA
ENDBRANCH  79  80
ENDBRANCH  47  72
BRANCH  59  84
ATOM     84  C   UNL     1       8.680   6.277   9.887  1.00  0.00     0.058 A 
ATOM     85  C   UNL     1       8.801   6.564  11.257  1.00  0.00     0.135 A 
ATOM     86  C   UNL     1       9.472   7.015   8.993  1.00  0.00     0.135 A 
ATOM     87  F   UNL     1       8.065   5.892  12.155  1.00  0.00    -0.206 F 
ATOM     88  C   UNL     1       9.658   7.559  11.720  1.00  0.00     0.059 A 
ATOM     89  C   UNL     1      10.353   7.998   9.437  1.00  0.00     0.059 A 
ATOM     90  F   UNL     1       9.405   6.775   7.674  1.00  0.00    -0.206 F 
ATOM     91  C   UNL     1      10.430   8.272  10.802  1.00  0.00     0.060 A 
BRANCH  91  92
ATOM     92  S   UNL     1      11.559   9.541  11.417  1.00  0.00     0.124 S 
ATOM     93  O   UNL     1      10.637  10.624  11.740  1.00  0.00    -0.237 OA
ATOM     94  O   UNL     1      12.184   8.880  12.559  1.00  0.00    -0.237 OA
ATOM     95  O   UNL     1      12.444   9.786  10.283  1.00  0.00    -0.744 OA
ENDBRANCH  91  92
ENDBRANCH  59  84
ENDBRANCH  33  34
ENDBRANCH  26  28
ENDBRANCH  25  26
ENDBRANCH  24  25
ENDBRANCH   1  24
TORSDOF 19
