REMARK SMILES C[C@@H](NS(=O)(=O)c1ccc2c(c1)CCC2)C(=O)OCCOC(=O)c1ccc(-c2c3nc(c(-c4c(F)cc(S(=O)(=O)[O-])cc4F)c4ccc([nH]4)c(-c4c(F)cc(S(=O)(=O)[O-])cc4F)c4nc(c(-c5c(F)cc(S(=O)(=O)[O-])cc5F)c5ccc2[nH]5)C=C4)C=C3)cc1
REMARK SMILES IDX 19 1 18 2 16 3 17 4 2 5 1 6 3 7 4 9 5 10 6 11 7 12 8 13
REMARK SMILES IDX 12 14 9 15 11 16 10 17 13 18 15 19 14 20 20 21 21 22 22 23
REMARK SMILES IDX 23 24 24 25 25 26 89 27 26 28 88 29 27 30 28 31 29 32 82 33
REMARK SMILES IDX 30 34 87 35 81 36 83 37 31 38 86 39 80 40 79 41 32 43 66 44
REMARK SMILES IDX 45 45 65 46 46 47 49 48 64 49 84 50 47 51 48 52 63 54 85 55
REMARK SMILES IDX 50 56 33 57 34 58 43 59 35 60 36 61 42 62 44 63 37 64 38 65
REMARK SMILES IDX 39 66 40 67 41 68 67 69 68 70 77 71 69 72 70 73 76 74 78 75
REMARK SMILES IDX 71 76 72 77 73 78 74 79 75 80 51 81 52 82 61 83 53 84 54 85
REMARK SMILES IDX 60 86 62 87 55 88 56 89 57 90 58 91 59 92
REMARK H PARENT 3 8 83 42 49 53
REMARK Flexibility Score: inf
ROOT
ATOM      1  C   UNL     1      -3.069   0.699   0.094  1.00  0.00     0.274 C 
ENDROOT
BRANCH   1   2
ATOM      2  O   UNL     1      -1.643   0.912   0.055  1.00  0.00    -0.461 OA
BRANCH   2   3
ATOM      3  C   UNL     1      -0.987   0.485   1.165  1.00  0.00     0.324 C 
ATOM      4  O   UNL     1      -1.523  -0.151   2.061  1.00  0.00    -0.250 OA
BRANCH   3   5
ATOM      5  C   UNL     1       0.458   0.925   1.270  1.00  0.00     0.176 C 
ATOM      6  C   UNL     1       1.159   0.924  -0.082  1.00  0.00     0.038 C 
BRANCH   5   7
ATOM      7  N   UNL     1       0.570   2.243   1.946  1.00  0.00    -0.197 NA
ATOM      8  H   UNL     1      -0.094   2.875   1.499  1.00  0.00     0.142 HD
BRANCH   7   9
ATOM      9  S   UNL     1       0.270   2.289   3.629  1.00  0.00     0.241 S 
ATOM     10  O   UNL     1       0.773   1.059   4.189  1.00  0.00    -0.207 OA
ATOM     11  O   UNL     1       0.778   3.578   4.058  1.00  0.00    -0.207 OA
BRANCH   9  12
ATOM     12  C   UNL     1      -1.501   2.347   3.780  1.00  0.00     0.082 A 
ATOM     13  C   UNL     1      -2.193   3.503   3.381  1.00  0.00     0.022 A 
ATOM     14  C   UNL     1      -2.191   1.210   4.217  1.00  0.00     0.025 A 
ATOM     15  C   UNL     1      -3.592   3.501   3.330  1.00  0.00     0.005 A 
ATOM     16  C   UNL     1      -3.564   1.183   4.040  1.00  0.00    -0.043 A 
ATOM     17  C   UNL     1      -4.259   2.320   3.615  1.00  0.00    -0.045 A 
ATOM     18  C   UNL     1      -4.474  -0.005   4.138  1.00  0.00     0.036 C 
ATOM     19  C   UNL     1      -5.722   2.019   3.502  1.00  0.00     0.036 C 
ATOM     20  C   UNL     1      -5.689   0.492   3.335  1.00  0.00     0.010 C 
ENDBRANCH   9  12
ENDBRANCH   7   9
ENDBRANCH   5   7
ENDBRANCH   3   5
ENDBRANCH   2   3
ENDBRANCH   1   2
BRANCH   1  21
ATOM     21  C   UNL     1      -3.541  -0.720  -0.280  1.00  0.00     0.275 C 
BRANCH  21  22
ATOM     22  O   UNL     1      -3.180  -1.746   0.671  1.00  0.00    -0.458 OA
BRANCH  22  23
ATOM     23  C   UNL     1      -1.977  -2.334   0.440  1.00  0.00     0.338 C 
ATOM     24  O   UNL     1      -1.254  -2.120  -0.523  1.00  0.00    -0.246 OA
BRANCH  23  25
ATOM     25  C   UNL     1      -1.507  -3.122   1.605  1.00  0.00     0.060 A 
ATOM     26  C   UNL     1      -0.237  -2.809   2.106  1.00  0.00     0.016 A 
ATOM     27  C   UNL     1      -2.218  -4.191   2.149  1.00  0.00     0.016 A 
ATOM     28  C   UNL     1       0.335  -3.552   3.131  1.00  0.00     0.010 A 
ATOM     29  C   UNL     1      -1.628  -4.963   3.167  1.00  0.00     0.010 A 
ATOM     30  C   UNL     1      -0.339  -4.661   3.648  1.00  0.00    -0.014 A 
BRANCH  30  31
ATOM     31  C   UNL     1       0.397  -5.545   4.591  1.00  0.00     0.031 A 
ATOM     32  C   UNL     1       0.942  -6.860   4.100  1.00  0.00     0.074 A 
ATOM     33  C   UNL     1       0.686  -5.121   5.837  1.00  0.00     0.049 A 
ATOM     34  N   UNL     1       1.631  -7.767   4.745  1.00  0.00    -0.248 NA
ATOM     35  C   UNL     1       0.681  -7.197   2.691  1.00  0.00     0.031 C 
ATOM     36  C   UNL     1       0.276  -3.837   6.407  1.00  0.00     0.029 A 
ATOM     37  N   UNL     1       1.406  -5.718   6.843  1.00  0.00    -0.354 N 
ATOM     38  C   UNL     1       1.885  -8.779   3.825  1.00  0.00     0.074 A 
ATOM     39  C   UNL     1       1.243  -8.393   2.587  1.00  0.00     0.031 C 
ATOM     40  C   UNL     1       0.748  -3.744   7.661  1.00  0.00     0.029 A 
ATOM     41  C   UNL     1       1.461  -4.974   7.998  1.00  0.00     0.049 A 
ATOM     42  H   UNL     1       1.842  -6.595   6.746  1.00  0.00     0.167 HD
ATOM     43  C   UNL     1       2.599  -9.918   3.994  1.00  0.00     0.037 A 
ATOM     44  C   UNL     1       2.001  -5.261   9.200  1.00  0.00     0.037 A 
ATOM     45  C   UNL     1       3.241 -10.295   5.229  1.00  0.00     0.049 A 
ATOM     46  C   UNL     1       2.729  -6.568   9.382  1.00  0.00     0.074 A 
ATOM     47  C   UNL     1       3.972 -11.437   5.506  1.00  0.00     0.029 A 
ATOM     48  N   UNL     1       3.232  -9.539   6.393  1.00  0.00    -0.354 N 
ATOM     49  N   UNL     1       2.944  -7.524   8.509  1.00  0.00    -0.248 NA
ATOM     50  C   UNL     1       3.296  -6.832  10.712  1.00  0.00     0.031 C 
ATOM     51  C   UNL     1       4.362 -11.395   6.849  1.00  0.00     0.029 A 
ATOM     52  C   UNL     1       3.927 -10.198   7.394  1.00  0.00     0.049 A 
ATOM     53  H   UNL     1       2.796  -8.662   6.492  1.00  0.00     0.167 HD
ATOM     54  C   UNL     1       3.685  -8.493   9.179  1.00  0.00     0.074 A 
ATOM     55  C   UNL     1       3.908  -7.992  10.519  1.00  0.00     0.031 C 
ATOM     56  C   UNL     1       4.135  -9.692   8.729  1.00  0.00     0.037 A 
BRANCH  43  57
ATOM     57  C   UNL     1       2.708 -10.855   2.820  1.00  0.00     0.058 A 
ATOM     58  C   UNL     1       3.482 -10.541   1.690  1.00  0.00     0.135 A 
ATOM     59  C   UNL     1       2.066 -12.104   2.843  1.00  0.00     0.135 A 
ATOM     60  F   UNL     1       4.102  -9.354   1.603  1.00  0.00    -0.206 F 
ATOM     61  C   UNL     1       3.600 -11.423   0.620  1.00  0.00     0.059 A 
ATOM     62  C   UNL     1       2.193 -13.014   1.796  1.00  0.00     0.059 A 
ATOM     63  F   UNL     1       1.310 -12.456   3.895  1.00  0.00    -0.206 F 
ATOM     64  C   UNL     1       2.954 -12.659   0.684  1.00  0.00     0.060 A 
BRANCH  64  65
ATOM     65  S   UNL     1       3.134 -13.798  -0.706  1.00  0.00     0.124 S 
ATOM     66  O   UNL     1       2.354 -13.124  -1.739  1.00  0.00    -0.237 OA
ATOM     67  O   UNL     1       4.578 -13.813  -0.911  1.00  0.00    -0.237 OA
ATOM     68  O   UNL     1       2.562 -15.043  -0.203  1.00  0.00    -0.744 OA
ENDBRANCH  64  65
ENDBRANCH  43  57
BRANCH  44  69
ATOM     69  C   UNL     1       1.838  -4.313  10.338  1.00  0.00     0.058 A 
ATOM     70  C   UNL     1       2.934  -3.651  10.912  1.00  0.00     0.135 A 
ATOM     71  C   UNL     1       0.570  -4.069  10.890  1.00  0.00     0.135 A 
ATOM     72  F   UNL     1       4.170  -3.860  10.432  1.00  0.00    -0.206 F 
ATOM     73  C   UNL     1       2.783  -2.803  12.006  1.00  0.00     0.059 A 
ATOM     74  C   UNL     1       0.389  -3.199  11.961  1.00  0.00     0.059 A 
ATOM     75  F   UNL     1      -0.515  -4.670  10.377  1.00  0.00    -0.206 F 
ATOM     76  C   UNL     1       1.505  -2.583  12.523  1.00  0.00     0.060 A 
BRANCH  76  77
ATOM     77  S   UNL     1       1.314  -1.463  13.926  1.00  0.00     0.124 S 
ATOM     78  O   UNL     1       1.873  -2.256  15.014  1.00  0.00    -0.237 OA
ATOM     79  O   UNL     1       2.103  -0.308  13.508  1.00  0.00    -0.237 OA
ATOM     80  O   UNL     1      -0.128  -1.240  13.985  1.00  0.00    -0.744 OA
ENDBRANCH  76  77
ENDBRANCH  44  69
BRANCH  56  81
ATOM     81  C   UNL     1       4.936 -10.530   9.692  1.00  0.00     0.058 A 
ATOM     82  C   UNL     1       4.349 -11.127  10.820  1.00  0.00     0.135 A 
ATOM     83  C   UNL     1       6.309 -10.740   9.484  1.00  0.00     0.135 A 
ATOM     84  F   UNL     1       3.040 -10.959  11.069  1.00  0.00    -0.206 F 
ATOM     85  C   UNL     1       5.103 -11.856  11.734  1.00  0.00     0.059 A 
ATOM     86  C   UNL     1       7.076 -11.497  10.366  1.00  0.00     0.059 A 
ATOM     87  F   UNL     1       6.922 -10.209   8.414  1.00  0.00    -0.206 F 
ATOM     88  C   UNL     1       6.468 -12.031  11.501  1.00  0.00     0.060 A 
BRANCH  88  89
ATOM     89  S   UNL     1       7.439 -12.966  12.701  1.00  0.00     0.124 S 
ATOM     90  O   UNL     1       7.521 -12.023  13.812  1.00  0.00    -0.237 OA
ATOM     91  O   UNL     1       6.605 -14.143  12.929  1.00  0.00    -0.237 OA
ATOM     92  O   UNL     1       8.694 -13.221  12.001  1.00  0.00    -0.744 OA
ENDBRANCH  88  89
ENDBRANCH  56  81
ENDBRANCH  30  31
ENDBRANCH  23  25
ENDBRANCH  22  23
ENDBRANCH  21  22
ENDBRANCH   1  21
TORSDOF 17
