REMARK SMILES CN(Cc1ncc(C(=O)OCCOC(=O)c2ccc(-c3c4nc(c(-c5c(F)cc(S(=O)(=O)[O-])cc5F)c5ccc([nH]5)c(-c5c(F)cc(S(=O)(=O)[O-])cc5F)c5nc(c(-c6c(F)cc(S(=O)(=O)[O-])cc6F)c6ccc3[nH]6)C=C5)C=C4)cc2)cn1)S(=O)(=O)c1ccc(Cl)cc1
REMARK SMILES IDX 11 1 10 2 8 3 9 4 7 5 4 6 5 7 83 8 6 9 82 10 3 11 2 12 1 13
REMARK SMILES IDX 84 14 85 15 86 16 87 17 88 18 93 19 89 20 92 21 90 22 91 23
REMARK SMILES IDX 12 24 13 25 14 26 15 27 16 28 17 29 81 30 18 31 80 32 19 33
REMARK SMILES IDX 20 34 21 35 74 36 22 37 79 38 73 39 75 40 23 41 78 42 72 43
REMARK SMILES IDX 71 44 24 46 58 47 37 48 57 49 38 50 41 51 56 52 76 53 39 54
REMARK SMILES IDX 40 55 55 57 77 58 42 59 25 60 26 61 35 62 27 63 28 64 34 65
REMARK SMILES IDX 36 66 29 67 30 68 31 69 32 70 33 71 59 72 60 73 69 74 61 75
REMARK SMILES IDX 62 76 68 77 70 78 63 79 64 80 65 81 66 82 67 83 43 84 44 85
REMARK SMILES IDX 53 86 45 87 46 88 52 89 54 90 47 91 48 92 49 93 50 94 51 95
REMARK H PARENT 75 45 41 56
REMARK Flexibility Score: inf
ROOT
ATOM      1  C   UNL     1      -2.334  -6.552  -2.976  1.00  0.00     0.275 C 
ENDROOT
BRANCH   1   2
ATOM      2  O   UNL     1      -2.053  -5.612  -1.922  1.00  0.00    -0.458 OA
BRANCH   2   3
ATOM      3  C   UNL     1      -1.490  -4.451  -2.334  1.00  0.00     0.341 C 
ATOM      4  O   UNL     1      -1.140  -4.179  -3.467  1.00  0.00    -0.246 OA
BRANCH   3   5
ATOM      5  C   UNL     1      -1.425  -3.472  -1.245  1.00  0.00     0.096 A 
ATOM      6  C   UNL     1      -1.220  -1.548   0.646  1.00  0.00     0.143 A 
ATOM      7  N   UNL     1      -1.533  -2.797   1.058  1.00  0.00    -0.239 NA
ATOM      8  N   UNL     1      -1.078  -1.177  -0.642  1.00  0.00    -0.239 NA
ATOM      9  C   UNL     1      -1.636  -3.737   0.088  1.00  0.00     0.130 A 
ATOM     10  C   UNL     1      -1.155  -2.158  -1.556  1.00  0.00     0.130 A 
BRANCH   6  11
ATOM     11  C   UNL     1      -0.775  -0.536   1.680  1.00  0.00     0.179 C 
BRANCH  11  12
ATOM     12  N   UNL     1       0.711  -0.296   1.764  1.00  0.00    -0.193 NA
ATOM     13  C   UNL     1       1.229   0.390   0.549  1.00  0.00     0.125 C 
BRANCH  12  14
ATOM     14  S   UNL     1       1.674  -1.640   2.196  1.00  0.00     0.243 S 
ATOM     15  O   UNL     1       1.473  -2.698   1.230  1.00  0.00    -0.207 OA
ATOM     16  O   UNL     1       3.009  -1.153   2.476  1.00  0.00    -0.207 OA
BRANCH  14  17
ATOM     17  C   UNL     1       1.000  -2.160   3.753  1.00  0.00     0.082 A 
ATOM     18  C   UNL     1       0.767  -1.203   4.747  1.00  0.00     0.023 A 
ATOM     19  C   UNL     1       0.705  -3.509   3.972  1.00  0.00     0.023 A 
ATOM     20  C   UNL     1       0.224  -1.600   5.969  1.00  0.00     0.022 A 
ATOM     21  C   UNL     1       0.178  -3.902   5.203  1.00  0.00     0.022 A 
ATOM     22  C   UNL     1      -0.062  -2.948   6.194  1.00  0.00     0.041 A 
ATOM     23  Cl  UNL     1      -0.712  -3.437   7.710  1.00  0.00    -0.084 Cl
ENDBRANCH  14  17
ENDBRANCH  12  14
ENDBRANCH  11  12
ENDBRANCH   6  11
ENDBRANCH   3   5
ENDBRANCH   2   3
ENDBRANCH   1   2
BRANCH   1  24
ATOM     24  C   UNL     1      -3.822  -6.532  -3.328  1.00  0.00     0.275 C 
BRANCH  24  25
ATOM     25  O   UNL     1      -4.210  -5.246  -3.848  1.00  0.00    -0.458 OA
BRANCH  25  26
ATOM     26  C   UNL     1      -4.969  -4.483  -3.026  1.00  0.00     0.338 C 
ATOM     27  O   UNL     1      -5.367  -4.768  -1.909  1.00  0.00    -0.246 OA
BRANCH  26  28
ATOM     28  C   UNL     1      -5.205  -3.171  -3.650  1.00  0.00     0.060 A 
ATOM     29  C   UNL     1      -4.206  -2.206  -3.562  1.00  0.00     0.016 A 
ATOM     30  C   UNL     1      -6.436  -2.853  -4.219  1.00  0.00     0.016 A 
ATOM     31  C   UNL     1      -4.438  -0.906  -4.003  1.00  0.00     0.010 A 
ATOM     32  C   UNL     1      -6.644  -1.565  -4.732  1.00  0.00     0.010 A 
ATOM     33  C   UNL     1      -5.651  -0.573  -4.619  1.00  0.00    -0.014 A 
BRANCH  33  34
ATOM     34  C   UNL     1      -5.869   0.806  -5.142  1.00  0.00     0.031 A 
ATOM     35  C   UNL     1      -6.980   1.663  -4.598  1.00  0.00     0.074 A 
ATOM     36  C   UNL     1      -5.061   1.297  -6.104  1.00  0.00     0.049 A 
ATOM     37  N   UNL     1      -7.424   2.815  -5.034  1.00  0.00    -0.248 NA
ATOM     38  C   UNL     1      -7.689   1.158  -3.412  1.00  0.00     0.031 C 
ATOM     39  C   UNL     1      -3.918   0.594  -6.691  1.00  0.00     0.029 A 
ATOM     40  N   UNL     1      -5.074   2.505  -6.759  1.00  0.00    -0.354 N 
ATOM     41  C   UNL     1      -8.492   3.150  -4.210  1.00  0.00     0.074 A 
ATOM     42  C   UNL     1      -8.630   2.078  -3.245  1.00  0.00     0.031 C 
ATOM     43  C   UNL     1      -3.325   1.390  -7.594  1.00  0.00     0.029 A 
ATOM     44  C   UNL     1      -4.093   2.624  -7.716  1.00  0.00     0.049 A 
ATOM     45  H   UNL     1      -5.723   3.218  -6.562  1.00  0.00     0.167 HD
ATOM     46  C   UNL     1      -9.285   4.248  -4.256  1.00  0.00     0.037 A 
ATOM     47  C   UNL     1      -3.861   3.589  -8.627  1.00  0.00     0.037 A 
ATOM     48  C   UNL     1      -9.115   5.332  -5.190  1.00  0.00     0.049 A 
ATOM     49  C   UNL     1      -4.787   4.770  -8.697  1.00  0.00     0.074 A 
ATOM     50  C   UNL     1      -9.848   6.502  -5.294  1.00  0.00     0.029 A 
ATOM     51  N   UNL     1      -8.141   5.384  -6.177  1.00  0.00    -0.354 N 
ATOM     52  N   UNL     1      -5.817   5.052  -7.937  1.00  0.00    -0.248 NA
ATOM     53  C   UNL     1      -4.538   5.747  -9.766  1.00  0.00     0.031 C 
ATOM     54  C   UNL     1      -9.344   7.243  -6.369  1.00  0.00     0.029 A 
ATOM     55  C   UNL     1      -8.272   6.552  -6.911  1.00  0.00     0.049 A 
ATOM     56  H   UNL     1      -7.458   4.693  -6.333  1.00  0.00     0.167 HD
ATOM     57  C   UNL     1      -6.346   6.235  -8.440  1.00  0.00     0.074 A 
ATOM     58  C   UNL     1      -5.504   6.630  -9.551  1.00  0.00     0.031 C 
ATOM     59  C   UNL     1      -7.437   6.924  -8.025  1.00  0.00     0.037 A 
BRANCH  46  60
ATOM     60  C   UNL     1     -10.436   4.320  -3.292  1.00  0.00     0.058 A 
ATOM     61  C   UNL     1     -10.251   4.595  -1.929  1.00  0.00     0.135 A 
ATOM     62  C   UNL     1     -11.753   4.148  -3.752  1.00  0.00     0.135 A 
ATOM     63  F   UNL     1      -9.013   4.754  -1.434  1.00  0.00    -0.206 F 
ATOM     64  C   UNL     1     -11.327   4.673  -1.050  1.00  0.00     0.059 A 
ATOM     65  C   UNL     1     -12.846   4.243  -2.896  1.00  0.00     0.059 A 
ATOM     66  F   UNL     1     -11.987   3.883  -5.047  1.00  0.00    -0.206 F 
ATOM     67  C   UNL     1     -12.621   4.492  -1.543  1.00  0.00     0.060 A 
BRANCH  67  68
ATOM     68  S   UNL     1     -14.009   4.592  -0.391  1.00  0.00     0.124 S 
ATOM     69  O   UNL     1     -13.893   3.319   0.314  1.00  0.00    -0.237 OA
ATOM     70  O   UNL     1     -13.684   5.781   0.390  1.00  0.00    -0.237 OA
ATOM     71  O   UNL     1     -15.169   4.720  -1.267  1.00  0.00    -0.744 OA
ENDBRANCH  67  68
ENDBRANCH  46  60
BRANCH  47  72
ATOM     72  C   UNL     1      -2.737   3.440  -9.590  1.00  0.00     0.058 A 
ATOM     73  C   UNL     1      -1.601   4.257  -9.509  1.00  0.00     0.135 A 
ATOM     74  C   UNL     1      -2.767   2.456 -10.592  1.00  0.00     0.135 A 
ATOM     75  F   UNL     1      -1.533   5.221  -8.579  1.00  0.00    -0.206 F 
ATOM     76  C   UNL     1      -0.531   4.103 -10.385  1.00  0.00     0.059 A 
ATOM     77  C   UNL     1      -1.699   2.266 -11.462  1.00  0.00     0.059 A 
ATOM     78  F   UNL     1      -3.829   1.644 -10.706  1.00  0.00    -0.206 F 
ATOM     79  C   UNL     1      -0.587   3.099 -11.354  1.00  0.00     0.060 A 
BRANCH  79  80
ATOM     80  S   UNL     1       0.836   2.853 -12.439  1.00  0.00     0.124 S 
ATOM     81  O   UNL     1       0.678   3.953 -13.383  1.00  0.00    -0.237 OA
ATOM     82  O   UNL     1       1.956   2.964 -11.509  1.00  0.00    -0.237 OA
ATOM     83  O   UNL     1       0.615   1.516 -12.982  1.00  0.00    -0.744 OA
ENDBRANCH  79  80
ENDBRANCH  47  72
BRANCH  59  84
ATOM     84  C   UNL     1      -7.787   8.173  -8.782  1.00  0.00     0.058 A 
ATOM     85  C   UNL     1      -8.393   8.112 -10.046  1.00  0.00     0.135 A 
ATOM     86  C   UNL     1      -7.559   9.440  -8.222  1.00  0.00     0.135 A 
ATOM     87  F   UNL     1      -8.622   6.924 -10.628  1.00  0.00    -0.206 F 
ATOM     88  C   UNL     1      -8.748   9.265 -10.737  1.00  0.00     0.059 A 
ATOM     89  C   UNL     1      -7.925  10.606  -8.886  1.00  0.00     0.059 A 
ATOM     90  F   UNL     1      -6.987   9.551  -7.012  1.00  0.00    -0.206 F 
ATOM     91  C   UNL     1      -8.512  10.509 -10.148  1.00  0.00     0.060 A 
BRANCH  91  92
ATOM     92  S   UNL     1      -9.013  11.998 -11.037  1.00  0.00     0.124 S 
ATOM     93  O   UNL     1      -7.976  12.092 -12.060  1.00  0.00    -0.237 OA
ATOM     94  O   UNL     1     -10.345  11.644 -11.516  1.00  0.00    -0.237 OA
ATOM     95  O   UNL     1      -8.978  13.034 -10.010  1.00  0.00    -0.744 OA
ENDBRANCH  91  92
ENDBRANCH  59  84
ENDBRANCH  33  34
ENDBRANCH  26  28
ENDBRANCH  25  26
ENDBRANCH  24  25
ENDBRANCH   1  24
TORSDOF 18
