REMARK SMILES Cc1ccc(S(=O)(=O)N(CC(=O)OCCOC(=O)c2ccc(-c3c4nc(c(-c5c(F)cc(S(=O)(=O)[O-])cc5F)c5ccc([nH]5)c(-c5c(F)cc(S(=O)(=O)[O-])cc5F)c5nc(c(-c6c(F)cc(S(=O)(=O)[O-])cc6F)c6ccc3[nH]6)C=C5)C=C4)cc2)c2cc(Cl)cc(Cl)c2)cc1
REMARK SMILES IDX 14 1 13 2 11 3 12 4 10 5 9 6 6 7 7 8 8 9 5 10 1 11 2 12 3 13
REMARK SMILES IDX 94 14 4 15 93 16 85 17 86 18 92 19 87 20 90 21 88 22 89 23
REMARK SMILES IDX 91 24 15 25 16 26 17 27 18 28 19 29 20 30 84 31 21 32 83 33
REMARK SMILES IDX 22 34 23 35 24 36 77 37 25 38 82 39 76 40 78 41 26 42 81 43
REMARK SMILES IDX 75 44 74 45 27 47 61 48 40 49 60 50 41 51 44 52 59 53 79 54
REMARK SMILES IDX 42 55 43 56 58 58 80 59 45 60 28 61 29 62 38 63 30 64 31 65
REMARK SMILES IDX 37 66 39 67 32 68 33 69 34 70 35 71 36 72 62 73 63 74 72 75
REMARK SMILES IDX 64 76 65 77 71 78 73 79 66 80 67 81 68 82 69 83 70 84 46 85
REMARK SMILES IDX 47 86 56 87 48 88 49 89 55 90 57 91 50 92 51 93 52 94 53 95
REMARK SMILES IDX 54 96
REMARK H PARENT 78 46 44 57
REMARK Flexibility Score: inf
ROOT
ATOM      1  C   UNL     1      -4.649   3.305  -4.766  1.00  0.00     0.274 C 
ENDROOT
BRANCH   1   2
ATOM      2  O   UNL     1      -4.016   2.609  -3.675  1.00  0.00    -0.461 OA
BRANCH   2   3
ATOM      3  C   UNL     1      -4.606   1.485  -3.199  1.00  0.00     0.326 C 
ATOM      4  O   UNL     1      -5.513   0.932  -3.802  1.00  0.00    -0.250 OA
BRANCH   3   5
ATOM      5  C   UNL     1      -3.880   0.986  -1.964  1.00  0.00     0.258 C 
BRANCH   5   6
ATOM      6  N   UNL     1      -4.473   0.539  -0.663  1.00  0.00    -0.255 N 
BRANCH   6   7
ATOM      7  S   UNL     1      -3.799  -0.900  -0.018  1.00  0.00     0.264 S 
ATOM      8  O   UNL     1      -3.991  -1.926  -1.027  1.00  0.00    -0.201 OA
ATOM      9  O   UNL     1      -4.243  -1.116   1.342  1.00  0.00    -0.201 OA
BRANCH   7  10
ATOM     10  C   UNL     1      -2.029  -0.620   0.095  1.00  0.00     0.088 A 
ATOM     11  C   UNL     1       2.258  -0.134   0.266  1.00  0.00     0.044 C 
ATOM     12  C   UNL     1       0.762  -0.290   0.213  1.00  0.00    -0.051 A 
ATOM     13  C   UNL     1       0.208  -1.539  -0.090  1.00  0.00     0.005 A 
ATOM     14  C   UNL     1      -0.097   0.784   0.491  1.00  0.00     0.005 A 
ATOM     15  C   UNL     1      -1.178  -1.703  -0.159  1.00  0.00     0.022 A 
ATOM     16  C   UNL     1      -1.492   0.623   0.441  1.00  0.00     0.022 A 
ENDBRANCH   7  10
ENDBRANCH   6   7
BRANCH   6  17
ATOM     17  C   UNL     1      -5.837   0.863  -0.270  1.00  0.00     0.055 A 
ATOM     18  C   UNL     1      -6.896   0.888  -1.177  1.00  0.00     0.047 A 
ATOM     19  C   UNL     1      -6.149   1.115   1.073  1.00  0.00     0.047 A 
ATOM     20  C   UNL     1      -8.155   1.378  -0.817  1.00  0.00     0.044 A 
ATOM     21  C   UNL     1      -7.449   1.480   1.454  1.00  0.00     0.044 A 
ATOM     22  Cl  UNL     1      -9.355   1.609  -2.034  1.00  0.00    -0.084 Cl
ATOM     23  C   UNL     1      -8.441   1.680   0.503  1.00  0.00     0.041 A 
ATOM     24  Cl  UNL     1      -7.849   1.637   3.123  1.00  0.00    -0.084 Cl
ENDBRANCH   6  17
ENDBRANCH   5   6
ENDBRANCH   3   5
ENDBRANCH   2   3
ENDBRANCH   1   2
BRANCH   1  25
ATOM     25  C   UNL     1      -5.968   4.027  -4.377  1.00  0.00     0.275 C 
BRANCH  25  26
ATOM     26  O   UNL     1      -5.891   5.027  -3.328  1.00  0.00    -0.458 OA
BRANCH  26  27
ATOM     27  C   UNL     1      -5.711   4.607  -2.034  1.00  0.00     0.338 C 
ATOM     28  O   UNL     1      -6.465   3.880  -1.429  1.00  0.00    -0.246 OA
BRANCH  27  29
ATOM     29  C   UNL     1      -4.285   4.843  -1.670  1.00  0.00     0.060 A 
ATOM     30  C   UNL     1      -3.686   4.412  -0.475  1.00  0.00     0.016 A 
ATOM     31  C   UNL     1      -3.487   5.160  -2.754  1.00  0.00     0.016 A 
ATOM     32  C   UNL     1      -2.288   4.303  -0.422  1.00  0.00     0.010 A 
ATOM     33  C   UNL     1      -2.258   4.589  -2.830  1.00  0.00     0.010 A 
ATOM     34  C   UNL     1      -1.593   4.359  -1.631  1.00  0.00    -0.014 A 
BRANCH  34  35
ATOM     35  C   UNL     1      -0.189   4.669  -1.855  1.00  0.00     0.031 A 
ATOM     36  C   UNL     1       0.798   3.630  -2.155  1.00  0.00     0.074 A 
ATOM     37  C   UNL     1      -0.075   5.958  -2.272  1.00  0.00     0.049 A 
ATOM     38  N   UNL     1       2.051   3.734  -1.884  1.00  0.00    -0.248 NA
ATOM     39  C   UNL     1       0.446   2.367  -2.809  1.00  0.00     0.031 C 
ATOM     40  C   UNL     1       0.870   6.613  -3.156  1.00  0.00     0.029 A 
ATOM     41  N   UNL     1      -0.992   6.974  -1.996  1.00  0.00    -0.354 N 
ATOM     42  C   UNL     1       2.684   2.770  -2.641  1.00  0.00     0.074 A 
ATOM     43  C   UNL     1       1.655   1.835  -3.037  1.00  0.00     0.031 C 
ATOM     44  C   UNL     1       0.656   7.948  -3.098  1.00  0.00     0.029 A 
ATOM     45  C   UNL     1      -0.387   8.209  -2.104  1.00  0.00     0.049 A 
ATOM     46  H   UNL     1      -1.936   6.830  -1.757  1.00  0.00     0.167 HD
ATOM     47  C   UNL     1       3.933   3.002  -3.142  1.00  0.00     0.037 A 
ATOM     48  C   UNL     1      -0.275   8.873  -0.916  1.00  0.00     0.037 A 
ATOM     49  C   UNL     1       4.259   4.422  -2.987  1.00  0.00     0.049 A 
ATOM     50  C   UNL     1       1.142   8.721  -0.420  1.00  0.00     0.074 A 
ATOM     51  C   UNL     1       4.152   5.469  -3.890  1.00  0.00     0.029 A 
ATOM     52  N   UNL     1       4.362   5.005  -1.727  1.00  0.00    -0.354 N 
ATOM     53  N   UNL     1       1.944   7.758  -0.788  1.00  0.00    -0.248 NA
ATOM     54  C   UNL     1       1.795   9.699   0.438  1.00  0.00     0.031 C 
ATOM     55  C   UNL     1       4.112   6.681  -3.160  1.00  0.00     0.029 A 
ATOM     56  C   UNL     1       4.185   6.378  -1.811  1.00  0.00     0.049 A 
ATOM     57  H   UNL     1       4.535   4.512  -0.893  1.00  0.00     0.167 HD
ATOM     58  C   UNL     1       3.198   8.001  -0.318  1.00  0.00     0.074 A 
ATOM     59  C   UNL     1       3.050   9.218   0.466  1.00  0.00     0.031 C 
ATOM     60  C   UNL     1       4.273   7.220  -0.628  1.00  0.00     0.037 A 
BRANCH  47  61
ATOM     61  C   UNL     1       4.651   2.068  -4.097  1.00  0.00     0.058 A 
ATOM     62  C   UNL     1       5.536   2.554  -5.084  1.00  0.00     0.135 A 
ATOM     63  C   UNL     1       4.540   0.661  -4.043  1.00  0.00     0.135 A 
ATOM     64  F   UNL     1       5.799   3.860  -5.214  1.00  0.00    -0.206 F 
ATOM     65  C   UNL     1       6.202   1.725  -5.988  1.00  0.00     0.059 A 
ATOM     66  C   UNL     1       5.177  -0.191  -4.957  1.00  0.00     0.059 A 
ATOM     67  F   UNL     1       3.825   0.064  -3.076  1.00  0.00    -0.206 F 
ATOM     68  C   UNL     1       6.009   0.352  -5.928  1.00  0.00     0.060 A 
BRANCH  68  69
ATOM     69  S   UNL     1       6.884  -0.685  -7.117  1.00  0.00     0.124 S 
ATOM     70  O   UNL     1       6.442  -0.128  -8.392  1.00  0.00    -0.237 OA
ATOM     71  O   UNL     1       8.278  -0.440  -6.766  1.00  0.00    -0.237 OA
ATOM     72  O   UNL     1       6.390  -2.028  -6.823  1.00  0.00    -0.744 OA
ENDBRANCH  68  69
ENDBRANCH  47  61
BRANCH  48  73
ATOM     73  C   UNL     1      -1.544   8.780  -0.093  1.00  0.00     0.058 A 
ATOM     74  C   UNL     1      -2.727   9.321  -0.654  1.00  0.00     0.135 A 
ATOM     75  C   UNL     1      -1.720   7.900   0.988  1.00  0.00     0.135 A 
ATOM     76  F   UNL     1      -2.646  10.144  -1.713  1.00  0.00    -0.206 F 
ATOM     77  C   UNL     1      -4.005   8.947  -0.234  1.00  0.00     0.059 A 
ATOM     78  C   UNL     1      -2.998   7.519   1.436  1.00  0.00     0.059 A 
ATOM     79  F   UNL     1      -0.660   7.316   1.565  1.00  0.00    -0.206 F 
ATOM     80  C   UNL     1      -4.134   8.026   0.800  1.00  0.00     0.060 A 
BRANCH  80  81
ATOM     81  S   UNL     1      -5.785   7.373   1.180  1.00  0.00     0.124 S 
ATOM     82  O   UNL     1      -6.293   8.372   2.112  1.00  0.00    -0.237 OA
ATOM     83  O   UNL     1      -6.417   7.351  -0.137  1.00  0.00    -0.237 OA
ATOM     84  O   UNL     1      -5.496   6.060   1.747  1.00  0.00    -0.744 OA
ENDBRANCH  80  81
ENDBRANCH  48  73
BRANCH  60  85
ATOM     85  C   UNL     1       5.580   7.294   0.097  1.00  0.00     0.058 A 
ATOM     86  C   UNL     1       5.669   7.607   1.461  1.00  0.00     0.135 A 
ATOM     87  C   UNL     1       6.780   6.898  -0.538  1.00  0.00     0.135 A 
ATOM     88  F   UNL     1       4.575   7.865   2.193  1.00  0.00    -0.206 F 
ATOM     89  C   UNL     1       6.885   7.634   2.130  1.00  0.00     0.059 A 
ATOM     90  C   UNL     1       7.993   6.849   0.131  1.00  0.00     0.059 A 
ATOM     91  F   UNL     1       6.810   6.534  -1.829  1.00  0.00    -0.206 F 
ATOM     92  C   UNL     1       8.041   7.260   1.454  1.00  0.00     0.060 A 
BRANCH  92  93
ATOM     93  S   UNL     1       9.613   7.288   2.321  1.00  0.00     0.124 S 
ATOM     94  O   UNL     1      10.024   8.673   2.117  1.00  0.00    -0.237 OA
ATOM     95  O   UNL     1       9.232   6.936   3.685  1.00  0.00    -0.237 OA
ATOM     96  O   UNL     1      10.400   6.282   1.617  1.00  0.00    -0.744 OA
ENDBRANCH  92  93
ENDBRANCH  60  85
ENDBRANCH  34  35
ENDBRANCH  27  29
ENDBRANCH  26  27
ENDBRANCH  25  26
ENDBRANCH   1  25
TORSDOF 18
