REMARK SMILES C[C@@H](C(=O)OCCOC(=O)c1ccc(-c2c3nc(c(-c4c(F)cc(S(=O)(=O)[O-])cc4F)c4ccc([nH]4)c(-c4c(F)cc(S(=O)(=O)[O-])cc4F)c4nc(c(-c5c(F)cc(S(=O)(=O)[O-])cc5F)c5ccc2[nH]5)C=C4)C=C3)cc1)c1ccc(-c2cccc(OC(=O)Nc3ccccc3)c2)c(F)c1
REMARK SMILES IDX 6 1 5 2 3 3 4 4 2 5 1 6 77 7 78 8 99 9 79 10 97 11 80 12
REMARK SMILES IDX 98 13 81 14 82 15 96 16 83 17 85 18 84 19 86 20 87 21 88 22
REMARK SMILES IDX 89 23 90 25 91 26 95 27 92 28 94 29 93 30 7 31 8 32 9 33
REMARK SMILES IDX 10 34 11 35 12 36 76 37 13 38 75 39 14 40 15 41 16 42 69 43
REMARK SMILES IDX 17 44 74 45 68 46 70 47 18 48 73 49 67 50 66 51 19 53 53 54
REMARK SMILES IDX 32 55 52 56 33 57 36 58 51 59 71 60 34 61 35 62 50 64 72 65
REMARK SMILES IDX 37 66 20 67 21 68 30 69 22 70 23 71 29 72 31 73 24 74 25 75
REMARK SMILES IDX 26 76 27 77 28 78 54 79 55 80 64 81 56 82 57 83 63 84 65 85
REMARK SMILES IDX 58 86 59 87 60 88 61 89 62 90 38 91 39 92 48 93 40 94 41 95
REMARK SMILES IDX 47 96 49 97 42 98 43 99 44 100 45 101 46 102
REMARK H PARENT 89 24 70 52 36 63
REMARK Flexibility Score: inf
ROOT
ATOM      1  C   UNL     1       2.372  -3.616  -0.214  1.00  0.00     0.274 C 
ENDROOT
BRANCH   1   2
ATOM      2  O   UNL     1       1.726  -2.329  -0.365  1.00  0.00    -0.462 OA
BRANCH   2   3
ATOM      3  C   UNL     1       0.592  -2.277  -1.131  1.00  0.00     0.313 C 
ATOM      4  O   UNL     1       0.085  -3.275  -1.630  1.00  0.00    -0.252 OA
BRANCH   3   5
ATOM      5  C   UNL     1       0.111  -0.822  -1.403  1.00  0.00     0.126 C 
ATOM      6  C   UNL     1       0.833   0.178  -0.480  1.00  0.00     0.025 C 
BRANCH   5   7
ATOM      7  C   UNL     1      -1.427  -0.643  -1.438  1.00  0.00    -0.031 A 
ATOM      8  C   UNL     1      -2.099   0.417  -0.795  1.00  0.00     0.005 A 
ATOM      9  C   UNL     1      -2.241  -1.527  -2.165  1.00  0.00     0.044 A 
ATOM     10  C   UNL     1      -3.512   0.515  -0.781  1.00  0.00     0.012 A 
ATOM     11  C   UNL     1      -3.646  -1.428  -2.144  1.00  0.00     0.131 A 
ATOM     12  C   UNL     1      -4.320  -0.437  -1.416  1.00  0.00     0.018 A 
ATOM     13  F   UNL     1      -4.341  -2.347  -2.832  1.00  0.00    -0.206 F 
BRANCH  12  14
ATOM     14  C   UNL     1      -5.797  -0.453  -1.262  1.00  0.00    -0.012 A 
ATOM     15  C   UNL     1      -6.648  -0.050  -2.301  1.00  0.00     0.009 A 
ATOM     16  C   UNL     1      -6.400  -0.996  -0.104  1.00  0.00     0.056 A 
ATOM     17  C   UNL     1      -8.044  -0.185  -2.190  1.00  0.00     0.004 A 
ATOM     18  C   UNL     1      -7.789  -1.220  -0.054  1.00  0.00     0.133 A 
ATOM     19  C   UNL     1      -8.629  -0.782  -1.068  1.00  0.00     0.047 A 
BRANCH  18  20
ATOM     20  O   UNL     1      -8.372  -2.422   0.981  1.00  0.00    -0.410 OA
BRANCH  20  21
ATOM     21  C   UNL     1      -8.935  -3.799   1.729  1.00  0.00     0.417 C 
ATOM     22  O   UNL     1      -8.991  -4.876   1.134  1.00  0.00    -0.224 OA
ATOM     23  N   UNL     1      -9.242  -3.700   3.053  1.00  0.00    -0.291 N 
ATOM     24  H   UNL     1      -8.691  -3.092   3.598  1.00  0.00     0.173 HD
BRANCH  23  25
ATOM     25  C   UNL     1     -10.275  -4.390   3.706  1.00  0.00     0.044 A 
ATOM     26  C   UNL     1     -10.467  -4.132   5.061  1.00  0.00     0.026 A 
ATOM     27  C   UNL     1     -11.217  -5.158   3.024  1.00  0.00     0.026 A 
ATOM     28  C   UNL     1     -11.658  -4.496   5.692  1.00  0.00     0.002 A 
ATOM     29  C   UNL     1     -12.397  -5.547   3.659  1.00  0.00     0.002 A 
ATOM     30  C   UNL     1     -12.637  -5.180   4.979  1.00  0.00     0.000 A 
ENDBRANCH  23  25
ENDBRANCH  20  21
ENDBRANCH  18  20
ENDBRANCH  12  14
ENDBRANCH   5   7
ENDBRANCH   3   5
ENDBRANCH   2   3
ENDBRANCH   1   2
BRANCH   1  31
ATOM     31  C   UNL     1       2.377  -4.087   1.243  1.00  0.00     0.275 C 
BRANCH  31  32
ATOM     32  O   UNL     1       1.034  -4.337   1.683  1.00  0.00    -0.458 OA
BRANCH  32  33
ATOM     33  C   UNL     1       0.488  -3.352   2.429  1.00  0.00     0.338 C 
ATOM     34  O   UNL     1       1.058  -2.384   2.916  1.00  0.00    -0.246 OA
BRANCH  33  35
ATOM     35  C   UNL     1      -0.970  -3.465   2.329  1.00  0.00     0.060 A 
ATOM     36  C   UNL     1      -1.615  -2.416   1.683  1.00  0.00     0.016 A 
ATOM     37  C   UNL     1      -1.694  -4.559   2.814  1.00  0.00     0.016 A 
ATOM     38  C   UNL     1      -2.982  -2.475   1.483  1.00  0.00     0.010 A 
ATOM     39  C   UNL     1      -3.083  -4.602   2.630  1.00  0.00     0.010 A 
ATOM     40  C   UNL     1      -3.728  -3.563   1.949  1.00  0.00    -0.014 A 
BRANCH  40  41
ATOM     41  C   UNL     1      -5.195  -3.506   1.744  1.00  0.00     0.031 A 
ATOM     42  C   UNL     1      -5.953  -2.580   2.817  1.00  0.00     0.074 A 
ATOM     43  C   UNL     1      -5.651  -4.060   0.565  1.00  0.00     0.049 A 
ATOM     44  N   UNL     1      -7.148  -2.051   2.783  1.00  0.00    -0.248 NA
ATOM     45  C   UNL     1      -5.260  -2.107   4.034  1.00  0.00     0.031 C 
ATOM     46  C   UNL     1      -4.937  -4.803  -0.496  1.00  0.00     0.029 A 
ATOM     47  N   UNL     1      -6.880  -4.011  -0.021  1.00  0.00    -0.354 N 
ATOM     48  C   UNL     1      -7.399  -1.217   3.852  1.00  0.00     0.074 A 
ATOM     49  C   UNL     1      -6.157  -1.288   4.608  1.00  0.00     0.031 C 
ATOM     50  C   UNL     1      -5.790  -5.106  -1.521  1.00  0.00     0.029 A 
ATOM     51  C   UNL     1      -7.136  -4.606  -1.224  1.00  0.00     0.049 A 
ATOM     52  H   UNL     1      -7.607  -3.532   0.437  1.00  0.00     0.167 HD
ATOM     53  C   UNL     1      -8.588  -0.589   4.166  1.00  0.00     0.037 A 
ATOM     54  C   UNL     1      -8.335  -4.676  -1.895  1.00  0.00     0.037 A 
ATOM     55  C   UNL     1      -9.899  -0.703   3.438  1.00  0.00     0.049 A 
ATOM     56  C   UNL     1      -9.733  -4.099  -1.370  1.00  0.00     0.074 A 
ATOM     57  C   UNL     1     -11.186  -0.408   3.876  1.00  0.00     0.029 A 
ATOM     58  N   UNL     1     -10.138  -1.156   2.128  1.00  0.00    -0.354 N 
ATOM     59  N   UNL     1      -9.999  -3.145  -0.506  1.00  0.00    -0.248 NA
ATOM     60  C   UNL     1     -10.995  -4.650  -1.896  1.00  0.00     0.031 C 
ATOM     61  C   UNL     1     -12.128  -0.961   2.965  1.00  0.00     0.029 A 
ATOM     62  C   UNL     1     -11.465  -1.532   1.880  1.00  0.00     0.049 A 
ATOM     63  H   UNL     1      -9.432  -1.205   1.444  1.00  0.00     0.167 HD
ATOM     64  C   UNL     1     -11.356  -3.046  -0.249  1.00  0.00     0.074 A 
ATOM     65  C   UNL     1     -11.929  -3.941  -1.249  1.00  0.00     0.031 C 
ATOM     66  C   UNL     1     -12.024  -2.351   0.743  1.00  0.00     0.037 A 
BRANCH  53  67
ATOM     67  C   UNL     1      -8.616   0.081   5.527  1.00  0.00     0.058 A 
ATOM     68  C   UNL     1      -7.968   1.294   5.795  1.00  0.00     0.135 A 
ATOM     69  C   UNL     1      -9.316  -0.509   6.598  1.00  0.00     0.135 A 
ATOM     70  F   UNL     1      -7.276   1.915   4.827  1.00  0.00    -0.206 F 
ATOM     71  C   UNL     1      -7.994   1.874   7.067  1.00  0.00     0.059 A 
ATOM     72  C   UNL     1      -9.364   0.049   7.870  1.00  0.00     0.059 A 
ATOM     73  F   UNL     1      -9.987  -1.650   6.422  1.00  0.00    -0.206 F 
ATOM     74  C   UNL     1      -8.689   1.239   8.100  1.00  0.00     0.060 A 
BRANCH  74  75
ATOM     75  S   UNL     1      -8.676   1.963   9.754  1.00  0.00     0.124 S 
ATOM     76  O   UNL     1      -7.249   1.964  10.063  1.00  0.00    -0.237 OA
ATOM     77  O   UNL     1      -9.277   3.271   9.518  1.00  0.00    -0.237 OA
ATOM     78  O   UNL     1      -9.481   1.035  10.542  1.00  0.00    -0.744 OA
ENDBRANCH  74  75
ENDBRANCH  53  67
BRANCH  54  79
ATOM     79  C   UNL     1      -8.404  -5.409  -3.194  1.00  0.00     0.058 A 
ATOM     80  C   UNL     1      -8.903  -4.767  -4.340  1.00  0.00     0.135 A 
ATOM     81  C   UNL     1      -8.092  -6.773  -3.303  1.00  0.00     0.135 A 
ATOM     82  F   UNL     1      -9.255  -3.473  -4.285  1.00  0.00    -0.206 F 
ATOM     83  C   UNL     1      -9.094  -5.447  -5.539  1.00  0.00     0.059 A 
ATOM     84  C   UNL     1      -8.251  -7.469  -4.500  1.00  0.00     0.059 A 
ATOM     85  F   UNL     1      -7.646  -7.456  -2.238  1.00  0.00    -0.206 F 
ATOM     86  C   UNL     1      -8.763  -6.800  -5.611  1.00  0.00     0.060 A 
BRANCH  86  87
ATOM     87  S   UNL     1      -8.974  -7.664  -7.183  1.00  0.00     0.124 S 
ATOM     88  O   UNL     1     -10.419  -7.855  -7.227  1.00  0.00    -0.237 OA
ATOM     89  O   UNL     1      -8.429  -6.706  -8.140  1.00  0.00    -0.237 OA
ATOM     90  O   UNL     1      -8.182  -8.879  -7.007  1.00  0.00    -0.744 OA
ENDBRANCH  86  87
ENDBRANCH  54  79
BRANCH  66  91
ATOM     91  C   UNL     1     -13.547  -2.490   0.725  1.00  0.00     0.058 A 
ATOM     92  C   UNL     1     -14.213  -3.718   0.906  1.00  0.00     0.135 A 
ATOM     93  C   UNL     1     -14.361  -1.352   0.583  1.00  0.00     0.135 A 
ATOM     94  F   UNL     1     -13.519  -4.861   1.008  1.00  0.00    -0.206 F 
ATOM     95  C   UNL     1     -15.604  -3.817   0.930  1.00  0.00     0.059 A 
ATOM     96  C   UNL     1     -15.756  -1.422   0.631  1.00  0.00     0.059 A 
ATOM     97  F   UNL     1     -13.805  -0.143   0.409  1.00  0.00    -0.206 F 
ATOM     98  C   UNL     1     -16.370  -2.662   0.794  1.00  0.00     0.060 A 
BRANCH  98  99
ATOM     99  S   UNL     1     -18.171  -2.804   0.841  1.00  0.00     0.124 S 
ATOM    100  O   UNL     1     -18.449  -3.479  -0.423  1.00  0.00    -0.237 OA
ATOM    101  O   UNL     1     -18.391  -3.600   2.044  1.00  0.00    -0.237 OA
ATOM    102  O   UNL     1     -18.621  -1.418   0.922  1.00  0.00    -0.744 OA
ENDBRANCH  98  99
ENDBRANCH  66  91
ENDBRANCH  40  41
ENDBRANCH  33  35
ENDBRANCH  32  33
ENDBRANCH  31  32
ENDBRANCH   1  31
TORSDOF 19
