REMARK SMILES CC[N@@H+](C[C@@H](C)C(=O)OCCOC(=O)c1ccc(-c2c3nc(c(-c4c(F)cc(S(=O)(=O)[O-])cc4F)c4ccc([nH]4)c(-c4c(F)cc(S(=O)(=O)[O-])cc4F)c4nc(c(-c5c(F)cc(S(=O)(=O)[O-])cc5F)c5ccc2[nH]5)C=C4)C=C3)cc1)[C@@H]1CCC[C@H](S(C)(=O)=O)C1
REMARK SMILES IDX 10 1 9 2 7 3 8 4 5 5 6 6 4 7 3 8 2 10 1 11 81 12 82 13 90 14
REMARK SMILES IDX 83 15 85 16 84 17 86 18 87 19 88 20 89 21 11 22 12 23 13 24
REMARK SMILES IDX 14 25 15 26 16 27 80 28 17 29 79 30 18 31 19 32 20 33 73 34
REMARK SMILES IDX 21 35 78 36 72 37 74 38 22 39 77 40 71 41 70 42 23 44 57 45
REMARK SMILES IDX 36 46 56 47 37 48 40 49 55 50 75 51 38 52 39 53 54 55 76 56
REMARK SMILES IDX 41 57 24 58 25 59 34 60 26 61 27 62 33 63 35 64 28 65 29 66
REMARK SMILES IDX 30 67 31 68 32 69 58 70 59 71 68 72 60 73 61 74 67 75 69 76
REMARK SMILES IDX 62 77 63 78 64 79 65 80 66 81 42 82 43 83 52 84 44 85 45 86
REMARK SMILES IDX 51 87 53 88 46 89 47 90 48 91 49 92 50 93
REMARK H PARENT 3 9 74 43 40 54
REMARK Flexibility Score: inf
ROOT
ATOM      1  C   UNL     1      -0.052   4.377  -6.625  1.00  0.00     0.274 C 
ENDROOT
BRANCH   1   2
ATOM      2  O   UNL     1       0.557   3.403  -5.754  1.00  0.00    -0.462 OA
BRANCH   2   3
ATOM      3  C   UNL     1       0.927   3.881  -4.537  1.00  0.00     0.314 C 
ATOM      4  O   UNL     1       0.720   5.026  -4.151  1.00  0.00    -0.252 OA
BRANCH   3   5
ATOM      5  C   UNL     1       1.769   2.905  -3.739  1.00  0.00     0.151 C 
ATOM      6  C   UNL     1       3.179   3.004  -4.329  1.00  0.00     0.026 C 
BRANCH   5   7
ATOM      7  C   UNL     1       1.194   1.469  -3.673  1.00  0.00     0.277 C 
BRANCH   7   8
ATOM      8  N   UNL     1       1.455   0.629  -2.457  1.00  0.00    -0.332 N 
ATOM      9  H   UNL     1       1.244  -0.343  -2.684  1.00  0.00     0.348 HD
BRANCH   8  10
ATOM     10  C   UNL     1       0.511   0.963  -1.374  1.00  0.00     0.259 C 
ATOM     11  C   UNL     1       0.431  -0.029  -0.219  1.00  0.00     0.071 C 
ENDBRANCH   8  10
BRANCH   8  12
ATOM     12  C   UNL     1       2.878   0.517  -2.100  1.00  0.00     0.185 C 
ATOM     13  C   UNL     1       3.290  -0.876  -1.579  1.00  0.00     0.065 C 
ATOM     14  C   UNL     1       3.399   1.583  -1.123  1.00  0.00     0.084 C 
ATOM     15  C   UNL     1       4.815  -0.962  -1.406  1.00  0.00     0.007 C 
ATOM     16  C   UNL     1       4.926   1.541  -1.059  1.00  0.00     0.114 C 
ATOM     17  C   UNL     1       5.389   0.176  -0.553  1.00  0.00     0.020 C 
BRANCH  16  18
ATOM     18  S   UNL     1       5.513   2.922  -0.074  1.00  0.00     0.150 S 
ATOM     19  C   UNL     1       7.275   2.893  -0.277  1.00  0.00     0.158 C 
ATOM     20  O   UNL     1       5.050   4.136  -0.719  1.00  0.00    -0.229 OA
ATOM     21  O   UNL     1       5.221   2.653   1.319  1.00  0.00    -0.229 OA
ENDBRANCH  16  18
ENDBRANCH   8  12
ENDBRANCH   7   8
ENDBRANCH   5   7
ENDBRANCH   3   5
ENDBRANCH   2   3
ENDBRANCH   1   2
BRANCH   1  22
ATOM     22  C   UNL     1      -1.582   4.401  -6.533  1.00  0.00     0.275 C 
BRANCH  22  23
ATOM     23  O   UNL     1      -2.055   4.844  -5.250  1.00  0.00    -0.458 OA
BRANCH  23  24
ATOM     24  C   UNL     1      -2.228   3.855  -4.343  1.00  0.00     0.338 C 
ATOM     25  O   UNL     1      -2.080   2.656  -4.536  1.00  0.00    -0.246 OA
BRANCH  24  26
ATOM     26  C   UNL     1      -2.488   4.412  -3.005  1.00  0.00     0.060 A 
ATOM     27  C   UNL     1      -1.660   3.996  -1.959  1.00  0.00     0.016 A 
ATOM     28  C   UNL     1      -3.577   5.247  -2.754  1.00  0.00     0.016 A 
ATOM     29  C   UNL     1      -1.934   4.377  -0.649  1.00  0.00     0.010 A 
ATOM     30  C   UNL     1      -3.852   5.634  -1.438  1.00  0.00     0.010 A 
ATOM     31  C   UNL     1      -3.047   5.180  -0.376  1.00  0.00    -0.014 A 
BRANCH  31  32
ATOM     32  C   UNL     1      -3.408   5.472   1.031  1.00  0.00     0.031 A 
ATOM     33  C   UNL     1      -4.544   4.728   1.676  1.00  0.00     0.074 A 
ATOM     34  C   UNL     1      -2.699   6.373   1.736  1.00  0.00     0.049 A 
ATOM     35  N   UNL     1      -5.046   4.862   2.876  1.00  0.00    -0.248 NA
ATOM     36  C   UNL     1      -5.202   3.696   0.859  1.00  0.00     0.031 C 
ATOM     37  C   UNL     1      -1.550   7.125   1.231  1.00  0.00     0.029 A 
ATOM     38  N   UNL     1      -2.843   6.807   3.030  1.00  0.00    -0.354 N 
ATOM     39  C   UNL     1      -6.086   3.944   2.957  1.00  0.00     0.074 A 
ATOM     40  C   UNL     1      -6.156   3.271   1.676  1.00  0.00     0.031 C 
ATOM     41  C   UNL     1      -1.095   7.931   2.204  1.00  0.00     0.029 A 
ATOM     42  C   UNL     1      -1.938   7.777   3.387  1.00  0.00     0.049 A 
ATOM     43  H   UNL     1      -3.529   6.457   3.643  1.00  0.00     0.167 HD
ATOM     44  C   UNL     1      -6.904   3.683   4.005  1.00  0.00     0.037 A 
ATOM     45  C   UNL     1      -1.816   8.474   4.533  1.00  0.00     0.037 A 
ATOM     46  C   UNL     1      -6.823   4.348   5.279  1.00  0.00     0.049 A 
ATOM     47  C   UNL     1      -2.764   8.196   5.669  1.00  0.00     0.074 A 
ATOM     48  C   UNL     1      -7.603   4.150   6.406  1.00  0.00     0.029 A 
ATOM     49  N   UNL     1      -5.908   5.341   5.597  1.00  0.00    -0.354 N 
ATOM     50  N   UNL     1      -3.747   7.329   5.729  1.00  0.00    -0.248 NA
ATOM     51  C   UNL     1      -2.587   8.991   6.892  1.00  0.00     0.031 C 
ATOM     52  C   UNL     1      -7.180   5.047   7.394  1.00  0.00     0.029 A 
ATOM     53  C   UNL     1      -6.112   5.776   6.897  1.00  0.00     0.049 A 
ATOM     54  H   UNL     1      -5.215   5.686   4.989  1.00  0.00     0.167 HD
ATOM     55  C   UNL     1      -4.292   7.460   7.002  1.00  0.00     0.074 A 
ATOM     56  C   UNL     1      -3.522   8.482   7.682  1.00  0.00     0.031 C 
ATOM     57  C   UNL     1      -5.335   6.794   7.558  1.00  0.00     0.037 A 
BRANCH  44  58
ATOM     58  C   UNL     1      -7.974   2.647   3.804  1.00  0.00     0.058 A 
ATOM     59  C   UNL     1      -7.676   1.277   3.759  1.00  0.00     0.135 A 
ATOM     60  C   UNL     1      -9.319   3.031   3.677  1.00  0.00     0.135 A 
ATOM     61  F   UNL     1      -6.405   0.857   3.857  1.00  0.00    -0.206 F 
ATOM     62  C   UNL     1      -8.672   0.323   3.569  1.00  0.00     0.059 A 
ATOM     63  C   UNL     1     -10.333   2.093   3.508  1.00  0.00     0.059 A 
ATOM     64  F   UNL     1      -9.658   4.329   3.711  1.00  0.00    -0.206 F 
ATOM     65  C   UNL     1      -9.997   0.741   3.440  1.00  0.00     0.060 A 
BRANCH  65  66
ATOM     66  S   UNL     1     -11.280  -0.505   3.188  1.00  0.00     0.124 S 
ATOM     67  O   UNL     1     -11.074  -0.854   1.786  1.00  0.00    -0.237 OA
ATOM     68  O   UNL     1     -10.914  -1.534   4.156  1.00  0.00    -0.237 OA
ATOM     69  O   UNL     1     -12.515   0.215   3.481  1.00  0.00    -0.744 OA
ENDBRANCH  65  66
ENDBRANCH  44  58
BRANCH  45  70
ATOM     70  C   UNL     1      -0.761   9.514   4.658  1.00  0.00     0.058 A 
ATOM     71  C   UNL     1       0.355   9.318   5.483  1.00  0.00     0.135 A 
ATOM     72  C   UNL     1      -0.847  10.721   3.947  1.00  0.00     0.135 A 
ATOM     73  F   UNL     1       0.474   8.185   6.192  1.00  0.00    -0.206 F 
ATOM     74  C   UNL     1       1.345  10.287   5.610  1.00  0.00     0.059 A 
ATOM     75  C   UNL     1       0.141  11.695   4.040  1.00  0.00     0.059 A 
ATOM     76  F   UNL     1      -1.892  10.952   3.137  1.00  0.00    -0.206 F 
ATOM     77  C   UNL     1       1.230  11.473   4.883  1.00  0.00     0.060 A 
BRANCH  77  78
ATOM     78  S   UNL     1       2.540  12.709   5.017  1.00  0.00     0.124 S 
ATOM     79  O   UNL     1       2.243  13.312   6.311  1.00  0.00    -0.237 OA
ATOM     80  O   UNL     1       3.747  11.892   4.956  1.00  0.00    -0.237 OA
ATOM     81  O   UNL     1       2.313  13.564   3.855  1.00  0.00    -0.744 OA
ENDBRANCH  77  78
ENDBRANCH  45  70
BRANCH  57  82
ATOM     82  C   UNL     1      -5.685   7.133   8.980  1.00  0.00     0.058 A 
ATOM     83  C   UNL     1      -6.347   8.325   9.310  1.00  0.00     0.135 A 
ATOM     84  C   UNL     1      -5.385   6.238  10.019  1.00  0.00     0.135 A 
ATOM     85  F   UNL     1      -6.651   9.216   8.354  1.00  0.00    -0.206 F 
ATOM     86  C   UNL     1      -6.676   8.632  10.627  1.00  0.00     0.059 A 
ATOM     87  C   UNL     1      -5.725   6.514  11.340  1.00  0.00     0.059 A 
ATOM     88  F   UNL     1      -4.763   5.078   9.754  1.00  0.00    -0.206 F 
ATOM     89  C   UNL     1      -6.357   7.721  11.636  1.00  0.00     0.060 A 
BRANCH  89  90
ATOM     90  S   UNL     1      -6.805   8.117  13.340  1.00  0.00     0.124 S 
ATOM     91  O   UNL     1      -5.761   9.069  13.703  1.00  0.00    -0.237 OA
ATOM     92  O   UNL     1      -8.146   8.674  13.193  1.00  0.00    -0.237 OA
ATOM     93  O   UNL     1      -6.741   6.825  14.016  1.00  0.00    -0.744 OA
ENDBRANCH  89  90
ENDBRANCH  57  82
ENDBRANCH  31  32
ENDBRANCH  24  26
ENDBRANCH  23  24
ENDBRANCH  22  23
ENDBRANCH   1  22
TORSDOF 19
