REMARK SMILES CCN1C(=O)N/C(=C/c2cc(Cl)c(OCc3cccc(C(=O)OCCOC(=O)c4ccc(-c5c6nc(c(-c7c(F)cc(S(=O)(=O)[O-])cc7F)c7ccc([nH]7)c(-c7c(F)cc(S(=O)(=O)[O-])cc7F)c7nc(c(-c8c(F)cc(S(=O)(=O)[O-])cc8F)c8ccc5[nH]8)C=C7)C=C6)cc4)c3)c(OC)c2)C1=O
REMARK SMILES IDX 24 1 23 2 21 3 22 4 20 5 16 6 17 7 95 8 18 9 19 10 15 11
REMARK SMILES IDX 14 12 13 13 9 14 10 15 99 16 11 17 96 18 12 19 8 20 3 21
REMARK SMILES IDX 4 22 100 23 5 24 6 25 7 26 101 27 2 29 1 30 97 31 98 32
REMARK SMILES IDX 25 33 26 34 27 35 28 36 29 37 30 38 94 39 31 40 93 41 32 42
REMARK SMILES IDX 33 43 34 44 87 45 35 46 92 47 86 48 88 49 36 50 91 51 85 52
REMARK SMILES IDX 84 53 37 55 71 56 50 57 70 58 51 59 54 60 69 61 89 62 52 63
REMARK SMILES IDX 53 64 68 66 90 67 55 68 38 69 39 70 48 71 40 72 41 73 47 74
REMARK SMILES IDX 49 75 42 76 43 77 44 78 45 79 46 80 72 81 73 82 82 83 74 84
REMARK SMILES IDX 75 85 81 86 83 87 76 88 77 89 78 90 79 91 80 92 56 93 57 94
REMARK SMILES IDX 66 95 58 96 59 97 65 98 67 99 60 100 61 101 62 102 63 103
REMARK SMILES IDX 64 104
REMARK H PARENT 6 28 88 54 54 65
REMARK Flexibility Score: inf
ROOT
ATOM      1  C   UNL     1       2.561  12.345   0.972  1.00  0.00     0.275 C 
ENDROOT
BRANCH   1   2
ATOM      2  O   UNL     1       2.666  11.326  -0.044  1.00  0.00    -0.458 OA
BRANCH   2   3
ATOM      3  C   UNL     1       2.779  10.045   0.395  1.00  0.00     0.338 C 
ATOM      4  O   UNL     1       2.875   9.686   1.556  1.00  0.00    -0.246 OA
BRANCH   3   5
ATOM      5  C   UNL     1       2.587   9.103  -0.738  1.00  0.00     0.060 A 
ATOM      6  C   UNL     1       2.699   8.526  -3.102  1.00  0.00    -0.010 A 
ATOM      7  C   UNL     1       1.819   7.467  -2.851  1.00  0.00     0.007 A 
ATOM      8  C   UNL     1       3.011   9.395  -2.037  1.00  0.00     0.023 A 
ATOM      9  C   UNL     1       1.478   7.118  -1.548  1.00  0.00     0.001 A 
ATOM     10  C   UNL     1       1.927   7.896  -0.490  1.00  0.00     0.016 A 
BRANCH   6  11
ATOM     11  C   UNL     1       3.401   8.749  -4.432  1.00  0.00     0.265 C 
BRANCH  11  12
ATOM     12  O   UNL     1       3.155   7.908  -5.562  1.00  0.00    -0.483 OA
BRANCH  12  13
ATOM     13  C   UNL     1       3.115   6.541  -5.482  1.00  0.00     0.180 A 
ATOM     14  C   UNL     1       2.578   3.773  -5.364  1.00  0.00    -0.018 A 
ATOM     15  C   UNL     1       3.586   4.338  -4.577  1.00  0.00     0.033 A 
ATOM     16  C   UNL     1       1.888   4.581  -6.272  1.00  0.00     0.058 A 
ATOM     17  C   UNL     1       3.873   5.708  -4.646  1.00  0.00     0.087 A 
ATOM     18  C   UNL     1       2.153   5.954  -6.340  1.00  0.00     0.162 A 
ATOM     19  Cl  UNL     1       5.211   6.251  -3.697  1.00  0.00    -0.080 Cl
BRANCH  14  20
ATOM     20  C   UNL     1       2.283   2.338  -5.295  1.00  0.00     0.040 C 
ATOM     21  N   UNL     1       0.993   1.099  -2.172  1.00  0.00    -0.259 N 
ATOM     22  C   UNL     1       1.070  -0.030  -2.959  1.00  0.00     0.328 C 
ATOM     23  C   UNL     1       1.379   2.217  -2.881  1.00  0.00     0.278 C 
ATOM     24  O   UNL     1       0.772  -1.179  -2.678  1.00  0.00    -0.248 OA
ATOM     25  N   UNL     1       1.571   0.347  -4.195  1.00  0.00    -0.303 N 
ATOM     26  C   UNL     1       1.796   1.692  -4.229  1.00  0.00     0.109 C 
ATOM     27  O   UNL     1       1.364   3.382  -2.534  1.00  0.00    -0.267 OA
ATOM     28  H   UNL     1       1.740  -0.269  -4.944  1.00  0.00     0.172 HD
BRANCH  21  29
ATOM     29  C   UNL     1       0.434   1.149  -0.833  1.00  0.00     0.127 C 
ATOM     30  C   UNL     1       1.030   0.124   0.121  1.00  0.00     0.028 C 
ENDBRANCH  21  29
ENDBRANCH  14  20
BRANCH  18  31
ATOM     31  O   UNL     1       1.501   6.826  -7.181  1.00  0.00    -0.493 OA
ATOM     32  C   UNL     1       0.615   6.285  -8.149  1.00  0.00     0.278 C 
ENDBRANCH  18  31
ENDBRANCH  12  13
ENDBRANCH  11  12
ENDBRANCH   6  11
ENDBRANCH   3   5
ENDBRANCH   2   3
ENDBRANCH   1   2
BRANCH   1  33
ATOM     33  C   UNL     1       1.136  12.900   1.050  1.00  0.00     0.275 C 
BRANCH  33  34
ATOM     34  O   UNL     1       0.232  11.908   1.571  1.00  0.00    -0.458 OA
BRANCH  34  35
ATOM     35  C   UNL     1      -0.601  11.355   0.659  1.00  0.00     0.338 C 
ATOM     36  O   UNL     1      -0.697  11.636  -0.523  1.00  0.00    -0.246 OA
BRANCH  35  37
ATOM     37  C   UNL     1      -1.353  10.249   1.271  1.00  0.00     0.060 A 
ATOM     38  C   UNL     1      -0.724   9.015   1.343  1.00  0.00     0.016 A 
ATOM     39  C   UNL     1      -2.700  10.361   1.597  1.00  0.00     0.016 A 
ATOM     40  C   UNL     1      -1.452   7.860   1.604  1.00  0.00     0.010 A 
ATOM     41  C   UNL     1      -3.407   9.213   1.989  1.00  0.00     0.010 A 
ATOM     42  C   UNL     1      -2.806   7.939   1.952  1.00  0.00    -0.014 A 
BRANCH  42  43
ATOM     43  C   UNL     1      -3.583   6.694   2.244  1.00  0.00     0.031 A 
ATOM     44  C   UNL     1      -4.851   6.390   1.482  1.00  0.00     0.074 A 
ATOM     45  C   UNL     1      -3.152   5.822   3.181  1.00  0.00     0.049 A 
ATOM     46  N   UNL     1      -5.746   5.458   1.699  1.00  0.00    -0.248 NA
ATOM     47  C   UNL     1      -5.163   7.256   0.334  1.00  0.00     0.031 C 
ATOM     48  C   UNL     1      -1.923   5.957   3.968  1.00  0.00     0.029 A 
ATOM     49  N   UNL     1      -3.697   4.643   3.633  1.00  0.00    -0.354 N 
ATOM     50  C   UNL     1      -6.748   5.661   0.755  1.00  0.00     0.074 A 
ATOM     51  C   UNL     1      -6.360   6.815  -0.026  1.00  0.00     0.031 C 
ATOM     52  C   UNL     1      -1.790   4.893   4.772  1.00  0.00     0.029 A 
ATOM     53  C   UNL     1      -2.970   4.048   4.639  1.00  0.00     0.049 A 
ATOM     54  H   UNL     1      -4.529   4.260   3.272  1.00  0.00     0.167 HD
ATOM     55  C   UNL     1      -7.885   4.948   0.555  1.00  0.00     0.037 A 
ATOM     56  C   UNL     1      -3.236   2.975   5.411  1.00  0.00     0.037 A 
ATOM     57  C   UNL     1      -8.242   3.771   1.307  1.00  0.00     0.049 A 
ATOM     58  C   UNL     1      -4.525   2.230   5.205  1.00  0.00     0.074 A 
ATOM     59  C   UNL     1      -9.360   2.966   1.167  1.00  0.00     0.029 A 
ATOM     60  N   UNL     1      -7.486   3.222   2.334  1.00  0.00    -0.354 N 
ATOM     61  N   UNL     1      -5.477   2.456   4.331  1.00  0.00    -0.248 NA
ATOM     62  C   UNL     1      -4.784   1.092   6.097  1.00  0.00     0.031 C 
ATOM     63  C   UNL     1      -9.308   1.966   2.143  1.00  0.00     0.029 A 
ATOM     64  C   UNL     1      -8.124   2.105   2.849  1.00  0.00     0.049 A 
ATOM     65  H   UNL     1      -6.623   3.575   2.651  1.00  0.00     0.167 HD
ATOM     66  C   UNL     1      -6.434   1.472   4.550  1.00  0.00     0.074 A 
ATOM     67  C   UNL     1      -5.939   0.641   5.628  1.00  0.00     0.031 C 
ATOM     68  C   UNL     1      -7.617   1.276   3.915  1.00  0.00     0.037 A 
BRANCH  55  69
ATOM     69  C   UNL     1      -8.850   5.437  -0.496  1.00  0.00     0.058 A 
ATOM     70  C   UNL     1      -8.562   5.368  -1.868  1.00  0.00     0.135 A 
ATOM     71  C   UNL     1     -10.105   5.947  -0.120  1.00  0.00     0.135 A 
ATOM     72  F   UNL     1      -7.375   4.902  -2.288  1.00  0.00    -0.206 F 
ATOM     73  C   UNL     1      -9.469   5.815  -2.826  1.00  0.00     0.059 A 
ATOM     74  C   UNL     1     -11.040   6.368  -1.062  1.00  0.00     0.059 A 
ATOM     75  F   UNL     1     -10.438   6.034   1.177  1.00  0.00    -0.206 F 
ATOM     76  C   UNL     1     -10.706   6.313  -2.413  1.00  0.00     0.060 A 
BRANCH  76  77
ATOM     77  S   UNL     1     -11.871   6.883  -3.670  1.00  0.00     0.124 S 
ATOM     78  O   UNL     1     -11.227   8.109  -4.130  1.00  0.00    -0.237 OA
ATOM     79  O   UNL     1     -11.872   5.774  -4.619  1.00  0.00    -0.237 OA
ATOM     80  O   UNL     1     -13.112   7.069  -2.925  1.00  0.00    -0.744 OA
ENDBRANCH  76  77
ENDBRANCH  55  69
BRANCH  56  81
ATOM     81  C   UNL     1      -2.278   2.568   6.477  1.00  0.00     0.058 A 
ATOM     82  C   UNL     1      -1.574   1.358   6.395  1.00  0.00     0.135 A 
ATOM     83  C   UNL     1      -2.040   3.386   7.594  1.00  0.00     0.135 A 
ATOM     84  F   UNL     1      -1.772   0.535   5.354  1.00  0.00    -0.206 F 
ATOM     85  C   UNL     1      -0.679   0.967   7.387  1.00  0.00     0.059 A 
ATOM     86  C   UNL     1      -1.125   3.034   8.580  1.00  0.00     0.059 A 
ATOM     87  F   UNL     1      -2.679   4.560   7.717  1.00  0.00    -0.206 F 
ATOM     88  C   UNL     1      -0.457   1.815   8.473  1.00  0.00     0.060 A 
BRANCH  88  89
ATOM     89  S   UNL     1       0.742   1.319   9.729  1.00  0.00     0.124 S 
ATOM     90  O   UNL     1       0.033   0.236  10.400  1.00  0.00    -0.237 OA
ATOM     91  O   UNL     1       1.889   0.926   8.917  1.00  0.00    -0.237 OA
ATOM     92  O   UNL     1       0.926   2.535  10.516  1.00  0.00    -0.744 OA
ENDBRANCH  88  89
ENDBRANCH  56  81
BRANCH  68  93
ATOM     93  C   UNL     1      -8.436   0.084   4.330  1.00  0.00     0.058 A 
ATOM     94  C   UNL     1      -9.097   0.028   5.567  1.00  0.00     0.135 A 
ATOM     95  C   UNL     1      -8.592  -1.004   3.456  1.00  0.00     0.135 A 
ATOM     96  F   UNL     1      -8.974   1.036   6.446  1.00  0.00    -0.206 F 
ATOM     97  C   UNL     1      -9.860  -1.076   5.934  1.00  0.00     0.059 A 
ATOM     98  C   UNL     1      -9.377  -2.103   3.788  1.00  0.00     0.059 A 
ATOM     99  F   UNL     1      -7.989  -1.000   2.256  1.00  0.00    -0.206 F 
ATOM    100  C   UNL     1      -9.997  -2.136   5.035  1.00  0.00     0.060 A 
BRANCH 100 101
ATOM    101  S   UNL     1     -11.015  -3.548   5.512  1.00  0.00     0.124 S 
ATOM    102  O   UNL     1     -10.176  -4.190   6.518  1.00  0.00    -0.237 OA
ATOM    103  O   UNL     1     -12.226  -2.904   6.013  1.00  0.00    -0.237 OA
ATOM    104  O   UNL     1     -11.177  -4.288   4.264  1.00  0.00    -0.744 OA
ENDBRANCH 100 101
ENDBRANCH  68  93
ENDBRANCH  42  43
ENDBRANCH  35  37
ENDBRANCH  34  35
ENDBRANCH  33  34
ENDBRANCH   1  33
TORSDOF 20
