REMARK SMILES C[C@]1(CNC(=O)N[C@H]2CC[C@@H](C(=O)OCCOC(=O)c3ccc(-c4c5nc(c(-c6c(F)cc(S(=O)(=O)[O-])cc6F)c6ccc([nH]6)c(-c6c(F)cc(S(=O)(=O)[O-])cc6F)c6nc(c(-c7c(F)cc(S(=O)(=O)[O-])cc7F)c7ccc4[nH]7)C=C6)C=C5)cc3)CC2)CCCO1
REMARK SMILES IDX 15 1 14 2 12 3 13 4 11 5 8 6 9 7 87 8 10 9 86 10 7 11 4 12
REMARK SMILES IDX 5 13 6 15 3 17 2 18 1 19 88 20 91 21 89 22 90 23 16 24 17 25
REMARK SMILES IDX 18 26 19 27 20 28 21 29 85 30 22 31 84 32 23 33 24 34 25 35
REMARK SMILES IDX 78 36 26 37 83 38 77 39 79 40 27 41 82 42 76 43 75 44 28 46
REMARK SMILES IDX 62 47 41 48 61 49 42 50 45 51 60 52 80 53 43 54 44 55 59 57
REMARK SMILES IDX 81 58 46 59 29 60 30 61 39 62 31 63 32 64 38 65 40 66 33 67
REMARK SMILES IDX 34 68 35 69 36 70 37 71 63 72 64 73 73 74 65 75 66 76 72 77
REMARK SMILES IDX 74 78 67 79 68 80 69 81 70 82 71 83 47 84 48 85 57 86 49 87
REMARK SMILES IDX 50 88 56 89 58 90 51 91 52 92 53 93 54 94 55 95
REMARK H PARENT 4 14 7 16 79 45 45 56
REMARK Flexibility Score: inf
ROOT
ATOM      1  C   UNL     1      -4.866  -3.487   0.877  1.00  0.00     0.274 C 
ENDROOT
BRANCH   1   2
ATOM      2  O   UNL     1      -3.448  -3.366   1.085  1.00  0.00    -0.462 OA
BRANCH   2   3
ATOM      3  C   UNL     1      -2.713  -4.490   1.268  1.00  0.00     0.309 C 
ATOM      4  O   UNL     1      -3.175  -5.610   1.429  1.00  0.00    -0.252 OA
BRANCH   3   5
ATOM      5  C   UNL     1      -1.211  -4.198   1.236  1.00  0.00     0.099 C 
ATOM      6  C   UNL     1      -0.176  -1.498   2.043  1.00  0.00     0.083 C 
ATOM      7  C   UNL     1      -0.627  -2.501   3.123  1.00  0.00     0.026 C 
ATOM      8  C   UNL     1      -1.090  -1.718   0.859  1.00  0.00     0.026 C 
ATOM      9  C   UNL     1      -0.597  -3.959   2.624  1.00  0.00     0.017 C 
ATOM     10  C   UNL     1      -0.852  -3.086   0.255  1.00  0.00     0.017 C 
BRANCH   6  11
ATOM     11  N   UNL     1      -0.255  -0.115   2.490  1.00  0.00    -0.335 N 
ATOM     12  N   UNL     1       0.171   1.177   0.541  1.00  0.00    -0.335 N 
ATOM     13  C   UNL     1      -0.200   1.055   1.826  1.00  0.00     0.315 C 
ATOM     14  H   UNL     1      -0.260   1.941   0.092  1.00  0.00     0.165 HD
ATOM     15  O   UNL     1      -0.562   2.068   2.431  1.00  0.00    -0.249 OA
ATOM     16  H   UNL     1      -0.371  -0.017   3.462  1.00  0.00     0.165 HD
BRANCH  12  17
ATOM     17  C   UNL     1       1.069   0.434  -0.348  1.00  0.00     0.152 C 
BRANCH  17  18
ATOM     18  C   UNL     1       0.696   0.529  -1.862  1.00  0.00     0.083 C 
ATOM     19  C   UNL     1       1.987   0.376  -2.685  1.00  0.00     0.044 C 
ATOM     20  C   UNL     1      -0.353  -0.468  -2.372  1.00  0.00     0.039 C 
ATOM     21  O   UNL     1       0.154   1.843  -2.161  1.00  0.00    -0.373 OA
ATOM     22  C   UNL     1      -1.002   0.271  -3.515  1.00  0.00     0.031 C 
ATOM     23  C   UNL     1      -1.038   1.674  -2.953  1.00  0.00     0.161 C 
ENDBRANCH  17  18
ENDBRANCH  12  17
ENDBRANCH   6  11
ENDBRANCH   3   5
ENDBRANCH   2   3
ENDBRANCH   1   2
BRANCH   1  24
ATOM     24  C   UNL     1      -5.196  -3.114  -0.569  1.00  0.00     0.275 C 
BRANCH  24  25
ATOM     25  O   UNL     1      -4.707  -4.138  -1.455  1.00  0.00    -0.458 OA
BRANCH  25  26
ATOM     26  C   UNL     1      -3.674  -3.793  -2.256  1.00  0.00     0.338 C 
ATOM     27  O   UNL     1      -3.156  -2.698  -2.381  1.00  0.00    -0.246 OA
BRANCH  26  28
ATOM     28  C   UNL     1      -3.172  -5.010  -2.910  1.00  0.00     0.060 A 
ATOM     29  C   UNL     1      -1.964  -5.562  -2.475  1.00  0.00     0.016 A 
ATOM     30  C   UNL     1      -3.870  -5.574  -3.978  1.00  0.00     0.016 A 
ATOM     31  C   UNL     1      -1.440  -6.682  -3.116  1.00  0.00     0.010 A 
ATOM     32  C   UNL     1      -3.350  -6.707  -4.610  1.00  0.00     0.010 A 
ATOM     33  C   UNL     1      -2.128  -7.260  -4.190  1.00  0.00    -0.014 A 
BRANCH  33  34
ATOM     34  C   UNL     1      -1.552  -8.426  -4.901  1.00  0.00     0.031 A 
ATOM     35  C   UNL     1      -0.987  -8.251  -6.282  1.00  0.00     0.074 A 
ATOM     36  C   UNL     1      -1.546  -9.635  -4.310  1.00  0.00     0.049 A 
ATOM     37  N   UNL     1      -0.538  -9.155  -7.112  1.00  0.00    -0.248 NA
ATOM     38  C   UNL     1      -0.925  -6.874  -6.798  1.00  0.00     0.031 C 
ATOM     39  C   UNL     1      -2.037  -9.917  -2.960  1.00  0.00     0.029 A 
ATOM     40  N   UNL     1      -1.125 -10.855  -4.774  1.00  0.00    -0.354 N 
ATOM     41  C   UNL     1      -0.160  -8.464  -8.256  1.00  0.00     0.074 A 
ATOM     42  C   UNL     1      -0.448  -7.065  -8.020  1.00  0.00     0.031 C 
ATOM     43  C   UNL     1      -1.895 -11.228  -2.708  1.00  0.00     0.029 A 
ATOM     44  C   UNL     1      -1.349 -11.885  -3.892  1.00  0.00     0.049 A 
ATOM     45  H   UNL     1      -0.702 -10.981  -5.654  1.00  0.00     0.167 HD
ATOM     46  C   UNL     1       0.381  -8.954  -9.397  1.00  0.00     0.037 A 
ATOM     47  C   UNL     1      -1.165 -13.212  -4.035  1.00  0.00     0.037 A 
ATOM     48  C   UNL     1       0.671 -10.348  -9.617  1.00  0.00     0.049 A 
ATOM     49  C   UNL     1      -0.610 -13.739  -5.331  1.00  0.00     0.074 A 
ATOM     50  C   UNL     1       1.234 -10.945 -10.732  1.00  0.00     0.029 A 
ATOM     51  N   UNL     1       0.421 -11.363  -8.705  1.00  0.00    -0.354 N 
ATOM     52  N   UNL     1      -0.253 -13.074  -6.405  1.00  0.00    -0.248 NA
ATOM     53  C   UNL     1      -0.434 -15.193  -5.437  1.00  0.00     0.031 C 
ATOM     54  C   UNL     1       1.285 -12.325 -10.510  1.00  0.00     0.029 A 
ATOM     55  C   UNL     1       0.799 -12.584  -9.238  1.00  0.00     0.049 A 
ATOM     56  H   UNL     1       0.031 -11.235  -7.810  1.00  0.00     0.167 HD
ATOM     57  C   UNL     1       0.210 -14.027  -7.305  1.00  0.00     0.074 A 
ATOM     58  C   UNL     1       0.098 -15.312  -6.646  1.00  0.00     0.031 C 
ATOM     59  C   UNL     1       0.686 -13.854  -8.564  1.00  0.00     0.037 A 
BRANCH  46  60
ATOM     60  C   UNL     1       0.665  -7.981 -10.507  1.00  0.00     0.058 A 
ATOM     61  C   UNL     1       1.723  -7.062 -10.434  1.00  0.00     0.135 A 
ATOM     62  C   UNL     1      -0.118  -7.986 -11.674  1.00  0.00     0.135 A 
ATOM     63  F   UNL     1       2.491  -7.002  -9.334  1.00  0.00    -0.206 F 
ATOM     64  C   UNL     1       1.980  -6.165 -11.466  1.00  0.00     0.059 A 
ATOM     65  C   UNL     1       0.137  -7.115 -12.729  1.00  0.00     0.059 A 
ATOM     66  F   UNL     1      -1.144  -8.843 -11.795  1.00  0.00    -0.206 F 
ATOM     67  C   UNL     1       1.179  -6.198 -12.609  1.00  0.00     0.060 A 
BRANCH  67  68
ATOM     68  S   UNL     1       1.522  -5.025 -13.938  1.00  0.00     0.124 S 
ATOM     69  O   UNL     1       1.023  -3.780 -13.362  1.00  0.00    -0.237 OA
ATOM     70  O   UNL     1       2.972  -5.123 -14.075  1.00  0.00    -0.237 OA
ATOM     71  O   UNL     1       0.752  -5.550 -15.062  1.00  0.00    -0.744 OA
ENDBRANCH  67  68
ENDBRANCH  46  60
BRANCH  47  72
ATOM     72  C   UNL     1      -1.529 -14.134  -2.928  1.00  0.00     0.058 A 
ATOM     73  C   UNL     1      -0.544 -14.808  -2.193  1.00  0.00     0.135 A 
ATOM     74  C   UNL     1      -2.871 -14.349  -2.573  1.00  0.00     0.135 A 
ATOM     75  F   UNL     1       0.752 -14.643  -2.500  1.00  0.00    -0.206 F 
ATOM     76  C   UNL     1      -0.873 -15.671  -1.152  1.00  0.00     0.059 A 
ATOM     77  C   UNL     1      -3.224 -15.187  -1.520  1.00  0.00     0.059 A 
ATOM     78  F   UNL     1      -3.852 -13.719  -3.238  1.00  0.00    -0.206 F 
ATOM     79  C   UNL     1      -2.217 -15.851  -0.821  1.00  0.00     0.060 A 
BRANCH  79  80
ATOM     80  S   UNL     1      -2.632 -16.931   0.565  1.00  0.00     0.124 S 
ATOM     81  O   UNL     1      -2.403 -18.250  -0.013  1.00  0.00    -0.237 OA
ATOM     82  O   UNL     1      -1.677 -16.506   1.584  1.00  0.00    -0.237 OA
ATOM     83  O   UNL     1      -4.025 -16.597   0.845  1.00  0.00    -0.744 OA
ENDBRANCH  79  80
ENDBRANCH  47  72
BRANCH  59  84
ATOM     84  C   UNL     1       1.155 -15.078  -9.299  1.00  0.00     0.058 A 
ATOM     85  C   UNL     1       0.252 -16.014  -9.825  1.00  0.00     0.135 A 
ATOM     86  C   UNL     1       2.525 -15.289  -9.523  1.00  0.00     0.135 A 
ATOM     87  F   UNL     1      -1.068 -15.862  -9.633  1.00  0.00    -0.206 F 
ATOM     88  C   UNL     1       0.692 -17.129 -10.532  1.00  0.00     0.059 A 
ATOM     89  C   UNL     1       2.986 -16.384 -10.248  1.00  0.00     0.059 A 
ATOM     90  F   UNL     1       3.430 -14.418  -9.048  1.00  0.00    -0.206 F 
ATOM     91  C   UNL     1       2.061 -17.304 -10.739  1.00  0.00     0.060 A 
BRANCH  91  92
ATOM     92  S   UNL     1       2.619 -18.736 -11.687  1.00  0.00     0.124 S 
ATOM     93  O   UNL     1       2.452 -19.814 -10.718  1.00  0.00    -0.237 OA
ATOM     94  O   UNL     1       1.691 -18.746 -12.814  1.00  0.00    -0.237 OA
ATOM     95  O   UNL     1       4.000 -18.402 -12.024  1.00  0.00    -0.744 OA
ENDBRANCH  91  92
ENDBRANCH  59  84
ENDBRANCH  33  34
ENDBRANCH  26  28
ENDBRANCH  25  26
ENDBRANCH  24  25
ENDBRANCH   1  24
TORSDOF 17
