REMARK SMILES CC1=Nc2c(c(C)nn2-c2ccc(F)cc2)[C@H](c2ccc(C(=O)OCCOC(=O)c3ccc(-c4c5nc(c(-c6c(F)cc(S(=O)(=O)[O-])cc6F)c6ccc([nH]6)c(-c6c(F)cc(S(=O)(=O)[O-])cc6F)c6nc(c(-c7c(F)cc(S(=O)(=O)[O-])cc7F)c7ccc4[nH]7)C=C6)C=C5)cc3)cc2)S1
REMARK SMILES IDX 26 1 25 2 24 3 22 4 23 5 21 6 18 7 19 8 97 9 20 10 96 11
REMARK SMILES IDX 17 12 1 13 2 14 3 15 98 16 4 17 5 18 9 19 6 20 8 21 7 22
REMARK SMILES IDX 10 23 11 24 16 25 12 26 15 27 13 28 14 29 27 30 28 31 29 32
REMARK SMILES IDX 30 33 31 34 95 35 32 36 94 37 33 38 34 39 35 40 88 41 36 42
REMARK SMILES IDX 93 43 87 44 89 45 37 46 92 47 86 48 85 49 38 51 72 52 51 53
REMARK SMILES IDX 71 54 52 55 55 56 70 57 90 58 53 59 54 60 69 62 91 63 56 64
REMARK SMILES IDX 39 65 40 66 49 67 41 68 42 69 48 70 50 71 43 72 44 73 45 74
REMARK SMILES IDX 46 75 47 76 73 77 74 78 83 79 75 80 76 81 82 82 84 83 77 84
REMARK SMILES IDX 78 85 79 86 80 87 81 88 57 89 58 90 67 91 59 92 60 93 66 94
REMARK SMILES IDX 68 95 61 96 62 97 63 98 64 99 65 100
REMARK H PARENT 89 50 55 61
REMARK Flexibility Score: inf
ROOT
ATOM      1  C   UNL     1       6.606  -4.148   7.382  1.00  0.00     0.275 C 
ENDROOT
BRANCH   1   2
ATOM      2  C   UNL     1       6.083  -5.115   6.328  1.00  0.00     0.275 C 
BRANCH   2   3
ATOM      3  O   UNL     1       5.041  -4.510   5.543  1.00  0.00    -0.458 OA
BRANCH   3   4
ATOM      4  C   UNL     1       3.782  -4.701   6.011  1.00  0.00     0.338 C 
ATOM      5  O   UNL     1       3.459  -5.485   6.893  1.00  0.00    -0.246 OA
BRANCH   4   6
ATOM      6  C   UNL     1       2.810  -3.784   5.360  1.00  0.00     0.060 A 
ATOM      7  C   UNL     1       0.815  -2.161   4.162  1.00  0.00    -0.030 A 
ATOM      8  C   UNL     1       0.564  -2.871   5.350  1.00  0.00     0.006 A 
ATOM      9  C   UNL     1       2.115  -2.232   3.625  1.00  0.00     0.006 A 
ATOM     10  C   UNL     1       1.548  -3.659   5.949  1.00  0.00     0.016 A 
ATOM     11  C   UNL     1       3.099  -3.046   4.209  1.00  0.00     0.016 A 
BRANCH   7  12
ATOM     12  C   UNL     1      -0.337  -1.412   3.504  1.00  0.00     0.119 C 
ATOM     13  C   UNL     1       0.972   0.036  -0.160  1.00  0.00     0.075 C 
ATOM     14  C   UNL     1       0.355   0.005   1.214  1.00  0.00     0.074 C 
ATOM     15  N   UNL     1       0.406   1.093   1.911  1.00  0.00    -0.227 NA
ATOM     16  S   UNL     1      -0.359  -1.529   1.682  1.00  0.00    -0.098 SA
ATOM     17  C   UNL     1      -0.050   1.065   3.185  1.00  0.00     0.161 A 
ATOM     18  C   UNL     1      -0.342  -0.014   3.990  1.00  0.00     0.038 A 
ATOM     19  N   UNL     1      -0.230   2.199   3.963  1.00  0.00    -0.215 N 
ATOM     20  C   UNL     1      -0.689   0.558   5.244  1.00  0.00     0.067 A 
ATOM     21  N   UNL     1      -0.527   1.887   5.247  1.00  0.00    -0.171 NA
ATOM     22  C   UNL     1      -1.179  -0.109   6.477  1.00  0.00     0.069 C 
BRANCH  19  23
ATOM     23  C   UNL     1      -0.190   3.545   3.530  1.00  0.00     0.067 A 
ATOM     24  C   UNL     1      -0.770   3.900   2.302  1.00  0.00     0.031 A 
ATOM     25  C   UNL     1       0.445   4.508   4.323  1.00  0.00     0.031 A 
ATOM     26  C   UNL     1      -0.694   5.219   1.859  1.00  0.00     0.041 A 
ATOM     27  C   UNL     1       0.564   5.814   3.845  1.00  0.00     0.041 A 
ATOM     28  C   UNL     1      -0.008   6.157   2.622  1.00  0.00     0.123 A 
ATOM     29  F   UNL     1       0.104   7.412   2.166  1.00  0.00    -0.207 F 
ENDBRANCH  19  23
ENDBRANCH   7  12
ENDBRANCH   4   6
ENDBRANCH   3   4
ENDBRANCH   2   3
ENDBRANCH   1   2
BRANCH   1  30
ATOM     30  O   UNL     1       5.644  -3.907   8.409  1.00  0.00    -0.458 OA
BRANCH  30  31
ATOM     31  C   UNL     1       4.899  -2.791   8.236  1.00  0.00     0.338 C 
ATOM     32  O   UNL     1       4.682  -2.210   7.186  1.00  0.00    -0.246 OA
BRANCH  31  33
ATOM     33  C   UNL     1       4.589  -2.212   9.551  1.00  0.00     0.060 A 
ATOM     34  C   UNL     1       3.884  -1.005   9.564  1.00  0.00     0.016 A 
ATOM     35  C   UNL     1       5.215  -2.710  10.704  1.00  0.00     0.016 A 
ATOM     36  C   UNL     1       3.935  -0.221  10.698  1.00  0.00     0.010 A 
ATOM     37  C   UNL     1       5.274  -1.921  11.831  1.00  0.00     0.010 A 
ATOM     38  C   UNL     1       4.689  -0.657  11.793  1.00  0.00    -0.014 A 
BRANCH  38  39
ATOM     39  C   UNL     1       4.778   0.218  12.945  1.00  0.00     0.031 A 
ATOM     40  C   UNL     1       3.514   0.335  13.710  1.00  0.00     0.074 A 
ATOM     41  C   UNL     1       5.937   0.759  13.364  1.00  0.00     0.049 A 
ATOM     42  N   UNL     1       2.788   1.385  13.900  1.00  0.00    -0.248 NA
ATOM     43  C   UNL     1       2.918  -0.913  14.214  1.00  0.00     0.031 C 
ATOM     44  C   UNL     1       7.290   0.469  12.882  1.00  0.00     0.029 A 
ATOM     45  N   UNL     1       6.152   1.605  14.406  1.00  0.00    -0.354 N 
ATOM     46  C   UNL     1       1.756   0.974  14.736  1.00  0.00     0.074 A 
ATOM     47  C   UNL     1       1.783  -0.465  14.748  1.00  0.00     0.031 C 
ATOM     48  C   UNL     1       8.187   0.951  13.773  1.00  0.00     0.029 A 
ATOM     49  C   UNL     1       7.478   1.682  14.810  1.00  0.00     0.049 A 
ATOM     50  H   UNL     1       5.431   2.118  14.837  1.00  0.00     0.167 HD
ATOM     51  C   UNL     1       1.113   1.847  15.557  1.00  0.00     0.037 A 
ATOM     52  C   UNL     1       7.933   2.229  15.965  1.00  0.00     0.037 A 
ATOM     53  C   UNL     1       1.302   3.211  15.141  1.00  0.00     0.049 A 
ATOM     54  C   UNL     1       6.879   3.156  16.459  1.00  0.00     0.074 A 
ATOM     55  C   UNL     1       1.032   3.920  13.986  1.00  0.00     0.029 A 
ATOM     56  N   UNL     1       2.181   3.985  15.858  1.00  0.00    -0.354 N 
ATOM     57  N   UNL     1       6.526   4.259  15.857  1.00  0.00    -0.248 NA
ATOM     58  C   UNL     1       5.922   2.648  17.431  1.00  0.00     0.031 C 
ATOM     59  C   UNL     1       2.107   4.846  13.856  1.00  0.00     0.029 A 
ATOM     60  C   UNL     1       2.950   4.676  14.957  1.00  0.00     0.049 A 
ATOM     61  H   UNL     1       2.248   4.034  16.839  1.00  0.00     0.167 HD
ATOM     62  C   UNL     1       5.156   4.352  16.054  1.00  0.00     0.074 A 
ATOM     63  C   UNL     1       4.863   3.400  17.121  1.00  0.00     0.031 C 
ATOM     64  C   UNL     1       4.351   4.985  15.152  1.00  0.00     0.037 A 
BRANCH  51  65
ATOM     65  C   UNL     1       0.633   1.473  16.937  1.00  0.00     0.058 A 
ATOM     66  C   UNL     1       1.200   0.426  17.699  1.00  0.00     0.135 A 
ATOM     67  C   UNL     1      -0.216   2.349  17.640  1.00  0.00     0.135 A 
ATOM     68  F   UNL     1       2.111  -0.416  17.195  1.00  0.00    -0.206 F 
ATOM     69  C   UNL     1       0.943   0.253  19.050  1.00  0.00     0.059 A 
ATOM     70  C   UNL     1      -0.440   2.230  19.014  1.00  0.00     0.059 A 
ATOM     71  F   UNL     1      -0.786   3.393  17.017  1.00  0.00    -0.206 F 
ATOM     72  C   UNL     1       0.150   1.180  19.709  1.00  0.00     0.060 A 
BRANCH  72  73
ATOM     73  S   UNL     1       0.025   1.044  21.500  1.00  0.00     0.124 S 
ATOM     74  O   UNL     1      -0.797  -0.153  21.642  1.00  0.00    -0.237 OA
ATOM     75  O   UNL     1       1.425   0.905  21.889  1.00  0.00    -0.237 OA
ATOM     76  O   UNL     1      -0.610   2.298  21.887  1.00  0.00    -0.744 OA
ENDBRANCH  72  73
ENDBRANCH  51  65
BRANCH  52  77
ATOM     77  C   UNL     1       9.030   1.730  16.837  1.00  0.00     0.058 A 
ATOM     78  C   UNL     1       9.440   0.381  16.818  1.00  0.00     0.135 A 
ATOM     79  C   UNL     1       9.502   2.504  17.914  1.00  0.00     0.135 A 
ATOM     80  F   UNL     1       9.014  -0.466  15.870  1.00  0.00    -0.206 F 
ATOM     81  C   UNL     1      10.222  -0.178  17.825  1.00  0.00     0.059 A 
ATOM     82  C   UNL     1      10.278   1.961  18.944  1.00  0.00     0.059 A 
ATOM     83  F   UNL     1       9.150   3.795  18.020  1.00  0.00    -0.206 F 
ATOM     84  C   UNL     1      10.607   0.609  18.904  1.00  0.00     0.060 A 
BRANCH  84  85
ATOM     85  S   UNL     1      11.454  -0.202  20.277  1.00  0.00     0.124 S 
ATOM     86  O   UNL     1      10.451  -1.168  20.716  1.00  0.00    -0.237 OA
ATOM     87  O   UNL     1      12.627  -0.769  19.619  1.00  0.00    -0.237 OA
ATOM     88  O   UNL     1      11.724   0.889  21.206  1.00  0.00    -0.744 OA
ENDBRANCH  84  85
ENDBRANCH  52  77
BRANCH  64  89
ATOM     89  C   UNL     1       4.994   5.878  14.121  1.00  0.00     0.058 A 
ATOM     90  C   UNL     1       4.577   7.217  14.056  1.00  0.00     0.135 A 
ATOM     91  C   UNL     1       5.871   5.430  13.117  1.00  0.00     0.135 A 
ATOM     92  F   UNL     1       3.697   7.693  14.953  1.00  0.00    -0.206 F 
ATOM     93  C   UNL     1       5.003   8.073  13.046  1.00  0.00     0.059 A 
ATOM     94  C   UNL     1       6.339   6.281  12.113  1.00  0.00     0.059 A 
ATOM     95  F   UNL     1       6.240   4.143  13.048  1.00  0.00    -0.206 F 
ATOM     96  C   UNL     1       5.886   7.598  12.078  1.00  0.00     0.060 A 
BRANCH  96  97
ATOM     97  S   UNL     1       6.401   8.725  10.765  1.00  0.00     0.124 S 
ATOM     98  O   UNL     1       5.159   8.904  10.017  1.00  0.00    -0.237 OA
ATOM     99  O   UNL     1       6.855   9.893  11.516  1.00  0.00    -0.237 OA
ATOM    100  O   UNL     1       7.450   7.991  10.064  1.00  0.00    -0.744 OA
ENDBRANCH  96  97
ENDBRANCH  64  89
ENDBRANCH  38  39
ENDBRANCH  31  33
ENDBRANCH  30  31
ENDBRANCH   1  30
TORSDOF 16
