REMARK SMILES O=C(OCCOC(=O)c1cnc(-c2ccccc2Cl)nc1)c1ccc(-c2c3nc(c(-c4c(F)cc(S(=O)(=O)[O-])cc4F)c4ccc([nH]4)c(-c4c(F)cc(S(=O)(=O)[O-])cc4F)c4nc(c(-c5c(F)cc(S(=O)(=O)[O-])cc5F)c5ccc2[nH]5)C=C4)C=C3)cc1
REMARK SMILES IDX 4 1 3 2 2 3 1 4 22 5 23 6 87 7 24 8 86 9 25 10 26 11 27 12
REMARK SMILES IDX 80 13 28 14 85 15 79 16 81 17 29 18 84 19 78 20 77 21 30 23
REMARK SMILES IDX 64 24 43 25 63 26 44 27 47 28 62 29 82 30 45 31 46 32 61 34
REMARK SMILES IDX 83 35 48 36 31 37 32 38 41 39 33 40 34 41 40 42 42 43 35 44
REMARK SMILES IDX 36 45 37 46 38 47 39 48 65 49 66 50 75 51 67 52 68 53 74 54
REMARK SMILES IDX 76 55 69 56 70 57 71 58 72 59 73 60 49 61 50 62 59 63 51 64
REMARK SMILES IDX 52 65 58 66 60 67 53 68 54 69 55 70 56 71 57 72 5 73 6 74
REMARK SMILES IDX 7 75 8 76 9 77 10 78 21 79 11 80 20 81 12 82 13 83 14 84
REMARK SMILES IDX 18 85 15 86 17 87 19 88 16 89
REMARK H PARENT 81 22 47 33
REMARK Flexibility Score: inf
ROOT
ATOM      1  C   UNL     1       4.247  -1.510   0.556  1.00  0.00     0.275 C 
ENDROOT
BRANCH   1   2
ATOM      2  O   UNL     1       3.166  -0.704   1.045  1.00  0.00    -0.458 OA
BRANCH   2   3
ATOM      3  C   UNL     1       2.887   0.601   0.828  1.00  0.00     0.338 C 
ATOM      4  O   UNL     1       1.966   1.104   1.472  1.00  0.00    -0.246 OA
BRANCH   3   5
ATOM      5  C   UNL     1       3.540   1.443  -0.232  1.00  0.00     0.060 A 
ATOM      6  C   UNL     1       4.747   1.193  -0.897  1.00  0.00     0.016 A 
ATOM      7  C   UNL     1       2.831   2.594  -0.605  1.00  0.00     0.016 A 
ATOM      8  C   UNL     1       5.196   2.003  -1.948  1.00  0.00     0.010 A 
ATOM      9  C   UNL     1       3.287   3.417  -1.634  1.00  0.00     0.010 A 
ATOM     10  C   UNL     1       4.465   3.121  -2.329  1.00  0.00    -0.014 A 
BRANCH  10  11
ATOM     11  C   UNL     1       5.016   4.103  -3.291  1.00  0.00     0.031 A 
ATOM     12  C   UNL     1       5.539   5.390  -2.733  1.00  0.00     0.074 A 
ATOM     13  C   UNL     1       5.038   3.871  -4.617  1.00  0.00     0.049 A 
ATOM     14  N   UNL     1       5.980   6.446  -3.358  1.00  0.00    -0.248 NA
ATOM     15  C   UNL     1       5.584   5.490  -1.264  1.00  0.00     0.031 C 
ATOM     16  C   UNL     1       4.644   2.624  -5.260  1.00  0.00     0.029 A 
ATOM     17  N   UNL     1       5.372   4.688  -5.669  1.00  0.00    -0.354 N 
ATOM     18  C   UNL     1       6.360   7.331  -2.360  1.00  0.00     0.074 A 
ATOM     19  C   UNL     1       6.038   6.718  -1.092  1.00  0.00     0.031 C 
ATOM     20  C   UNL     1       4.659   2.781  -6.594  1.00  0.00     0.029 A 
ATOM     21  C   UNL     1       5.083   4.142  -6.901  1.00  0.00     0.049 A 
ATOM     22  H   UNL     1       5.779   5.577  -5.555  1.00  0.00     0.167 HD
ATOM     23  C   UNL     1       6.953   8.538  -2.493  1.00  0.00     0.037 A 
ATOM     24  C   UNL     1       5.131   4.690  -8.132  1.00  0.00     0.037 A 
ATOM     25  C   UNL     1       7.233   9.139  -3.766  1.00  0.00     0.049 A 
ATOM     26  C   UNL     1       5.660   6.090  -8.265  1.00  0.00     0.074 A 
ATOM     27  C   UNL     1       7.827  10.356  -4.033  1.00  0.00     0.029 A 
ATOM     28  N   UNL     1       6.908   8.567  -4.990  1.00  0.00    -0.354 N 
ATOM     29  N   UNL     1       6.052   6.909  -7.317  1.00  0.00    -0.248 NA
ATOM     30  C   UNL     1       5.788   6.634  -9.623  1.00  0.00     0.031 C 
ATOM     31  C   UNL     1       7.813  10.545  -5.419  1.00  0.00     0.029 A 
ATOM     32  C   UNL     1       7.267   9.418  -6.019  1.00  0.00     0.049 A 
ATOM     33  H   UNL     1       6.485   7.686  -5.108  1.00  0.00     0.167 HD
ATOM     34  C   UNL     1       6.529   8.041  -7.963  1.00  0.00     0.074 A 
ATOM     35  C   UNL     1       6.347   7.814  -9.384  1.00  0.00     0.031 C 
ATOM     36  C   UNL     1       7.092   9.153  -7.428  1.00  0.00     0.037 A 
BRANCH  23  37
ATOM     37  C   UNL     1       7.279   9.268  -1.222  1.00  0.00     0.058 A 
ATOM     38  C   UNL     1       8.260   8.797  -0.331  1.00  0.00     0.135 A 
ATOM     39  C   UNL     1       6.544  10.403  -0.847  1.00  0.00     0.135 A 
ATOM     40  F   UNL     1       8.973   7.698  -0.628  1.00  0.00    -0.206 F 
ATOM     41  C   UNL     1       8.454   9.386   0.913  1.00  0.00     0.059 A 
ATOM     42  C   UNL     1       6.745  11.028   0.380  1.00  0.00     0.059 A 
ATOM     43  F   UNL     1       5.593  10.891  -1.657  1.00  0.00    -0.206 F 
ATOM     44  C   UNL     1       7.682  10.494   1.265  1.00  0.00     0.060 A 
BRANCH  44  45
ATOM     45  S   UNL     1       7.898  11.209   2.907  1.00  0.00     0.124 S 
ATOM     46  O   UNL     1       7.245  10.210   3.747  1.00  0.00    -0.237 OA
ATOM     47  O   UNL     1       9.351  11.284   3.027  1.00  0.00    -0.237 OA
ATOM     48  O   UNL     1       7.213  12.494   2.812  1.00  0.00    -0.744 OA
ENDBRANCH  44  45
ENDBRANCH  23  37
BRANCH  24  49
ATOM     49  C   UNL     1       4.661   3.912  -9.310  1.00  0.00     0.058 A 
ATOM     50  C   UNL     1       5.548   3.341 -10.230  1.00  0.00     0.135 A 
ATOM     51  C   UNL     1       3.290   3.684  -9.505  1.00  0.00     0.135 A 
ATOM     52  F   UNL     1       6.868   3.545 -10.104  1.00  0.00    -0.206 F 
ATOM     53  C   UNL     1       5.096   2.559 -11.292  1.00  0.00     0.059 A 
ATOM     54  C   UNL     1       2.812   2.889 -10.543  1.00  0.00     0.059 A 
ATOM     55  F   UNL     1       2.402   4.230  -8.664  1.00  0.00    -0.206 F 
ATOM     56  C   UNL     1       3.725   2.327 -11.432  1.00  0.00     0.060 A 
BRANCH  56  57
ATOM     57  S   UNL     1       3.157   1.240 -12.761  1.00  0.00     0.124 S 
ATOM     58  O   UNL     1       3.420   2.053 -13.943  1.00  0.00    -0.237 OA
ATOM     59  O   UNL     1       4.014   0.072 -12.585  1.00  0.00    -0.237 OA
ATOM     60  O   UNL     1       1.748   1.027 -12.443  1.00  0.00    -0.744 OA
ENDBRANCH  56  57
ENDBRANCH  24  49
BRANCH  36  61
ATOM     61  C   UNL     1       7.625  10.188  -8.373  1.00  0.00     0.058 A 
ATOM     62  C   UNL     1       6.782  11.079  -9.050  1.00  0.00     0.135 A 
ATOM     63  C   UNL     1       9.014  10.369  -8.491  1.00  0.00     0.135 A 
ATOM     64  F   UNL     1       5.449  10.938  -8.977  1.00  0.00    -0.206 F 
ATOM     65  C   UNL     1       7.299  12.126  -9.805  1.00  0.00     0.059 A 
ATOM     66  C   UNL     1       9.551  11.423  -9.217  1.00  0.00     0.059 A 
ATOM     67  F   UNL     1       9.859   9.542  -7.855  1.00  0.00    -0.206 F 
ATOM     68  C   UNL     1       8.684  12.299  -9.868  1.00  0.00     0.060 A 
BRANCH  68  69
ATOM     69  S   UNL     1       9.338  13.723 -10.764  1.00  0.00     0.124 S 
ATOM     70  O   UNL     1       9.111  13.329 -12.150  1.00  0.00    -0.237 OA
ATOM     71  O   UNL     1       8.501  14.812 -10.268  1.00  0.00    -0.237 OA
ATOM     72  O   UNL     1      10.736  13.775 -10.346  1.00  0.00    -0.744 OA
ENDBRANCH  68  69
ENDBRANCH  36  61
ENDBRANCH  10  11
ENDBRANCH   3   5
ENDBRANCH   2   3
ENDBRANCH   1   2
BRANCH   1  73
ATOM     73  C   UNL     1       3.972  -2.164  -0.804  1.00  0.00     0.275 C 
BRANCH  73  74
ATOM     74  O   UNL     1       3.469  -1.262  -1.808  1.00  0.00    -0.458 OA
BRANCH  74  75
ATOM     75  C   UNL     1       2.112  -1.180  -1.902  1.00  0.00     0.341 C 
ATOM     76  O   UNL     1       1.303  -1.812  -1.258  1.00  0.00    -0.246 OA
BRANCH  75  77
ATOM     77  C   UNL     1       1.735  -0.114  -2.838  1.00  0.00     0.096 A 
ATOM     78  C   UNL     1       2.293   0.037  -4.080  1.00  0.00     0.131 A 
ATOM     79  C   UNL     1       0.757   0.800  -2.515  1.00  0.00     0.131 A 
ATOM     80  N   UNL     1       1.928   1.016  -4.941  1.00  0.00    -0.236 NA
ATOM     81  N   UNL     1       0.385   1.826  -3.321  1.00  0.00    -0.236 NA
ATOM     82  C   UNL     1       1.012   1.914  -4.512  1.00  0.00     0.160 A 
BRANCH  82  83
ATOM     83  C   UNL     1       0.563   2.932  -5.473  1.00  0.00     0.038 A 
ATOM     84  C   UNL     1       0.107   2.508  -6.739  1.00  0.00     0.013 A 
ATOM     85  C   UNL     1       0.550   4.317  -5.226  1.00  0.00     0.052 A 
ATOM     86  C   UNL     1      -0.358   3.413  -7.698  1.00  0.00     0.001 A 
ATOM     87  C   UNL     1       0.116   5.229  -6.201  1.00  0.00     0.021 A 
ATOM     88  Cl  UNL     1       1.056   5.016  -3.735  1.00  0.00    -0.084 Cl
ATOM     89  C   UNL     1      -0.348   4.777  -7.431  1.00  0.00     0.002 A 
ENDBRANCH  82  83
ENDBRANCH  75  77
ENDBRANCH  74  75
ENDBRANCH  73  74
ENDBRANCH   1  73
TORSDOF 15
