REMARK SMILES Cc1ccc(S(=O)(=O)n2cc(C(=O)C(=O)N[C@H](Cc3c[nH]c4ccccc34)C(=O)NCC(=O)OCCOC(=O)c3ccc(-c4c5nc(c(-c6c(F)cc(S(=O)(=O)[O-])cc6F)c6ccc([nH]6)c(-c6c(F)cc(S(=O)(=O)[O-])cc6F)c6nc(c(-c7c(F)cc(S(=O)(=O)[O-])cc7F)c7ccc4[nH]7)C=C6)C=C5)cc3)c3ccccc32)cc1
REMARK SMILES IDX 32 1 33 2 31 3 30 4 28 5 29 6 17 8 16 9 14 10 15 11 12 13
REMARK SMILES IDX 13 14 11 15 9 16 10 17 111 18 106 19 110 20 107 21 109 22
REMARK SMILES IDX 108 23 6 24 7 25 8 26 5 27 1 28 2 29 3 30 113 31 4 32 112 33
REMARK SMILES IDX 18 34 19 35 20 36 27 37 21 38 22 39 26 40 23 42 25 43 24 44
REMARK SMILES IDX 34 45 35 46 36 47 37 48 38 49 39 50 40 51 41 52 105 53 42 54
REMARK SMILES IDX 104 55 43 56 44 57 45 58 98 59 46 60 103 61 97 62 99 63
REMARK SMILES IDX 47 64 102 65 96 66 95 67 48 69 82 70 61 71 81 72 62 73 65 74
REMARK SMILES IDX 80 75 100 76 63 77 64 78 79 80 101 81 66 82 49 83 50 84
REMARK SMILES IDX 59 85 51 86 52 87 58 88 60 89 53 90 54 91 55 92 56 93 57 94
REMARK SMILES IDX 83 95 84 96 93 97 85 98 86 99 92 100 94 101 87 102 88 103
REMARK SMILES IDX 89 104 90 105 91 106 67 107 68 108 77 109 69 110 70 111
REMARK SMILES IDX 76 112 78 113 71 114 72 115 73 116 74 117 75 118
REMARK H PARENT 30 7 16 12 21 41 99 68 65 79
REMARK Flexibility Score: inf
ROOT
ATOM      1  C   UNL     1     -10.718   3.764  -4.508  1.00  0.00     0.325 C 
ATOM      2  O   UNL     1     -11.129   3.635  -5.650  1.00  0.00    -0.250 OA
ENDROOT
BRANCH   1   3
ATOM      3  C   UNL     1     -11.217   2.949  -3.219  1.00  0.00     0.238 C 
BRANCH   3   4
ATOM      4  N   UNL     1     -11.610   1.631  -2.715  1.00  0.00    -0.343 N 
ATOM      5  C   UNL     1     -11.810   1.234  -1.400  1.00  0.00     0.243 C 
ATOM      6  O   UNL     1     -12.618   0.303  -1.242  1.00  0.00    -0.273 OA
ATOM      7  H   UNL     1     -11.752   0.937  -3.398  1.00  0.00     0.164 HD
BRANCH   5   8
ATOM      8  C   UNL     1     -11.067   1.790  -0.081  1.00  0.00     0.176 C 
BRANCH   8   9
ATOM      9  N   UNL     1     -11.885   2.325   1.298  1.00  0.00    -0.337 N 
ATOM     10  C   UNL     1     -12.646   3.400   1.965  1.00  0.00     0.293 C 
ATOM     11  O   UNL     1     -12.692   3.233   3.193  1.00  0.00    -0.265 OA
ATOM     12  H   UNL     1     -11.829   1.589   1.949  1.00  0.00     0.164 HD
BRANCH  10  13
ATOM     13  C   UNL     1     -13.567   4.755   1.312  1.00  0.00     0.252 C 
ATOM     14  O   UNL     1     -14.790   4.625   1.294  1.00  0.00    -0.283 OA
BRANCH  13  15
ATOM     15  C   UNL     1     -12.899   6.306   0.938  1.00  0.00     0.054 A 
ATOM     16  N   UNL     1     -11.104   7.370   3.167  1.00  0.00    -0.240 N 
ATOM     17  C   UNL     1     -12.535   6.298   2.715  1.00  0.00     0.117 A 
ATOM     18  C   UNL     1     -10.059   7.574   1.494  1.00  0.00     0.065 A 
ATOM     19  C   UNL     1     -11.232   7.195   0.031  1.00  0.00     0.012 A 
ATOM     20  C   UNL     1      -8.797   8.136   1.037  1.00  0.00     0.028 A 
ATOM     21  C   UNL     1     -10.985   8.115  -1.080  1.00  0.00     0.011 A 
ATOM     22  C   UNL     1      -8.713   8.731  -0.269  1.00  0.00     0.002 A 
ATOM     23  C   UNL     1      -9.749   8.775  -1.233  1.00  0.00     0.001 A 
BRANCH  16  24
ATOM     24  S   UNL     1     -12.960   8.169   4.175  1.00  0.00     0.268 S 
ATOM     25  O   UNL     1     -12.833   7.389   5.408  1.00  0.00    -0.201 OA
ATOM     26  O   UNL     1     -14.027   7.774   3.278  1.00  0.00    -0.201 OA
BRANCH  24  27
ATOM     27  C   UNL     1     -14.185   9.773   4.858  1.00  0.00     0.088 A 
ATOM     28  C   UNL     1     -15.598  13.397   6.730  1.00  0.00     0.044 C 
ATOM     29  C   UNL     1     -15.568  12.048   6.075  1.00  0.00    -0.051 A 
ATOM     30  C   UNL     1     -15.392  12.028   4.733  1.00  0.00     0.005 A 
ATOM     31  C   UNL     1     -15.457  10.801   6.710  1.00  0.00     0.005 A 
ATOM     32  C   UNL     1     -14.792  10.885   4.170  1.00  0.00     0.022 A 
ATOM     33  C   UNL     1     -14.797   9.661   6.101  1.00  0.00     0.022 A 
ENDBRANCH  24  27
ENDBRANCH  16  24
ENDBRANCH  13  15
ENDBRANCH  10  13
ENDBRANCH   8   9
BRANCH   8  34
ATOM     34  C   UNL     1      -9.532   2.186  -0.183  1.00  0.00     0.072 C 
BRANCH  34  35
ATOM     35  C   UNL     1      -8.760   2.071  -1.462  1.00  0.00    -0.020 A 
ATOM     36  C   UNL     1      -8.125   3.105  -2.136  1.00  0.00     0.087 A 
ATOM     37  C   UNL     1      -8.492   0.896  -2.205  1.00  0.00     0.003 A 
ATOM     38  N   UNL     1      -7.743   2.644  -3.365  1.00  0.00    -0.361 N 
ATOM     39  C   UNL     1      -7.930   1.286  -3.421  1.00  0.00     0.046 A 
ATOM     40  C   UNL     1      -8.735  -0.464  -1.965  1.00  0.00     0.010 A 
ATOM     41  H   UNL     1      -7.389   3.200  -4.096  1.00  0.00     0.166 HD
ATOM     42  C   UNL     1      -7.654   0.381  -4.446  1.00  0.00     0.026 A 
ATOM     43  C   UNL     1      -8.413  -1.389  -2.956  1.00  0.00     0.001 A 
ATOM     44  C   UNL     1      -7.897  -0.970  -4.181  1.00  0.00     0.002 A 
ENDBRANCH  34  35
ENDBRANCH   8  34
ENDBRANCH   5   8
ENDBRANCH   3   4
ENDBRANCH   1   3
BRANCH   1  45
ATOM     45  O   UNL     1      -9.909   4.816  -4.128  1.00  0.00    -0.461 OA
BRANCH  45  46
ATOM     46  C   UNL     1      -9.903   6.176  -4.714  1.00  0.00     0.274 C 
BRANCH  46  47
ATOM     47  C   UNL     1     -11.258   6.867  -5.077  1.00  0.00     0.275 C 
BRANCH  47  48
ATOM     48  O   UNL     1     -12.182   7.050  -3.996  1.00  0.00    -0.458 OA
BRANCH  48  49
ATOM     49  C   UNL     1     -12.977   5.991  -3.719  1.00  0.00     0.338 C 
ATOM     50  O   UNL     1     -13.567   5.268  -4.502  1.00  0.00    -0.246 OA
BRANCH  49  51
ATOM     51  C   UNL     1     -12.523   5.562  -2.388  1.00  0.00     0.060 A 
ATOM     52  C   UNL     1     -13.208   4.695  -1.639  1.00  0.00     0.016 A 
ATOM     53  C   UNL     1     -11.139   5.676  -2.066  1.00  0.00     0.016 A 
ATOM     54  C   UNL     1     -12.449   4.228  -0.577  1.00  0.00     0.010 A 
ATOM     55  C   UNL     1     -10.417   5.189  -0.953  1.00  0.00     0.010 A 
ATOM     56  C   UNL     1     -11.229   4.826   0.066  1.00  0.00    -0.014 A 
BRANCH  56  57
ATOM     57  C   UNL     1     -11.104   6.062   1.497  1.00  0.00     0.031 A 
ATOM     58  C   UNL     1      -9.844   5.321   2.426  1.00  0.00     0.074 A 
ATOM     59  C   UNL     1     -11.892   7.867   1.568  1.00  0.00     0.049 A 
ATOM     60  N   UNL     1      -9.121   5.931   3.304  1.00  0.00    -0.248 NA
ATOM     61  C   UNL     1      -9.361   3.955   2.318  1.00  0.00     0.031 C 
ATOM     62  C   UNL     1     -10.920   9.422   1.764  1.00  0.00     0.029 A 
ATOM     63  N   UNL     1     -12.843   8.710   0.826  1.00  0.00    -0.354 N 
ATOM     64  C   UNL     1      -7.942   5.242   3.506  1.00  0.00     0.074 A 
ATOM     65  C   UNL     1      -8.168   3.960   2.926  1.00  0.00     0.031 C 
ATOM     66  C   UNL     1     -11.289  10.451   1.021  1.00  0.00     0.029 A 
ATOM     67  C   UNL     1     -12.627  10.113   0.949  1.00  0.00     0.049 A 
ATOM     68  H   UNL     1     -13.574   8.333   0.285  1.00  0.00     0.167 HD
ATOM     69  C   UNL     1      -6.905   5.917   4.070  1.00  0.00     0.037 A 
ATOM     70  C   UNL     1     -13.285  10.688   1.972  1.00  0.00     0.037 A 
ATOM     71  C   UNL     1      -7.352   7.264   4.419  1.00  0.00     0.049 A 
ATOM     72  C   UNL     1     -12.227  10.873   3.520  1.00  0.00     0.074 A 
ATOM     73  C   UNL     1      -7.052   8.508   3.910  1.00  0.00     0.029 A 
ATOM     74  N   UNL     1      -8.455   7.425   5.248  1.00  0.00    -0.354 N 
ATOM     75  N   UNL     1     -11.233  10.053   3.935  1.00  0.00    -0.248 NA
ATOM     76  C   UNL     1     -12.326  11.819   4.699  1.00  0.00     0.031 C 
ATOM     77  C   UNL     1      -8.074   9.393   4.331  1.00  0.00     0.029 A 
ATOM     78  C   UNL     1      -8.950   8.713   5.160  1.00  0.00     0.049 A 
ATOM     79  H   UNL     1      -8.833   6.718   5.820  1.00  0.00     0.167 HD
ATOM     80  C   UNL     1     -10.890  10.107   5.295  1.00  0.00     0.074 A 
ATOM     81  C   UNL     1     -11.709  11.193   5.741  1.00  0.00     0.031 C 
ATOM     82  C   UNL     1     -10.098   9.159   5.945  1.00  0.00     0.037 A 
BRANCH  69  83
ATOM     83  C   UNL     1      -5.446   5.525   4.198  1.00  0.00     0.058 A 
ATOM     84  C   UNL     1      -4.587   6.399   4.908  1.00  0.00     0.135 A 
ATOM     85  C   UNL     1      -4.801   4.412   3.619  1.00  0.00     0.135 A 
ATOM     86  F   UNL     1      -5.051   7.494   5.526  1.00  0.00    -0.206 F 
ATOM     87  C   UNL     1      -3.216   6.209   5.022  1.00  0.00     0.059 A 
ATOM     88  C   UNL     1      -3.419   4.178   3.756  1.00  0.00     0.059 A 
ATOM     89  F   UNL     1      -5.467   3.520   2.874  1.00  0.00    -0.206 F 
ATOM     90  C   UNL     1      -2.636   5.089   4.456  1.00  0.00     0.060 A 
BRANCH  90  91
ATOM     91  S   UNL     1      -0.865   4.864   4.693  1.00  0.00     0.124 S 
ATOM     92  O   UNL     1      -0.317   6.021   3.991  1.00  0.00    -0.237 OA
ATOM     93  O   UNL     1      -0.747   4.892   6.147  1.00  0.00    -0.237 OA
ATOM     94  O   UNL     1      -0.598   3.571   4.070  1.00  0.00    -0.744 OA
ENDBRANCH  90  91
ENDBRANCH  69  83
BRANCH  70  95
ATOM     95  C   UNL     1     -14.856  10.126   1.380  1.00  0.00     0.058 A 
ATOM     96  C   UNL     1     -15.052  10.565   0.035  1.00  0.00     0.135 A 
ATOM     97  C   UNL     1     -15.521   8.859   1.572  1.00  0.00     0.135 A 
ATOM     98  F   UNL     1     -14.600  11.781  -0.308  1.00  0.00    -0.206 F 
ATOM     99  C   UNL     1     -15.488   9.727  -1.026  1.00  0.00     0.059 A 
ATOM    100  C   UNL     1     -15.912   7.966   0.520  1.00  0.00     0.059 A 
ATOM    101  F   UNL     1     -16.048   8.550   2.771  1.00  0.00    -0.206 F 
ATOM    102  C   UNL     1     -15.863   8.406  -0.790  1.00  0.00     0.060 A 
BRANCH 102 103
ATOM    103  S   UNL     1     -16.314   7.337  -2.193  1.00  0.00     0.124 S 
ATOM    104  O   UNL     1     -17.735   7.629  -2.348  1.00  0.00    -0.237 OA
ATOM    105  O   UNL     1     -15.447   7.845  -3.255  1.00  0.00    -0.237 OA
ATOM    106  O   UNL     1     -15.987   5.992  -1.740  1.00  0.00    -0.744 OA
ENDBRANCH 102 103
ENDBRANCH  70  95
BRANCH  82 107
ATOM    107  C   UNL     1     -10.184   8.686   7.431  1.00  0.00     0.058 A 
ATOM    108  C   UNL     1     -11.386   8.671   8.159  1.00  0.00     0.135 A 
ATOM    109  C   UNL     1      -9.093   8.095   8.140  1.00  0.00     0.135 A 
ATOM    110  F   UNL     1     -12.532   9.032   7.575  1.00  0.00    -0.206 F 
ATOM    111  C   UNL     1     -11.465   8.298   9.514  1.00  0.00     0.059 A 
ATOM    112  C   UNL     1      -9.154   7.672   9.475  1.00  0.00     0.059 A 
ATOM    113  F   UNL     1      -7.893   7.911   7.574  1.00  0.00    -0.206 F 
ATOM    114  C   UNL     1     -10.326   7.859  10.181  1.00  0.00     0.060 A 
BRANCH 114 115
ATOM    115  S   UNL     1     -10.345   7.682  11.980  1.00  0.00     0.124 S 
ATOM    116  O   UNL     1     -10.502   9.072  12.401  1.00  0.00    -0.237 OA
ATOM    117  O   UNL     1     -11.498   6.819  12.209  1.00  0.00    -0.237 OA
ATOM    118  O   UNL     1      -9.048   7.085  12.287  1.00  0.00    -0.744 OA
ENDBRANCH 114 115
ENDBRANCH  82 107
ENDBRANCH  56  57
ENDBRANCH  49  51
ENDBRANCH  48  49
ENDBRANCH  47  48
ENDBRANCH  46  47
ENDBRANCH  45  46
ENDBRANCH   1  45
TORSDOF 23
