REMARK SMILES CCC([NH3+])(CC)C(=O)N(CCC(=O)OCCOC(=O)c1ccc(-c2c3nc(c(-c4c(F)cc(S(=O)(=O)[O-])cc4F)c4ccc([nH]4)c(-c4c(F)cc(S(=O)(=O)[O-])cc4F)c4nc(c(-c5c(F)cc(S(=O)(=O)[O-])cc5F)c5ccc2[nH]5)C=C4)C=C3)cc1)C(C)C
REMARK SMILES IDX 15 1 14 2 12 3 13 4 11 5 10 6 9 7 7 8 8 9 3 10 2 11 1 12
REMARK SMILES IDX 4 13 5 17 6 18 86 19 87 20 88 21 16 22 17 23 18 24 19 25
REMARK SMILES IDX 20 26 21 27 85 28 22 29 84 30 23 31 24 32 25 33 78 34 26 35
REMARK SMILES IDX 83 36 77 37 79 38 27 39 82 40 76 41 75 42 28 44 62 45 41 46
REMARK SMILES IDX 61 47 42 48 45 49 60 50 80 51 43 52 44 53 59 55 81 56 46 57
REMARK SMILES IDX 29 58 30 59 39 60 31 61 32 62 38 63 40 64 33 65 34 66 35 67
REMARK SMILES IDX 36 68 37 69 63 70 64 71 73 72 65 73 66 74 72 75 74 76 67 77
REMARK SMILES IDX 68 78 69 79 70 80 71 81 47 82 48 83 57 84 49 85 50 86 56 87
REMARK SMILES IDX 58 88 51 89 52 90 53 91 54 92 55 93
REMARK H PARENT 4 14 4 15 4 16 79 43 45 54
REMARK Flexibility Score: inf
ROOT
ATOM      1  C   UNL     1       6.733   1.476   6.266  1.00  0.00     0.274 C 
ENDROOT
BRANCH   1   2
ATOM      2  O   UNL     1       5.493   1.064   5.658  1.00  0.00    -0.462 OA
BRANCH   2   3
ATOM      3  C   UNL     1       4.356   1.195   6.381  1.00  0.00     0.307 C 
ATOM      4  O   UNL     1       4.307   1.573   7.543  1.00  0.00    -0.252 OA
BRANCH   3   5
ATOM      5  C   UNL     1       3.138   0.781   5.588  1.00  0.00     0.144 C 
BRANCH   5   6
ATOM      6  C   UNL     1       2.880   1.638   4.345  1.00  0.00     0.131 C 
BRANCH   6   7
ATOM      7  N   UNL     1       3.268   0.992   3.078  1.00  0.00    -0.334 N 
BRANCH   7   8
ATOM      8  C   UNL     1       2.443   0.240   2.236  1.00  0.00     0.284 C 
ATOM      9  O   UNL     1       2.960  -0.521   1.407  1.00  0.00    -0.268 OA
BRANCH   8  10
ATOM     10  C   UNL     1       0.867   0.342   2.281  1.00  0.00     0.173 C 
BRANCH  10  11
ATOM     11  C   UNL     1       0.261  -0.469   1.084  1.00  0.00     0.075 C 
ATOM     12  C   UNL     1       0.539   0.073  -0.321  1.00  0.00     0.011 C 
ENDBRANCH  10  11
BRANCH  10  13
ATOM     13  N   UNL     1       0.428   1.747   2.091  1.00  0.00    -0.345 N 
ATOM     14  H   UNL     1      -0.590   1.793   2.123  1.00  0.00     0.345 HD
ATOM     15  H   UNL     1       0.756   2.087   1.187  1.00  0.00     0.345 HD
ATOM     16  H   UNL     1       0.818   2.328   2.834  1.00  0.00     0.345 HD
ENDBRANCH  10  13
BRANCH  10  17
ATOM     17  C   UNL     1       0.260  -0.221   3.592  1.00  0.00     0.075 C 
ATOM     18  C   UNL     1       0.726  -1.628   3.955  1.00  0.00     0.011 C 
ENDBRANCH  10  17
ENDBRANCH   8  10
ENDBRANCH   7   8
BRANCH   7  19
ATOM     19  C   UNL     1       4.714   1.058   2.756  1.00  0.00     0.079 C 
ATOM     20  C   UNL     1       5.427  -0.287   2.924  1.00  0.00     0.031 C 
ATOM     21  C   UNL     1       4.998   1.687   1.390  1.00  0.00     0.031 C 
ENDBRANCH   7  19
ENDBRANCH   6   7
ENDBRANCH   5   6
ENDBRANCH   3   5
ENDBRANCH   2   3
ENDBRANCH   1   2
BRANCH   1  22
ATOM     22  C   UNL     1       7.090   2.909   5.864  1.00  0.00     0.275 C 
BRANCH  22  23
ATOM     23  O   UNL     1       6.284   3.848   6.596  1.00  0.00    -0.458 OA
BRANCH  23  24
ATOM     24  C   UNL     1       5.266   4.416   5.910  1.00  0.00     0.338 C 
ATOM     25  O   UNL     1       5.020   4.301   4.723  1.00  0.00    -0.246 OA
BRANCH  24  26
ATOM     26  C   UNL     1       4.371   5.089   6.865  1.00  0.00     0.060 A 
ATOM     27  C   UNL     1       3.083   4.577   7.040  1.00  0.00     0.016 A 
ATOM     28  C   UNL     1       4.787   6.225   7.561  1.00  0.00     0.016 A 
ATOM     29  C   UNL     1       2.204   5.193   7.925  1.00  0.00     0.010 A 
ATOM     30  C   UNL     1       3.902   6.843   8.450  1.00  0.00     0.010 A 
ATOM     31  C   UNL     1       2.605   6.332   8.634  1.00  0.00    -0.014 A 
BRANCH  31  32
ATOM     32  C   UNL     1       1.645   6.999   9.544  1.00  0.00     0.031 A 
ATOM     33  C   UNL     1       0.994   8.287   9.129  1.00  0.00     0.074 A 
ATOM     34  C   UNL     1       1.338   6.426  10.723  1.00  0.00     0.049 A 
ATOM     35  N   UNL     1       0.154   9.038   9.791  1.00  0.00    -0.248 NA
ATOM     36  C   UNL     1       1.334   8.797   7.791  1.00  0.00     0.031 C 
ATOM     37  C   UNL     1       1.895   5.166  11.219  1.00  0.00     0.029 A 
ATOM     38  N   UNL     1       0.485   6.829  11.719  1.00  0.00    -0.354 N 
ATOM     39  C   UNL     1      -0.140  10.108   8.954  1.00  0.00     0.074 A 
ATOM     40  C   UNL     1       0.640   9.926   7.748  1.00  0.00     0.031 C 
ATOM     41  C   UNL     1       1.373   4.902  12.428  1.00  0.00     0.029 A 
ATOM     42  C   UNL     1       0.472   5.987  12.806  1.00  0.00     0.049 A 
ATOM     43  H   UNL     1      -0.065   7.643  11.661  1.00  0.00     0.167 HD
ATOM     44  C   UNL     1      -0.992  11.139   9.168  1.00  0.00     0.037 A 
ATOM     45  C   UNL     1      -0.177   6.092  13.982  1.00  0.00     0.037 A 
ATOM     46  C   UNL     1      -1.759  11.314  10.375  1.00  0.00     0.049 A 
ATOM     47  C   UNL     1      -1.085   7.271  14.212  1.00  0.00     0.074 A 
ATOM     48  C   UNL     1      -2.639  12.333  10.698  1.00  0.00     0.029 A 
ATOM     49  N   UNL     1      -1.741  10.446  11.458  1.00  0.00    -0.354 N 
ATOM     50  N   UNL     1      -1.350   8.276  13.411  1.00  0.00    -0.248 NA
ATOM     51  C   UNL     1      -1.786   7.328  15.501  1.00  0.00     0.031 C 
ATOM     52  C   UNL     1      -3.127  12.099  11.989  1.00  0.00     0.029 A 
ATOM     53  C   UNL     1      -2.586  10.911  12.453  1.00  0.00     0.049 A 
ATOM     54  H   UNL     1      -1.207   9.621  11.511  1.00  0.00     0.167 HD
ATOM     55  C   UNL     1      -2.260   9.076  14.093  1.00  0.00     0.074 A 
ATOM     56  C   UNL     1      -2.518   8.425  15.361  1.00  0.00     0.031 C 
ATOM     57  C   UNL     1      -2.827  10.248  13.710  1.00  0.00     0.037 A 
BRANCH  44  58
ATOM     58  C   UNL     1      -1.133  12.162   8.077  1.00  0.00     0.058 A 
ATOM     59  C   UNL     1      -1.820  11.875   6.887  1.00  0.00     0.135 A 
ATOM     60  C   UNL     1      -0.612  13.457   8.236  1.00  0.00     0.135 A 
ATOM     61  F   UNL     1      -2.321  10.648   6.674  1.00  0.00    -0.206 F 
ATOM     62  C   UNL     1      -1.971  12.829   5.885  1.00  0.00     0.059 A 
ATOM     63  C   UNL     1      -0.771  14.434   7.257  1.00  0.00     0.059 A 
ATOM     64  F   UNL     1       0.058  13.783   9.352  1.00  0.00    -0.206 F 
ATOM     65  C   UNL     1      -1.444  14.107   6.080  1.00  0.00     0.060 A 
BRANCH  65  66
ATOM     66  S   UNL     1      -1.660  15.338   4.777  1.00  0.00     0.124 S 
ATOM     67  O   UNL     1      -0.729  14.854   3.762  1.00  0.00    -0.237 OA
ATOM     68  O   UNL     1      -3.077  15.203   4.453  1.00  0.00    -0.237 OA
ATOM     69  O   UNL     1      -1.285  16.590   5.426  1.00  0.00    -0.744 OA
ENDBRANCH  65  66
ENDBRANCH  44  58
BRANCH  45  70
ATOM     70  C   UNL     1       0.028   5.068  15.041  1.00  0.00     0.058 A 
ATOM     71  C   UNL     1      -0.998   4.188  15.414  1.00  0.00     0.135 A 
ATOM     72  C   UNL     1       1.258   4.958  15.708  1.00  0.00     0.135 A 
ATOM     73  F   UNL     1      -2.194   4.258  14.812  1.00  0.00    -0.206 F 
ATOM     74  C   UNL     1      -0.821   3.250  16.428  1.00  0.00     0.059 A 
ATOM     75  C   UNL     1       1.468   4.011  16.705  1.00  0.00     0.059 A 
ATOM     76  F   UNL     1       2.277   5.767  15.379  1.00  0.00    -0.206 F 
ATOM     77  C   UNL     1       0.417   3.171  17.069  1.00  0.00     0.060 A 
BRANCH  77  78
ATOM     78  S   UNL     1       0.651   1.932  18.361  1.00  0.00     0.124 S 
ATOM     79  O   UNL     1      -0.067   2.535  19.478  1.00  0.00    -0.237 OA
ATOM     80  O   UNL     1       0.036   0.748  17.770  1.00  0.00    -0.237 OA
ATOM     81  O   UNL     1       2.103   1.868  18.504  1.00  0.00    -0.744 OA
ENDBRANCH  77  78
ENDBRANCH  45  70
BRANCH  57  82
ATOM     82  C   UNL     1      -3.797  10.882  14.668  1.00  0.00     0.058 A 
ATOM     83  C   UNL     1      -3.364  11.498  15.853  1.00  0.00     0.135 A 
ATOM     84  C   UNL     1      -5.173  10.889  14.389  1.00  0.00     0.135 A 
ATOM     85  F   UNL     1      -2.059  11.514  16.168  1.00  0.00    -0.206 F 
ATOM     86  C   UNL     1      -4.266  12.066  16.747  1.00  0.00     0.059 A 
ATOM     87  C   UNL     1      -6.090  11.476  15.255  1.00  0.00     0.059 A 
ATOM     88  F   UNL     1      -5.638  10.325  13.263  1.00  0.00    -0.206 F 
ATOM     89  C   UNL     1      -5.628  12.046  16.441  1.00  0.00     0.060 A 
BRANCH  89  90
ATOM     90  S   UNL     1      -6.789  12.789  17.606  1.00  0.00     0.124 S 
ATOM     91  O   UNL     1      -6.846  11.773  18.652  1.00  0.00    -0.237 OA
ATOM     92  O   UNL     1      -6.119  14.034  17.968  1.00  0.00    -0.237 OA
ATOM     93  O   UNL     1      -8.007  12.947  16.817  1.00  0.00    -0.744 OA
ENDBRANCH  89  90
ENDBRANCH  57  82
ENDBRANCH  31  32
ENDBRANCH  24  26
ENDBRANCH  23  24
ENDBRANCH  22  23
ENDBRANCH   1  22
TORSDOF 22
