REMARK SMILES C[C@@H](CCCO)Nc1ccc(Cl)cc1C(=O)OCCOC(=O)c1ccc(-c2c3nc(c(-c4c(F)cc(S(=O)(=O)[O-])cc4F)c4ccc([nH]4)c(-c4c(F)cc(S(=O)(=O)[O-])cc4F)c4nc(c(-c5c(F)cc(S(=O)(=O)[O-])cc5F)c5ccc2[nH]5)C=C4)C=C3)cc1
REMARK SMILES IDX 17 1 15 2 16 3 14 4 8 5 9 6 10 7 13 8 11 9 12 10 7 11 2 13
REMARK SMILES IDX 1 14 3 15 4 16 5 17 6 18 18 20 19 21 20 22 21 23 22 24 23 25
REMARK SMILES IDX 24 26 88 27 25 28 87 29 26 30 27 31 28 32 81 33 29 34 86 35
REMARK SMILES IDX 80 36 82 37 30 38 85 39 79 40 78 41 31 43 65 44 44 45 64 46
REMARK SMILES IDX 45 47 48 48 63 49 83 50 46 51 47 52 62 54 84 55 49 56 32 57
REMARK SMILES IDX 33 58 42 59 34 60 35 61 41 62 43 63 36 64 37 65 38 66 39 67
REMARK SMILES IDX 40 68 66 69 67 70 76 71 68 72 69 73 75 74 77 75 70 76 71 77
REMARK SMILES IDX 72 78 73 79 74 80 50 81 51 82 60 83 52 84 53 85 59 86 61 87
REMARK SMILES IDX 54 88 55 89 56 90 57 91 58 92
REMARK H PARENT 7 12 6 19 82 42 48 53
REMARK Flexibility Score: inf
ROOT
ATOM      1  O   UNL     1      -2.720   0.170   0.335  1.00  0.00    -0.458 OA
ENDROOT
BRANCH   1   2
ATOM      2  C   UNL     1      -3.566   0.820  -0.514  1.00  0.00     0.340 C 
ATOM      3  O   UNL     1      -4.772   0.689  -0.548  1.00  0.00    -0.246 OA
BRANCH   2   4
ATOM      4  C   UNL     1      -2.828   1.810  -1.363  1.00  0.00     0.084 A 
ATOM      5  C   UNL     1      -1.468   1.666  -1.735  1.00  0.00     0.049 A 
ATOM      6  C   UNL     1      -0.914   2.666  -2.551  1.00  0.00     0.028 A 
ATOM      7  C   UNL     1      -1.643   3.803  -2.920  1.00  0.00     0.022 A 
ATOM      8  C   UNL     1      -3.571   2.929  -1.782  1.00  0.00     0.038 A 
ATOM      9  C   UNL     1      -2.966   3.933  -2.525  1.00  0.00     0.042 A 
ATOM     10  Cl  UNL     1      -3.857   5.338  -2.956  1.00  0.00    -0.084 Cl
BRANCH   5  11
ATOM     11  N   UNL     1      -0.753   0.527  -1.386  1.00  0.00    -0.382 N 
ATOM     12  H   UNL     1      -1.277  -0.255  -1.097  1.00  0.00     0.160 HD
BRANCH  11  13
ATOM     13  C   UNL     1       0.694   0.377  -1.406  1.00  0.00     0.076 C 
ATOM     14  C   UNL     1       1.155  -0.078  -0.020  1.00  0.00     0.031 C 
BRANCH  13  15
ATOM     15  C   UNL     1       1.117  -0.593  -2.520  1.00  0.00     0.027 C 
BRANCH  15  16
ATOM     16  C   UNL     1       0.636  -2.050  -2.416  1.00  0.00     0.030 C 
BRANCH  16  17
ATOM     17  C   UNL     1      -0.871  -2.280  -2.491  1.00  0.00     0.156 C 
BRANCH  17  18
ATOM     18  O   UNL     1      -1.460  -1.511  -3.526  1.00  0.00    -0.396 OA
ATOM     19  H   UNL     1      -1.313  -0.568  -3.352  1.00  0.00     0.210 HD
ENDBRANCH  17  18
ENDBRANCH  16  17
ENDBRANCH  15  16
ENDBRANCH  13  15
ENDBRANCH  11  13
ENDBRANCH   5  11
ENDBRANCH   2   4
ENDBRANCH   1   2
BRANCH   1  20
ATOM     20  C   UNL     1      -3.314  -0.761   1.264  1.00  0.00     0.275 C 
BRANCH  20  21
ATOM     21  C   UNL     1      -3.207  -0.241   2.697  1.00  0.00     0.275 C 
BRANCH  21  22
ATOM     22  O   UNL     1      -4.076   0.891   2.871  1.00  0.00    -0.458 OA
BRANCH  22  23
ATOM     23  C   UNL     1      -3.462   2.093   2.933  1.00  0.00     0.338 C 
ATOM     24  O   UNL     1      -2.264   2.319   2.947  1.00  0.00    -0.246 OA
BRANCH  23  25
ATOM     25  C   UNL     1      -4.482   3.147   2.859  1.00  0.00     0.060 A 
ATOM     26  C   UNL     1      -4.918   3.537   1.596  1.00  0.00     0.016 A 
ATOM     27  C   UNL     1      -4.924   3.818   3.996  1.00  0.00     0.016 A 
ATOM     28  C   UNL     1      -5.750   4.640   1.446  1.00  0.00     0.010 A 
ATOM     29  C   UNL     1      -5.817   4.887   3.851  1.00  0.00     0.010 A 
ATOM     30  C   UNL     1      -6.216   5.327   2.573  1.00  0.00    -0.014 A 
BRANCH  30  31
ATOM     31  C   UNL     1      -7.071   6.534   2.405  1.00  0.00     0.031 A 
ATOM     32  C   UNL     1      -6.588   7.871   2.902  1.00  0.00     0.074 A 
ATOM     33  C   UNL     1      -8.267   6.443   1.790  1.00  0.00     0.049 A 
ATOM     34  N   UNL     1      -7.237   9.003   2.998  1.00  0.00    -0.248 NA
ATOM     35  C   UNL     1      -5.194   7.938   3.367  1.00  0.00     0.031 C 
ATOM     36  C   UNL     1      -8.835   5.219   1.220  1.00  0.00     0.029 A 
ATOM     37  N   UNL     1      -9.222   7.398   1.538  1.00  0.00    -0.354 N 
ATOM     38  C   UNL     1      -6.353   9.898   3.591  1.00  0.00     0.074 A 
ATOM     39  C   UNL     1      -5.122   9.178   3.831  1.00  0.00     0.031 C 
ATOM     40  C   UNL     1     -10.024   5.502   0.666  1.00  0.00     0.029 A 
ATOM     41  C   UNL     1     -10.341   6.905   0.909  1.00  0.00     0.049 A 
ATOM     42  H   UNL     1      -9.114   8.345   1.784  1.00  0.00     0.167 HD
ATOM     43  C   UNL     1      -6.555  11.200   3.907  1.00  0.00     0.037 A 
ATOM     44  C   UNL     1     -11.509   7.501   0.599  1.00  0.00     0.037 A 
ATOM     45  C   UNL     1      -7.764  11.925   3.607  1.00  0.00     0.049 A 
ATOM     46  C   UNL     1     -11.714   8.945   0.961  1.00  0.00     0.074 A 
ATOM     47  C   UNL     1      -8.056  13.254   3.858  1.00  0.00     0.029 A 
ATOM     48  N   UNL     1      -8.876  11.385   2.975  1.00  0.00    -0.354 N 
ATOM     49  N   UNL     1     -10.887   9.767   1.562  1.00  0.00    -0.248 NA
ATOM     50  C   UNL     1     -13.013   9.539   0.619  1.00  0.00     0.031 C 
ATOM     51  C   UNL     1      -9.357  13.509   3.411  1.00  0.00     0.029 A 
ATOM     52  C   UNL     1      -9.861  12.350   2.842  1.00  0.00     0.049 A 
ATOM     53  H   UNL     1      -8.953  10.453   2.667  1.00  0.00     0.167 HD
ATOM     54  C   UNL     1     -11.562  10.978   1.664  1.00  0.00     0.074 A 
ATOM     55  C   UNL     1     -12.858  10.786   1.046  1.00  0.00     0.031 C 
ATOM     56  C   UNL     1     -11.146  12.141   2.224  1.00  0.00     0.037 A 
BRANCH  43  57
ATOM     57  C   UNL     1      -5.462  11.913   4.656  1.00  0.00     0.058 A 
ATOM     58  C   UNL     1      -4.255  12.286   4.047  1.00  0.00     0.135 A 
ATOM     59  C   UNL     1      -5.639  12.241   6.011  1.00  0.00     0.135 A 
ATOM     60  F   UNL     1      -4.025  11.983   2.760  1.00  0.00    -0.206 F 
ATOM     61  C   UNL     1      -3.248  12.928   4.763  1.00  0.00     0.059 A 
ATOM     62  C   UNL     1      -4.657  12.906   6.739  1.00  0.00     0.059 A 
ATOM     63  F   UNL     1      -6.775  11.909   6.644  1.00  0.00    -0.206 F 
ATOM     64  C   UNL     1      -3.456  13.229   6.110  1.00  0.00     0.060 A 
BRANCH  64  65
ATOM     65  S   UNL     1      -2.138  14.050   7.031  1.00  0.00     0.124 S 
ATOM     66  O   UNL     1      -1.198  12.951   7.234  1.00  0.00    -0.237 OA
ATOM     67  O   UNL     1      -1.704  15.089   6.103  1.00  0.00    -0.237 OA
ATOM     68  O   UNL     1      -2.811  14.530   8.234  1.00  0.00    -0.744 OA
ENDBRANCH  64  65
ENDBRANCH  43  57
BRANCH  44  69
ATOM     69  C   UNL     1     -12.586   6.708  -0.052  1.00  0.00     0.058 A 
ATOM     70  C   UNL     1     -12.939   6.923  -1.392  1.00  0.00     0.135 A 
ATOM     71  C   UNL     1     -13.252   5.685   0.642  1.00  0.00     0.135 A 
ATOM     72  F   UNL     1     -12.341   7.898  -2.094  1.00  0.00    -0.206 F 
ATOM     73  C   UNL     1     -13.909   6.151  -2.023  1.00  0.00     0.059 A 
ATOM     74  C   UNL     1     -14.206   4.882   0.027  1.00  0.00     0.059 A 
ATOM     75  F   UNL     1     -12.944   5.432   1.924  1.00  0.00    -0.206 F 
ATOM     76  C   UNL     1     -14.532   5.126  -1.306  1.00  0.00     0.060 A 
BRANCH  76  77
ATOM     77  S   UNL     1     -15.730   4.074  -2.154  1.00  0.00     0.124 S 
ATOM     78  O   UNL     1     -16.896   4.947  -2.216  1.00  0.00    -0.237 OA
ATOM     79  O   UNL     1     -15.063   3.807  -3.425  1.00  0.00    -0.237 OA
ATOM     80  O   UNL     1     -15.851   2.921  -1.266  1.00  0.00    -0.744 OA
ENDBRANCH  76  77
ENDBRANCH  44  69
BRANCH  56  81
ATOM     81  C   UNL     1     -12.095  13.305   2.173  1.00  0.00     0.058 A 
ATOM     82  C   UNL     1     -13.219  13.375   3.011  1.00  0.00     0.135 A 
ATOM     83  C   UNL     1     -11.849  14.385   1.311  1.00  0.00     0.135 A 
ATOM     84  F   UNL     1     -13.501  12.364   3.848  1.00  0.00    -0.206 F 
ATOM     85  C   UNL     1     -14.079  14.468   2.981  1.00  0.00     0.059 A 
ATOM     86  C   UNL     1     -12.683  15.498   1.281  1.00  0.00     0.059 A 
ATOM     87  F   UNL     1     -10.782  14.371   0.496  1.00  0.00    -0.206 F 
ATOM     88  C   UNL     1     -13.802  15.525   2.112  1.00  0.00     0.060 A 
BRANCH  88  89
ATOM     89  S   UNL     1     -14.906  16.954   2.105  1.00  0.00     0.124 S 
ATOM     90  O   UNL     1     -16.055  16.433   1.371  1.00  0.00    -0.237 OA
ATOM     91  O   UNL     1     -15.120  17.193   3.529  1.00  0.00    -0.237 OA
ATOM     92  O   UNL     1     -14.130  17.979   1.414  1.00  0.00    -0.744 OA
ENDBRANCH  88  89
ENDBRANCH  56  81
ENDBRANCH  30  31
ENDBRANCH  23  25
ENDBRANCH  22  23
ENDBRANCH  21  22
ENDBRANCH  20  21
ENDBRANCH   1  20
TORSDOF 20
