REMARK SMILES O=C(C[N@@H+]1CCC[C@@H]1C(=O)OCCOC(=O)c1ccc(-c2c3nc(c(-c4c(F)cc(S(=O)(=O)[O-])cc4F)c4ccc([nH]4)c(-c4c(F)cc(S(=O)(=O)[O-])cc4F)c4nc(c(-c5c(F)cc(S(=O)(=O)[O-])cc5F)c5ccc2[nH]5)C=C4)C=C3)cc1)NCc1ccc(Cl)cc1
REMARK SMILES IDX 12 1 11 2 9 3 10 4 8 5 4 6 5 7 6 9 7 10 3 11 2 12 1 13 83 14
REMARK SMILES IDX 84 16 85 17 86 18 91 19 87 20 90 21 88 22 89 23 13 24 14 25
REMARK SMILES IDX 15 26 16 27 17 28 18 29 82 30 19 31 81 32 20 33 21 34 22 35
REMARK SMILES IDX 75 36 23 37 80 38 74 39 76 40 24 41 79 42 73 43 72 44 25 46
REMARK SMILES IDX 59 47 38 48 58 49 39 50 42 51 57 52 77 53 40 54 41 55 56 57
REMARK SMILES IDX 78 58 43 59 26 60 27 61 36 62 28 63 29 64 35 65 37 66 30 67
REMARK SMILES IDX 31 68 32 69 33 70 34 71 60 72 61 73 70 74 62 75 63 76 69 77
REMARK SMILES IDX 71 78 64 79 65 80 66 81 67 82 68 83 44 84 45 85 54 86 46 87
REMARK SMILES IDX 47 88 53 89 55 90 48 91 49 92 50 93 51 94 52 95
REMARK H PARENT 4 8 83 15 76 45 42 56
REMARK Flexibility Score: inf
ROOT
ATOM      1  C   UNL     1       4.241   0.948   4.064  1.00  0.00     0.274 C 
ENDROOT
BRANCH   1   2
ATOM      2  O   UNL     1       4.183  -0.277   3.310  1.00  0.00    -0.458 OA
BRANCH   2   3
ATOM      3  C   UNL     1       4.556  -0.208   2.004  1.00  0.00     0.365 C 
ATOM      4  O   UNL     1       4.843   0.829   1.414  1.00  0.00    -0.245 OA
BRANCH   3   5
ATOM      5  C   UNL     1       4.496  -1.565   1.300  1.00  0.00     0.295 C 
ATOM      6  N   UNL     1       3.341  -1.730   0.371  1.00  0.00    -0.315 N 
ATOM      7  C   UNL     1       3.154  -3.188   0.281  1.00  0.00     0.263 C 
ATOM      8  H   UNL     1       3.554  -1.277  -0.518  1.00  0.00     0.349 HD
ATOM      9  C   UNL     1       3.428  -3.693   1.688  1.00  0.00     0.068 C 
ATOM     10  C   UNL     1       4.579  -2.824   2.163  1.00  0.00     0.083 C 
BRANCH   6  11
ATOM     11  C   UNL     1       2.085  -1.054   0.770  1.00  0.00     0.364 C 
BRANCH  11  12
ATOM     12  C   UNL     1       1.585  -0.190  -0.400  1.00  0.00     0.275 C 
ATOM     13  O   UNL     1       0.405  -0.176  -0.742  1.00  0.00    -0.268 OA
ATOM     14  N   UNL     1       2.561   0.602  -0.961  1.00  0.00    -0.347 N 
ATOM     15  H   UNL     1       3.466   0.565  -0.575  1.00  0.00     0.164 HD
BRANCH  14  16
ATOM     16  C   UNL     1       2.336   1.484  -2.081  1.00  0.00     0.151 C 
BRANCH  16  17
ATOM     17  C   UNL     1       2.629   2.939  -1.786  1.00  0.00    -0.029 A 
ATOM     18  C   UNL     1       3.642   3.342  -0.901  1.00  0.00     0.007 A 
ATOM     19  C   UNL     1       1.927   3.932  -2.490  1.00  0.00     0.007 A 
ATOM     20  C   UNL     1       3.919   4.698  -0.699  1.00  0.00     0.021 A 
ATOM     21  C   UNL     1       2.206   5.287  -2.293  1.00  0.00     0.021 A 
ATOM     22  C   UNL     1       3.198   5.665  -1.393  1.00  0.00     0.041 A 
ATOM     23  Cl  UNL     1       3.531   7.333  -1.135  1.00  0.00    -0.084 Cl
ENDBRANCH  16  17
ENDBRANCH  14  16
ENDBRANCH  11  12
ENDBRANCH   6  11
ENDBRANCH   3   5
ENDBRANCH   2   3
ENDBRANCH   1   2
BRANCH   1  24
ATOM     24  C   UNL     1       5.493   1.002   4.944  1.00  0.00     0.275 C 
BRANCH  24  25
ATOM     25  O   UNL     1       6.692   1.146   4.163  1.00  0.00    -0.458 OA
BRANCH  25  26
ATOM     26  C   UNL     1       7.246  -0.016   3.742  1.00  0.00     0.338 C 
ATOM     27  O   UNL     1       6.856  -1.146   3.987  1.00  0.00    -0.246 OA
BRANCH  26  28
ATOM     28  C   UNL     1       8.317   0.266   2.774  1.00  0.00     0.060 A 
ATOM     29  C   UNL     1       8.249  -0.373   1.532  1.00  0.00     0.016 A 
ATOM     30  C   UNL     1       9.398   1.089   3.091  1.00  0.00     0.016 A 
ATOM     31  C   UNL     1       9.261  -0.194   0.597  1.00  0.00     0.010 A 
ATOM     32  C   UNL     1      10.422   1.261   2.155  1.00  0.00     0.010 A 
ATOM     33  C   UNL     1      10.362   0.611   0.910  1.00  0.00    -0.014 A 
BRANCH  33  34
ATOM     34  C   UNL     1      11.490   0.698  -0.043  1.00  0.00     0.031 A 
ATOM     35  C   UNL     1      12.731  -0.106   0.213  1.00  0.00     0.074 A 
ATOM     36  C   UNL     1      11.378   1.455  -1.148  1.00  0.00     0.049 A 
ATOM     37  N   UNL     1      13.854  -0.130  -0.455  1.00  0.00    -0.248 NA
ATOM     38  C   UNL     1      12.699  -1.006   1.376  1.00  0.00     0.031 C 
ATOM     39  C   UNL     1      10.189   2.217  -1.531  1.00  0.00     0.029 A 
ATOM     40  N   UNL     1      12.275   1.702  -2.154  1.00  0.00    -0.354 N 
ATOM     41  C   UNL     1      14.670  -1.035   0.212  1.00  0.00     0.074 A 
ATOM     42  C   UNL     1      13.918  -1.525   1.349  1.00  0.00     0.031 C 
ATOM     43  C   UNL     1      10.428   2.841  -2.696  1.00  0.00     0.029 A 
ATOM     44  C   UNL     1      11.800   2.561  -3.114  1.00  0.00     0.049 A 
ATOM     45  H   UNL     1      13.174   1.302  -2.185  1.00  0.00     0.167 HD
ATOM     46  C   UNL     1      15.930  -1.421  -0.098  1.00  0.00     0.037 A 
ATOM     47  C   UNL     1      12.413   3.080  -4.195  1.00  0.00     0.037 A 
ATOM     48  C   UNL     1      16.668  -0.922  -1.228  1.00  0.00     0.049 A 
ATOM     49  C   UNL     1      13.844   2.706  -4.470  1.00  0.00     0.074 A 
ATOM     50  C   UNL     1      17.957  -1.228  -1.623  1.00  0.00     0.029 A 
ATOM     51  N   UNL     1      16.176  -0.003  -2.146  1.00  0.00    -0.354 N 
ATOM     52  N   UNL     1      14.621   1.877  -3.813  1.00  0.00    -0.248 NA
ATOM     53  C   UNL     1      14.487   3.348  -5.624  1.00  0.00     0.031 C 
ATOM     54  C   UNL     1      18.258  -0.468  -2.760  1.00  0.00     0.029 A 
ATOM     55  C   UNL     1      17.142   0.282  -3.097  1.00  0.00     0.049 A 
ATOM     56  H   UNL     1      15.273   0.389  -2.124  1.00  0.00     0.167 HD
ATOM     57  C   UNL     1      15.838   1.881  -4.484  1.00  0.00     0.074 A 
ATOM     58  C   UNL     1      15.691   2.791  -5.604  1.00  0.00     0.031 C 
ATOM     59  C   UNL     1      16.973   1.193  -4.203  1.00  0.00     0.037 A 
BRANCH  46  60
ATOM     60  C   UNL     1      16.593  -2.397   0.834  1.00  0.00     0.058 A 
ATOM     61  C   UNL     1      16.207  -3.746   0.889  1.00  0.00     0.135 A 
ATOM     62  C   UNL     1      17.605  -1.970   1.708  1.00  0.00     0.135 A 
ATOM     63  F   UNL     1      15.230  -4.203   0.090  1.00  0.00    -0.206 F 
ATOM     64  C   UNL     1      16.769  -4.626   1.809  1.00  0.00     0.059 A 
ATOM     65  C   UNL     1      18.198  -2.838   2.619  1.00  0.00     0.059 A 
ATOM     66  F   UNL     1      18.011  -0.690   1.698  1.00  0.00    -0.206 F 
ATOM     67  C   UNL     1      17.755  -4.158   2.679  1.00  0.00     0.060 A 
BRANCH  67  68
ATOM     68  S   UNL     1      18.441  -5.293   3.905  1.00  0.00     0.124 S 
ATOM     69  O   UNL     1      17.367  -5.333   4.894  1.00  0.00    -0.237 OA
ATOM     70  O   UNL     1      18.634  -6.515   3.132  1.00  0.00    -0.237 OA
ATOM     71  O   UNL     1      19.666  -4.627   4.336  1.00  0.00    -0.744 OA
ENDBRANCH  67  68
ENDBRANCH  46  60
BRANCH  47  72
ATOM     72  C   UNL     1      11.675   4.009  -5.088  1.00  0.00     0.058 A 
ATOM     73  C   UNL     1      11.274   3.608  -6.370  1.00  0.00     0.135 A 
ATOM     74  C   UNL     1      11.324   5.301  -4.666  1.00  0.00     0.135 A 
ATOM     75  F   UNL     1      11.596   2.386  -6.822  1.00  0.00    -0.206 F 
ATOM     76  C   UNL     1      10.550   4.454  -7.204  1.00  0.00     0.059 A 
ATOM     77  C   UNL     1      10.582   6.158  -5.473  1.00  0.00     0.059 A 
ATOM     78  F   UNL     1      11.677   5.729  -3.444  1.00  0.00    -0.206 F 
ATOM     79  C   UNL     1      10.203   5.726  -6.744  1.00  0.00     0.060 A 
BRANCH  79  80
ATOM     80  S   UNL     1       9.202   6.788  -7.807  1.00  0.00     0.124 S 
ATOM     81  O   UNL     1      10.177   7.204  -8.809  1.00  0.00    -0.237 OA
ATOM     82  O   UNL     1       8.164   5.871  -8.269  1.00  0.00    -0.237 OA
ATOM     83  O   UNL     1       8.743   7.835  -6.899  1.00  0.00    -0.744 OA
ENDBRANCH  79  80
ENDBRANCH  47  72
BRANCH  59  84
ATOM     84  C   UNL     1      18.135   1.378  -5.136  1.00  0.00     0.058 A 
ATOM     85  C   UNL     1      18.920   2.541  -5.112  1.00  0.00     0.135 A 
ATOM     86  C   UNL     1      18.494   0.360  -6.033  1.00  0.00     0.135 A 
ATOM     87  F   UNL     1      18.612   3.546  -4.277  1.00  0.00    -0.206 F 
ATOM     88  C   UNL     1      20.013   2.695  -5.958  1.00  0.00     0.059 A 
ATOM     89  C   UNL     1      19.596   0.483  -6.873  1.00  0.00     0.059 A 
ATOM     90  F   UNL     1      17.780  -0.775  -6.089  1.00  0.00    -0.206 F 
ATOM     91  C   UNL     1      20.344   1.660  -6.835  1.00  0.00     0.060 A 
BRANCH  91  92
ATOM     92  S   UNL     1      21.786   1.855  -7.904  1.00  0.00     0.124 S 
ATOM     93  O   UNL     1      21.271   2.755  -8.931  1.00  0.00    -0.237 OA
ATOM     94  O   UNL     1      22.775   2.428  -6.997  1.00  0.00    -0.237 OA
ATOM     95  O   UNL     1      22.066   0.492  -8.346  1.00  0.00    -0.744 OA
ENDBRANCH  91  92
ENDBRANCH  59  84
ENDBRANCH  33  34
ENDBRANCH  26  28
ENDBRANCH  25  26
ENDBRANCH  24  25
ENDBRANCH   1  24
TORSDOF 18
