REMARK SMILES C[NH2+][C@]1(C(=O)OCCOC(=O)c2ccc(-c3c4nc(c(-c5c(F)cc(S(=O)(=O)[O-])cc5F)c5ccc([nH]5)c(-c5c(F)cc(S(=O)(=O)[O-])cc5F)c5nc(c(-c6c(F)cc(S(=O)(=O)[O-])cc6F)c6ccc3[nH]6)C=C5)C=C4)cc2)CCC[C@@H]1CC[N@H+]1CCC[C@H]([NH+](C)C)C1
REMARK SMILES IDX 7 1 6 2 4 3 5 4 3 5 78 6 81 7 79 8 80 9 2 10 1 11 82 14
REMARK SMILES IDX 83 15 84 16 85 17 92 18 86 20 88 21 87 22 89 23 90 24 91 25
REMARK SMILES IDX 8 27 9 28 10 29 11 30 12 31 13 32 77 33 14 34 76 35 15 36
REMARK SMILES IDX 16 37 17 38 70 39 18 40 75 41 69 42 71 43 19 44 74 45 68 46
REMARK SMILES IDX 67 47 20 49 54 50 33 51 53 52 34 53 37 54 52 55 72 56 35 57
REMARK SMILES IDX 36 58 51 60 73 61 38 62 21 63 22 64 31 65 23 66 24 67 30 68
REMARK SMILES IDX 32 69 25 70 26 71 27 72 28 73 29 74 55 75 56 76 65 77 57 78
REMARK SMILES IDX 58 79 64 80 66 81 59 82 60 83 61 84 62 85 63 86 39 87 40 88
REMARK SMILES IDX 49 89 41 90 42 91 48 92 50 93 43 94 44 95 45 96 46 97 47 98
REMARK H PARENT 2 12 2 13 84 19 89 26 71 48 37 59
REMARK Flexibility Score: inf
ROOT
ATOM      1  C   UNL     1       2.270   2.527  -1.058  1.00  0.00     0.274 C 
ENDROOT
BRANCH   1   2
ATOM      2  O   UNL     1       0.840   2.730  -1.032  1.00  0.00    -0.457 OA
BRANCH   2   3
ATOM      3  C   UNL     1       0.169   1.737  -0.395  1.00  0.00     0.368 C 
ATOM      4  O   UNL     1       0.746   0.864   0.245  1.00  0.00    -0.245 OA
BRANCH   3   5
ATOM      5  C   UNL     1      -1.365   1.757  -0.545  1.00  0.00     0.197 C 
ATOM      6  C   UNL     1      -1.905   2.753  -1.580  1.00  0.00     0.081 C 
ATOM      7  C   UNL     1      -1.796   0.407  -1.223  1.00  0.00     0.068 C 
ATOM      8  C   UNL     1      -3.294   2.222  -1.922  1.00  0.00     0.008 C 
ATOM      9  C   UNL     1      -3.210   0.700  -1.760  1.00  0.00     0.011 C 
BRANCH   5  10
ATOM     10  N   UNL     1      -2.040   1.890   0.776  1.00  0.00    -0.334 N 
ATOM     11  C   UNL     1      -1.846   3.174   1.436  1.00  0.00     0.331 C 
ATOM     12  H   UNL     1      -3.041   1.754   0.635  1.00  0.00     0.347 HD
ATOM     13  H   UNL     1      -1.619   1.189   1.385  1.00  0.00     0.347 HD
ENDBRANCH   5  10
BRANCH   7  14
ATOM     14  C   UNL     1      -1.740  -0.851  -0.326  1.00  0.00     0.072 C 
BRANCH  14  15
ATOM     15  C   UNL     1      -1.498  -2.192  -1.054  1.00  0.00     0.262 C 
BRANCH  15  16
ATOM     16  N   UNL     1      -0.266  -2.341  -1.862  1.00  0.00    -0.330 N 
ATOM     17  C   UNL     1       0.935  -1.822  -1.204  1.00  0.00     0.262 C 
ATOM     18  C   UNL     1      -0.055  -3.766  -2.186  1.00  0.00     0.327 C 
ATOM     19  H   UNL     1      -0.408  -1.785  -2.705  1.00  0.00     0.348 HD
ATOM     20  C   UNL     1       2.217  -1.965  -2.021  1.00  0.00     0.068 C 
ATOM     21  C   UNL     1       1.153  -4.021  -3.135  1.00  0.00     0.239 C 
ATOM     22  C   UNL     1       2.427  -3.372  -2.556  1.00  0.00     0.077 C 
BRANCH  21  23
ATOM     23  N   UNL     1       0.954  -3.740  -4.584  1.00  0.00    -0.333 N 
ATOM     24  C   UNL     1      -0.021  -4.666  -5.165  1.00  0.00     0.332 C 
ATOM     25  C   UNL     1       0.563  -2.369  -4.904  1.00  0.00     0.332 C 
ATOM     26  H   UNL     1       1.877  -3.877  -4.995  1.00  0.00     0.348 HD
ENDBRANCH  21  23
ENDBRANCH  15  16
ENDBRANCH  14  15
ENDBRANCH   7  14
ENDBRANCH   3   5
ENDBRANCH   2   3
ENDBRANCH   1   2
BRANCH   1  27
ATOM     27  C   UNL     1       2.997   3.028   0.198  1.00  0.00     0.275 C 
BRANCH  27  28
ATOM     28  O   UNL     1       2.623   2.288   1.378  1.00  0.00    -0.458 OA
BRANCH  28  29
ATOM     29  C   UNL     1       2.072   3.007   2.385  1.00  0.00     0.338 C 
ATOM     30  O   UNL     1       1.945   4.220   2.426  1.00  0.00    -0.246 OA
BRANCH  29  31
ATOM     31  C   UNL     1       1.606   2.133   3.484  1.00  0.00     0.060 A 
ATOM     32  C   UNL     1       0.603   1.190   3.265  1.00  0.00     0.016 A 
ATOM     33  C   UNL     1       2.036   2.379   4.787  1.00  0.00     0.016 A 
ATOM     34  C   UNL     1      -0.021   0.541   4.325  1.00  0.00     0.010 A 
ATOM     35  C   UNL     1       1.459   1.676   5.854  1.00  0.00     0.010 A 
ATOM     36  C   UNL     1       0.401   0.775   5.634  1.00  0.00    -0.014 A 
BRANCH  36  37
ATOM     37  C   UNL     1      -0.330   0.152   6.767  1.00  0.00     0.031 A 
ATOM     38  C   UNL     1      -1.045   1.031   7.755  1.00  0.00     0.074 A 
ATOM     39  C   UNL     1      -0.398  -1.188   6.889  1.00  0.00     0.049 A 
ATOM     40  N   UNL     1      -1.553   0.724   8.919  1.00  0.00    -0.248 NA
ATOM     41  C   UNL     1      -1.198   2.449   7.387  1.00  0.00     0.031 C 
ATOM     42  C   UNL     1       0.172  -2.158   5.951  1.00  0.00     0.029 A 
ATOM     43  N   UNL     1      -0.984  -1.968   7.854  1.00  0.00    -0.354 N 
ATOM     44  C   UNL     1      -2.021   1.918   9.454  1.00  0.00     0.074 A 
ATOM     45  C   UNL     1      -1.755   2.954   8.479  1.00  0.00     0.031 C 
ATOM     46  C   UNL     1      -0.114  -3.399   6.372  1.00  0.00     0.029 A 
ATOM     47  C   UNL     1      -0.809  -3.317   7.652  1.00  0.00     0.049 A 
ATOM     48  H   UNL     1      -1.482  -1.598   8.618  1.00  0.00     0.167 HD
ATOM     49  C   UNL     1      -2.605   2.128  10.657  1.00  0.00     0.037 A 
ATOM     50  C   UNL     1      -1.125  -4.367   8.434  1.00  0.00     0.037 A 
ATOM     51  C   UNL     1      -2.918   1.078  11.591  1.00  0.00     0.049 A 
ATOM     52  C   UNL     1      -1.759  -4.113   9.773  1.00  0.00     0.074 A 
ATOM     53  C   UNL     1      -3.493   1.180  12.845  1.00  0.00     0.029 A 
ATOM     54  N   UNL     1      -2.703  -0.273  11.357  1.00  0.00    -0.354 N 
ATOM     55  N   UNL     1      -2.095  -2.969  10.319  1.00  0.00    -0.248 NA
ATOM     56  C   UNL     1      -2.029  -5.287  10.614  1.00  0.00     0.031 C 
ATOM     57  C   UNL     1      -3.608  -0.110  13.378  1.00  0.00     0.029 A 
ATOM     58  C   UNL     1      -3.134  -1.016  12.443  1.00  0.00     0.049 A 
ATOM     59  H   UNL     1      -2.304  -0.648  10.539  1.00  0.00     0.167 HD
ATOM     60  C   UNL     1      -2.615  -3.283  11.568  1.00  0.00     0.074 A 
ATOM     61  C   UNL     1      -2.570  -4.727  11.688  1.00  0.00     0.031 C 
ATOM     62  C   UNL     1      -3.078  -2.452  12.535  1.00  0.00     0.037 A 
BRANCH  49  63
ATOM     63  C   UNL     1      -2.892   3.549  11.049  1.00  0.00     0.058 A 
ATOM     64  C   UNL     1      -3.960   4.275  10.501  1.00  0.00     0.135 A 
ATOM     65  C   UNL     1      -2.082   4.191  12.001  1.00  0.00     0.135 A 
ATOM     66  F   UNL     1      -4.750   3.716   9.571  1.00  0.00    -0.206 F 
ATOM     67  C   UNL     1      -4.201   5.597  10.865  1.00  0.00     0.059 A 
ATOM     68  C   UNL     1      -2.317   5.504  12.395  1.00  0.00     0.059 A 
ATOM     69  F   UNL     1      -1.044   3.542  12.552  1.00  0.00    -0.206 F 
ATOM     70  C   UNL     1      -3.370   6.204  11.809  1.00  0.00     0.060 A 
BRANCH  70  71
ATOM     71  S   UNL     1      -3.686   7.921  12.271  1.00  0.00     0.124 S 
ATOM     72  O   UNL     1      -3.130   8.636  11.127  1.00  0.00    -0.237 OA
ATOM     73  O   UNL     1      -5.140   7.954  12.392  1.00  0.00    -0.237 OA
ATOM     74  O   UNL     1      -2.954   8.075  13.524  1.00  0.00    -0.744 OA
ENDBRANCH  70  71
ENDBRANCH  49  63
BRANCH  50  75
ATOM     75  C   UNL     1      -0.790  -5.746   7.991  1.00  0.00     0.058 A 
ATOM     76  C   UNL     1      -1.793  -6.645   7.603  1.00  0.00     0.135 A 
ATOM     77  C   UNL     1       0.543  -6.180   7.916  1.00  0.00     0.135 A 
ATOM     78  F   UNL     1      -3.082  -6.281   7.669  1.00  0.00    -0.206 F 
ATOM     79  C   UNL     1      -1.487  -7.926   7.152  1.00  0.00     0.059 A 
ATOM     80  C   UNL     1       0.875  -7.446   7.446  1.00  0.00     0.059 A 
ATOM     81  F   UNL     1       1.540  -5.353   8.268  1.00  0.00    -0.206 F 
ATOM     82  C   UNL     1      -0.148  -8.315   7.072  1.00  0.00     0.060 A 
BRANCH  82  83
ATOM     83  S   UNL     1       0.251  -9.947   6.409  1.00  0.00     0.124 S 
ATOM     84  O   UNL     1      -0.003 -10.802   7.563  1.00  0.00    -0.237 OA
ATOM     85  O   UNL     1      -0.692 -10.073   5.301  1.00  0.00    -0.237 OA
ATOM     86  O   UNL     1       1.650  -9.812   6.015  1.00  0.00    -0.744 OA
ENDBRANCH  82  83
ENDBRANCH  50  75
BRANCH  62  87
ATOM     87  C   UNL     1      -3.586  -3.090  13.794  1.00  0.00     0.058 A 
ATOM     88  C   UNL     1      -2.706  -3.572  14.774  1.00  0.00     0.135 A 
ATOM     89  C   UNL     1      -4.965  -3.180  14.039  1.00  0.00     0.135 A 
ATOM     90  F   UNL     1      -1.379  -3.513  14.579  1.00  0.00    -0.206 F 
ATOM     91  C   UNL     1      -3.177  -4.142  15.951  1.00  0.00     0.059 A 
ATOM     92  C   UNL     1      -5.458  -3.730  15.217  1.00  0.00     0.059 A 
ATOM     93  F   UNL     1      -5.844  -2.725  13.133  1.00  0.00    -0.206 F 
ATOM     94  C   UNL     1      -4.556  -4.219  16.163  1.00  0.00     0.060 A 
BRANCH  94  95
ATOM     95  S   UNL     1      -5.160  -4.934  17.706  1.00  0.00     0.124 S 
ATOM     96  O   UNL     1      -5.015  -6.362  17.443  1.00  0.00    -0.237 OA
ATOM     97  O   UNL     1      -4.243  -4.376  18.695  1.00  0.00    -0.237 OA
ATOM     98  O   UNL     1      -6.533  -4.446  17.789  1.00  0.00    -0.744 OA
ENDBRANCH  94  95
ENDBRANCH  62  87
ENDBRANCH  36  37
ENDBRANCH  29  31
ENDBRANCH  28  29
ENDBRANCH  27  28
ENDBRANCH   1  27
TORSDOF 19
