REMARK SMILES CC(C)Cc1ccc(-c2cc(Cl)cc3c2O[C@H](C(F)(F)F)C(C(=O)OCCOC(=O)c2ccc(-c4c5nc(c(-c6c(F)cc(S(=O)(=O)[O-])cc6F)c6ccc([nH]6)c(-c6c(F)cc(S(=O)(=O)[O-])cc6F)c6nc(c(-c7c(F)cc(S(=O)(=O)[O-])cc7F)c7ccc4[nH]7)C=C6)C=C5)cc2)=C3)cc1
REMARK SMILES IDX 26 1 25 2 23 3 24 4 22 5 9 6 10 7 15 8 11 9 14 10 16 11
REMARK SMILES IDX 12 12 13 13 97 14 17 15 8 16 5 17 6 18 99 19 7 20 98 21 4 22
REMARK SMILES IDX 2 23 1 24 3 25 18 26 19 27 20 28 21 29 27 30 28 31 29 32
REMARK SMILES IDX 30 33 31 34 32 35 96 36 33 37 95 38 34 39 35 40 36 41 89 42
REMARK SMILES IDX 37 43 94 44 88 45 90 46 38 47 93 48 87 49 86 50 39 52 73 53
REMARK SMILES IDX 52 54 72 55 53 56 56 57 71 58 91 59 54 60 55 61 70 63 92 64
REMARK SMILES IDX 57 65 40 66 41 67 50 68 42 69 43 70 49 71 51 72 44 73 45 74
REMARK SMILES IDX 46 75 47 76 48 77 74 78 75 79 84 80 76 81 77 82 83 83 85 84
REMARK SMILES IDX 78 85 79 86 80 87 81 88 82 89 58 90 59 91 68 92 60 93 61 94
REMARK SMILES IDX 67 95 69 96 62 97 63 98 64 99 65 100 66 101
REMARK H PARENT 90 51 56 62
REMARK Flexibility Score: inf
ROOT
ATOM      1  C   UNL     1      -3.550   7.935  -8.251  1.00  0.00     0.275 C 
ENDROOT
BRANCH   1   2
ATOM      2  O   UNL     1      -4.462   7.125  -7.467  1.00  0.00    -0.459 OA
BRANCH   2   3
ATOM      3  C   UNL     1      -5.109   6.197  -8.223  1.00  0.00     0.338 C 
ATOM      4  O   UNL     1      -5.004   6.111  -9.442  1.00  0.00    -0.246 OA
BRANCH   3   5
ATOM      5  C   UNL     1      -5.903   5.220  -7.437  1.00  0.00     0.087 C 
ATOM      6  C   UNL     1      -4.156   2.849  -4.607  1.00  0.00     0.026 A 
ATOM      7  C   UNL     1      -2.841   2.784  -5.144  1.00  0.00     0.033 A 
ATOM      8  C   UNL     1      -5.064   3.425  -5.504  1.00  0.00     0.135 A 
ATOM      9  C   UNL     1      -2.474   3.098  -6.456  1.00  0.00     0.042 A 
ATOM     10  C   UNL     1      -4.740   3.458  -6.898  1.00  0.00     0.019 A 
ATOM     11  O   UNL     1      -6.199   4.149  -5.154  1.00  0.00    -0.475 OA
ATOM     12  Cl  UNL     1      -0.856   3.301  -6.988  1.00  0.00    -0.084 Cl
ATOM     13  C   UNL     1      -3.453   3.313  -7.377  1.00  0.00     0.032 A 
ATOM     14  C   UNL     1      -5.736   3.959  -7.862  1.00  0.00     0.027 C 
ATOM     15  C   UNL     1      -6.355   5.398  -6.000  1.00  0.00     0.316 C 
BRANCH   6  16
ATOM     16  C   UNL     1      -4.275   2.168  -3.245  1.00  0.00    -0.015 A 
ATOM     17  C   UNL     1      -2.684   0.918  -1.108  1.00  0.00    -0.048 A 
ATOM     18  C   UNL     1      -3.293   2.167  -0.942  1.00  0.00     0.004 A 
ATOM     19  C   UNL     1      -3.264   0.183  -2.170  1.00  0.00     0.004 A 
ATOM     20  C   UNL     1      -4.083   2.779  -1.994  1.00  0.00     0.009 A 
ATOM     21  C   UNL     1      -4.010   0.789  -3.217  1.00  0.00     0.009 A 
BRANCH  17  22
ATOM     22  C   UNL     1      -1.532   0.213  -0.108  1.00  0.00     0.038 C 
BRANCH  22  23
ATOM     23  C   UNL     1       0.422  -0.094  -0.050  1.00  0.00    -0.013 C 
ATOM     24  C   UNL     1       1.480   1.065   0.025  1.00  0.00     0.008 C 
ATOM     25  C   UNL     1       1.305  -1.182   0.769  1.00  0.00     0.008 C 
ENDBRANCH  22  23
ENDBRANCH  17  22
ENDBRANCH   6  16
BRANCH  15  26
ATOM     26  C   UNL     1      -7.828   5.814  -6.106  1.00  0.00     0.430 C 
ATOM     27  F   UNL     1      -8.594   4.833  -6.643  1.00  0.00    -0.167 F 
ATOM     28  F   UNL     1      -8.362   6.149  -4.914  1.00  0.00    -0.167 F 
ATOM     29  F   UNL     1      -7.965   6.900  -6.916  1.00  0.00    -0.167 F 
ENDBRANCH  15  26
ENDBRANCH   3   5
ENDBRANCH   2   3
ENDBRANCH   1   2
BRANCH   1  30
ATOM     30  C   UNL     1      -2.541   8.709  -7.396  1.00  0.00     0.275 C 
BRANCH  30  31
ATOM     31  O   UNL     1      -1.775   7.822  -6.561  1.00  0.00    -0.458 OA
BRANCH  31  32
ATOM     32  C   UNL     1      -2.271   7.699  -5.302  1.00  0.00     0.338 C 
ATOM     33  O   UNL     1      -3.221   8.306  -4.852  1.00  0.00    -0.246 OA
BRANCH  32  34
ATOM     34  C   UNL     1      -1.594   6.599  -4.564  1.00  0.00     0.060 A 
ATOM     35  C   UNL     1      -2.355   5.994  -3.578  1.00  0.00     0.016 A 
ATOM     36  C   UNL     1      -0.287   6.136  -4.787  1.00  0.00     0.016 A 
ATOM     37  C   UNL     1      -1.832   4.904  -2.891  1.00  0.00     0.010 A 
ATOM     38  C   UNL     1       0.212   4.993  -4.103  1.00  0.00     0.010 A 
ATOM     39  C   UNL     1      -0.586   4.316  -3.182  1.00  0.00    -0.014 A 
BRANCH  39  40
ATOM     40  C   UNL     1      -0.256   3.055  -2.412  1.00  0.00     0.031 A 
ATOM     41  C   UNL     1      -0.368   3.301  -0.778  1.00  0.00     0.074 A 
ATOM     42  C   UNL     1      -0.126   1.811  -3.028  1.00  0.00     0.049 A 
ATOM     43  N   UNL     1      -0.602   2.477   0.226  1.00  0.00    -0.248 NA
ATOM     44  C   UNL     1      -0.195   4.673  -0.266  1.00  0.00     0.031 C 
ATOM     45  C   UNL     1      -0.037   1.261  -4.378  1.00  0.00     0.029 A 
ATOM     46  N   UNL     1      -0.223   0.611  -2.387  1.00  0.00    -0.354 N 
ATOM     47  C   UNL     1      -0.535   3.133   1.457  1.00  0.00     0.074 A 
ATOM     48  C   UNL     1      -0.337   4.526   1.056  1.00  0.00     0.031 C 
ATOM     49  C   UNL     1      -0.271  -0.091  -4.390  1.00  0.00     0.029 A 
ATOM     50  C   UNL     1      -0.414  -0.628  -3.014  1.00  0.00     0.049 A 
ATOM     51  H   UNL     1      -0.152   0.616  -1.405  1.00  0.00     0.167 HD
ATOM     52  C   UNL     1      -0.566   2.658   2.762  1.00  0.00     0.037 A 
ATOM     53  C   UNL     1      -0.678  -1.956  -2.561  1.00  0.00     0.037 A 
ATOM     54  C   UNL     1      -0.655   1.262   3.302  1.00  0.00     0.049 A 
ATOM     55  C   UNL     1      -0.854  -2.682  -0.992  1.00  0.00     0.074 A 
ATOM     56  C   UNL     1      -0.618   0.747   4.594  1.00  0.00     0.029 A 
ATOM     57  N   UNL     1      -0.690   0.098   2.561  1.00  0.00    -0.354 N 
ATOM     58  N   UNL     1      -1.014  -2.104   0.180  1.00  0.00    -0.248 NA
ATOM     59  C   UNL     1      -0.862  -4.140  -0.731  1.00  0.00     0.031 C 
ATOM     60  C   UNL     1      -0.702  -0.690   4.542  1.00  0.00     0.029 A 
ATOM     61  C   UNL     1      -0.830  -1.119   3.218  1.00  0.00     0.049 A 
ATOM     62  H   UNL     1      -0.616   0.129   1.580  1.00  0.00     0.167 HD
ATOM     63  C   UNL     1      -1.016  -2.920   1.272  1.00  0.00     0.074 A 
ATOM     64  C   UNL     1      -0.991  -4.229   0.617  1.00  0.00     0.031 C 
ATOM     65  C   UNL     1      -0.910  -2.524   2.602  1.00  0.00     0.037 A 
BRANCH  52  66
ATOM     66  C   UNL     1      -0.454   3.753   3.801  1.00  0.00     0.058 A 
ATOM     67  C   UNL     1      -1.529   4.619   4.067  1.00  0.00     0.135 A 
ATOM     68  C   UNL     1       0.746   3.971   4.497  1.00  0.00     0.135 A 
ATOM     69  F   UNL     1      -2.688   4.476   3.406  1.00  0.00    -0.206 F 
ATOM     70  C   UNL     1      -1.407   5.683   4.957  1.00  0.00     0.059 A 
ATOM     71  C   UNL     1       0.884   5.018   5.408  1.00  0.00     0.059 A 
ATOM     72  F   UNL     1       1.809   3.184   4.272  1.00  0.00    -0.206 F 
ATOM     73  C   UNL     1      -0.192   5.880   5.617  1.00  0.00     0.060 A 
BRANCH  73  74
ATOM     74  S   UNL     1      -0.036   7.296   6.730  1.00  0.00     0.124 S 
ATOM     75  O   UNL     1      -0.039   8.410   5.786  1.00  0.00    -0.237 OA
ATOM     76  O   UNL     1      -1.227   7.169   7.564  1.00  0.00    -0.237 OA
ATOM     77  O   UNL     1       1.232   7.056   7.411  1.00  0.00    -0.744 OA
ENDBRANCH  73  74
ENDBRANCH  52  66
BRANCH  53  78
ATOM     78  C   UNL     1      -0.919  -2.982  -3.642  1.00  0.00     0.058 A 
ATOM     79  C   UNL     1      -2.135  -3.688  -3.698  1.00  0.00     0.135 A 
ATOM     80  C   UNL     1       0.034  -3.280  -4.627  1.00  0.00     0.135 A 
ATOM     81  F   UNL     1      -3.083  -3.469  -2.773  1.00  0.00    -0.206 F 
ATOM     82  C   UNL     1      -2.398  -4.635  -4.687  1.00  0.00     0.059 A 
ATOM     83  C   UNL     1      -0.222  -4.188  -5.653  1.00  0.00     0.059 A 
ATOM     84  F   UNL     1       1.226  -2.662  -4.620  1.00  0.00    -0.206 F 
ATOM     85  C   UNL     1      -1.439  -4.868  -5.670  1.00  0.00     0.060 A 
BRANCH  85  86
ATOM     86  S   UNL     1      -1.816  -6.024  -7.008  1.00  0.00     0.124 S 
ATOM     87  O   UNL     1      -1.617  -7.310  -6.350  1.00  0.00    -0.237 OA
ATOM     88  O   UNL     1      -3.197  -5.681  -7.335  1.00  0.00    -0.237 OA
ATOM     89  O   UNL     1      -0.835  -5.678  -8.032  1.00  0.00    -0.744 OA
ENDBRANCH  85  86
ENDBRANCH  53  78
BRANCH  65  90
ATOM     90  C   UNL     1      -0.776  -3.655   3.585  1.00  0.00     0.058 A 
ATOM     91  C   UNL     1       0.361  -4.479   3.620  1.00  0.00     0.135 A 
ATOM     92  C   UNL     1      -1.751  -3.848   4.576  1.00  0.00     0.135 A 
ATOM     93  F   UNL     1       1.346  -4.314   2.723  1.00  0.00    -0.206 F 
ATOM     94  C   UNL     1       0.503  -5.486   4.572  1.00  0.00     0.059 A 
ATOM     95  C   UNL     1      -1.616  -4.828   5.555  1.00  0.00     0.059 A 
ATOM     96  F   UNL     1      -2.838  -3.062   4.617  1.00  0.00    -0.206 F 
ATOM     97  C   UNL     1      -0.496  -5.657   5.531  1.00  0.00     0.060 A 
BRANCH  97  98
ATOM     98  S   UNL     1      -0.315  -6.978   6.747  1.00  0.00     0.124 S 
ATOM     99  O   UNL     1      -0.535  -8.163   5.924  1.00  0.00    -0.237 OA
ATOM    100  O   UNL     1       1.050  -6.781   7.224  1.00  0.00    -0.237 OA
ATOM    101  O   UNL     1      -1.362  -6.690   7.722  1.00  0.00    -0.744 OA
ENDBRANCH  97  98
ENDBRANCH  65  90
ENDBRANCH  39  40
ENDBRANCH  32  34
ENDBRANCH  31  32
ENDBRANCH  30  31
ENDBRANCH   1  30
TORSDOF 18
