REMARK SMILES CC(C)(C)[C@](O)(c1ccc(C(=O)OCCOC(=O)c2ccc(-c3c4nc(c(-c5c(F)cc(S(=O)(=O)[O-])cc5F)c5ccc([nH]5)c(-c5c(F)cc(S(=O)(=O)[O-])cc5F)c5nc(c(-c6c(F)cc(S(=O)(=O)[O-])cc6F)c6ccc3[nH]6)C=C5)C=C4)cc2)cc1)c1ccc(C(F)(F)F)cc1
REMARK SMILES IDX 14 1 13 2 11 3 12 4 10 5 7 6 8 7 86 8 9 9 85 10 5 11 2 12
REMARK SMILES IDX 1 13 3 14 4 15 87 16 88 17 96 18 89 19 95 20 90 21 91 22
REMARK SMILES IDX 92 23 93 24 94 25 6 26 15 28 16 29 17 30 18 31 19 32 20 33
REMARK SMILES IDX 84 34 21 35 83 36 22 37 23 38 24 39 77 40 25 41 82 42 76 43
REMARK SMILES IDX 78 44 26 45 81 46 75 47 74 48 27 50 61 51 40 52 60 53 41 54
REMARK SMILES IDX 44 55 59 56 79 57 42 58 43 59 58 61 80 62 45 63 28 64 29 65
REMARK SMILES IDX 38 66 30 67 31 68 37 69 39 70 32 71 33 72 34 73 35 74 36 75
REMARK SMILES IDX 62 76 63 77 72 78 64 79 65 80 71 81 73 82 66 83 67 84 68 85
REMARK SMILES IDX 69 86 70 87 46 88 47 89 56 90 48 91 49 92 55 93 57 94 50 95
REMARK SMILES IDX 51 96 52 97 53 98 54 99
REMARK H PARENT 6 27 78 49 44 60
REMARK Flexibility Score: inf
ROOT
ATOM      1  C   UNL     1       8.752   2.556  -1.802  1.00  0.00     0.275 C 
ENDROOT
BRANCH   1   2
ATOM      2  O   UNL     1       7.314   2.603  -1.701  1.00  0.00    -0.458 OA
BRANCH   2   3
ATOM      3  C   UNL     1       6.658   1.680  -2.444  1.00  0.00     0.338 C 
ATOM      4  O   UNL     1       7.154   0.862  -3.199  1.00  0.00    -0.246 OA
BRANCH   3   5
ATOM      5  C   UNL     1       5.205   1.770  -2.215  1.00  0.00     0.060 A 
ATOM      6  C   UNL     1       2.377   1.765  -2.083  1.00  0.00    -0.011 A 
ATOM      7  C   UNL     1       3.123   0.683  -1.603  1.00  0.00     0.008 A 
ATOM      8  C   UNL     1       3.099   2.855  -2.624  1.00  0.00     0.008 A 
ATOM      9  C   UNL     1       4.514   0.690  -1.669  1.00  0.00     0.016 A 
ATOM     10  C   UNL     1       4.498   2.869  -2.680  1.00  0.00     0.016 A 
BRANCH   6  11
ATOM     11  C   UNL     1       0.832   1.725  -2.060  1.00  0.00     0.119 C 
BRANCH  11  12
ATOM     12  C   UNL     1       0.182   2.748  -0.997  1.00  0.00    -0.001 C 
ATOM     13  C   UNL     1       0.228   2.138   0.437  1.00  0.00     0.014 C 
ATOM     14  C   UNL     1      -1.313   3.011  -1.304  1.00  0.00     0.014 C 
ATOM     15  C   UNL     1       0.877   4.122  -0.886  1.00  0.00     0.014 C 
ENDBRANCH  11  12
BRANCH  11  16
ATOM     16  C   UNL     1       0.300   1.744  -3.518  1.00  0.00    -0.011 A 
ATOM     17  C   UNL     1       0.151   2.928  -4.254  1.00  0.00     0.008 A 
ATOM     18  C   UNL     1       0.006   0.535  -4.190  1.00  0.00     0.008 A 
ATOM     19  C   UNL     1      -0.320   2.911  -5.573  1.00  0.00     0.013 A 
ATOM     20  C   UNL     1      -0.487   0.514  -5.498  1.00  0.00     0.013 A 
ATOM     21  C   UNL     1      -0.664   1.707  -6.201  1.00  0.00     0.056 A 
BRANCH  21  22
ATOM     22  C   UNL     1      -1.218   1.714  -7.603  1.00  0.00     0.416 C 
ATOM     23  F   UNL     1      -2.391   2.405  -7.686  1.00  0.00    -0.166 F 
ATOM     24  F   UNL     1      -0.379   2.308  -8.496  1.00  0.00    -0.166 F 
ATOM     25  F   UNL     1      -1.484   0.475  -8.101  1.00  0.00    -0.166 F 
ENDBRANCH  21  22
ENDBRANCH  11  16
BRANCH  11  26
ATOM     26  O   UNL     1       0.447   0.417  -1.559  1.00  0.00    -0.380 OA
ATOM     27  H   UNL     1       0.800  -0.270  -2.145  1.00  0.00     0.212 HD
ENDBRANCH  11  26
ENDBRANCH   6  11
ENDBRANCH   3   5
ENDBRANCH   2   3
ENDBRANCH   1   2
BRANCH   1  28
ATOM     28  C   UNL     1       9.376   1.805  -0.625  1.00  0.00     0.275 C 
BRANCH  28  29
ATOM     29  O   UNL     1       9.074   0.398  -0.684  1.00  0.00    -0.458 OA
BRANCH  29  30
ATOM     30  C   UNL     1       8.094  -0.004   0.154  1.00  0.00     0.338 C 
ATOM     31  O   UNL     1       7.478   0.683   0.954  1.00  0.00    -0.246 OA
BRANCH  30  32
ATOM     32  C   UNL     1       7.770  -1.422  -0.054  1.00  0.00     0.060 A 
ATOM     33  C   UNL     1       6.931  -1.752  -1.110  1.00  0.00     0.016 A 
ATOM     34  C   UNL     1       8.061  -2.369   0.924  1.00  0.00     0.016 A 
ATOM     35  C   UNL     1       6.220  -2.944  -1.083  1.00  0.00     0.010 A 
ATOM     36  C   UNL     1       7.487  -3.645   0.837  1.00  0.00     0.010 A 
ATOM     37  C   UNL     1       6.513  -3.933  -0.137  1.00  0.00    -0.014 A 
BRANCH  37  38
ATOM     38  C   UNL     1       5.803  -5.248  -0.182  1.00  0.00     0.031 A 
ATOM     39  C   UNL     1       5.138  -5.809   1.053  1.00  0.00     0.074 A 
ATOM     40  C   UNL     1       5.748  -5.946  -1.338  1.00  0.00     0.049 A 
ATOM     41  N   UNL     1       4.659  -7.010   1.262  1.00  0.00    -0.248 NA
ATOM     42  C   UNL     1       5.010  -4.910   2.212  1.00  0.00     0.031 C 
ATOM     43  C   UNL     1       6.307  -5.511  -2.622  1.00  0.00     0.029 A 
ATOM     44  N   UNL     1       5.191  -7.168  -1.628  1.00  0.00    -0.354 N 
ATOM     45  C   UNL     1       4.237  -7.031   2.588  1.00  0.00     0.074 A 
ATOM     46  C   UNL     1       4.522  -5.724   3.138  1.00  0.00     0.031 C 
ATOM     47  C   UNL     1       6.017  -6.415  -3.566  1.00  0.00     0.029 A 
ATOM     48  C   UNL     1       5.371  -7.556  -2.936  1.00  0.00     0.049 A 
ATOM     49  H   UNL     1       4.708  -7.712  -0.965  1.00  0.00     0.167 HD
ATOM     50  C   UNL     1       3.666  -8.049   3.278  1.00  0.00     0.037 A 
ATOM     51  C   UNL     1       5.113  -8.722  -3.559  1.00  0.00     0.037 A 
ATOM     52  C   UNL     1       3.337  -9.329   2.698  1.00  0.00     0.049 A 
ATOM     53  C   UNL     1       4.527  -9.850  -2.763  1.00  0.00     0.074 A 
ATOM     54  C   UNL     1       2.737 -10.419   3.303  1.00  0.00     0.029 A 
ATOM     55  N   UNL     1       3.570  -9.686   1.377  1.00  0.00    -0.354 N 
ATOM     56  N   UNL     1       4.181  -9.871  -1.498  1.00  0.00    -0.248 NA
ATOM     57  C   UNL     1       4.314 -11.118  -3.471  1.00  0.00     0.031 C 
ATOM     58  C   UNL     1       2.655 -11.452   2.363  1.00  0.00     0.029 A 
ATOM     59  C   UNL     1       3.148 -10.987   1.155  1.00  0.00     0.049 A 
ATOM     60  H   UNL     1       3.977  -9.101   0.698  1.00  0.00     0.167 HD
ATOM     61  C   UNL     1       3.694 -11.150  -1.261  1.00  0.00     0.074 A 
ATOM     62  C   UNL     1       3.771 -11.865  -2.520  1.00  0.00     0.031 C 
ATOM     63  C   UNL     1       3.228 -11.684  -0.106  1.00  0.00     0.037 A 
BRANCH  50  64
ATOM     64  C   UNL     1       3.394  -7.844   4.747  1.00  0.00     0.058 A 
ATOM     65  C   UNL     1       2.394  -6.977   5.214  1.00  0.00     0.135 A 
ATOM     66  C   UNL     1       4.130  -8.562   5.707  1.00  0.00     0.135 A 
ATOM     67  F   UNL     1       1.667  -6.255   4.347  1.00  0.00    -0.206 F 
ATOM     68  C   UNL     1       2.155  -6.804   6.576  1.00  0.00     0.059 A 
ATOM     69  C   UNL     1       3.887  -8.429   7.072  1.00  0.00     0.059 A 
ATOM     70  F   UNL     1       5.097  -9.410   5.322  1.00  0.00    -0.206 F 
ATOM     71  C   UNL     1       2.908  -7.534   7.497  1.00  0.00     0.060 A 
BRANCH  71  72
ATOM     72  S   UNL     1       2.587  -7.297   9.259  1.00  0.00     0.124 S 
ATOM     73  O   UNL     1       3.136  -5.963   9.478  1.00  0.00    -0.237 OA
ATOM     74  O   UNL     1       1.133  -7.403   9.328  1.00  0.00    -0.237 OA
ATOM     75  O   UNL     1       3.322  -8.389   9.890  1.00  0.00    -0.744 OA
ENDBRANCH  71  72
ENDBRANCH  50  64
BRANCH  51  76
ATOM     76  C   UNL     1       5.465  -8.888  -4.996  1.00  0.00     0.058 A 
ATOM     77  C   UNL     1       4.470  -9.030  -5.973  1.00  0.00     0.135 A 
ATOM     78  C   UNL     1       6.804  -8.874  -5.425  1.00  0.00     0.135 A 
ATOM     79  F   UNL     1       3.178  -9.059  -5.614  1.00  0.00    -0.206 F 
ATOM     80  C   UNL     1       4.787  -9.159  -7.322  1.00  0.00     0.059 A 
ATOM     81  C   UNL     1       7.144  -8.967  -6.770  1.00  0.00     0.059 A 
ATOM     82  F   UNL     1       7.796  -8.727  -4.533  1.00  0.00    -0.206 F 
ATOM     83  C   UNL     1       6.127  -9.120  -7.711  1.00  0.00     0.060 A 
BRANCH  83  84
ATOM     84  S   UNL     1       6.523  -9.235  -9.469  1.00  0.00     0.124 S 
ATOM     85  O   UNL     1       6.241 -10.639  -9.741  1.00  0.00    -0.237 OA
ATOM     86  O   UNL     1       5.597  -8.272 -10.055  1.00  0.00    -0.237 OA
ATOM     87  O   UNL     1       7.931  -8.852  -9.522  1.00  0.00    -0.744 OA
ENDBRANCH  83  84
ENDBRANCH  51  76
BRANCH  63  88
ATOM     88  C   UNL     1       2.729 -13.101  -0.159  1.00  0.00     0.058 A 
ATOM     89  C   UNL     1       3.604 -14.189  -0.295  1.00  0.00     0.135 A 
ATOM     90  C   UNL     1       1.356 -13.373  -0.037  1.00  0.00     0.135 A 
ATOM     91  F   UNL     1       4.924 -13.983  -0.428  1.00  0.00    -0.206 F 
ATOM     92  C   UNL     1       3.134 -15.498  -0.333  1.00  0.00     0.059 A 
ATOM     93  C   UNL     1       0.867 -14.675  -0.041  1.00  0.00     0.059 A 
ATOM     94  F   UNL     1       0.477 -12.368   0.101  1.00  0.00    -0.206 F 
ATOM     95  C   UNL     1       1.764 -15.730  -0.202  1.00  0.00     0.060 A 
BRANCH  95  96
ATOM     96  S   UNL     1       1.171 -17.435  -0.219  1.00  0.00     0.124 S 
ATOM     97  O   UNL     1       1.332 -17.788  -1.625  1.00  0.00    -0.237 OA
ATOM     98  O   UNL     1       2.086 -18.092   0.710  1.00  0.00    -0.237 OA
ATOM     99  O   UNL     1      -0.208 -17.320   0.245  1.00  0.00    -0.744 OA
ENDBRANCH  95  96
ENDBRANCH  63  88
ENDBRANCH  37  38
ENDBRANCH  30  32
ENDBRANCH  29  30
ENDBRANCH  28  29
ENDBRANCH   1  28
TORSDOF 19
