REMARK SMILES C[C@H](Nc1ncccc1C(=O)OCCOC(=O)c1ccc(-c2c3nc(c(-c4c(F)cc(S(=O)(=O)[O-])cc4F)c4ccc([nH]4)c(-c4c(F)cc(S(=O)(=O)[O-])cc4F)c4nc(c(-c5c(F)cc(S(=O)(=O)[O-])cc5F)c5ccc2[nH]5)C=C4)C=C3)cc1)c1ccc(Cl)cc1
REMARK SMILES IDX 13 1 12 2 10 3 11 4 9 5 4 6 5 7 6 8 8 9 7 10 3 11 2 13 1 14
REMARK SMILES IDX 84 15 85 16 90 17 86 18 89 19 87 20 88 21 14 22 15 23 16 24
REMARK SMILES IDX 17 25 18 26 19 27 83 28 20 29 82 30 21 31 22 32 23 33 76 34
REMARK SMILES IDX 24 35 81 36 75 37 77 38 25 39 80 40 74 41 73 42 26 44 60 45
REMARK SMILES IDX 39 46 59 47 40 48 43 49 58 50 78 51 41 52 42 53 57 55 79 56
REMARK SMILES IDX 44 57 27 58 28 59 37 60 29 61 30 62 36 63 38 64 31 65 32 66
REMARK SMILES IDX 33 67 34 68 35 69 61 70 62 71 71 72 63 73 64 74 70 75 72 76
REMARK SMILES IDX 65 77 66 78 67 79 68 80 69 81 45 82 46 83 55 84 47 85 48 86
REMARK SMILES IDX 54 87 56 88 49 89 50 90 51 91 52 92 53 93
REMARK H PARENT 3 12 77 43 43 54
REMARK Flexibility Score: inf
ROOT
ATOM      1  C   UNL     1       4.902  -1.600  -3.114  1.00  0.00     0.275 C 
ENDROOT
BRANCH   1   2
ATOM      2  O   UNL     1       4.509  -1.710  -1.716  1.00  0.00    -0.458 OA
BRANCH   2   3
ATOM      3  C   UNL     1       3.836  -0.641  -1.202  1.00  0.00     0.342 C 
ATOM      4  O   UNL     1       3.538   0.360  -1.833  1.00  0.00    -0.246 OA
BRANCH   3   5
ATOM      5  C   UNL     1       3.733  -0.706   0.275  1.00  0.00     0.102 A 
ATOM      6  C   UNL     1       2.556  -0.555   1.035  1.00  0.00     0.141 A 
ATOM      7  N   UNL     1       2.633  -0.134   2.323  1.00  0.00    -0.239 NA
ATOM      8  C   UNL     1       3.847   0.045   2.893  1.00  0.00     0.113 A 
ATOM      9  C   UNL     1       4.979  -0.584   0.918  1.00  0.00     0.021 A 
ATOM     10  C   UNL     1       5.038  -0.222   2.254  1.00  0.00     0.021 A 
BRANCH   6  11
ATOM     11  N   UNL     1       1.250  -0.850   0.689  1.00  0.00    -0.363 N 
ATOM     12  H   UNL     1       0.542  -0.258   1.031  1.00  0.00     0.162 HD
BRANCH  11  13
ATOM     13  C   UNL     1       0.840  -1.996  -0.160  1.00  0.00     0.108 C 
ATOM     14  C   UNL     1       0.977  -3.249   0.723  1.00  0.00     0.036 C 
BRANCH  13  15
ATOM     15  C   UNL     1      -0.649  -1.860  -1.061  1.00  0.00    -0.026 A 
ATOM     16  C   UNL     1      -1.414  -0.551  -2.425  1.00  0.00     0.007 A 
ATOM     17  C   UNL     1      -1.837  -3.017  -0.330  1.00  0.00     0.007 A 
ATOM     18  C   UNL     1      -3.185  -0.552  -2.771  1.00  0.00     0.021 A 
ATOM     19  C   UNL     1      -3.548  -2.914  -0.792  1.00  0.00     0.021 A 
ATOM     20  C   UNL     1      -4.190  -1.715  -1.934  1.00  0.00     0.041 A 
ATOM     21  Cl  UNL     1      -5.874  -1.758  -2.296  1.00  0.00    -0.084 Cl
ENDBRANCH  13  15
ENDBRANCH  11  13
ENDBRANCH   6  11
ENDBRANCH   3   5
ENDBRANCH   2   3
ENDBRANCH   1   2
BRANCH   1  22
ATOM     22  C   UNL     1       3.933  -2.319  -4.046  1.00  0.00     0.275 C 
BRANCH  22  23
ATOM     23  O   UNL     1       2.707  -1.569  -4.060  1.00  0.00    -0.458 OA
BRANCH  23  24
ATOM     24  C   UNL     1       1.844  -2.086  -3.178  1.00  0.00     0.338 C 
ATOM     25  O   UNL     1       1.957  -3.191  -2.652  1.00  0.00    -0.246 OA
BRANCH  24  26
ATOM     26  C   UNL     1       0.633  -1.295  -2.906  1.00  0.00     0.060 A 
ATOM     27  C   UNL     1       0.538  -0.003  -1.672  1.00  0.00     0.016 A 
ATOM     28  C   UNL     1      -0.641  -2.393  -3.221  1.00  0.00     0.016 A 
ATOM     29  C   UNL     1      -0.867   0.204  -0.572  1.00  0.00     0.010 A 
ATOM     30  C   UNL     1      -2.098  -2.283  -2.255  1.00  0.00     0.010 A 
ATOM     31  C   UNL     1      -2.301  -0.903  -0.778  1.00  0.00    -0.014 A 
BRANCH  31  32
ATOM     32  C   UNL     1      -3.454  -0.270   0.151  1.00  0.00     0.031 A 
ATOM     33  C   UNL     1      -4.266  -1.064   1.158  1.00  0.00     0.074 A 
ATOM     34  C   UNL     1      -3.843   1.008  -0.078  1.00  0.00     0.049 A 
ATOM     35  N   UNL     1      -5.558  -1.046   1.372  1.00  0.00    -0.248 NA
ATOM     36  C   UNL     1      -3.560  -2.096   1.928  1.00  0.00     0.031 C 
ATOM     37  C   UNL     1      -3.130   2.014  -0.872  1.00  0.00     0.029 A 
ATOM     38  N   UNL     1      -4.999   1.664   0.283  1.00  0.00    -0.354 N 
ATOM     39  C   UNL     1      -5.835  -2.195   2.113  1.00  0.00     0.074 A 
ATOM     40  C   UNL     1      -4.573  -2.881   2.280  1.00  0.00     0.031 C 
ATOM     41  C   UNL     1      -3.858   3.128  -0.970  1.00  0.00     0.029 A 
ATOM     42  C   UNL     1      -5.137   2.886  -0.342  1.00  0.00     0.049 A 
ATOM     43  H   UNL     1      -5.657   1.300   0.919  1.00  0.00     0.167 HD
ATOM     44  C   UNL     1      -7.033  -2.617   2.600  1.00  0.00     0.037 A 
ATOM     45  C   UNL     1      -6.191   3.708  -0.478  1.00  0.00     0.037 A 
ATOM     46  C   UNL     1      -8.193  -1.752   2.616  1.00  0.00     0.049 A 
ATOM     47  C   UNL     1      -7.475   3.307   0.166  1.00  0.00     0.074 A 
ATOM     48  C   UNL     1      -9.414  -1.947   3.236  1.00  0.00     0.029 A 
ATOM     49  N   UNL     1      -8.238  -0.485   2.042  1.00  0.00    -0.354 N 
ATOM     50  N   UNL     1      -7.777   2.173   0.751  1.00  0.00    -0.248 NA
ATOM     51  C   UNL     1      -8.545   4.305   0.167  1.00  0.00     0.031 C 
ATOM     52  C   UNL     1     -10.201  -0.810   3.022  1.00  0.00     0.029 A 
ATOM     53  C   UNL     1      -9.452   0.121   2.318  1.00  0.00     0.049 A 
ATOM     54  H   UNL     1      -7.512  -0.078   1.516  1.00  0.00     0.167 HD
ATOM     55  C   UNL     1      -9.059   2.340   1.247  1.00  0.00     0.074 A 
ATOM     56  C   UNL     1      -9.468   3.686   0.888  1.00  0.00     0.031 C 
ATOM     57  C   UNL     1      -9.822   1.468   1.950  1.00  0.00     0.037 A 
BRANCH  44  58
ATOM     58  C   UNL     1      -7.153  -4.020   3.173  1.00  0.00     0.058 A 
ATOM     59  C   UNL     1      -6.357  -4.489   4.232  1.00  0.00     0.135 A 
ATOM     60  C   UNL     1      -8.101  -4.928   2.654  1.00  0.00     0.135 A 
ATOM     61  F   UNL     1      -5.462  -3.680   4.821  1.00  0.00    -0.206 F 
ATOM     62  C   UNL     1      -6.415  -5.808   4.678  1.00  0.00     0.059 A 
ATOM     63  C   UNL     1      -8.224  -6.236   3.131  1.00  0.00     0.059 A 
ATOM     64  F   UNL     1      -8.928  -4.556   1.664  1.00  0.00    -0.206 F 
ATOM     65  C   UNL     1      -7.350  -6.677   4.119  1.00  0.00     0.060 A 
BRANCH  65  66
ATOM     66  S   UNL     1      -7.404  -8.380   4.718  1.00  0.00     0.124 S 
ATOM     67  O   UNL     1      -6.177  -8.930   4.146  1.00  0.00    -0.237 OA
ATOM     68  O   UNL     1      -7.399  -8.201   6.166  1.00  0.00    -0.237 OA
ATOM     69  O   UNL     1      -8.646  -8.903   4.158  1.00  0.00    -0.744 OA
ENDBRANCH  65  66
ENDBRANCH  44  58
BRANCH  45  70
ATOM     70  C   UNL     1      -6.017   5.010  -1.176  1.00  0.00     0.058 A 
ATOM     71  C   UNL     1      -5.913   6.186  -0.422  1.00  0.00     0.135 A 
ATOM     72  C   UNL     1      -5.826   5.104  -2.566  1.00  0.00     0.135 A 
ATOM     73  F   UNL     1      -6.071   6.142   0.910  1.00  0.00    -0.206 F 
ATOM     74  C   UNL     1      -5.639   7.412  -1.014  1.00  0.00     0.059 A 
ATOM     75  C   UNL     1      -5.524   6.319  -3.180  1.00  0.00     0.059 A 
ATOM     76  F   UNL     1      -5.868   4.001  -3.329  1.00  0.00    -0.206 F 
ATOM     77  C   UNL     1      -5.437   7.467  -2.393  1.00  0.00     0.060 A 
BRANCH  77  78
ATOM     78  S   UNL     1      -5.011   9.062  -3.126  1.00  0.00     0.124 S 
ATOM     79  O   UNL     1      -6.242   9.818  -2.921  1.00  0.00    -0.237 OA
ATOM     80  O   UNL     1      -3.869   9.472  -2.315  1.00  0.00    -0.237 OA
ATOM     81  O   UNL     1      -4.701   8.727  -4.512  1.00  0.00    -0.744 OA
ENDBRANCH  77  78
ENDBRANCH  45  70
BRANCH  57  82
ATOM     82  C   UNL     1     -11.145   1.983   2.435  1.00  0.00     0.058 A 
ATOM     83  C   UNL     1     -12.204   2.252   1.556  1.00  0.00     0.135 A 
ATOM     84  C   UNL     1     -11.352   2.196   3.807  1.00  0.00     0.135 A 
ATOM     85  F   UNL     1     -12.047   2.083   0.233  1.00  0.00    -0.206 F 
ATOM     86  C   UNL     1     -13.415   2.749   2.018  1.00  0.00     0.059 A 
ATOM     87  C   UNL     1     -12.570   2.650   4.295  1.00  0.00     0.059 A 
ATOM     88  F   UNL     1     -10.369   1.951   4.688  1.00  0.00    -0.206 F 
ATOM     89  C   UNL     1     -13.591   2.936   3.391  1.00  0.00     0.060 A 
BRANCH  89  90
ATOM     90  S   UNL     1     -15.184   3.541   3.976  1.00  0.00     0.124 S 
ATOM     91  O   UNL     1     -15.171   4.919   3.497  1.00  0.00    -0.237 OA
ATOM     92  O   UNL     1     -16.119   2.643   3.303  1.00  0.00    -0.237 OA
ATOM     93  O   UNL     1     -15.100   3.378   5.424  1.00  0.00    -0.744 OA
ENDBRANCH  89  90
ENDBRANCH  57  82
ENDBRANCH  31  32
ENDBRANCH  24  26
ENDBRANCH  23  24
ENDBRANCH  22  23
ENDBRANCH   1  22
TORSDOF 17
