REMARK SMILES C/C=C/C=C/C=C/C(=O)O[C@H]1C=C(C=O)[C@@](O)(C(=O)OCCOC(=O)c2ccc(-c3c4nc(c(-c5c(F)cc(S(=O)(=O)[O-])cc5F)c5ccc([nH]5)c(-c5c(F)cc(S(=O)(=O)[O-])cc5F)c5nc(c(-c6c(F)cc(S(=O)(=O)[O-])cc6F)c6ccc3[nH]6)C=C5)C=C4)cc2)[C@]2(C)CCCC(C)(C)[C@@H]12
REMARK SMILES IDX 21 1 20 2 18 3 19 4 16 5 11 6 12 7 100 8 13 9 92 10 97 11
REMARK SMILES IDX 94 12 93 13 96 14 98 15 99 16 95 17 10 18 8 19 9 20 7 21
REMARK SMILES IDX 6 22 5 23 4 24 3 25 1 26 2 27 14 28 15 29 17 30 22 32 23 33
REMARK SMILES IDX 24 34 25 35 26 36 27 37 91 38 28 39 90 40 29 41 30 42 31 43
REMARK SMILES IDX 84 44 32 45 89 46 83 47 85 48 33 49 88 50 82 51 81 52 34 54
REMARK SMILES IDX 68 55 47 56 67 57 48 58 51 59 66 60 86 61 49 62 50 63 65 65
REMARK SMILES IDX 87 66 52 67 35 68 36 69 45 70 37 71 38 72 44 73 46 74 39 75
REMARK SMILES IDX 40 76 41 77 42 78 43 79 69 80 70 81 79 82 71 83 72 84 78 85
REMARK SMILES IDX 80 86 73 87 74 88 75 89 76 90 77 91 53 92 54 93 63 94 55 95
REMARK SMILES IDX 56 96 62 97 64 98 57 99 58 100 59 101 60 102 61 103
REMARK H PARENT 17 31 85 53 51 64
REMARK Flexibility Score: inf
ROOT
ATOM      1  C   UNL     1       1.582 -12.550  -3.104  1.00  0.00     0.274 C 
ENDROOT
BRANCH   1   2
ATOM      2  O   UNL     1       0.668 -11.578  -2.564  1.00  0.00    -0.460 OA
BRANCH   2   3
ATOM      3  C   UNL     1       0.023 -11.815  -1.377  1.00  0.00     0.343 C 
ATOM      4  O   UNL     1       0.082 -12.862  -0.747  1.00  0.00    -0.248 OA
BRANCH   3   5
ATOM      5  C   UNL     1      -0.750 -10.522  -0.941  1.00  0.00     0.196 C 
ATOM      6  C   UNL     1      -2.332  -8.295   0.122  1.00  0.00     0.204 C 
ATOM      7  C   UNL     1      -1.173  -8.912   0.881  1.00  0.00     0.028 C 
ATOM      8  C   UNL     1      -2.761  -9.015  -1.224  1.00  0.00     0.050 C 
ATOM      9  C   UNL     1      -0.755 -10.147   0.537  1.00  0.00     0.035 C 
ATOM     10  C   UNL     1      -2.225 -10.498  -1.482  1.00  0.00     0.019 C 
ATOM     11  C   UNL     1      -4.166  -8.671  -1.828  1.00  0.00    -0.028 C 
ATOM     12  C   UNL     1      -2.259 -10.713  -3.028  1.00  0.00     0.011 C 
ATOM     13  C   UNL     1      -3.051 -11.668  -0.871  1.00  0.00     0.016 C 
ATOM     14  C   UNL     1      -4.131  -9.043  -3.338  1.00  0.00     0.007 C 
ATOM     15  C   UNL     1      -5.364  -9.366  -1.156  1.00  0.00     0.011 C 
ATOM     16  C   UNL     1      -4.410  -7.144  -1.738  1.00  0.00     0.011 C 
ATOM     17  C   UNL     1      -3.646 -10.464  -3.621  1.00  0.00     0.001 C 
BRANCH   6  18
ATOM     18  O   UNL     1      -3.440  -8.114   1.019  1.00  0.00    -0.455 OA
BRANCH  18  19
ATOM     19  C   UNL     1      -3.495  -7.271   2.076  1.00  0.00     0.331 C 
ATOM     20  O   UNL     1      -4.316  -7.458   2.973  1.00  0.00    -0.247 OA
BRANCH  19  21
ATOM     21  C   UNL     1      -2.642  -6.065   2.194  1.00  0.00     0.093 C 
ATOM     22  C   UNL     1      -2.187  -5.242   1.235  1.00  0.00     0.007 C 
BRANCH  22  23
ATOM     23  C   UNL     1      -1.506  -3.989   1.515  1.00  0.00     0.000 C 
ATOM     24  C   UNL     1      -0.845  -3.298   0.571  1.00  0.00    -0.000 C 
BRANCH  24  25
ATOM     25  C   UNL     1      -0.253  -1.995   0.793  1.00  0.00    -0.005 C 
ATOM     26  C   UNL     1       1.058   0.004   0.024  1.00  0.00     0.035 C 
ATOM     27  C   UNL     1       0.474  -1.363  -0.142  1.00  0.00    -0.030 C 
ENDBRANCH  24  25
ENDBRANCH  22  23
ENDBRANCH  19  21
ENDBRANCH  18  19
ENDBRANCH   6  18
BRANCH   9  28
ATOM     28  C   UNL     1      -1.277 -11.112   1.555  1.00  0.00     0.259 C 
ATOM     29  O   UNL     1      -2.404 -11.039   2.032  1.00  0.00    -0.298 OA
ENDBRANCH   9  28
BRANCH   5  30
ATOM     30  O   UNL     1      -0.042  -9.409  -1.578  1.00  0.00    -0.373 OA
ATOM     31  H   UNL     1      -0.476  -8.573  -1.344  1.00  0.00     0.212 HD
ENDBRANCH   5  30
ENDBRANCH   3   5
ENDBRANCH   2   3
ENDBRANCH   1   2
BRANCH   1  32
ATOM     32  C   UNL     1       3.029 -12.048  -2.998  1.00  0.00     0.275 C 
BRANCH  32  33
ATOM     33  O   UNL     1       3.514 -12.116  -1.644  1.00  0.00    -0.458 OA
BRANCH  33  34
ATOM     34  C   UNL     1       3.214 -11.042  -0.880  1.00  0.00     0.338 C 
ATOM     35  O   UNL     1       2.624 -10.030  -1.226  1.00  0.00    -0.246 OA
BRANCH  34  36
ATOM     36  C   UNL     1       3.441 -11.367   0.532  1.00  0.00     0.060 A 
ATOM     37  C   UNL     1       2.297 -11.488   1.315  1.00  0.00     0.016 A 
ATOM     38  C   UNL     1       4.699 -11.455   1.111  1.00  0.00     0.016 A 
ATOM     39  C   UNL     1       2.373 -11.631   2.686  1.00  0.00     0.010 A 
ATOM     40  C   UNL     1       4.786 -11.648   2.496  1.00  0.00     0.010 A 
ATOM     41  C   UNL     1       3.623 -11.715   3.289  1.00  0.00    -0.014 A 
BRANCH  41  42
ATOM     42  C   UNL     1       3.693 -11.792   4.763  1.00  0.00     0.031 A 
ATOM     43  C   UNL     1       4.239 -10.623   5.525  1.00  0.00     0.074 A 
ATOM     44  C   UNL     1       3.221 -12.877   5.406  1.00  0.00     0.049 A 
ATOM     45  N   UNL     1       4.558 -10.536   6.787  1.00  0.00    -0.248 NA
ATOM     46  C   UNL     1       4.460  -9.385   4.758  1.00  0.00     0.031 C 
ATOM     47  C   UNL     1       2.565 -14.023   4.770  1.00  0.00     0.029 A 
ATOM     48  N   UNL     1       3.223 -13.194   6.739  1.00  0.00    -0.354 N 
ATOM     49  C   UNL     1       5.061  -9.253   6.959  1.00  0.00     0.074 A 
ATOM     50  C   UNL     1       5.010  -8.598   5.671  1.00  0.00     0.031 C 
ATOM     51  C   UNL     1       2.237 -14.921   5.712  1.00  0.00     0.029 A 
ATOM     52  C   UNL     1       2.727 -14.449   7.002  1.00  0.00     0.049 A 
ATOM     53  H   UNL     1       3.548 -12.583   7.439  1.00  0.00     0.167 HD
ATOM     54  C   UNL     1       5.526  -8.685   8.095  1.00  0.00     0.037 A 
ATOM     55  C   UNL     1       2.722 -15.158   8.147  1.00  0.00     0.037 A 
ATOM     56  C   UNL     1       5.540  -9.354   9.370  1.00  0.00     0.049 A 
ATOM     57  C   UNL     1       3.322 -14.537   9.379  1.00  0.00     0.074 A 
ATOM     58  C   UNL     1       6.001  -8.882  10.585  1.00  0.00     0.029 A 
ATOM     59  N   UNL     1       5.061 -10.638   9.593  1.00  0.00    -0.354 N 
ATOM     60  N   UNL     1       3.858 -13.348   9.524  1.00  0.00    -0.248 NA
ATOM     61  C   UNL     1       3.330 -15.355  10.598  1.00  0.00     0.031 C 
ATOM     62  C   UNL     1       5.843  -9.899  11.534  1.00  0.00     0.029 A 
ATOM     63  C   UNL     1       5.231 -10.982  10.923  1.00  0.00     0.049 A 
ATOM     64  H   UNL     1       4.659 -11.218   8.906  1.00  0.00     0.167 HD
ATOM     65  C   UNL     1       4.236 -13.261  10.859  1.00  0.00     0.074 A 
ATOM     66  C   UNL     1       3.864 -14.518  11.478  1.00  0.00     0.031 C 
ATOM     67  C   UNL     1       4.834 -12.236  11.516  1.00  0.00     0.037 A 
BRANCH  54  68
ATOM     68  C   UNL     1       6.102  -7.300   7.997  1.00  0.00     0.058 A 
ATOM     69  C   UNL     1       5.299  -6.170   7.778  1.00  0.00     0.135 A 
ATOM     70  C   UNL     1       7.485  -7.102   8.140  1.00  0.00     0.135 A 
ATOM     71  F   UNL     1       3.974  -6.304   7.607  1.00  0.00    -0.206 F 
ATOM     72  C   UNL     1       5.849  -4.896   7.679  1.00  0.00     0.059 A 
ATOM     73  C   UNL     1       8.054  -5.834   8.073  1.00  0.00     0.059 A 
ATOM     74  F   UNL     1       8.301  -8.149   8.341  1.00  0.00    -0.206 F 
ATOM     75  C   UNL     1       7.229  -4.738   7.828  1.00  0.00     0.060 A 
BRANCH  75  76
ATOM     76  S   UNL     1       7.928  -3.079   7.697  1.00  0.00     0.124 S 
ATOM     77  O   UNL     1       7.804  -2.824   6.265  1.00  0.00    -0.237 OA
ATOM     78  O   UNL     1       7.044  -2.299   8.558  1.00  0.00    -0.237 OA
ATOM     79  O   UNL     1       9.292  -3.244   8.189  1.00  0.00    -0.744 OA
ENDBRANCH  75  76
ENDBRANCH  54  68
BRANCH  55  80
ATOM     80  C   UNL     1       2.178 -16.542   8.165  1.00  0.00     0.058 A 
ATOM     81  C   UNL     1       1.010 -16.852   8.876  1.00  0.00     0.135 A 
ATOM     82  C   UNL     1       2.813 -17.583   7.467  1.00  0.00     0.135 A 
ATOM     83  F   UNL     1       0.372 -15.896   9.566  1.00  0.00    -0.206 F 
ATOM     84  C   UNL     1       0.499 -18.146   8.908  1.00  0.00     0.059 A 
ATOM     85  C   UNL     1       2.305 -18.878   7.460  1.00  0.00     0.059 A 
ATOM     86  F   UNL     1       3.928 -17.338   6.760  1.00  0.00    -0.206 F 
ATOM     87  C   UNL     1       1.153 -19.152   8.194  1.00  0.00     0.060 A 
BRANCH  87  88
ATOM     88  S   UNL     1       0.462 -20.820   8.215  1.00  0.00     0.124 S 
ATOM     89  O   UNL     1       0.781 -21.254   9.570  1.00  0.00    -0.237 OA
ATOM     90  O   UNL     1      -0.949 -20.572   7.939  1.00  0.00    -0.237 OA
ATOM     91  O   UNL     1       1.192 -21.499   7.147  1.00  0.00    -0.744 OA
ENDBRANCH  87  88
ENDBRANCH  55  80
BRANCH  67  92
ATOM     92  C   UNL     1       5.071 -12.407  12.990  1.00  0.00     0.058 A 
ATOM     93  C   UNL     1       6.074 -13.253  13.486  1.00  0.00     0.135 A 
ATOM     94  C   UNL     1       4.321 -11.662  13.914  1.00  0.00     0.135 A 
ATOM     95  F   UNL     1       6.813 -13.993  12.644  1.00  0.00    -0.206 F 
ATOM     96  C   UNL     1       6.312 -13.370  14.851  1.00  0.00     0.059 A 
ATOM     97  C   UNL     1       4.562 -11.740  15.281  1.00  0.00     0.059 A 
ATOM     98  F   UNL     1       3.357 -10.830  13.489  1.00  0.00    -0.206 F 
ATOM     99  C   UNL     1       5.554 -12.605  15.741  1.00  0.00     0.060 A 
BRANCH  99 100
ATOM    100  S   UNL     1       5.906 -12.730  17.506  1.00  0.00     0.124 S 
ATOM    101  O   UNL     1       5.349 -14.041  17.825  1.00  0.00    -0.237 OA
ATOM    102  O   UNL     1       7.362 -12.635  17.541  1.00  0.00    -0.237 OA
ATOM    103  O   UNL     1       5.196 -11.590  18.077  1.00  0.00    -0.744 OA
ENDBRANCH  99 100
ENDBRANCH  67  92
ENDBRANCH  41  42
ENDBRANCH  34  36
ENDBRANCH  33  34
ENDBRANCH  32  33
ENDBRANCH   1  32
TORSDOF 21
