REMARK SMILES COCCN1C(=O)C[C@H](C(=O)OCCOC(=O)c2ccc(-c3c4nc(c(-c5c(F)cc(S(=O)(=O)[O-])cc5F)c5ccc([nH]5)c(-c5c(F)cc(S(=O)(=O)[O-])cc5F)c5nc(c(-c6c(F)cc(S(=O)(=O)[O-])cc6F)c6ccc3[nH]6)C=C5)C=C4)cc2)[C@@H]1c1ccccc1N1CCOCC1
REMARK SMILES IDX 13 1 12 2 10 3 11 4 9 5 5 6 6 7 84 8 7 9 8 10 4 11 3 12 2 13
REMARK SMILES IDX 1 14 85 15 86 16 90 17 87 18 89 19 88 20 91 21 92 22 96 23
REMARK SMILES IDX 93 24 95 25 94 26 14 27 15 28 16 29 17 30 18 31 19 32 83 33
REMARK SMILES IDX 20 34 82 35 21 36 22 37 23 38 76 39 24 40 81 41 75 42 77 43
REMARK SMILES IDX 25 44 80 45 74 46 73 47 26 49 60 50 39 51 59 52 40 53 43 54
REMARK SMILES IDX 58 55 78 56 41 57 42 58 57 60 79 61 44 62 27 63 28 64 37 65
REMARK SMILES IDX 29 66 30 67 36 68 38 69 31 70 32 71 33 72 34 73 35 74 61 75
REMARK SMILES IDX 62 76 71 77 63 78 64 79 70 80 72 81 65 82 66 83 67 84 68 85
REMARK SMILES IDX 69 86 45 87 46 88 55 89 47 90 48 91 54 92 56 93 49 94 50 95
REMARK SMILES IDX 51 96 52 97 53 98
REMARK H PARENT 77 48 43 59
REMARK Flexibility Score: inf
ROOT
ATOM      1  C   UNL     1       2.457  -3.461   6.125  1.00  0.00     0.274 C 
ENDROOT
BRANCH   1   2
ATOM      2  O   UNL     1       1.712  -2.616   5.229  1.00  0.00    -0.462 OA
BRANCH   2   3
ATOM      3  C   UNL     1       2.428  -2.126   4.189  1.00  0.00     0.312 C 
ATOM      4  O   UNL     1       3.594  -2.402   3.972  1.00  0.00    -0.252 OA
BRANCH   3   5
ATOM      5  C   UNL     1       1.661  -1.260   3.248  1.00  0.00     0.136 C 
ATOM      6  N   UNL     1       0.697   0.757   2.708  1.00  0.00    -0.332 N 
ATOM      7  C   UNL     1      -0.338  -0.167   2.661  1.00  0.00     0.224 C 
ATOM      8  C   UNL     1       1.907   0.242   3.372  1.00  0.00     0.132 C 
ATOM      9  O   UNL     1      -1.469   0.018   2.242  1.00  0.00    -0.275 OA
ATOM     10  C   UNL     1       0.154  -1.458   3.246  1.00  0.00     0.118 C 
BRANCH   6  11
ATOM     11  C   UNL     1       0.595   2.075   2.090  1.00  0.00     0.148 C 
BRANCH  11  12
ATOM     12  C   UNL     1       1.299   2.196   0.732  1.00  0.00     0.181 C 
BRANCH  12  13
ATOM     13  O   UNL     1       0.664   1.432  -0.294  1.00  0.00    -0.383 OA
ATOM     14  C   UNL     1       1.302   0.189  -0.553  1.00  0.00     0.194 C 
ENDBRANCH  12  13
ENDBRANCH  11  12
ENDBRANCH   6  11
BRANCH   8  15
ATOM     15  C   UNL     1       2.146   0.793   4.784  1.00  0.00    -0.001 A 
ATOM     16  C   UNL     1       1.061   1.429   5.442  1.00  0.00     0.008 A 
ATOM     17  C   UNL     1       3.377   0.641   5.496  1.00  0.00     0.042 A 
ATOM     18  C   UNL     1       1.153   1.900   6.750  1.00  0.00     0.001 A 
ATOM     19  C   UNL     1       3.422   1.127   6.824  1.00  0.00     0.026 A 
ATOM     20  C   UNL     1       2.335   1.741   7.446  1.00  0.00     0.002 A 
BRANCH  17  21
ATOM     21  N   UNL     1       4.500  -0.016   4.987  1.00  0.00    -0.367 N 
ATOM     22  C   UNL     1       5.259   0.540   3.849  1.00  0.00     0.145 C 
ATOM     23  C   UNL     1       5.395  -0.767   5.912  1.00  0.00     0.145 C 
ATOM     24  C   UNL     1       6.055  -0.585   3.155  1.00  0.00     0.181 C 
ATOM     25  C   UNL     1       6.269  -1.797   5.168  1.00  0.00     0.181 C 
ATOM     26  O   UNL     1       6.974  -1.208   4.067  1.00  0.00    -0.378 OA
ENDBRANCH  17  21
ENDBRANCH   8  15
ENDBRANCH   3   5
ENDBRANCH   2   3
ENDBRANCH   1   2
BRANCH   1  27
ATOM     27  C   UNL     1       2.577  -4.920   5.653  1.00  0.00     0.275 C 
BRANCH  27  28
ATOM     28  O   UNL     1       3.500  -5.099   4.556  1.00  0.00    -0.458 OA
BRANCH  28  29
ATOM     29  C   UNL     1       2.957  -4.995   3.316  1.00  0.00     0.338 C 
ATOM     30  O   UNL     1       1.769  -4.841   3.062  1.00  0.00    -0.246 OA
BRANCH  29  31
ATOM     31  C   UNL     1       4.011  -4.889   2.279  1.00  0.00     0.060 A 
ATOM     32  C   UNL     1       3.871  -3.886   1.308  1.00  0.00     0.016 A 
ATOM     33  C   UNL     1       5.089  -5.772   2.212  1.00  0.00     0.016 A 
ATOM     34  C   UNL     1       4.792  -3.757   0.273  1.00  0.00     0.010 A 
ATOM     35  C   UNL     1       5.996  -5.670   1.147  1.00  0.00     0.010 A 
ATOM     36  C   UNL     1       5.838  -4.676   0.162  1.00  0.00    -0.014 A 
BRANCH  36  37
ATOM     37  C   UNL     1       6.642  -4.702  -1.083  1.00  0.00     0.031 A 
ATOM     38  C   UNL     1       6.227  -5.644  -2.180  1.00  0.00     0.074 A 
ATOM     39  C   UNL     1       7.690  -3.877  -1.257  1.00  0.00     0.049 A 
ATOM     40  N   UNL     1       6.801  -5.884  -3.330  1.00  0.00    -0.248 NA
ATOM     41  C   UNL     1       4.994  -6.415  -1.950  1.00  0.00     0.031 C 
ATOM     42  C   UNL     1       8.145  -2.874  -0.295  1.00  0.00     0.029 A 
ATOM     43  N   UNL     1       8.570  -3.762  -2.305  1.00  0.00    -0.354 N 
ATOM     44  C   UNL     1       6.012  -6.844  -3.952  1.00  0.00     0.074 A 
ATOM     45  C   UNL     1       4.923  -7.150  -3.050  1.00  0.00     0.031 C 
ATOM     46  C   UNL     1       9.239  -2.265  -0.787  1.00  0.00     0.029 A 
ATOM     47  C   UNL     1       9.582  -2.860  -2.079  1.00  0.00     0.049 A 
ATOM     48  H   UNL     1       8.484  -4.277  -3.140  1.00  0.00     0.167 HD
ATOM     49  C   UNL     1       6.183  -7.421  -5.165  1.00  0.00     0.037 A 
ATOM     50  C   UNL     1      10.678  -2.577  -2.813  1.00  0.00     0.037 A 
ATOM     51  C   UNL     1       7.272  -7.114  -6.054  1.00  0.00     0.049 A 
ATOM     52  C   UNL     1      10.891  -3.292  -4.126  1.00  0.00     0.074 A 
ATOM     53  C   UNL     1       7.528  -7.636  -7.310  1.00  0.00     0.029 A 
ATOM     54  N   UNL     1       8.294  -6.218  -5.777  1.00  0.00    -0.354 N 
ATOM     55  N   UNL     1      10.130  -4.186  -4.713  1.00  0.00    -0.248 NA
ATOM     56  C   UNL     1      12.111  -2.961  -4.877  1.00  0.00     0.031 C 
ATOM     57  C   UNL     1       8.737  -7.102  -7.766  1.00  0.00     0.029 A 
ATOM     58  C   UNL     1       9.200  -6.197  -6.825  1.00  0.00     0.049 A 
ATOM     59  H   UNL     1       8.365  -5.677  -4.958  1.00  0.00     0.167 HD
ATOM     60  C   UNL     1      10.764  -4.501  -5.912  1.00  0.00     0.074 A 
ATOM     61  C   UNL     1      11.964  -3.694  -5.973  1.00  0.00     0.031 C 
ATOM     62  C   UNL     1      10.387  -5.378  -6.877  1.00  0.00     0.037 A 
BRANCH  49  63
ATOM     63  C   UNL     1       5.200  -8.479  -5.582  1.00  0.00     0.058 A 
ATOM     64  C   UNL     1       3.880  -8.169  -5.944  1.00  0.00     0.135 A 
ATOM     65  C   UNL     1       5.601  -9.823  -5.658  1.00  0.00     0.135 A 
ATOM     66  F   UNL     1       3.436  -6.904  -5.868  1.00  0.00    -0.206 F 
ATOM     67  C   UNL     1       2.987  -9.156  -6.350  1.00  0.00     0.059 A 
ATOM     68  C   UNL     1       4.735 -10.822  -6.089  1.00  0.00     0.059 A 
ATOM     69  F   UNL     1       6.851 -10.175  -5.317  1.00  0.00    -0.206 F 
ATOM     70  C   UNL     1       3.426 -10.480  -6.423  1.00  0.00     0.060 A 
BRANCH  70  71
ATOM     71  S   UNL     1       2.262 -11.747  -6.970  1.00  0.00     0.124 S 
ATOM     72  O   UNL     1       1.358 -11.825  -5.827  1.00  0.00    -0.237 OA
ATOM     73  O   UNL     1       1.704 -11.154  -8.181  1.00  0.00    -0.237 OA
ATOM     74  O   UNL     1       3.107 -12.918  -7.181  1.00  0.00    -0.744 OA
ENDBRANCH  70  71
ENDBRANCH  49  63
BRANCH  50  75
ATOM     75  C   UNL     1      11.686  -1.603  -2.309  1.00  0.00     0.058 A 
ATOM     76  C   UNL     1      11.912  -0.380  -2.959  1.00  0.00     0.135 A 
ATOM     77  C   UNL     1      12.463  -1.888  -1.174  1.00  0.00     0.135 A 
ATOM     78  F   UNL     1      11.209  -0.065  -4.058  1.00  0.00    -0.206 F 
ATOM     79  C   UNL     1      12.881   0.515  -2.515  1.00  0.00     0.059 A 
ATOM     80  C   UNL     1      13.416  -0.996  -0.693  1.00  0.00     0.059 A 
ATOM     81  F   UNL     1      12.287  -3.042  -0.511  1.00  0.00    -0.206 F 
ATOM     82  C   UNL     1      13.627   0.199  -1.378  1.00  0.00     0.060 A 
BRANCH  82  83
ATOM     83  S   UNL     1      14.853   1.385  -0.786  1.00  0.00     0.124 S 
ATOM     84  O   UNL     1      15.892   1.267  -1.803  1.00  0.00    -0.237 OA
ATOM     85  O   UNL     1      14.096   2.634  -0.789  1.00  0.00    -0.237 OA
ATOM     86  O   UNL     1      15.203   0.877   0.536  1.00  0.00    -0.744 OA
ENDBRANCH  82  83
ENDBRANCH  50  75
BRANCH  62  87
ATOM     87  C   UNL     1      11.251  -5.486  -8.106  1.00  0.00     0.058 A 
ATOM     88  C   UNL     1      12.512  -6.101  -8.075  1.00  0.00     0.135 A 
ATOM     89  C   UNL     1      10.776  -5.029  -9.347  1.00  0.00     0.135 A 
ATOM     90  F   UNL     1      13.017  -6.551  -6.916  1.00  0.00    -0.206 F 
ATOM     91  C   UNL     1      13.281  -6.240  -9.227  1.00  0.00     0.059 A 
ATOM     92  C   UNL     1      11.514  -5.187 -10.516  1.00  0.00     0.059 A 
ATOM     93  F   UNL     1       9.571  -4.444  -9.437  1.00  0.00    -0.206 F 
ATOM     94  C   UNL     1      12.771  -5.784 -10.444  1.00  0.00     0.060 A 
BRANCH  94  95
ATOM     95  S   UNL     1      13.761  -6.009 -11.937  1.00  0.00     0.124 S 
ATOM     96  O   UNL     1      14.820  -5.024 -11.739  1.00  0.00    -0.237 OA
ATOM     97  O   UNL     1      14.168  -7.407 -11.834  1.00  0.00    -0.237 OA
ATOM     98  O   UNL     1      12.824  -5.713 -13.017  1.00  0.00    -0.744 OA
ENDBRANCH  94  95
ENDBRANCH  62  87
ENDBRANCH  36  37
ENDBRANCH  29  31
ENDBRANCH  28  29
ENDBRANCH  27  28
ENDBRANCH   1  27
TORSDOF 19
