REMARK SMILES Cc1ccc(CN(CC(=O)OCCOC(=O)c2ccc(-c3c4nc(c(-c5c(F)cc(S(=O)(=O)[O-])cc5F)c5ccc([nH]5)c(-c5c(F)cc(S(=O)(=O)[O-])cc5F)c5nc(c(-c6c(F)cc(S(=O)(=O)[O-])cc6F)c6ccc3[nH]6)C=C5)C=C4)cc2)C(=O)c2cc3c(s2)CCOC3)cc1
REMARK SMILES IDX 12 1 11 2 9 3 10 4 8 5 7 6 6 7 5 8 1 9 2 10 3 11 95 12 4 13
REMARK SMILES IDX 94 14 83 15 84 16 85 17 86 18 89 19 87 20 88 21 93 22 90 23
REMARK SMILES IDX 92 24 91 25 13 26 14 27 15 28 16 29 17 30 18 31 82 32 19 33
REMARK SMILES IDX 81 34 20 35 21 36 22 37 75 38 23 39 80 40 74 41 76 42 24 43
REMARK SMILES IDX 79 44 73 45 72 46 25 48 59 49 38 50 58 51 39 52 42 53 57 54
REMARK SMILES IDX 77 55 40 56 41 57 56 59 78 60 43 61 26 62 27 63 36 64 28 65
REMARK SMILES IDX 29 66 35 67 37 68 30 69 31 70 32 71 33 72 34 73 60 74 61 75
REMARK SMILES IDX 70 76 62 77 63 78 69 79 71 80 64 81 65 82 66 83 67 84 68 85
REMARK SMILES IDX 44 86 45 87 54 88 46 89 47 90 53 91 55 92 48 93 49 94 50 95
REMARK SMILES IDX 51 96 52 97
REMARK H PARENT 76 47 42 58
REMARK Flexibility Score: inf
ROOT
ATOM      1  C   UNL     1      -7.160   0.925  -2.455  1.00  0.00     0.274 C 
ENDROOT
BRANCH   1   2
ATOM      2  O   UNL     1      -5.773   0.643  -2.307  1.00  0.00    -0.461 OA
BRANCH   2   3
ATOM      3  C   UNL     1      -5.423  -0.151  -1.257  1.00  0.00     0.325 C 
ATOM      4  O   UNL     1      -6.133  -0.385  -0.288  1.00  0.00    -0.250 OA
BRANCH   3   5
ATOM      5  C   UNL     1      -4.043  -0.752  -1.488  1.00  0.00     0.242 C 
BRANCH   5   6
ATOM      6  N   UNL     1      -3.122   0.356  -1.716  1.00  0.00    -0.323 N 
BRANCH   6   7
ATOM      7  C   UNL     1      -2.712   1.052  -0.502  1.00  0.00     0.156 C 
BRANCH   7   8
ATOM      8  C   UNL     1      -1.278   0.732  -0.175  1.00  0.00    -0.029 A 
ATOM      9  C   UNL     1       2.916  -0.145   0.111  1.00  0.00     0.044 C 
ATOM     10  C   UNL     1       1.452   0.168   0.105  1.00  0.00    -0.051 A 
ATOM     11  C   UNL     1       0.521  -0.874   0.073  1.00  0.00     0.004 A 
ATOM     12  C   UNL     1       1.003   1.492   0.069  1.00  0.00     0.004 A 
ATOM     13  C   UNL     1      -0.836  -0.594  -0.055  1.00  0.00     0.006 A 
ATOM     14  C   UNL     1      -0.353   1.773  -0.067  1.00  0.00     0.006 A 
ENDBRANCH   7   8
ENDBRANCH   6   7
BRANCH   6  15
ATOM     15  C   UNL     1      -2.782   0.906  -2.969  1.00  0.00     0.264 C 
ATOM     16  O   UNL     1      -2.301   2.042  -3.019  1.00  0.00    -0.268 OA
BRANCH  15  17
ATOM     17  C   UNL     1      -3.001   0.151  -4.200  1.00  0.00     0.093 A 
ATOM     18  C   UNL     1      -4.007   0.284  -5.150  1.00  0.00     0.032 A 
ATOM     19  S   UNL     1      -1.799  -0.955  -4.746  1.00  0.00    -0.135 S 
ATOM     20  C   UNL     1      -3.936  -0.735  -6.166  1.00  0.00    -0.008 A 
ATOM     21  C   UNL     1      -2.729  -1.398  -6.099  1.00  0.00     0.013 A 
ATOM     22  C   UNL     1      -5.032  -1.248  -7.080  1.00  0.00     0.196 C 
ATOM     23  C   UNL     1      -2.370  -2.477  -7.073  1.00  0.00     0.075 C 
ATOM     24  O   UNL     1      -4.528  -2.115  -8.126  1.00  0.00    -0.376 OA
ATOM     25  C   UNL     1      -3.670  -3.134  -7.561  1.00  0.00     0.166 C 
ENDBRANCH  15  17
ENDBRANCH   6  15
ENDBRANCH   5   6
ENDBRANCH   3   5
ENDBRANCH   2   3
ENDBRANCH   1   2
BRANCH   1  26
ATOM     26  C   UNL     1      -7.562   0.676  -3.918  1.00  0.00     0.275 C 
BRANCH  26  27
ATOM     27  O   UNL     1      -7.161  -0.556  -4.601  1.00  0.00    -0.458 OA
BRANCH  27  28
ATOM     28  C   UNL     1      -6.494  -1.570  -4.009  1.00  0.00     0.338 C 
ATOM     29  O   UNL     1      -5.310  -1.841  -4.207  1.00  0.00    -0.246 OA
BRANCH  28  30
ATOM     30  C   UNL     1      -7.167  -2.307  -2.977  1.00  0.00     0.060 A 
ATOM     31  C   UNL     1      -6.405  -3.197  -2.181  1.00  0.00     0.016 A 
ATOM     32  C   UNL     1      -8.437  -1.883  -2.651  1.00  0.00     0.016 A 
ATOM     33  C   UNL     1      -6.916  -3.626  -0.988  1.00  0.00     0.010 A 
ATOM     34  C   UNL     1      -8.815  -2.076  -1.373  1.00  0.00     0.010 A 
ATOM     35  C   UNL     1      -8.117  -3.042  -0.624  1.00  0.00    -0.014 A 
BRANCH  35  36
ATOM     36  C   UNL     1      -8.993  -3.619   0.354  1.00  0.00     0.031 A 
ATOM     37  C   UNL     1      -8.764  -3.193   1.740  1.00  0.00     0.074 A 
ATOM     38  C   UNL     1     -10.024  -4.192  -0.318  1.00  0.00     0.049 A 
ATOM     39  N   UNL     1      -8.888  -3.939   2.781  1.00  0.00    -0.248 NA
ATOM     40  C   UNL     1      -8.196  -1.872   2.073  1.00  0.00     0.031 C 
ATOM     41  C   UNL     1     -11.411  -4.406   0.029  1.00  0.00     0.029 A 
ATOM     42  N   UNL     1      -9.995  -4.663  -1.651  1.00  0.00    -0.354 N 
ATOM     43  C   UNL     1      -9.001  -3.036   3.825  1.00  0.00     0.074 A 
ATOM     44  C   UNL     1      -8.248  -1.882   3.410  1.00  0.00     0.031 C 
ATOM     45  C   UNL     1     -11.945  -5.269  -0.866  1.00  0.00     0.029 A 
ATOM     46  C   UNL     1     -10.869  -5.730  -1.743  1.00  0.00     0.049 A 
ATOM     47  H   UNL     1      -9.449  -4.296  -2.384  1.00  0.00     0.167 HD
ATOM     48  C   UNL     1     -10.090  -3.130   4.648  1.00  0.00     0.037 A 
ATOM     49  C   UNL     1     -10.373  -7.005  -1.815  1.00  0.00     0.037 A 
ATOM     50  C   UNL     1     -10.990  -4.162   4.122  1.00  0.00     0.049 A 
ATOM     51  C   UNL     1     -10.628  -7.706  -0.505  1.00  0.00     0.074 A 
ATOM     52  C   UNL     1     -12.168  -4.070   3.400  1.00  0.00     0.029 A 
ATOM     53  N   UNL     1     -10.548  -5.469   3.990  1.00  0.00    -0.354 N 
ATOM     54  N   UNL     1     -10.666  -7.089   0.643  1.00  0.00    -0.248 NA
ATOM     55  C   UNL     1     -10.902  -9.132  -0.396  1.00  0.00     0.031 C 
ATOM     56  C   UNL     1     -12.437  -5.347   2.842  1.00  0.00     0.029 A 
ATOM     57  C   UNL     1     -11.390  -6.190   3.169  1.00  0.00     0.049 A 
ATOM     58  H   UNL     1      -9.743  -5.834   4.425  1.00  0.00     0.167 HD
ATOM     59  C   UNL     1     -11.002  -7.977   1.622  1.00  0.00     0.074 A 
ATOM     60  C   UNL     1     -11.139  -9.242   0.922  1.00  0.00     0.031 C 
ATOM     61  C   UNL     1     -11.133  -7.600   2.926  1.00  0.00     0.037 A 
BRANCH  48  62
ATOM     62  C   UNL     1     -10.564  -2.114   5.673  1.00  0.00     0.058 A 
ATOM     63  C   UNL     1     -11.872  -2.217   6.204  1.00  0.00     0.135 A 
ATOM     64  C   UNL     1      -9.796  -1.064   6.218  1.00  0.00     0.135 A 
ATOM     65  F   UNL     1     -12.700  -3.212   5.859  1.00  0.00    -0.206 F 
ATOM     66  C   UNL     1     -12.395  -1.328   7.139  1.00  0.00     0.059 A 
ATOM     67  C   UNL     1     -10.306  -0.145   7.147  1.00  0.00     0.059 A 
ATOM     68  F   UNL     1      -8.499  -0.912   5.924  1.00  0.00    -0.206 F 
ATOM     69  C   UNL     1     -11.609  -0.289   7.604  1.00  0.00     0.060 A 
BRANCH  69  70
ATOM     70  S   UNL     1     -12.300   0.805   8.855  1.00  0.00     0.124 S 
ATOM     71  O   UNL     1     -13.441   1.385   8.153  1.00  0.00    -0.237 OA
ATOM     72  O   UNL     1     -12.623  -0.126   9.930  1.00  0.00    -0.237 OA
ATOM     73  O   UNL     1     -11.208   1.732   9.138  1.00  0.00    -0.744 OA
ENDBRANCH  69  70
ENDBRANCH  48  62
BRANCH  49  74
ATOM     74  C   UNL     1      -9.092  -7.149  -2.585  1.00  0.00     0.058 A 
ATOM     75  C   UNL     1      -9.095  -6.839  -3.959  1.00  0.00     0.135 A 
ATOM     76  C   UNL     1      -7.839  -7.256  -1.957  1.00  0.00     0.135 A 
ATOM     77  F   UNL     1     -10.257  -6.727  -4.623  1.00  0.00    -0.206 F 
ATOM     78  C   UNL     1      -7.927  -6.520  -4.643  1.00  0.00     0.059 A 
ATOM     79  C   UNL     1      -6.652  -6.940  -2.626  1.00  0.00     0.059 A 
ATOM     80  F   UNL     1      -7.756  -7.559  -0.654  1.00  0.00    -0.206 F 
ATOM     81  C   UNL     1      -6.714  -6.532  -3.956  1.00  0.00     0.060 A 
BRANCH  81  82
ATOM     82  S   UNL     1      -5.299  -5.754  -4.765  1.00  0.00     0.124 S 
ATOM     83  O   UNL     1      -4.948  -6.725  -5.793  1.00  0.00    -0.237 OA
ATOM     84  O   UNL     1      -5.916  -4.522  -5.245  1.00  0.00    -0.237 OA
ATOM     85  O   UNL     1      -4.331  -5.595  -3.683  1.00  0.00    -0.744 OA
ENDBRANCH  81  82
ENDBRANCH  49  74
BRANCH  61  86
ATOM     86  C   UNL     1     -11.125  -8.539   4.099  1.00  0.00     0.058 A 
ATOM     87  C   UNL     1     -10.557  -9.821   4.059  1.00  0.00     0.135 A 
ATOM     88  C   UNL     1     -11.578  -8.110   5.372  1.00  0.00     0.135 A 
ATOM     89  F   UNL     1      -9.927 -10.282   2.969  1.00  0.00    -0.206 F 
ATOM     90  C   UNL     1     -10.576 -10.672   5.155  1.00  0.00     0.059 A 
ATOM     91  C   UNL     1     -11.518  -8.909   6.503  1.00  0.00     0.059 A 
ATOM     92  F   UNL     1     -12.092  -6.888   5.574  1.00  0.00    -0.206 F 
ATOM     93  C   UNL     1     -11.072 -10.211   6.369  1.00  0.00     0.060 A 
BRANCH  93  94
ATOM     94  S   UNL     1     -11.132 -11.326   7.771  1.00  0.00     0.124 S 
ATOM     95  O   UNL     1     -12.373 -12.046   7.505  1.00  0.00    -0.237 OA
ATOM     96  O   UNL     1      -9.905 -12.102   7.613  1.00  0.00    -0.237 OA
ATOM     97  O   UNL     1     -11.154 -10.426   8.919  1.00  0.00    -0.744 OA
ENDBRANCH  93  94
ENDBRANCH  61  86
ENDBRANCH  35  36
ENDBRANCH  28  30
ENDBRANCH  27  28
ENDBRANCH  26  27
ENDBRANCH   1  26
TORSDOF 19
