REMARK SMILES Cc1ccccc1[C@@H]1[NH2+][C@H](C(=O)OCCOC(=O)c2ccc(-c3c4nc(c(-c5c(F)cc(S(=O)(=O)[O-])cc5F)c5ccc([nH]5)c(-c5c(F)cc(S(=O)(=O)[O-])cc5F)c5nc(c(-c6c(F)cc(S(=O)(=O)[O-])cc6F)c6ccc3[nH]6)C=C5)C=C4)cc2)CC2=c3ccccc3=N[C@@H]21
REMARK SMILES IDX 15 1 14 2 13 3 11 4 12 5 10 6 8 7 9 8 94 9 86 12 93 13 85 14
REMARK SMILES IDX 87 15 92 16 88 17 91 18 89 19 90 20 7 21 1 22 2 23 3 24 4 25
REMARK SMILES IDX 6 26 5 27 16 28 17 29 18 30 19 31 20 32 84 33 21 34 83 35
REMARK SMILES IDX 22 36 23 37 24 38 77 39 25 40 82 41 76 42 78 43 26 44 81 45
REMARK SMILES IDX 75 46 74 47 27 49 61 50 40 51 60 52 41 53 44 54 59 55 79 56
REMARK SMILES IDX 42 57 43 58 58 60 80 61 45 62 28 63 29 64 38 65 30 66 31 67
REMARK SMILES IDX 37 68 39 69 32 70 33 71 34 72 35 73 36 74 62 75 63 76 72 77
REMARK SMILES IDX 64 78 65 79 71 80 73 81 66 82 67 83 68 84 69 85 70 86 46 87
REMARK SMILES IDX 47 88 56 89 48 90 49 91 55 92 57 93 50 94 51 95 52 96 53 97
REMARK SMILES IDX 54 98
REMARK H PARENT 9 10 9 11 78 48 44 59
REMARK Flexibility Score: inf
ROOT
ATOM      1  C   UNL     1      -0.610   4.069  -1.796  1.00  0.00     0.275 C 
ENDROOT
BRANCH   1   2
ATOM      2  C   UNL     1       0.839   4.600  -1.879  1.00  0.00     0.274 C 
BRANCH   2   3
ATOM      3  O   UNL     1       1.388   5.457  -0.835  1.00  0.00    -0.458 OA
BRANCH   3   4
ATOM      4  C   UNL     1       2.013   5.190   0.353  1.00  0.00     0.365 C 
ATOM      5  O   UNL     1       2.846   5.973   0.799  1.00  0.00    -0.245 OA
BRANCH   4   6
ATOM      6  C   UNL     1       1.555   3.930   1.092  1.00  0.00     0.298 C 
ATOM      7  C   UNL     1       1.682   1.537   0.457  1.00  0.00     0.243 C 
ATOM      8  N   UNL     1       1.550   2.921   0.057  1.00  0.00    -0.326 N 
ATOM      9  C   UNL     1       3.151   1.415   1.046  1.00  0.00     0.196 C 
ATOM     10  H   UNL     1       0.667   3.009  -0.447  1.00  0.00     0.347 HD
ATOM     11  H   UNL     1       2.391   3.111  -0.488  1.00  0.00     0.347 HD
ATOM     12  C   UNL     1       3.447   2.635   1.936  1.00  0.00    -0.024 C 
ATOM     13  N   UNL     1       4.240   1.508   0.021  1.00  0.00    -0.270 NA
ATOM     14  C   UNL     1       2.300   3.500   2.370  1.00  0.00     0.111 C 
ATOM     15  C   UNL     1       4.630   3.188   1.677  1.00  0.00     0.002 A 
ATOM     16  C   UNL     1       4.988   2.494   0.429  1.00  0.00     0.066 A 
ATOM     17  C   UNL     1       5.157   4.481   2.004  1.00  0.00     0.010 A 
ATOM     18  C   UNL     1       6.103   3.105  -0.336  1.00  0.00     0.028 A 
ATOM     19  C   UNL     1       6.061   5.036   1.185  1.00  0.00     0.001 A 
ATOM     20  C   UNL     1       6.565   4.314   0.033  1.00  0.00     0.002 A 
BRANCH   7  21
ATOM     21  C   UNL     1       1.116   0.852  -0.807  1.00  0.00     0.015 A 
ATOM     22  C   UNL     1      -1.251   0.541   0.243  1.00  0.00     0.045 C 
ATOM     23  C   UNL     1      -0.279   0.569  -0.915  1.00  0.00    -0.042 A 
ATOM     24  C   UNL     1      -0.879   0.468  -2.192  1.00  0.00     0.004 A 
ATOM     25  C   UNL     1      -0.147   0.679  -3.358  1.00  0.00     0.000 A 
ATOM     26  C   UNL     1       1.844   0.978  -2.019  1.00  0.00     0.010 A 
ATOM     27  C   UNL     1       1.215   0.932  -3.270  1.00  0.00     0.001 A 
ENDBRANCH   7  21
ENDBRANCH   4   6
ENDBRANCH   3   4
ENDBRANCH   2   3
ENDBRANCH   1   2
BRANCH   1  28
ATOM     28  O   UNL     1      -1.179   3.651  -0.514  1.00  0.00    -0.458 OA
BRANCH  28  29
ATOM     29  C   UNL     1      -1.546   4.363   0.615  1.00  0.00     0.338 C 
ATOM     30  O   UNL     1      -1.720   3.805   1.674  1.00  0.00    -0.246 OA
BRANCH  29  31
ATOM     31  C   UNL     1      -1.479   5.840   0.471  1.00  0.00     0.060 A 
ATOM     32  C   UNL     1      -0.578   6.650   1.194  1.00  0.00     0.016 A 
ATOM     33  C   UNL     1      -1.976   6.260  -0.721  1.00  0.00     0.016 A 
ATOM     34  C   UNL     1       0.069   7.722   0.540  1.00  0.00     0.010 A 
ATOM     35  C   UNL     1      -1.082   7.001  -1.422  1.00  0.00     0.010 A 
ATOM     36  C   UNL     1      -0.100   7.821  -0.838  1.00  0.00    -0.014 A 
BRANCH  36  37
ATOM     37  C   UNL     1       0.594   8.666  -1.835  1.00  0.00     0.031 A 
ATOM     38  C   UNL     1       2.072   8.878  -1.877  1.00  0.00     0.074 A 
ATOM     39  C   UNL     1      -0.263   9.187  -2.758  1.00  0.00     0.049 A 
ATOM     40  N   UNL     1       2.656  10.033  -1.904  1.00  0.00    -0.248 NA
ATOM     41  C   UNL     1       3.053   7.787  -1.929  1.00  0.00     0.031 C 
ATOM     42  C   UNL     1      -0.088   9.980  -3.952  1.00  0.00     0.029 A 
ATOM     43  N   UNL     1      -1.671   9.139  -2.654  1.00  0.00    -0.354 N 
ATOM     44  C   UNL     1       3.965   9.812  -2.331  1.00  0.00     0.074 A 
ATOM     45  C   UNL     1       4.223   8.421  -2.091  1.00  0.00     0.031 C 
ATOM     46  C   UNL     1      -1.248  10.644  -4.187  1.00  0.00     0.029 A 
ATOM     47  C   UNL     1      -2.185  10.325  -3.106  1.00  0.00     0.049 A 
ATOM     48  H   UNL     1      -2.195   8.379  -2.313  1.00  0.00     0.167 HD
ATOM     49  C   UNL     1       4.577  10.677  -3.198  1.00  0.00     0.037 A 
ATOM     50  C   UNL     1      -2.756  11.111  -2.150  1.00  0.00     0.037 A 
ATOM     51  C   UNL     1       3.570  11.600  -3.696  1.00  0.00     0.049 A 
ATOM     52  C   UNL     1      -1.926  12.348  -2.059  1.00  0.00     0.074 A 
ATOM     53  C   UNL     1       2.843  11.589  -4.874  1.00  0.00     0.029 A 
ATOM     54  N   UNL     1       2.933  12.474  -2.834  1.00  0.00    -0.354 N 
ATOM     55  N   UNL     1      -0.626  12.368  -2.182  1.00  0.00    -0.248 NA
ATOM     56  C   UNL     1      -2.535  13.668  -2.050  1.00  0.00     0.031 C 
ATOM     57  C   UNL     1       1.756  12.479  -4.719  1.00  0.00     0.029 A 
ATOM     58  C   UNL     1       1.804  12.990  -3.432  1.00  0.00     0.049 A 
ATOM     59  H   UNL     1       3.241  12.696  -1.926  1.00  0.00     0.167 HD
ATOM     60  C   UNL     1      -0.238  13.663  -2.404  1.00  0.00     0.074 A 
ATOM     61  C   UNL     1      -1.462  14.437  -2.286  1.00  0.00     0.031 C 
ATOM     62  C   UNL     1       1.031  14.014  -2.763  1.00  0.00     0.037 A 
BRANCH  49  63
ATOM     63  C   UNL     1       5.919  10.508  -3.913  1.00  0.00     0.058 A 
ATOM     64  C   UNL     1       6.174  11.175  -5.140  1.00  0.00     0.135 A 
ATOM     65  C   UNL     1       7.017   9.771  -3.422  1.00  0.00     0.135 A 
ATOM     66  F   UNL     1       5.274  11.991  -5.704  1.00  0.00    -0.206 F 
ATOM     67  C   UNL     1       7.367  11.062  -5.855  1.00  0.00     0.059 A 
ATOM     68  C   UNL     1       8.228   9.633  -4.131  1.00  0.00     0.059 A 
ATOM     69  F   UNL     1       6.970   9.186  -2.216  1.00  0.00    -0.206 F 
ATOM     70  C   UNL     1       8.390  10.278  -5.353  1.00  0.00     0.060 A 
BRANCH  70  71
ATOM     71  S   UNL     1       9.917  10.164  -6.311  1.00  0.00     0.124 S 
ATOM     72  O   UNL     1       9.446   9.589  -7.568  1.00  0.00    -0.237 OA
ATOM     73  O   UNL     1      10.347  11.557  -6.376  1.00  0.00    -0.237 OA
ATOM     74  O   UNL     1      10.760   9.286  -5.505  1.00  0.00    -0.744 OA
ENDBRANCH  70  71
ENDBRANCH  49  63
BRANCH  50  75
ATOM     75  C   UNL     1      -3.411  10.343  -1.015  1.00  0.00     0.058 A 
ATOM     76  C   UNL     1      -4.479   9.468  -1.333  1.00  0.00     0.135 A 
ATOM     77  C   UNL     1      -2.848  10.175   0.262  1.00  0.00     0.135 A 
ATOM     78  F   UNL     1      -5.063   9.542  -2.542  1.00  0.00    -0.206 F 
ATOM     79  C   UNL     1      -4.903   8.438  -0.486  1.00  0.00     0.059 A 
ATOM     80  C   UNL     1      -3.265   9.149   1.138  1.00  0.00     0.059 A 
ATOM     81  F   UNL     1      -1.824  10.947   0.654  1.00  0.00    -0.206 F 
ATOM     82  C   UNL     1      -4.273   8.266   0.743  1.00  0.00     0.060 A 
BRANCH  82  83
ATOM     83  S   UNL     1      -4.673   6.771   1.704  1.00  0.00     0.124 S 
ATOM     84  O   UNL     1      -6.000   7.087   2.221  1.00  0.00    -0.237 OA
ATOM     85  O   UNL     1      -4.640   5.729   0.677  1.00  0.00    -0.237 OA
ATOM     86  O   UNL     1      -3.606   6.710   2.696  1.00  0.00    -0.744 OA
ENDBRANCH  82  83
ENDBRANCH  50  75
BRANCH  62  87
ATOM     87  C   UNL     1       1.642  15.387  -2.642  1.00  0.00     0.058 A 
ATOM     88  C   UNL     1       1.097  16.410  -1.854  1.00  0.00     0.135 A 
ATOM     89  C   UNL     1       2.922  15.664  -3.196  1.00  0.00     0.135 A 
ATOM     90  F   UNL     1      -0.026  16.241  -1.146  1.00  0.00    -0.206 F 
ATOM     91  C   UNL     1       1.716  17.645  -1.708  1.00  0.00     0.059 A 
ATOM     92  C   UNL     1       3.597  16.858  -2.989  1.00  0.00     0.059 A 
ATOM     93  F   UNL     1       3.592  14.773  -3.942  1.00  0.00    -0.206 F 
ATOM     94  C   UNL     1       2.966  17.858  -2.276  1.00  0.00     0.060 A 
BRANCH  94  95
ATOM     95  S   UNL     1       3.771  19.441  -2.030  1.00  0.00     0.124 S 
ATOM     96  O   UNL     1       3.091  20.262  -3.027  1.00  0.00    -0.237 OA
ATOM     97  O   UNL     1       3.451  19.743  -0.638  1.00  0.00    -0.237 OA
ATOM     98  O   UNL     1       5.176  19.154  -2.297  1.00  0.00    -0.744 OA
ENDBRANCH  94  95
ENDBRANCH  62  87
ENDBRANCH  36  37
ENDBRANCH  29  31
ENDBRANCH  28  29
ENDBRANCH   1  28
TORSDOF 15
