REMARK SMILES O=C(COCCNC(=O)c1cc(Cl)c2c(c1)OCCO2)OCCOC(=O)c1ccc(-c2c3nc(c(-c4c(F)cc(S(=O)(=O)[O-])cc4F)c4ccc([nH]4)c(-c4c(F)cc(S(=O)(=O)[O-])cc4F)c4nc(c(-c5c(F)cc(S(=O)(=O)[O-])cc5F)c5ccc2[nH]5)C=C4)C=C3)cc1
REMARK SMILES IDX 22 1 21 2 2 3 1 4 3 5 4 6 5 7 6 8 7 9 8 10 9 12 10 13 11 14
REMARK SMILES IDX 16 15 12 16 15 17 13 18 14 19 17 20 20 21 18 22 19 23 23 24
REMARK SMILES IDX 24 25 25 26 26 27 27 28 28 29 92 30 29 31 91 32 30 33 31 34
REMARK SMILES IDX 32 35 85 36 33 37 90 38 84 39 86 40 34 41 89 42 83 43 82 44
REMARK SMILES IDX 35 46 69 47 48 48 68 49 49 50 52 51 67 52 87 53 50 54 51 55
REMARK SMILES IDX 66 57 88 58 53 59 36 60 37 61 46 62 38 63 39 64 45 65 47 66
REMARK SMILES IDX 40 67 41 68 42 69 43 70 44 71 70 72 71 73 80 74 72 75 73 76
REMARK SMILES IDX 79 77 81 78 74 79 75 80 76 81 77 82 78 83 54 84 55 85 64 86
REMARK SMILES IDX 56 87 57 88 63 89 65 90 58 91 59 92 60 93 61 94 62 95
REMARK H PARENT 7 11 86 45 52 56
REMARK Flexibility Score: inf
ROOT
ATOM      1  C   UNL     1       5.006   1.325  -0.325  1.00  0.00     0.274 C 
ENDROOT
BRANCH   1   2
ATOM      2  O   UNL     1       3.709   0.938  -0.824  1.00  0.00    -0.460 OA
BRANCH   2   3
ATOM      3  C   UNL     1       3.069  -0.217  -0.534  1.00  0.00     0.332 C 
ATOM      4  O   UNL     1       1.864  -0.313  -0.764  1.00  0.00    -0.250 OA
BRANCH   3   5
ATOM      5  C   UNL     1       3.860  -1.405   0.026  1.00  0.00     0.282 C 
BRANCH   5   6
ATOM      6  O   UNL     1       4.014  -2.531  -0.821  1.00  0.00    -0.368 OA
BRANCH   6   7
ATOM      7  C   UNL     1       2.806  -3.200  -1.204  1.00  0.00     0.182 C 
BRANCH   7   8
ATOM      8  C   UNL     1       2.077  -3.905  -0.049  1.00  0.00     0.144 C 
BRANCH   8   9
ATOM      9  N   UNL     1       1.085  -3.063   0.615  1.00  0.00    -0.350 N 
ATOM     10  C   UNL     1      -0.281  -3.042   0.527  1.00  0.00     0.251 C 
ATOM     11  H   UNL     1       1.464  -2.396   1.232  1.00  0.00     0.163 HD
ATOM     12  O   UNL     1      -0.932  -2.173   1.099  1.00  0.00    -0.269 OA
BRANCH  10  13
ATOM     13  C   UNL     1      -0.974  -4.042  -0.297  1.00  0.00     0.045 A 
ATOM     14  C   UNL     1      -0.820  -5.407  -0.047  1.00  0.00     0.038 A 
ATOM     15  C   UNL     1      -1.770  -3.590  -1.351  1.00  0.00     0.064 A 
ATOM     16  C   UNL     1      -1.389  -6.329  -0.925  1.00  0.00     0.087 A 
ATOM     17  C   UNL     1      -2.333  -4.515  -2.223  1.00  0.00     0.163 A 
ATOM     18  Cl  UNL     1      -1.108  -8.008  -0.641  1.00  0.00    -0.080 Cl
ATOM     19  C   UNL     1      -2.142  -5.890  -2.022  1.00  0.00     0.179 A 
ATOM     20  O   UNL     1      -3.046  -3.997  -3.274  1.00  0.00    -0.486 OA
ATOM     21  O   UNL     1      -2.643  -6.833  -2.887  1.00  0.00    -0.485 OA
ATOM     22  C   UNL     1      -3.200  -4.958  -4.321  1.00  0.00     0.271 C 
ATOM     23  C   UNL     1      -3.640  -6.296  -3.757  1.00  0.00     0.271 C 
ENDBRANCH  10  13
ENDBRANCH   8   9
ENDBRANCH   7   8
ENDBRANCH   6   7
ENDBRANCH   5   6
ENDBRANCH   3   5
ENDBRANCH   2   3
ENDBRANCH   1   2
BRANCH   1  24
ATOM     24  C   UNL     1       4.894   1.942   1.069  1.00  0.00     0.275 C 
BRANCH  24  25
ATOM     25  O   UNL     1       4.481   0.947   2.024  1.00  0.00    -0.458 OA
BRANCH  25  26
ATOM     26  C   UNL     1       3.234   1.111   2.547  1.00  0.00     0.338 C 
ATOM     27  O   UNL     1       2.462   2.014   2.316  1.00  0.00    -0.246 OA
BRANCH  26  28
ATOM     28  C   UNL     1       2.893  -0.093   3.341  1.00  0.00     0.060 A 
ATOM     29  C   UNL     1       1.620  -0.649   3.180  1.00  0.00     0.016 A 
ATOM     30  C   UNL     1       3.810  -0.678   4.220  1.00  0.00     0.016 A 
ATOM     31  C   UNL     1       1.270  -1.802   3.889  1.00  0.00     0.010 A 
ATOM     32  C   UNL     1       3.445  -1.815   4.951  1.00  0.00     0.010 A 
ATOM     33  C   UNL     1       2.171  -2.381   4.794  1.00  0.00    -0.014 A 
BRANCH  33  34
ATOM     34  C   UNL     1       1.715  -3.484   5.677  1.00  0.00     0.031 A 
ATOM     35  C   UNL     1       0.849  -3.148   6.859  1.00  0.00     0.074 A 
ATOM     36  C   UNL     1       2.056  -4.765   5.438  1.00  0.00     0.049 A 
ATOM     37  N   UNL     1       0.261  -3.951   7.706  1.00  0.00    -0.248 NA
ATOM     38  C   UNL     1       0.610  -1.718   7.119  1.00  0.00     0.031 C 
ATOM     39  C   UNL     1       2.890  -5.232   4.332  1.00  0.00     0.029 A 
ATOM     40  N   UNL     1       1.741  -5.912   6.126  1.00  0.00    -0.354 N 
ATOM     41  C   UNL     1      -0.458  -3.130   8.566  1.00  0.00     0.074 A 
ATOM     42  C   UNL     1      -0.196  -1.764   8.169  1.00  0.00     0.031 C 
ATOM     43  C   UNL     1       3.039  -6.566   4.430  1.00  0.00     0.029 A 
ATOM     44  C   UNL     1       2.312  -7.049   5.604  1.00  0.00     0.049 A 
ATOM     45  H   UNL     1       1.160  -5.919   6.921  1.00  0.00     0.167 HD
ATOM     46  C   UNL     1      -1.276  -3.482   9.583  1.00  0.00     0.037 A 
ATOM     47  C   UNL     1       2.259  -8.328   6.030  1.00  0.00     0.037 A 
ATOM     48  C   UNL     1      -1.506  -4.833  10.011  1.00  0.00     0.049 A 
ATOM     49  C   UNL     1       1.437  -8.681   7.246  1.00  0.00     0.074 A 
ATOM     50  C   UNL     1      -2.359  -5.286  11.002  1.00  0.00     0.029 A 
ATOM     51  N   UNL     1      -0.857  -5.945   9.500  1.00  0.00    -0.354 N 
ATOM     52  N   UNL     1       0.672  -7.906   7.975  1.00  0.00    -0.248 NA
ATOM     53  C   UNL     1       1.475 -10.081   7.698  1.00  0.00     0.031 C 
ATOM     54  C   UNL     1      -2.183  -6.667  11.129  1.00  0.00     0.029 A 
ATOM     55  C   UNL     1      -1.248  -7.077  10.192  1.00  0.00     0.049 A 
ATOM     56  H   UNL     1      -0.213  -5.931   8.755  1.00  0.00     0.167 HD
ATOM     57  C   UNL     1       0.125  -8.726   8.959  1.00  0.00     0.074 A 
ATOM     58  C   UNL     1       0.640 -10.059   8.729  1.00  0.00     0.031 C 
ATOM     59  C   UNL     1      -0.728  -8.400   9.960  1.00  0.00     0.037 A 
BRANCH  46  60
ATOM     60  C   UNL     1      -1.990  -2.384  10.309  1.00  0.00     0.058 A 
ATOM     61  C   UNL     1      -3.127  -1.774   9.756  1.00  0.00     0.135 A 
ATOM     62  C   UNL     1      -1.579  -1.982  11.588  1.00  0.00     0.135 A 
ATOM     63  F   UNL     1      -3.547  -2.116   8.528  1.00  0.00    -0.206 F 
ATOM     64  C   UNL     1      -3.833  -0.798  10.449  1.00  0.00     0.059 A 
ATOM     65  C   UNL     1      -2.279  -1.018  12.306  1.00  0.00     0.059 A 
ATOM     66  F   UNL     1      -0.491  -2.531  12.151  1.00  0.00    -0.206 F 
ATOM     67  C   UNL     1      -3.402  -0.429  11.725  1.00  0.00     0.060 A 
BRANCH  67  68
ATOM     68  S   UNL     1      -4.348   0.819  12.623  1.00  0.00     0.124 S 
ATOM     69  O   UNL     1      -4.007   2.031  11.885  1.00  0.00    -0.237 OA
ATOM     70  O   UNL     1      -5.719   0.345  12.465  1.00  0.00    -0.237 OA
ATOM     71  O   UNL     1      -3.814   0.741  13.979  1.00  0.00    -0.744 OA
ENDBRANCH  67  68
ENDBRANCH  46  60
BRANCH  47  72
ATOM     72  C   UNL     1       3.024  -9.386   5.320  1.00  0.00     0.058 A 
ATOM     73  C   UNL     1       2.372 -10.368   4.560  1.00  0.00     0.135 A 
ATOM     74  C   UNL     1       4.422  -9.458   5.423  1.00  0.00     0.135 A 
ATOM     75  F   UNL     1       1.036 -10.349   4.445  1.00  0.00    -0.206 F 
ATOM     76  C   UNL     1       3.077 -11.397   3.942  1.00  0.00     0.059 A 
ATOM     77  C   UNL     1       5.150 -10.467   4.801  1.00  0.00     0.059 A 
ATOM     78  F   UNL     1       5.092  -8.539   6.135  1.00  0.00    -0.206 F 
ATOM     79  C   UNL     1       4.466 -11.440   4.072  1.00  0.00     0.060 A 
BRANCH  79  80
ATOM     80  S   UNL     1       5.376 -12.768   3.252  1.00  0.00     0.124 S 
ATOM     81  O   UNL     1       5.060 -13.909   4.104  1.00  0.00    -0.237 OA
ATOM     82  O   UNL     1       4.774 -12.777   1.922  1.00  0.00    -0.237 OA
ATOM     83  O   UNL     1       6.760 -12.306   3.302  1.00  0.00    -0.744 OA
ENDBRANCH  79  80
ENDBRANCH  47  72
BRANCH  59  84
ATOM     84  C   UNL     1      -1.163  -9.483  10.907  1.00  0.00     0.058 A 
ATOM     85  C   UNL     1      -0.317  -9.930  11.933  1.00  0.00     0.135 A 
ATOM     86  C   UNL     1      -2.475  -9.983  10.871  1.00  0.00     0.135 A 
ATOM     87  F   UNL     1       0.949  -9.490  12.005  1.00  0.00    -0.206 F 
ATOM     88  C   UNL     1      -0.762 -10.825  12.901  1.00  0.00     0.059 A 
ATOM     89  C   UNL     1      -2.947 -10.863  11.840  1.00  0.00     0.059 A 
ATOM     90  F   UNL     1      -3.325  -9.580   9.913  1.00  0.00    -0.206 F 
ATOM     91  C   UNL     1      -2.083 -11.275  12.854  1.00  0.00     0.060 A 
BRANCH  91  92
ATOM     92  S   UNL     1      -2.674 -12.357  14.175  1.00  0.00     0.124 S 
ATOM     93  O   UNL     1      -2.019 -13.617  13.840  1.00  0.00    -0.237 OA
ATOM     94  O   UNL     1      -2.181 -11.686  15.373  1.00  0.00    -0.237 OA
ATOM     95  O   UNL     1      -4.124 -12.340  14.006  1.00  0.00    -0.744 OA
ENDBRANCH  91  92
ENDBRANCH  59  84
ENDBRANCH  33  34
ENDBRANCH  26  28
ENDBRANCH  25  26
ENDBRANCH  24  25
ENDBRANCH   1  24
TORSDOF 19
