REMARK SMILES O=C(CCC1CC[NH+]([C@H]2CCO[C@@]3(CCSC3)C2)CC1)OCCOC(=O)c1ccc(-c2c3nc(c(-c4c(F)cc(S(=O)(=O)[O-])cc4F)c4ccc([nH]4)c(-c4c(F)cc(S(=O)(=O)[O-])cc4F)c4nc(c(-c5c(F)cc(S(=O)(=O)[O-])cc5F)c5ccc2[nH]5)C=C4)C=C3)cc1
REMARK SMILES IDX 22 1 21 2 2 3 1 4 3 5 4 6 5 7 6 8 20 9 7 10 19 11 8 12 9 14
REMARK SMILES IDX 10 15 18 16 11 17 13 18 12 19 14 20 17 21 15 22 16 23 23 24
REMARK SMILES IDX 24 25 25 26 26 27 27 28 28 29 92 30 29 31 91 32 30 33 31 34
REMARK SMILES IDX 32 35 85 36 33 37 90 38 84 39 86 40 34 41 89 42 83 43 82 44
REMARK SMILES IDX 35 46 69 47 48 48 68 49 49 50 52 51 67 52 87 53 50 54 51 55
REMARK SMILES IDX 66 57 88 58 53 59 36 60 37 61 46 62 38 63 39 64 45 65 47 66
REMARK SMILES IDX 40 67 41 68 42 69 43 70 44 71 70 72 71 73 80 74 72 75 73 76
REMARK SMILES IDX 79 77 81 78 74 79 75 80 76 81 77 82 78 83 54 84 55 85 64 86
REMARK SMILES IDX 56 87 57 88 63 89 65 90 58 91 59 92 60 93 61 94 62 95
REMARK H PARENT 8 13 86 45 52 56
REMARK Flexibility Score: inf
ROOT
ATOM      1  C   UNL     1       2.943   2.256   2.433  1.00  0.00     0.274 C 
ENDROOT
BRANCH   1   2
ATOM      2  O   UNL     1       3.826   3.738   3.335  1.00  0.00    -0.462 OA
BRANCH   2   3
ATOM      3  C   UNL     1       4.372   4.540   4.416  1.00  0.00     0.305 C 
ATOM      4  O   UNL     1       5.235   5.391   4.207  1.00  0.00    -0.252 OA
BRANCH   3   5
ATOM      5  C   UNL     1       3.927   4.241   5.857  1.00  0.00     0.123 C 
BRANCH   5   6
ATOM      6  C   UNL     1       2.550   3.676   5.856  1.00  0.00     0.016 C 
BRANCH   6   7
ATOM      7  C   UNL     1       2.463   3.009   4.524  1.00  0.00     0.001 C 
ATOM      8  C   UNL     1       4.191   2.098   4.140  1.00  0.00     0.065 C 
ATOM      9  C   UNL     1       1.931   4.348   3.237  1.00  0.00     0.065 C 
ATOM     10  C   UNL     1       5.141   2.701   2.460  1.00  0.00     0.262 C 
ATOM     11  C   UNL     1       3.115   4.867   1.864  1.00  0.00     0.262 C 
ATOM     12  N   UNL     1       4.335   3.831   1.241  1.00  0.00    -0.332 N 
ATOM     13  H   UNL     1       5.243   4.272   1.093  1.00  0.00     0.348 HD
BRANCH  12  14
ATOM     14  C   UNL     1       3.953   3.453  -0.214  1.00  0.00     0.189 C 
ATOM     15  C   UNL     1       2.492   2.926  -0.429  1.00  0.00     0.093 C 
ATOM     16  C   UNL     1       4.137   4.698  -1.176  1.00  0.00     0.101 C 
ATOM     17  C   UNL     1       1.867   2.983  -1.795  1.00  0.00     0.167 C 
ATOM     18  C   UNL     1       3.316   4.698  -2.515  1.00  0.00     0.084 C 
ATOM     19  O   UNL     1       1.959   4.305  -2.275  1.00  0.00    -0.374 OA
ATOM     20  C   UNL     1       3.177   6.106  -3.127  1.00  0.00     0.047 C 
ATOM     21  C   UNL     1       3.905   3.829  -3.644  1.00  0.00     0.105 C 
ATOM     22  C   UNL     1       4.438   6.436  -3.893  1.00  0.00     0.072 C 
ATOM     23  S   UNL     1       4.913   4.895  -4.706  1.00  0.00    -0.159 SA
ENDBRANCH  12  14
ENDBRANCH   6   7
ENDBRANCH   5   6
ENDBRANCH   3   5
ENDBRANCH   2   3
ENDBRANCH   1   2
BRANCH   1  24
ATOM     24  C   UNL     1       3.686   0.771   1.837  1.00  0.00     0.275 C 
BRANCH  24  25
ATOM     25  O   UNL     1       4.174  -0.235   2.830  1.00  0.00    -0.458 OA
BRANCH  25  26
ATOM     26  C   UNL     1       5.487  -0.333   3.259  1.00  0.00     0.338 C 
ATOM     27  O   UNL     1       6.471   0.014   2.650  1.00  0.00    -0.246 OA
BRANCH  26  28
ATOM     28  C   UNL     1       5.511  -0.651   4.744  1.00  0.00     0.060 A 
ATOM     29  C   UNL     1       6.231   0.173   5.638  1.00  0.00     0.016 A 
ATOM     30  C   UNL     1       4.732  -1.677   5.273  1.00  0.00     0.016 A 
ATOM     31  C   UNL     1       6.135   0.001   7.038  1.00  0.00     0.010 A 
ATOM     32  C   UNL     1       4.677  -1.882   6.666  1.00  0.00     0.010 A 
ATOM     33  C   UNL     1       5.383  -1.056   7.566  1.00  0.00    -0.014 A 
BRANCH  33  34
ATOM     34  C   UNL     1       5.571  -1.514   8.983  1.00  0.00     0.031 A 
ATOM     35  C   UNL     1       6.634  -2.563   9.220  1.00  0.00     0.074 A 
ATOM     36  C   UNL     1       4.828  -1.094  10.029  1.00  0.00     0.049 A 
ATOM     37  N   UNL     1       6.938  -3.224  10.306  1.00  0.00    -0.248 NA
ATOM     38  C   UNL     1       7.452  -2.922   8.049  1.00  0.00     0.031 C 
ATOM     39  C   UNL     1       3.792  -0.065   9.988  1.00  0.00     0.029 A 
ATOM     40  N   UNL     1       4.827  -1.508  11.347  1.00  0.00    -0.354 N 
ATOM     41  C   UNL     1       7.965  -4.090   9.945  1.00  0.00     0.074 A 
ATOM     42  C   UNL     1       8.210  -3.890   8.534  1.00  0.00     0.031 C 
ATOM     43  C   UNL     1       3.249   0.062  11.216  1.00  0.00     0.029 A 
ATOM     44  C   UNL     1       3.873  -0.896  12.131  1.00  0.00     0.049 A 
ATOM     45  H   UNL     1       5.454  -2.183  11.696  1.00  0.00     0.167 HD
ATOM     46  C   UNL     1       8.652  -4.973  10.709  1.00  0.00     0.037 A 
ATOM     47  C   UNL     1       3.533  -1.094  13.427  1.00  0.00     0.037 A 
ATOM     48  C   UNL     1       8.413  -5.190  12.111  1.00  0.00     0.049 A 
ATOM     49  C   UNL     1       4.272  -2.128  14.251  1.00  0.00     0.074 A 
ATOM     50  C   UNL     1       9.074  -6.050  12.971  1.00  0.00     0.029 A 
ATOM     51  N   UNL     1       7.432  -4.555  12.856  1.00  0.00    -0.354 N 
ATOM     52  N   UNL     1       5.260  -2.918  13.901  1.00  0.00    -0.248 NA
ATOM     53  C   UNL     1       3.850  -2.293  15.653  1.00  0.00     0.031 C 
ATOM     54  C   UNL     1       8.453  -5.980  14.222  1.00  0.00     0.029 A 
ATOM     55  C   UNL     1       7.454  -5.021  14.160  1.00  0.00     0.049 A 
ATOM     56  H   UNL     1       6.812  -3.874  12.510  1.00  0.00     0.167 HD
ATOM     57  C   UNL     1       5.611  -3.628  15.049  1.00  0.00     0.074 A 
ATOM     58  C   UNL     1       4.727  -3.181  16.103  1.00  0.00     0.031 C 
ATOM     59  C   UNL     1       6.587  -4.558  15.215  1.00  0.00     0.037 A 
BRANCH  46  60
ATOM     60  C   UNL     1       9.702  -5.805  10.023  1.00  0.00     0.058 A 
ATOM     61  C   UNL     1      10.892  -5.244   9.530  1.00  0.00     0.135 A 
ATOM     62  C   UNL     1       9.511  -7.186   9.853  1.00  0.00     0.135 A 
ATOM     63  F   UNL     1      11.117  -3.925   9.644  1.00  0.00    -0.206 F 
ATOM     64  C   UNL     1      11.835  -6.015   8.858  1.00  0.00     0.059 A 
ATOM     65  C   UNL     1      10.457  -7.982   9.216  1.00  0.00     0.059 A 
ATOM     66  F   UNL     1       8.390  -7.774  10.300  1.00  0.00    -0.206 F 
ATOM     67  C   UNL     1      11.607  -7.383   8.704  1.00  0.00     0.060 A 
BRANCH  67  68
ATOM     68  S   UNL     1      12.833  -8.368   7.820  1.00  0.00     0.124 S 
ATOM     69  O   UNL     1      12.630  -7.920   6.446  1.00  0.00    -0.237 OA
ATOM     70  O   UNL     1      14.082  -7.946   8.446  1.00  0.00    -0.237 OA
ATOM     71  O   UNL     1      12.430  -9.743   8.097  1.00  0.00    -0.744 OA
ENDBRANCH  67  68
ENDBRANCH  46  60
BRANCH  47  72
ATOM     72  C   UNL     1       2.444  -0.289  14.060  1.00  0.00     0.058 A 
ATOM     73  C   UNL     1       2.727   0.641  15.075  1.00  0.00     0.135 A 
ATOM     74  C   UNL     1       1.099  -0.456  13.697  1.00  0.00     0.135 A 
ATOM     75  F   UNL     1       3.992   0.821  15.484  1.00  0.00    -0.206 F 
ATOM     76  C   UNL     1       1.721   1.368  15.709  1.00  0.00     0.059 A 
ATOM     77  C   UNL     1       0.077   0.279  14.297  1.00  0.00     0.059 A 
ATOM     78  F   UNL     1       0.766  -1.335  12.739  1.00  0.00    -0.206 F 
ATOM     79  C   UNL     1       0.398   1.185  15.307  1.00  0.00     0.060 A 
BRANCH  79  80
ATOM     80  S   UNL     1      -0.891   2.183  16.088  1.00  0.00     0.124 S 
ATOM     81  O   UNL     1      -0.941   1.608  17.427  1.00  0.00    -0.237 OA
ATOM     82  O   UNL     1      -0.335   3.529  15.990  1.00  0.00    -0.237 OA
ATOM     83  O   UNL     1      -2.061   1.935  15.251  1.00  0.00    -0.744 OA
ENDBRANCH  79  80
ENDBRANCH  47  72
BRANCH  59  84
ATOM     84  C   UNL     1       6.818  -5.104  16.603  1.00  0.00     0.058 A 
ATOM     85  C   UNL     1       5.906  -5.959  17.240  1.00  0.00     0.135 A 
ATOM     86  C   UNL     1       8.009  -4.800  17.287  1.00  0.00     0.135 A 
ATOM     87  F   UNL     1       4.753  -6.290  16.635  1.00  0.00    -0.206 F 
ATOM     88  C   UNL     1       6.145  -6.459  18.518  1.00  0.00     0.059 A 
ATOM     89  C   UNL     1       8.284  -5.314  18.550  1.00  0.00     0.059 A 
ATOM     90  F   UNL     1       8.929  -4.002  16.721  1.00  0.00    -0.206 F 
ATOM     91  C   UNL     1       7.337  -6.129  19.167  1.00  0.00     0.060 A 
BRANCH  91  92
ATOM     92  S   UNL     1       7.639  -6.787  20.821  1.00  0.00     0.124 S 
ATOM     93  O   UNL     1       6.715  -5.994  21.626  1.00  0.00    -0.237 OA
ATOM     94  O   UNL     1       7.294  -8.196  20.665  1.00  0.00    -0.237 OA
ATOM     95  O   UNL     1       9.056  -6.515  21.043  1.00  0.00    -0.744 OA
ENDBRANCH  91  92
ENDBRANCH  59  84
ENDBRANCH  33  34
ENDBRANCH  26  28
ENDBRANCH  25  26
ENDBRANCH  24  25
ENDBRANCH   1  24
TORSDOF 17
