REMARK SMILES Cc1c(NC(=O)c2cccc(-c3cc4ccccc4oc3=O)c2)cccc1C(=O)OCCOC(=O)c1ccc(-c2c3nc(c(-c4c(F)cc(S(=O)(=O)[O-])cc4F)c4ccc([nH]4)c(-c4c(F)cc(S(=O)(=O)[O-])cc4F)c4nc(c(-c5c(F)cc(S(=O)(=O)[O-])cc5F)c5ccc2[nH]5)C=C4)C=C3)cc1
REMARK SMILES IDX 31 1 30 2 28 3 29 4 27 5 1 6 2 7 3 8 24 9 26 10 25 11 4 12
REMARK SMILES IDX 5 13 6 15 7 16 8 17 23 18 9 19 11 20 10 21 12 22 13 23 21 24
REMARK SMILES IDX 14 25 20 26 22 27 15 28 19 29 16 30 18 31 17 32 32 33 33 34
REMARK SMILES IDX 34 35 35 36 36 37 37 38 101 39 38 40 100 41 39 42 40 43
REMARK SMILES IDX 41 44 94 45 42 46 99 47 93 48 95 49 43 50 98 51 92 52 91 53
REMARK SMILES IDX 44 55 78 56 57 57 77 58 58 59 61 60 76 61 96 62 59 63 60 64
REMARK SMILES IDX 75 66 97 67 62 68 45 69 46 70 55 71 47 72 48 73 54 74 56 75
REMARK SMILES IDX 49 76 50 77 51 78 52 79 53 80 79 81 80 82 89 83 81 84 82 85
REMARK SMILES IDX 88 86 90 87 83 88 84 89 85 90 86 91 87 92 63 93 64 94 73 95
REMARK SMILES IDX 65 96 66 97 72 98 74 99 67 100 68 101 69 102 70 103 71 104
REMARK H PARENT 4 14 95 54 61 65
REMARK Flexibility Score: inf
ROOT
ATOM      1  C   UNL     1       3.547   2.631  -2.010  1.00  0.00     0.275 C 
ENDROOT
BRANCH   1   2
ATOM      2  O   UNL     1       2.410   1.837  -1.604  1.00  0.00    -0.458 OA
BRANCH   2   3
ATOM      3  C   UNL     1       2.644   1.053  -0.515  1.00  0.00     0.338 C 
ATOM      4  O   UNL     1       3.668   1.060   0.126  1.00  0.00    -0.246 OA
BRANCH   3   5
ATOM      5  C   UNL     1       1.502   0.107  -0.244  1.00  0.00     0.065 A 
ATOM      6  C   UNL     1       3.109  -1.842   0.133  1.00  0.00     0.047 C 
ATOM      7  C   UNL     1       1.725  -1.243   0.102  1.00  0.00    -0.013 A 
ATOM      8  C   UNL     1       0.600  -2.075   0.357  1.00  0.00     0.045 A 
ATOM      9  C   UNL     1      -0.681  -1.525   0.447  1.00  0.00     0.026 A 
ATOM     10  C   UNL     1       0.188   0.583  -0.300  1.00  0.00     0.016 A 
ATOM     11  C   UNL     1      -0.892  -0.201   0.096  1.00  0.00     0.003 A 
BRANCH   8  12
ATOM     12  N   UNL     1       0.795  -3.462   0.491  1.00  0.00    -0.322 N 
ATOM     13  C   UNL     1       0.004  -4.546   0.176  1.00  0.00     0.255 C 
ATOM     14  H   UNL     1       1.664  -3.705   0.885  1.00  0.00     0.170 HD
ATOM     15  O   UNL     1       0.376  -5.660   0.557  1.00  0.00    -0.269 OA
BRANCH  13  16
ATOM     16  C   UNL     1      -1.210  -4.481  -0.695  1.00  0.00     0.040 A 
ATOM     17  C   UNL     1      -2.150  -5.514  -0.572  1.00  0.00     0.014 A 
ATOM     18  C   UNL     1      -1.389  -3.538  -1.716  1.00  0.00     0.022 A 
ATOM     19  C   UNL     1      -3.266  -5.569  -1.409  1.00  0.00     0.001 A 
ATOM     20  C   UNL     1      -2.526  -3.564  -2.550  1.00  0.00    -0.010 A 
ATOM     21  C   UNL     1      -3.460  -4.591  -2.383  1.00  0.00     0.009 A 
BRANCH  20  22
ATOM     22  C   UNL     1      -2.696  -2.657  -3.722  1.00  0.00     0.068 A 
ATOM     23  C   UNL     1      -2.466  -1.335  -3.576  1.00  0.00     0.028 A 
ATOM     24  C   UNL     1      -2.043  -3.209  -4.952  1.00  0.00     0.344 A 
ATOM     25  C   UNL     1      -1.113  -0.873  -3.919  1.00  0.00     0.018 A 
ATOM     26  O   UNL     1      -0.671  -3.005  -5.006  1.00  0.00    -0.422 OA
ATOM     27  O   UNL     1      -2.656  -3.892  -5.764  1.00  0.00    -0.246 OA
ATOM     28  C   UNL     1      -0.677   0.408  -3.619  1.00  0.00     0.012 A 
ATOM     29  C   UNL     1      -0.213  -1.786  -4.478  1.00  0.00     0.138 A 
ATOM     30  C   UNL     1       0.670   0.717  -3.798  1.00  0.00     0.001 A 
ATOM     31  C   UNL     1       1.145  -1.510  -4.578  1.00  0.00     0.048 A 
ATOM     32  C   UNL     1       1.592  -0.247  -4.213  1.00  0.00     0.004 A 
ENDBRANCH  20  22
ENDBRANCH  13  16
ENDBRANCH   8  12
ENDBRANCH   3   5
ENDBRANCH   2   3
ENDBRANCH   1   2
BRANCH   1  33
ATOM     33  C   UNL     1       3.195   3.626  -3.138  1.00  0.00     0.275 C 
BRANCH  33  34
ATOM     34  O   UNL     1       2.442   4.777  -2.714  1.00  0.00    -0.458 OA
BRANCH  34  35
ATOM     35  C   UNL     1       1.190   4.498  -2.255  1.00  0.00     0.338 C 
ATOM     36  O   UNL     1       0.325   3.955  -2.917  1.00  0.00    -0.246 OA
BRANCH  35  37
ATOM     37  C   UNL     1       1.237   4.604  -0.770  1.00  0.00     0.060 A 
ATOM     38  C   UNL     1       0.273   3.937  -0.009  1.00  0.00     0.016 A 
ATOM     39  C   UNL     1       2.423   5.043  -0.176  1.00  0.00     0.016 A 
ATOM     40  C   UNL     1       0.561   3.562   1.305  1.00  0.00     0.010 A 
ATOM     41  C   UNL     1       2.753   4.588   1.079  1.00  0.00     0.010 A 
ATOM     42  C   UNL     1       1.822   3.853   1.826  1.00  0.00    -0.014 A 
BRANCH  42  43
ATOM     43  C   UNL     1       2.140   3.809   3.246  1.00  0.00     0.031 A 
ATOM     44  C   UNL     1       2.725   2.654   3.952  1.00  0.00     0.074 A 
ATOM     45  C   UNL     1       1.978   5.027   3.804  1.00  0.00     0.049 A 
ATOM     46  N   UNL     1       2.962   2.642   5.218  1.00  0.00    -0.248 NA
ATOM     47  C   UNL     1       3.068   1.389   3.317  1.00  0.00     0.031 C 
ATOM     48  C   UNL     1       2.417   5.555   5.079  1.00  0.00     0.029 A 
ATOM     49  N   UNL     1       1.120   6.014   3.295  1.00  0.00    -0.354 N 
ATOM     50  C   UNL     1       3.646   1.486   5.541  1.00  0.00     0.074 A 
ATOM     51  C   UNL     1       3.657   0.722   4.320  1.00  0.00     0.031 C 
ATOM     52  C   UNL     1       1.615   6.590   5.397  1.00  0.00     0.029 A 
ATOM     53  C   UNL     1       0.547   6.635   4.399  1.00  0.00     0.049 A 
ATOM     54  H   UNL     1       0.957   6.224   2.347  1.00  0.00     0.167 HD
ATOM     55  C   UNL     1       4.178   1.387   6.796  1.00  0.00     0.037 A 
ATOM     56  C   UNL     1      -0.776   6.394   4.646  1.00  0.00     0.037 A 
ATOM     57  C   UNL     1       3.569   2.412   7.648  1.00  0.00     0.049 A 
ATOM     58  C   UNL     1      -0.944   5.670   5.960  1.00  0.00     0.074 A 
ATOM     59  C   UNL     1       3.962   3.691   8.003  1.00  0.00     0.029 A 
ATOM     60  N   UNL     1       2.208   2.320   7.936  1.00  0.00    -0.354 N 
ATOM     61  N   UNL     1      -0.089   4.809   6.448  1.00  0.00    -0.248 NA
ATOM     62  C   UNL     1      -2.049   5.958   6.865  1.00  0.00     0.031 C 
ATOM     63  C   UNL     1       2.791   4.416   8.353  1.00  0.00     0.029 A 
ATOM     64  C   UNL     1       1.700   3.563   8.265  1.00  0.00     0.049 A 
ATOM     65  H   UNL     1       1.683   1.488   7.910  1.00  0.00     0.167 HD
ATOM     66  C   UNL     1      -0.456   4.504   7.732  1.00  0.00     0.074 A 
ATOM     67  C   UNL     1      -1.703   5.225   7.935  1.00  0.00     0.031 C 
ATOM     68  C   UNL     1       0.291   3.737   8.580  1.00  0.00     0.037 A 
BRANCH  55  69
ATOM     69  C   UNL     1       5.391   0.560   7.213  1.00  0.00     0.058 A 
ATOM     70  C   UNL     1       6.118   0.910   8.379  1.00  0.00     0.135 A 
ATOM     71  C   UNL     1       5.972  -0.493   6.476  1.00  0.00     0.135 A 
ATOM     72  F   UNL     1       5.675   1.856   9.220  1.00  0.00    -0.206 F 
ATOM     73  C   UNL     1       7.348   0.336   8.728  1.00  0.00     0.059 A 
ATOM     74  C   UNL     1       7.206  -1.077   6.799  1.00  0.00     0.059 A 
ATOM     75  F   UNL     1       5.373  -1.023   5.407  1.00  0.00    -0.206 F 
ATOM     76  C   UNL     1       7.902  -0.640   7.915  1.00  0.00     0.060 A 
BRANCH  76  77
ATOM     77  S   UNL     1       9.525  -1.313   8.324  1.00  0.00     0.124 S 
ATOM     78  O   UNL     1      10.384  -0.141   8.188  1.00  0.00    -0.237 OA
ATOM     79  O   UNL     1       9.327  -1.800   9.685  1.00  0.00    -0.237 OA
ATOM     80  O   UNL     1       9.730  -2.351   7.317  1.00  0.00    -0.744 OA
ENDBRANCH  76  77
ENDBRANCH  55  69
BRANCH  56  81
ATOM     81  C   UNL     1      -1.645   6.226   3.431  1.00  0.00     0.058 A 
ATOM     82  C   UNL     1      -1.597   7.213   2.418  1.00  0.00     0.135 A 
ATOM     83  C   UNL     1      -2.339   5.049   3.114  1.00  0.00     0.135 A 
ATOM     84  F   UNL     1      -0.966   8.378   2.646  1.00  0.00    -0.206 F 
ATOM     85  C   UNL     1      -2.109   7.008   1.137  1.00  0.00     0.059 A 
ATOM     86  C   UNL     1      -2.879   4.826   1.836  1.00  0.00     0.059 A 
ATOM     87  F   UNL     1      -2.443   4.060   4.013  1.00  0.00    -0.206 F 
ATOM     88  C   UNL     1      -2.731   5.799   0.846  1.00  0.00     0.060 A 
BRANCH  88  89
ATOM     89  S   UNL     1      -3.172   5.447  -0.878  1.00  0.00     0.124 S 
ATOM     90  O   UNL     1      -4.470   6.101  -0.997  1.00  0.00    -0.237 OA
ATOM     91  O   UNL     1      -2.076   6.077  -1.610  1.00  0.00    -0.237 OA
ATOM     92  O   UNL     1      -3.188   3.987  -0.922  1.00  0.00    -0.744 OA
ENDBRANCH  88  89
ENDBRANCH  56  81
BRANCH  68  93
ATOM     93  C   UNL     1      -0.234   3.184   9.877  1.00  0.00     0.058 A 
ATOM     94  C   UNL     1      -1.571   2.788  10.048  1.00  0.00     0.135 A 
ATOM     95  C   UNL     1       0.641   2.893  10.948  1.00  0.00     0.135 A 
ATOM     96  F   UNL     1      -2.465   2.903   9.053  1.00  0.00    -0.206 F 
ATOM     97  C   UNL     1      -2.034   2.225  11.233  1.00  0.00     0.059 A 
ATOM     98  C   UNL     1       0.212   2.276  12.117  1.00  0.00     0.059 A 
ATOM     99  F   UNL     1       1.948   3.189  10.887  1.00  0.00    -0.206 F 
ATOM    100  C   UNL     1      -1.135   1.975  12.264  1.00  0.00     0.060 A 
BRANCH 100 101
ATOM    101  S   UNL     1      -1.707   1.206  13.787  1.00  0.00     0.124 S 
ATOM    102  O   UNL     1      -1.926   2.374  14.634  1.00  0.00    -0.237 OA
ATOM    103  O   UNL     1      -2.912   0.499  13.366  1.00  0.00    -0.237 OA
ATOM    104  O   UNL     1      -0.586   0.351  14.162  1.00  0.00    -0.744 OA
ENDBRANCH 100 101
ENDBRANCH  68  93
ENDBRANCH  42  43
ENDBRANCH  35  37
ENDBRANCH  34  35
ENDBRANCH  33  34
ENDBRANCH   1  33
TORSDOF 17
