REMARK SMILES CCOc1ccc(OCC(=O)N2CCC[C@H](C(=O)OCCOC(=O)c3ccc(-c4c5nc(c(-c6c(F)cc(S(=O)(=O)[O-])cc6F)c6ccc([nH]6)c(-c6c(F)cc(S(=O)(=O)[O-])cc6F)c6nc(c(-c7c(F)cc(S(=O)(=O)[O-])cc7F)c7ccc4[nH]7)C=C6)C=C5)cc3)C2)cc1
REMARK SMILES IDX 19 1 17 2 18 3 16 4 12 5 13 6 91 7 14 8 15 9 10 10 11 11
REMARK SMILES IDX 9 12 8 13 7 14 4 15 5 16 93 17 6 18 92 19 3 20 2 21 1 22
REMARK SMILES IDX 20 23 21 24 22 25 23 26 24 27 25 28 26 29 90 30 27 31 89 32
REMARK SMILES IDX 28 33 29 34 30 35 83 36 31 37 88 38 82 39 84 40 32 41 87 42
REMARK SMILES IDX 81 43 80 44 33 46 67 47 46 48 66 49 47 50 50 51 65 52 85 53
REMARK SMILES IDX 48 54 49 55 64 57 86 58 51 59 34 60 35 61 44 62 36 63 37 64
REMARK SMILES IDX 43 65 45 66 38 67 39 68 40 69 41 70 42 71 68 72 69 73 78 74
REMARK SMILES IDX 70 75 71 76 77 77 79 78 72 79 73 80 74 81 75 82 76 83 52 84
REMARK SMILES IDX 53 85 62 86 54 87 55 88 61 89 63 90 56 91 57 92 58 93 59 94
REMARK SMILES IDX 60 95
REMARK H PARENT 84 45 50 56
REMARK Flexibility Score: inf
ROOT
ATOM      1  O   UNL     1       5.049   0.883   2.436  1.00  0.00    -0.462 OA
ENDROOT
BRANCH   1   2
ATOM      2  C   UNL     1       5.242   2.226   2.437  1.00  0.00     0.310 C 
ATOM      3  O   UNL     1       4.390   3.051   2.131  1.00  0.00    -0.252 OA
BRANCH   2   4
ATOM      4  C   UNL     1       6.649   2.629   2.851  1.00  0.00     0.119 C 
ATOM      5  N   UNL     1       7.908   1.579   1.023  1.00  0.00    -0.339 N 
ATOM      6  C   UNL     1       8.629   0.677   1.920  1.00  0.00     0.119 C 
ATOM      7  C   UNL     1       7.524   2.855   1.621  1.00  0.00     0.134 C 
ATOM      8  C   UNL     1       7.869   0.405   3.215  1.00  0.00     0.022 C 
ATOM      9  C   UNL     1       7.319   1.683   3.854  1.00  0.00     0.019 C 
BRANCH   5  10
ATOM     10  C   UNL     1       7.561   1.159  -0.256  1.00  0.00     0.260 C 
ATOM     11  O   UNL     1       7.620  -0.031  -0.584  1.00  0.00    -0.271 OA
BRANCH  10  12
ATOM     12  C   UNL     1       7.264   2.225  -1.337  1.00  0.00     0.329 C 
BRANCH  12  13
ATOM     13  O   UNL     1       6.278   3.216  -1.159  1.00  0.00    -0.484 OA
BRANCH  13  14
ATOM     14  C   UNL     1       4.962   2.869  -1.223  1.00  0.00     0.120 A 
ATOM     15  C   UNL     1       2.210   2.418  -1.167  1.00  0.00     0.119 A 
ATOM     16  C   UNL     1       2.701   3.674  -0.833  1.00  0.00     0.050 A 
ATOM     17  C   UNL     1       3.075   1.410  -1.590  1.00  0.00     0.050 A 
ATOM     18  C   UNL     1       4.078   3.896  -0.868  1.00  0.00     0.050 A 
ATOM     19  C   UNL     1       4.456   1.627  -1.599  1.00  0.00     0.050 A 
BRANCH  15  20
ATOM     20  O   UNL     1       0.864   2.185  -1.136  1.00  0.00    -0.494 OA
BRANCH  20  21
ATOM     21  C   UNL     1       0.453   1.655   0.133  1.00  0.00     0.226 C 
ATOM     22  C   UNL     1       0.362   0.139   0.058  1.00  0.00     0.049 C 
ENDBRANCH  20  21
ENDBRANCH  15  20
ENDBRANCH  13  14
ENDBRANCH  12  13
ENDBRANCH  10  12
ENDBRANCH   5  10
ENDBRANCH   2   4
ENDBRANCH   1   2
BRANCH   1  23
ATOM     23  C   UNL     1       3.767   0.401   1.997  1.00  0.00     0.274 C 
BRANCH  23  24
ATOM     24  C   UNL     1       2.825   0.095   3.165  1.00  0.00     0.275 C 
BRANCH  24  25
ATOM     25  O   UNL     1       2.366   1.304   3.797  1.00  0.00    -0.458 OA
BRANCH  25  26
ATOM     26  C   UNL     1       3.137   1.720   4.830  1.00  0.00     0.338 C 
ATOM     27  O   UNL     1       4.075   1.122   5.330  1.00  0.00    -0.246 OA
BRANCH  26  28
ATOM     28  C   UNL     1       2.810   3.113   5.176  1.00  0.00     0.060 A 
ATOM     29  C   UNL     1       3.866   4.029   5.177  1.00  0.00     0.016 A 
ATOM     30  C   UNL     1       1.528   3.510   5.559  1.00  0.00     0.016 A 
ATOM     31  C   UNL     1       3.654   5.344   5.563  1.00  0.00     0.010 A 
ATOM     32  C   UNL     1       1.317   4.832   5.970  1.00  0.00     0.010 A 
ATOM     33  C   UNL     1       2.385   5.748   5.990  1.00  0.00    -0.014 A 
BRANCH  33  34
ATOM     34  C   UNL     1       2.240   7.104   6.565  1.00  0.00     0.031 A 
ATOM     35  C   UNL     1       2.250   7.271   8.057  1.00  0.00     0.074 A 
ATOM     36  C   UNL     1       2.205   8.178   5.755  1.00  0.00     0.049 A 
ATOM     37  N   UNL     1       2.184   8.366   8.768  1.00  0.00    -0.248 NA
ATOM     38  C   UNL     1       2.355   6.039   8.857  1.00  0.00     0.031 C 
ATOM     39  C   UNL     1       2.250   8.132   4.293  1.00  0.00     0.029 A 
ATOM     40  N   UNL     1       2.144   9.516   6.048  1.00  0.00    -0.354 N 
ATOM     41  C   UNL     1       2.226   7.958  10.095  1.00  0.00     0.074 A 
ATOM     42  C   UNL     1       2.307   6.514  10.093  1.00  0.00     0.031 C 
ATOM     43  C   UNL     1       2.224   9.388   3.816  1.00  0.00     0.029 A 
ATOM     44  C   UNL     1       2.133  10.322   4.935  1.00  0.00     0.049 A 
ATOM     45  H   UNL     1       2.111   9.865   6.967  1.00  0.00     0.167 HD
ATOM     46  C   UNL     1       2.203   8.722  11.213  1.00  0.00     0.037 A 
ATOM     47  C   UNL     1       2.049  11.663   4.835  1.00  0.00     0.037 A 
ATOM     48  C   UNL     1       2.136  10.160  11.204  1.00  0.00     0.049 A 
ATOM     49  C   UNL     1       1.986  12.488   6.093  1.00  0.00     0.074 A 
ATOM     50  C   UNL     1       2.109  11.029  12.281  1.00  0.00     0.029 A 
ATOM     51  N   UNL     1       2.087  10.942  10.058  1.00  0.00    -0.354 N 
ATOM     52  N   UNL     1       2.021  12.089   7.342  1.00  0.00    -0.248 NA
ATOM     53  C   UNL     1       1.874  13.944   5.928  1.00  0.00     0.031 C 
ATOM     54  C   UNL     1       2.007  12.334  11.786  1.00  0.00     0.029 A 
ATOM     55  C   UNL     1       2.014  12.281  10.401  1.00  0.00     0.049 A 
ATOM     56  H   UNL     1       2.102  10.595   9.137  1.00  0.00     0.167 HD
ATOM     57  C   UNL     1       1.960  13.245   8.113  1.00  0.00     0.074 A 
ATOM     58  C   UNL     1       1.895  14.359   7.188  1.00  0.00     0.031 C 
ATOM     59  C   UNL     1       1.959  13.374   9.463  1.00  0.00     0.037 A 
BRANCH  46  60
ATOM     60  C   UNL     1       2.214   8.012  12.537  1.00  0.00     0.058 A 
ATOM     61  C   UNL     1       3.372   7.398  13.040  1.00  0.00     0.135 A 
ATOM     62  C   UNL     1       1.051   7.959  13.321  1.00  0.00     0.135 A 
ATOM     63  F   UNL     1       4.506   7.401  12.321  1.00  0.00    -0.206 F 
ATOM     64  C   UNL     1       3.369   6.734  14.263  1.00  0.00     0.059 A 
ATOM     65  C   UNL     1       1.030   7.321  14.557  1.00  0.00     0.059 A 
ATOM     66  F   UNL     1      -0.085   8.527  12.884  1.00  0.00    -0.206 F 
ATOM     67  C   UNL     1       2.191   6.697  15.012  1.00  0.00     0.060 A 
BRANCH  67  68
ATOM     68  S   UNL     1       2.197   5.827  16.595  1.00  0.00     0.124 S 
ATOM     69  O   UNL     1       2.179   4.434  16.160  1.00  0.00    -0.237 OA
ATOM     70  O   UNL     1       3.444   6.285  17.200  1.00  0.00    -0.237 OA
ATOM     71  O   UNL     1       0.979   6.298  17.245  1.00  0.00    -0.744 OA
ENDBRANCH  67  68
ENDBRANCH  46  60
BRANCH  47  72
ATOM     72  C   UNL     1       2.016  12.306   3.495  1.00  0.00     0.058 A 
ATOM     73  C   UNL     1       3.099  13.062   3.024  1.00  0.00     0.135 A 
ATOM     74  C   UNL     1       0.901  12.165   2.653  1.00  0.00     0.135 A 
ATOM     75  F   UNL     1       4.183  13.233   3.796  1.00  0.00    -0.206 F 
ATOM     76  C   UNL     1       3.076  13.665   1.771  1.00  0.00     0.059 A 
ATOM     77  C   UNL     1       0.864  12.739   1.386  1.00  0.00     0.059 A 
ATOM     78  F   UNL     1      -0.157  11.443   3.053  1.00  0.00    -0.206 F 
ATOM     79  C   UNL     1       1.953  13.496   0.958  1.00  0.00     0.060 A 
BRANCH  79  80
ATOM     80  S   UNL     1       1.952  14.237  -0.690  1.00  0.00     0.124 S 
ATOM     81  O   UNL     1       1.704  15.640  -0.379  1.00  0.00    -0.237 OA
ATOM     82  O   UNL     1       3.291  13.916  -1.174  1.00  0.00    -0.237 OA
ATOM     83  O   UNL     1       0.864  13.538  -1.369  1.00  0.00    -0.744 OA
ENDBRANCH  79  80
ENDBRANCH  47  72
BRANCH  59  84
ATOM     84  C   UNL     1       1.922  14.769  10.020  1.00  0.00     0.058 A 
ATOM     85  C   UNL     1       0.747  15.537  10.007  1.00  0.00     0.135 A 
ATOM     86  C   UNL     1       3.065  15.325  10.616  1.00  0.00     0.135 A 
ATOM     87  F   UNL     1      -0.371  15.052   9.445  1.00  0.00    -0.206 F 
ATOM     88  C   UNL     1       0.714  16.820  10.544  1.00  0.00     0.059 A 
ATOM     89  C   UNL     1       3.048  16.597  11.180  1.00  0.00     0.059 A 
ATOM     90  F   UNL     1       4.210  14.626  10.664  1.00  0.00    -0.206 F 
ATOM     91  C   UNL     1       1.871  17.342  11.127  1.00  0.00     0.060 A 
BRANCH  91  92
ATOM     92  S   UNL     1       1.811  18.997  11.845  1.00  0.00     0.124 S 
ATOM     93  O   UNL     1       1.872  19.836  10.653  1.00  0.00    -0.237 OA
ATOM     94  O   UNL     1       0.533  18.989  12.551  1.00  0.00    -0.237 OA
ATOM     95  O   UNL     1       2.992  19.036  12.703  1.00  0.00    -0.744 OA
ENDBRANCH  91  92
ENDBRANCH  59  84
ENDBRANCH  33  34
ENDBRANCH  26  28
ENDBRANCH  25  26
ENDBRANCH  24  25
ENDBRANCH  23  24
ENDBRANCH   1  23
TORSDOF 20
