REMARK SMILES COc1ccc2c(c1)[C@H]([NH2+][C@@H](C(=O)OCCOC(=O)c1ccc(-c3c4nc(c(-c5c(F)cc(S(=O)(=O)[O-])cc5F)c5ccc([nH]5)c(-c5c(F)cc(S(=O)(=O)[O-])cc5F)c5nc(c(-c6c(F)cc(S(=O)(=O)[O-])cc6F)c6ccc3[nH]6)C=C5)C=C4)cc1)C1CC1)CC2
REMARK SMILES IDX 15 1 14 2 12 3 13 4 11 5 10 6 9 9 3 10 4 11 8 12 5 13 7 14
REMARK SMILES IDX 6 15 90 16 89 17 2 18 1 19 86 20 87 21 88 22 16 23 17 24
REMARK SMILES IDX 18 25 19 26 20 27 21 28 85 29 22 30 84 31 23 32 24 33 25 34
REMARK SMILES IDX 78 35 26 36 83 37 77 38 79 39 27 40 82 41 76 42 75 43 28 45
REMARK SMILES IDX 62 46 41 47 61 48 42 49 45 50 60 51 80 52 43 53 44 54 59 56
REMARK SMILES IDX 81 57 46 58 29 59 30 60 39 61 31 62 32 63 38 64 40 65 33 66
REMARK SMILES IDX 34 67 35 68 36 69 37 70 63 71 64 72 73 73 65 74 66 75 72 76
REMARK SMILES IDX 74 77 67 78 68 79 69 80 70 81 71 82 47 83 48 84 57 85 49 86
REMARK SMILES IDX 50 87 56 88 58 89 51 90 52 91 53 92 54 93 55 94
REMARK H PARENT 10 7 10 8 79 44 45 55
REMARK Flexibility Score: inf
ROOT
ATOM      1  C   UNL     1      -4.955   5.858   2.526  1.00  0.00     0.274 C 
ENDROOT
BRANCH   1   2
ATOM      2  O   UNL     1      -3.821   5.045   2.866  1.00  0.00    -0.458 OA
BRANCH   2   3
ATOM      3  C   UNL     1      -2.612   5.489   2.395  1.00  0.00     0.365 C 
ATOM      4  O   UNL     1      -2.512   6.451   1.643  1.00  0.00    -0.245 OA
BRANCH   3   5
ATOM      5  C   UNL     1      -1.443   4.573   2.855  1.00  0.00     0.297 C 
BRANCH   5   6
ATOM      6  N   UNL     1      -1.767   3.951   4.165  1.00  0.00    -0.328 N 
ATOM      7  H   UNL     1      -1.824   4.716   4.837  1.00  0.00     0.347 HD
ATOM      8  H   UNL     1      -2.608   3.417   3.945  1.00  0.00     0.347 HD
BRANCH   6   9
ATOM      9  C   UNL     1      -0.913   2.934   4.776  1.00  0.00     0.215 C 
ATOM     10  C   UNL     1       0.873   1.249   1.852  1.00  0.00     0.119 A 
ATOM     11  C   UNL     1       2.176   1.284   2.367  1.00  0.00     0.047 A 
ATOM     12  C   UNL     1      -0.200   1.672   2.629  1.00  0.00     0.056 A 
ATOM     13  C   UNL     1       2.409   1.720   3.678  1.00  0.00     0.008 A 
ATOM     14  C   UNL     1       0.051   2.215   3.878  1.00  0.00     0.016 A 
ATOM     15  C   UNL     1       1.338   2.190   4.421  1.00  0.00    -0.038 A 
ATOM     16  C   UNL     1       1.342   2.717   5.820  1.00  0.00     0.042 C 
ATOM     17  C   UNL     1       0.021   3.503   5.877  1.00  0.00     0.075 C 
BRANCH  10  18
ATOM     18  O   UNL     1       0.563   0.952   0.553  1.00  0.00    -0.497 OA
ATOM     19  C   UNL     1       1.166  -0.239   0.073  1.00  0.00     0.278 C 
ENDBRANCH  10  18
ENDBRANCH   6   9
ENDBRANCH   5   6
BRANCH   5  20
ATOM     20  C   UNL     1      -0.055   5.202   2.805  1.00  0.00     0.059 C 
ATOM     21  C   UNL     1       0.682   5.149   1.479  1.00  0.00     0.011 C 
ATOM     22  C   UNL     1       0.376   6.475   2.097  1.00  0.00     0.011 C 
ENDBRANCH   5  20
ENDBRANCH   3   5
ENDBRANCH   2   3
ENDBRANCH   1   2
BRANCH   1  23
ATOM     23  C   UNL     1      -5.306   6.838   3.651  1.00  0.00     0.275 C 
BRANCH  23  24
ATOM     24  O   UNL     1      -4.232   7.756   3.932  1.00  0.00    -0.458 OA
BRANCH  24  25
ATOM     25  C   UNL     1      -3.349   7.331   4.869  1.00  0.00     0.338 C 
ATOM     26  O   UNL     1      -3.422   6.300   5.524  1.00  0.00    -0.246 OA
BRANCH  25  27
ATOM     27  C   UNL     1      -2.148   8.193   4.892  1.00  0.00     0.060 A 
ATOM     28  C   UNL     1      -0.919   7.556   5.090  1.00  0.00     0.016 A 
ATOM     29  C   UNL     1      -2.197   9.582   4.758  1.00  0.00     0.016 A 
ATOM     30  C   UNL     1       0.263   8.285   5.128  1.00  0.00     0.010 A 
ATOM     31  C   UNL     1      -1.010  10.324   4.835  1.00  0.00     0.010 A 
ATOM     32  C   UNL     1       0.223   9.677   5.025  1.00  0.00    -0.014 A 
BRANCH  32  33
ATOM     33  C   UNL     1       1.468  10.433   5.284  1.00  0.00     0.031 A 
ATOM     34  C   UNL     1       1.814  10.771   6.706  1.00  0.00     0.074 A 
ATOM     35  C   UNL     1       2.315  10.740   4.285  1.00  0.00     0.049 A 
ATOM     36  N   UNL     1       2.864  11.386   7.181  1.00  0.00    -0.248 NA
ATOM     37  C   UNL     1       0.851  10.338   7.732  1.00  0.00     0.031 C 
ATOM     38  C   UNL     1       2.125  10.394   2.878  1.00  0.00     0.029 A 
ATOM     39  N   UNL     1       3.513  11.410   4.309  1.00  0.00    -0.354 N 
ATOM     40  C   UNL     1       2.697  11.406   8.559  1.00  0.00     0.074 A 
ATOM     41  C   UNL     1       1.433  10.760   8.844  1.00  0.00     0.031 C 
ATOM     42  C   UNL     1       3.163  10.871   2.168  1.00  0.00     0.029 A 
ATOM     43  C   UNL     1       4.077  11.577   3.067  1.00  0.00     0.049 A 
ATOM     44  H   UNL     1       3.929  11.741   5.138  1.00  0.00     0.167 HD
ATOM     45  C   UNL     1       3.521  11.917   9.503  1.00  0.00     0.037 A 
ATOM     46  C   UNL     1       5.192  12.240   2.701  1.00  0.00     0.037 A 
ATOM     47  C   UNL     1       4.754  12.600   9.212  1.00  0.00     0.049 A 
ATOM     48  C   UNL     1       6.040  12.898   3.764  1.00  0.00     0.074 A 
ATOM     49  C   UNL     1       5.640  13.191  10.095  1.00  0.00     0.029 A 
ATOM     50  N   UNL     1       5.267  12.797   7.938  1.00  0.00    -0.354 N 
ATOM     51  N   UNL     1       5.874  12.909   5.066  1.00  0.00    -0.248 NA
ATOM     52  C   UNL     1       7.232  13.627   3.307  1.00  0.00     0.031 C 
ATOM     53  C   UNL     1       6.661  13.793   9.351  1.00  0.00     0.029 A 
ATOM     54  C   UNL     1       6.447  13.518   8.009  1.00  0.00     0.049 A 
ATOM     55  H   UNL     1       4.854  12.472   7.106  1.00  0.00     0.167 HD
ATOM     56  C   UNL     1       6.963  13.605   5.585  1.00  0.00     0.074 A 
ATOM     57  C   UNL     1       7.780  13.998   4.456  1.00  0.00     0.031 C 
ATOM     58  C   UNL     1       7.264  13.885   6.878  1.00  0.00     0.037 A 
BRANCH  45  59
ATOM     59  C   UNL     1       3.080  11.801  10.934  1.00  0.00     0.058 A 
ATOM     60  C   UNL     1       3.081  10.571  11.612  1.00  0.00     0.135 A 
ATOM     61  C   UNL     1       2.651  12.938  11.638  1.00  0.00     0.135 A 
ATOM     62  F   UNL     1       3.458   9.450  10.977  1.00  0.00    -0.206 F 
ATOM     63  C   UNL     1       2.645  10.468  12.929  1.00  0.00     0.059 A 
ATOM     64  C   UNL     1       2.236  12.862  12.964  1.00  0.00     0.059 A 
ATOM     65  F   UNL     1       2.623  14.136  11.035  1.00  0.00    -0.206 F 
ATOM     66  C   UNL     1       2.222  11.619  13.595  1.00  0.00     0.060 A 
BRANCH  66  67
ATOM     67  S   UNL     1       1.649  11.468  15.300  1.00  0.00     0.124 S 
ATOM     68  O   UNL     1       0.366  10.796  15.116  1.00  0.00    -0.237 OA
ATOM     69  O   UNL     1       2.702  10.665  15.913  1.00  0.00    -0.237 OA
ATOM     70  O   UNL     1       1.571  12.851  15.758  1.00  0.00    -0.744 OA
ENDBRANCH  66  67
ENDBRANCH  45  59
BRANCH  46  71
ATOM     71  C   UNL     1       5.572  12.339   1.264  1.00  0.00     0.058 A 
ATOM     72  C   UNL     1       6.730  11.721   0.770  1.00  0.00     0.135 A 
ATOM     73  C   UNL     1       4.799  13.087   0.362  1.00  0.00     0.135 A 
ATOM     74  F   UNL     1       7.512  11.006   1.594  1.00  0.00    -0.206 F 
ATOM     75  C   UNL     1       7.123  11.860  -0.558  1.00  0.00     0.059 A 
ATOM     76  C   UNL     1       5.155  13.218  -0.977  1.00  0.00     0.059 A 
ATOM     77  F   UNL     1       3.678  13.696   0.780  1.00  0.00    -0.206 F 
ATOM     78  C   UNL     1       6.328  12.612  -1.424  1.00  0.00     0.060 A 
BRANCH  78  79
ATOM     79  S   UNL     1       6.834  12.769  -3.151  1.00  0.00     0.124 S 
ATOM     80  O   UNL     1       7.985  13.658  -3.041  1.00  0.00    -0.237 OA
ATOM     81  O   UNL     1       7.127  11.385  -3.511  1.00  0.00    -0.237 OA
ATOM     82  O   UNL     1       5.655  13.340  -3.796  1.00  0.00    -0.744 OA
ENDBRANCH  78  79
ENDBRANCH  46  71
BRANCH  58  83
ATOM     83  C   UNL     1       8.565  14.591   7.158  1.00  0.00     0.058 A 
ATOM     84  C   UNL     1       8.771  15.941   6.834  1.00  0.00     0.135 A 
ATOM     85  C   UNL     1       9.607  13.910   7.811  1.00  0.00     0.135 A 
ATOM     86  F   UNL     1       7.811  16.640   6.208  1.00  0.00    -0.206 F 
ATOM     87  C   UNL     1       9.975  16.581   7.117  1.00  0.00     0.059 A 
ATOM     88  C   UNL     1      10.805  14.539   8.133  1.00  0.00     0.059 A 
ATOM     89  F   UNL     1       9.459  12.622   8.159  1.00  0.00    -0.206 F 
ATOM     90  C   UNL     1      10.986  15.871   7.768  1.00  0.00     0.060 A 
BRANCH  90  91
ATOM     91  S   UNL     1      12.535  16.718   8.150  1.00  0.00     0.124 S 
ATOM     92  O   UNL     1      13.157  16.801   6.833  1.00  0.00    -0.237 OA
ATOM     93  O   UNL     1      12.070  17.981   8.714  1.00  0.00    -0.237 OA
ATOM     94  O   UNL     1      13.189  15.819   9.097  1.00  0.00    -0.744 OA
ENDBRANCH  90  91
ENDBRANCH  58  83
ENDBRANCH  32  33
ENDBRANCH  25  27
ENDBRANCH  24  25
ENDBRANCH  23  24
ENDBRANCH   1  23
TORSDOF 18
