REMARK SMILES C=CC[C@@H](NC(=O)OCc1ccccc1)C(=O)OCCOC(=O)c1ccc(-c2c3nc(c(-c4c(F)cc(S(=O)(=O)[O-])cc4F)c4ccc([nH]4)c(-c4c(F)cc(S(=O)(=O)[O-])cc4F)c4nc(c(-c5c(F)cc(S(=O)(=O)[O-])cc5F)c5ccc2[nH]5)C=C4)C=C3)cc1
REMARK SMILES IDX 19 1 18 2 16 3 17 4 4 5 3 6 2 7 1 8 5 9 6 10 7 12 8 13 9 14
REMARK SMILES IDX 10 15 11 16 15 17 12 18 14 19 13 20 20 21 21 22 22 23 23 24
REMARK SMILES IDX 24 25 25 26 89 27 26 28 88 29 27 30 28 31 29 32 82 33 30 34
REMARK SMILES IDX 87 35 81 36 83 37 31 38 86 39 80 40 79 41 32 43 66 44 45 45
REMARK SMILES IDX 65 46 46 47 49 48 64 49 84 50 47 51 48 52 63 54 85 55 50 56
REMARK SMILES IDX 33 57 34 58 43 59 35 60 36 61 42 62 44 63 37 64 38 65 39 66
REMARK SMILES IDX 40 67 41 68 67 69 68 70 77 71 69 72 70 73 76 74 78 75 71 76
REMARK SMILES IDX 72 77 73 78 74 79 75 80 51 81 52 82 61 83 53 84 54 85 60 86
REMARK SMILES IDX 62 87 55 88 56 89 57 90 58 91 59 92
REMARK H PARENT 5 11 83 42 49 53
REMARK Flexibility Score: inf
ROOT
ATOM      1  C   UNL     1      -5.344   1.497   1.375  1.00  0.00     0.274 C 
ENDROOT
BRANCH   1   2
ATOM      2  O   UNL     1      -3.913   1.595   1.256  1.00  0.00    -0.461 OA
BRANCH   2   3
ATOM      3  C   UNL     1      -3.194   1.031   2.273  1.00  0.00     0.329 C 
ATOM      4  O   UNL     1      -3.687   0.414   3.212  1.00  0.00    -0.250 OA
BRANCH   3   5
ATOM      5  C   UNL     1      -1.699   1.395   2.192  1.00  0.00     0.199 C 
BRANCH   5   6
ATOM      6  C   UNL     1      -1.184   1.483   0.743  1.00  0.00     0.064 C 
BRANCH   6   7
ATOM      7  C   UNL     1       0.307   1.260   0.640  1.00  0.00    -0.032 C 
ATOM      8  C   UNL     1       0.866   0.207   0.026  1.00  0.00     0.004 C 
ENDBRANCH   6   7
ENDBRANCH   5   6
BRANCH   5   9
ATOM      9  N   UNL     1      -1.261   2.521   3.031  1.00  0.00    -0.308 N 
ATOM     10  C   UNL     1      -2.028   3.486   3.617  1.00  0.00     0.408 C 
ATOM     11  H   UNL     1      -0.292   2.587   3.190  1.00  0.00     0.168 HD
ATOM     12  O   UNL     1      -1.532   4.442   4.191  1.00  0.00    -0.225 OA
BRANCH  10  13
ATOM     13  O   UNL     1      -3.348   3.237   3.509  1.00  0.00    -0.445 OA
BRANCH  13  14
ATOM     14  C   UNL     1      -4.249   4.063   4.247  1.00  0.00     0.270 C 
BRANCH  14  15
ATOM     15  C   UNL     1      -4.240   3.768   5.726  1.00  0.00    -0.011 A 
ATOM     16  C   UNL     1      -4.283   2.454   6.216  1.00  0.00     0.007 A 
ATOM     17  C   UNL     1      -4.217   4.831   6.638  1.00  0.00     0.007 A 
ATOM     18  C   UNL     1      -4.280   2.213   7.592  1.00  0.00     0.000 A 
ATOM     19  C   UNL     1      -4.217   4.588   8.012  1.00  0.00     0.000 A 
ATOM     20  C   UNL     1      -4.245   3.280   8.488  1.00  0.00     0.000 A 
ENDBRANCH  14  15
ENDBRANCH  13  14
ENDBRANCH  10  13
ENDBRANCH   5   9
ENDBRANCH   3   5
ENDBRANCH   2   3
ENDBRANCH   1   2
BRANCH   1  21
ATOM     21  C   UNL     1      -5.918   0.325   0.575  1.00  0.00     0.275 C 
BRANCH  21  22
ATOM     22  O   UNL     1      -5.460  -0.944   1.072  1.00  0.00    -0.458 OA
BRANCH  22  23
ATOM     23  C   UNL     1      -4.301  -1.376   0.520  1.00  0.00     0.338 C 
ATOM     24  O   UNL     1      -3.676  -0.844  -0.383  1.00  0.00    -0.246 OA
BRANCH  23  25
ATOM     25  C   UNL     1      -3.769  -2.516   1.280  1.00  0.00     0.060 A 
ATOM     26  C   UNL     1      -2.522  -2.360   1.889  1.00  0.00     0.016 A 
ATOM     27  C   UNL     1      -4.428  -3.744   1.315  1.00  0.00     0.016 A 
ATOM     28  C   UNL     1      -1.919  -3.428   2.537  1.00  0.00     0.010 A 
ATOM     29  C   UNL     1      -3.816  -4.824   1.960  1.00  0.00     0.010 A 
ATOM     30  C   UNL     1      -2.554  -4.674   2.562  1.00  0.00    -0.014 A 
BRANCH  30  31
ATOM     31  C   UNL     1      -1.843  -5.826   3.163  1.00  0.00     0.031 A 
ATOM     32  C   UNL     1      -1.268  -6.889   2.271  1.00  0.00     0.074 A 
ATOM     33  C   UNL     1      -1.667  -5.877   4.497  1.00  0.00     0.049 A 
ATOM     34  N   UNL     1      -0.659  -7.999   2.596  1.00  0.00    -0.248 NA
ATOM     35  C   UNL     1      -1.395  -6.676   0.820  1.00  0.00     0.031 C 
ATOM     36  C   UNL     1      -2.140  -4.869   5.449  1.00  0.00     0.029 A 
ATOM     37  N   UNL     1      -1.044  -6.811   5.282  1.00  0.00    -0.354 N 
ATOM     38  C   UNL     1      -0.339  -8.622   1.396  1.00  0.00     0.074 A 
ATOM     39  C   UNL     1      -0.846  -7.781   0.334  1.00  0.00     0.031 C 
ATOM     40  C   UNL     1      -1.792  -5.242   6.691  1.00  0.00     0.029 A 
ATOM     41  C   UNL     1      -1.119  -6.536   6.627  1.00  0.00     0.049 A 
ATOM     42  H   UNL     1      -0.586  -7.603   4.918  1.00  0.00     0.167 HD
ATOM     43  C   UNL     1       0.327  -9.785   1.204  1.00  0.00     0.037 A 
ATOM     44  C   UNL     1      -0.721  -7.264   7.688  1.00  0.00     0.037 A 
ATOM     45  C   UNL     1       0.833 -10.607   2.275  1.00  0.00     0.049 A 
ATOM     46  C   UNL     1      -0.045  -8.588   7.445  1.00  0.00     0.074 A 
ATOM     47  C   UNL     1       1.517 -11.807   2.189  1.00  0.00     0.029 A 
ATOM     48  N   UNL     1       0.711 -10.314   3.626  1.00  0.00    -0.354 N 
ATOM     49  N   UNL     1       0.245  -9.170   6.304  1.00  0.00    -0.248 NA
ATOM     50  C   UNL     1       0.360  -9.353   8.631  1.00  0.00     0.031 C 
ATOM     51  C   UNL     1       1.765 -12.263   3.488  1.00  0.00     0.029 A 
ATOM     52  C   UNL     1       1.290 -11.319   4.384  1.00  0.00     0.049 A 
ATOM     53  H   UNL     1       0.278  -9.509   3.992  1.00  0.00     0.167 HD
ATOM     54  C   UNL     1       0.886 -10.359   6.637  1.00  0.00     0.074 A 
ATOM     55  C   UNL     1       0.966 -10.396   8.083  1.00  0.00     0.031 C 
ATOM     56  C   UNL     1       1.360 -11.336   5.824  1.00  0.00     0.037 A 
BRANCH  43  57
ATOM     57  C   UNL     1       0.535 -10.254  -0.211  1.00  0.00     0.058 A 
ATOM     58  C   UNL     1       1.438  -9.616  -1.076  1.00  0.00     0.135 A 
ATOM     59  C   UNL     1      -0.131 -11.395  -0.688  1.00  0.00     0.135 A 
ATOM     60  F   UNL     1       2.086  -8.508  -0.682  1.00  0.00    -0.206 F 
ATOM     61  C   UNL     1       1.669 -10.089  -2.364  1.00  0.00     0.059 A 
ATOM     62  C   UNL     1       0.104 -11.901  -1.963  1.00  0.00     0.059 A 
ATOM     63  F   UNL     1      -1.012 -12.039   0.094  1.00  0.00    -0.206 F 
ATOM     64  C   UNL     1       1.003 -11.238  -2.796  1.00  0.00     0.060 A 
BRANCH  64  65
ATOM     65  S   UNL     1       1.345 -11.859  -4.456  1.00  0.00     0.124 S 
ATOM     66  O   UNL     1       0.722 -10.834  -5.287  1.00  0.00    -0.237 OA
ATOM     67  O   UNL     1       2.804 -11.893  -4.479  1.00  0.00    -0.237 OA
ATOM     68  O   UNL     1       0.691 -13.164  -4.475  1.00  0.00    -0.744 OA
ENDBRANCH  64  65
ENDBRANCH  43  57
BRANCH  44  69
ATOM     69  C   UNL     1      -0.987  -6.784   9.072  1.00  0.00     0.058 A 
ATOM     70  C   UNL     1       0.060  -6.449   9.944  1.00  0.00     0.135 A 
ATOM     71  C   UNL     1      -2.299  -6.678   9.561  1.00  0.00     0.135 A 
ATOM     72  F   UNL     1       1.333  -6.539   9.528  1.00  0.00    -0.206 F 
ATOM     73  C   UNL     1      -0.181  -6.062  11.258  1.00  0.00     0.059 A 
ATOM     74  C   UNL     1      -2.567  -6.261  10.860  1.00  0.00     0.059 A 
ATOM     75  F   UNL     1      -3.340  -6.973   8.766  1.00  0.00    -0.206 F 
ATOM     76  C   UNL     1      -1.500  -5.974  11.708  1.00  0.00     0.060 A 
BRANCH  76  77
ATOM     77  S   UNL     1      -1.804  -5.463  13.413  1.00  0.00     0.124 S 
ATOM     78  O   UNL     1      -1.386  -6.649  14.152  1.00  0.00    -0.237 OA
ATOM     79  O   UNL     1      -0.941  -4.293  13.541  1.00  0.00    -0.237 OA
ATOM     80  O   UNL     1      -3.236  -5.182  13.428  1.00  0.00    -0.744 OA
ENDBRANCH  76  77
ENDBRANCH  44  69
BRANCH  56  81
ATOM     81  C   UNL     1       2.037 -12.507   6.485  1.00  0.00     0.058 A 
ATOM     82  C   UNL     1       1.319 -13.445   7.243  1.00  0.00     0.135 A 
ATOM     83  C   UNL     1       3.422 -12.698   6.349  1.00  0.00     0.135 A 
ATOM     84  F   UNL     1      -0.007 -13.308   7.409  1.00  0.00    -0.206 F 
ATOM     85  C   UNL     1       1.955 -14.504   7.881  1.00  0.00     0.059 A 
ATOM     86  C   UNL     1       4.074 -13.770   6.949  1.00  0.00     0.059 A 
ATOM     87  F   UNL     1       4.156 -11.840   5.622  1.00  0.00    -0.206 F 
ATOM     88  C   UNL     1       3.335 -14.656   7.731  1.00  0.00     0.060 A 
BRANCH  88  89
ATOM     89  S   UNL     1       4.149 -16.033   8.567  1.00  0.00     0.124 S 
ATOM     90  O   UNL     1       4.121 -15.590   9.957  1.00  0.00    -0.237 OA
ATOM     91  O   UNL     1       3.276 -17.156   8.241  1.00  0.00    -0.237 OA
ATOM     92  O   UNL     1       5.470 -16.073   7.947  1.00  0.00    -0.744 OA
ENDBRANCH  88  89
ENDBRANCH  56  81
ENDBRANCH  30  31
ENDBRANCH  23  25
ENDBRANCH  22  23
ENDBRANCH  21  22
ENDBRANCH   1  21
TORSDOF 20
