REMARK SMILES O=C(OCCOC(=O)c1cc(-c2ccc(F)c(C(F)(F)F)c2)cnc1O)c1ccc(-c2c3nc(c(-c4c(F)cc(S(=O)(=O)[O-])cc4F)c4ccc([nH]4)c(-c4c(F)cc(S(=O)(=O)[O-])cc4F)c4nc(c(-c5c(F)cc(S(=O)(=O)[O-])cc5F)c5ccc2[nH]5)C=C4)C=C3)cc1
REMARK SMILES IDX 4 1 3 2 2 3 1 4 27 5 28 6 92 7 29 8 91 9 30 10 31 11 32 12
REMARK SMILES IDX 85 13 33 14 90 15 84 16 86 17 34 18 89 19 83 20 82 21 35 23
REMARK SMILES IDX 69 24 48 25 68 26 49 27 52 28 67 29 87 30 50 31 51 32 66 34
REMARK SMILES IDX 88 35 53 36 36 37 37 38 46 39 38 40 39 41 45 42 47 43 40 44
REMARK SMILES IDX 41 45 42 46 43 47 44 48 70 49 71 50 80 51 72 52 73 53 79 54
REMARK SMILES IDX 81 55 74 56 75 57 76 58 77 59 78 60 54 61 55 62 64 63 56 64
REMARK SMILES IDX 57 65 63 66 65 67 58 68 59 69 60 70 61 71 62 72 5 73 6 74
REMARK SMILES IDX 7 75 8 76 9 77 10 78 25 79 11 80 24 81 23 82 26 83 12 85
REMARK SMILES IDX 13 86 22 87 14 88 17 89 15 90 16 91 18 92 19 93 20 94 21 95
REMARK H PARENT 86 22 52 33 26 84
REMARK Flexibility Score: inf
ROOT
ATOM      1  C   UNL     1       4.448  -0.814  -1.273  1.00  0.00     0.275 C 
ENDROOT
BRANCH   1   2
ATOM      2  O   UNL     1       3.616  -1.261  -0.191  1.00  0.00    -0.458 OA
BRANCH   2   3
ATOM      3  C   UNL     1       3.557  -0.826   1.089  1.00  0.00     0.338 C 
ATOM      4  O   UNL     1       2.901  -1.471   1.905  1.00  0.00    -0.246 OA
BRANCH   3   5
ATOM      5  C   UNL     1       4.106   0.493   1.527  1.00  0.00     0.060 A 
ATOM      6  C   UNL     1       3.318   1.193   2.448  1.00  0.00     0.016 A 
ATOM      7  C   UNL     1       5.330   1.057   1.161  1.00  0.00     0.016 A 
ATOM      8  C   UNL     1       3.683   2.465   2.895  1.00  0.00     0.010 A 
ATOM      9  C   UNL     1       5.712   2.330   1.629  1.00  0.00     0.010 A 
ATOM     10  C   UNL     1       4.881   3.059   2.485  1.00  0.00    -0.014 A 
BRANCH  10  11
ATOM     11  C   UNL     1       5.264   4.379   3.057  1.00  0.00     0.031 A 
ATOM     12  C   UNL     1       5.313   5.627   2.218  1.00  0.00     0.074 A 
ATOM     13  C   UNL     1       5.487   4.463   4.384  1.00  0.00     0.049 A 
ATOM     14  N   UNL     1       5.418   6.874   2.605  1.00  0.00    -0.248 NA
ATOM     15  C   UNL     1       5.214   5.461   0.765  1.00  0.00     0.031 C 
ATOM     16  C   UNL     1       5.462   3.329   5.311  1.00  0.00     0.029 A 
ATOM     17  N   UNL     1       5.750   5.543   5.188  1.00  0.00    -0.354 N 
ATOM     18  C   UNL     1       5.324   7.641   1.447  1.00  0.00     0.074 A 
ATOM     19  C   UNL     1       5.206   6.718   0.341  1.00  0.00     0.031 C 
ATOM     20  C   UNL     1       5.656   3.776   6.558  1.00  0.00     0.029 A 
ATOM     21  C   UNL     1       5.878   5.219   6.517  1.00  0.00     0.049 A 
ATOM     22  H   UNL     1       5.839   6.461   4.845  1.00  0.00     0.167 HD
ATOM     23  C   UNL     1       5.329   8.990   1.320  1.00  0.00     0.037 A 
ATOM     24  C   UNL     1       6.162   5.987   7.587  1.00  0.00     0.037 A 
ATOM     25  C   UNL     1       5.551   9.901   2.412  1.00  0.00     0.049 A 
ATOM     26  C   UNL     1       6.358   7.460   7.395  1.00  0.00     0.074 A 
ATOM     27  C   UNL     1       5.588  11.284   2.390  1.00  0.00     0.029 A 
ATOM     28  N   UNL     1       5.832   9.515   3.715  1.00  0.00    -0.354 N 
ATOM     29  N   UNL     1       6.182   8.174   6.309  1.00  0.00    -0.248 NA
ATOM     30  C   UNL     1       6.813   8.230   8.559  1.00  0.00     0.031 C 
ATOM     31  C   UNL     1       5.970  11.730   3.662  1.00  0.00     0.029 A 
ATOM     32  C   UNL     1       6.121  10.627   4.488  1.00  0.00     0.049 A 
ATOM     33  H   UNL     1       5.826   8.586   4.042  1.00  0.00     0.167 HD
ATOM     34  C   UNL     1       6.518   9.477   6.653  1.00  0.00     0.074 A 
ATOM     35  C   UNL     1       6.884   9.457   8.056  1.00  0.00     0.031 C 
ATOM     36  C   UNL     1       6.526  10.586   5.872  1.00  0.00     0.037 A 
BRANCH  23  37
ATOM     37  C   UNL     1       5.128   9.560  -0.057  1.00  0.00     0.058 A 
ATOM     38  C   UNL     1       3.858   9.595  -0.656  1.00  0.00     0.135 A 
ATOM     39  C   UNL     1       6.203  10.111  -0.771  1.00  0.00     0.135 A 
ATOM     40  F   UNL     1       2.794   9.087  -0.016  1.00  0.00    -0.206 F 
ATOM     41  C   UNL     1       3.667  10.136  -1.926  1.00  0.00     0.059 A 
ATOM     42  C   UNL     1       6.032  10.674  -2.034  1.00  0.00     0.059 A 
ATOM     43  F   UNL     1       7.438  10.105  -0.244  1.00  0.00    -0.206 F 
ATOM     44  C   UNL     1       4.761  10.670  -2.609  1.00  0.00     0.060 A 
BRANCH  44  45
ATOM     45  S   UNL     1       4.498  11.363  -4.257  1.00  0.00     0.124 S 
ATOM     46  O   UNL     1       4.222  10.162  -5.041  1.00  0.00    -0.237 OA
ATOM     47  O   UNL     1       3.364  12.255  -4.044  1.00  0.00    -0.237 OA
ATOM     48  O   UNL     1       5.764  12.025  -4.556  1.00  0.00    -0.744 OA
ENDBRANCH  44  45
ENDBRANCH  23  37
BRANCH  24  49
ATOM     49  C   UNL     1       6.304   5.338   8.916  1.00  0.00     0.058 A 
ATOM     50  C   UNL     1       5.325   5.486   9.906  1.00  0.00     0.135 A 
ATOM     51  C   UNL     1       7.373   4.462   9.174  1.00  0.00     0.135 A 
ATOM     52  F   UNL     1       4.294   6.321   9.711  1.00  0.00    -0.206 F 
ATOM     53  C   UNL     1       5.381   4.762  11.094  1.00  0.00     0.059 A 
ATOM     54  C   UNL     1       7.438   3.712  10.343  1.00  0.00     0.059 A 
ATOM     55  F   UNL     1       8.331   4.282   8.252  1.00  0.00    -0.206 F 
ATOM     56  C   UNL     1       6.432   3.864  11.295  1.00  0.00     0.060 A 
BRANCH  56  57
ATOM     57  S   UNL     1       6.426   2.834  12.779  1.00  0.00     0.124 S 
ATOM     58  O   UNL     1       6.786   3.800  13.809  1.00  0.00    -0.237 OA
ATOM     59  O   UNL     1       5.050   2.349  12.810  1.00  0.00    -0.237 OA
ATOM     60  O   UNL     1       7.433   1.818  12.486  1.00  0.00    -0.744 OA
ENDBRANCH  56  57
ENDBRANCH  24  49
BRANCH  36  61
ATOM     61  C   UNL     1       6.997  11.868   6.497  1.00  0.00     0.058 A 
ATOM     62  C   UNL     1       8.362  12.099   6.725  1.00  0.00     0.135 A 
ATOM     63  C   UNL     1       6.095  12.901   6.795  1.00  0.00     0.135 A 
ATOM     64  F   UNL     1       9.263  11.137   6.467  1.00  0.00    -0.206 F 
ATOM     65  C   UNL     1       8.818  13.312   7.229  1.00  0.00     0.059 A 
ATOM     66  C   UNL     1       6.531  14.131   7.279  1.00  0.00     0.059 A 
ATOM     67  F   UNL     1       4.779  12.730   6.589  1.00  0.00    -0.206 F 
ATOM     68  C   UNL     1       7.895  14.325   7.495  1.00  0.00     0.060 A 
BRANCH  68  69
ATOM     69  S   UNL     1       8.509  15.915   8.089  1.00  0.00     0.124 S 
ATOM     70  O   UNL     1       8.902  15.588   9.455  1.00  0.00    -0.237 OA
ATOM     71  O   UNL     1       9.604  16.192   7.163  1.00  0.00    -0.237 OA
ATOM     72  O   UNL     1       7.352  16.796   7.963  1.00  0.00    -0.744 OA
ENDBRANCH  68  69
ENDBRANCH  36  61
ENDBRANCH  10  11
ENDBRANCH   3   5
ENDBRANCH   2   3
ENDBRANCH   1   2
BRANCH   1  73
ATOM     73  C   UNL     1       3.816   0.262  -2.154  1.00  0.00     0.275 C 
BRANCH  73  74
ATOM     74  O   UNL     1       3.362   1.410  -1.419  1.00  0.00    -0.458 OA
BRANCH  74  75
ATOM     75  C   UNL     1       2.034   1.421  -1.100  1.00  0.00     0.343 C 
ATOM     76  O   UNL     1       1.224   0.554  -1.346  1.00  0.00    -0.246 OA
BRANCH  75  77
ATOM     77  C   UNL     1       1.733   2.638  -0.323  1.00  0.00     0.122 A 
ATOM     78  C   UNL     1       0.839   2.557   0.759  1.00  0.00     0.031 A 
ATOM     79  C   UNL     1       2.322   3.861  -0.605  1.00  0.00     0.225 A 
ATOM     80  C   UNL     1       0.610   3.680   1.567  1.00  0.00     0.001 A 
ATOM     81  N   UNL     1       2.088   4.967   0.118  1.00  0.00    -0.221 NA
ATOM     82  C   UNL     1       1.267   4.853   1.188  1.00  0.00     0.124 A 
BRANCH  79  83
ATOM     83  O   UNL     1       3.207   4.064  -1.622  1.00  0.00    -0.493 OA
ATOM     84  H   UNL     1       3.440   3.356  -2.189  1.00  0.00     0.295 HD
ENDBRANCH  79  83
BRANCH  80  85
ATOM     85  C   UNL     1      -0.208   3.646   2.791  1.00  0.00    -0.016 A 
ATOM     86  C   UNL     1      -1.290   4.523   2.956  1.00  0.00     0.012 A 
ATOM     87  C   UNL     1       0.128   2.815   3.877  1.00  0.00     0.025 A 
ATOM     88  C   UNL     1      -1.989   4.582   4.165  1.00  0.00     0.040 A 
ATOM     89  C   UNL     1      -0.536   2.899   5.114  1.00  0.00     0.092 A 
ATOM     90  C   UNL     1      -1.601   3.780   5.233  1.00  0.00     0.135 A 
ATOM     91  F   UNL     1      -2.269   3.873   6.390  1.00  0.00    -0.206 F 
BRANCH  89  92
ATOM     92  C   UNL     1      -0.104   2.091   6.302  1.00  0.00     0.419 C 
ATOM     93  F   UNL     1       0.159   2.847   7.401  1.00  0.00    -0.166 F 
ATOM     94  F   UNL     1      -1.037   1.174   6.681  1.00  0.00    -0.166 F 
ATOM     95  F   UNL     1       1.035   1.375   6.068  1.00  0.00    -0.166 F 
ENDBRANCH  89  92
ENDBRANCH  80  85
ENDBRANCH  75  77
ENDBRANCH  74  75
ENDBRANCH  73  74
ENDBRANCH   1  73
TORSDOF 17
