REMARK SMILES O=C(OCCOC(=O)c1cc(-c2cncnc2)cc(S(=O)(=O)N2CCCC2)c1)c1ccc(-c2c3nc(c(-c4c(F)cc(S(=O)(=O)[O-])cc4F)c4ccc([nH]4)c(-c4c(F)cc(S(=O)(=O)[O-])cc4F)c4nc(c(-c5c(F)cc(S(=O)(=O)[O-])cc5F)c5ccc2[nH]5)C=C4)C=C3)cc1
REMARK SMILES IDX 4 1 3 2 2 3 1 4 29 5 30 6 94 7 31 8 93 9 32 10 33 11 34 12
REMARK SMILES IDX 87 13 35 14 92 15 86 16 88 17 36 18 91 19 85 20 84 21 37 23
REMARK SMILES IDX 71 24 50 25 70 26 51 27 54 28 69 29 89 30 52 31 53 32 68 34
REMARK SMILES IDX 90 35 55 36 38 37 39 38 48 39 40 40 41 41 47 42 49 43 42 44
REMARK SMILES IDX 43 45 44 46 45 47 46 48 72 49 73 50 82 51 74 52 75 53 81 54
REMARK SMILES IDX 83 55 76 56 77 57 78 58 79 59 80 60 56 61 57 62 66 63 58 64
REMARK SMILES IDX 59 65 65 66 67 67 60 68 61 69 62 70 63 71 64 72 5 73 6 74
REMARK SMILES IDX 7 75 8 76 9 77 10 78 28 79 11 80 19 81 18 82 12 83 13 84
REMARK SMILES IDX 17 85 14 86 16 87 15 88 20 89 21 90 22 91 23 92 24 93 27 94
REMARK SMILES IDX 25 95 26 96
REMARK H PARENT 88 22 54 33
REMARK Flexibility Score: inf
ROOT
ATOM      1  C   UNL     1       4.244  -1.086  -0.794  1.00  0.00     0.275 C 
ENDROOT
BRANCH   1   2
ATOM      2  O   UNL     1       3.218  -1.149   0.214  1.00  0.00    -0.458 OA
BRANCH   2   3
ATOM      3  C   UNL     1       2.842  -0.283   1.182  1.00  0.00     0.338 C 
ATOM      4  O   UNL     1       1.868  -0.584   1.873  1.00  0.00    -0.246 OA
BRANCH   3   5
ATOM      5  C   UNL     1       3.483   1.048   1.456  1.00  0.00     0.060 A 
ATOM      6  C   UNL     1       4.764   1.444   1.075  1.00  0.00     0.016 A 
ATOM      7  C   UNL     1       2.726   1.957   2.228  1.00  0.00     0.016 A 
ATOM      8  C   UNL     1       5.277   2.691   1.455  1.00  0.00     0.010 A 
ATOM      9  C   UNL     1       3.230   3.207   2.612  1.00  0.00     0.010 A 
ATOM     10  C   UNL     1       4.528   3.565   2.252  1.00  0.00    -0.014 A 
BRANCH  10  11
ATOM     11  C   UNL     1       5.208   4.748   2.831  1.00  0.00     0.031 A 
ATOM     12  C   UNL     1       5.871   4.615   4.163  1.00  0.00     0.074 A 
ATOM     13  C   UNL     1       5.330   5.887   2.130  1.00  0.00     0.049 A 
ATOM     14  N   UNL     1       6.673   5.449   4.766  1.00  0.00    -0.248 NA
ATOM     15  C   UNL     1       5.577   3.390   4.921  1.00  0.00     0.031 C 
ATOM     16  C   UNL     1       4.672   6.134   0.860  1.00  0.00     0.029 A 
ATOM     17  N   UNL     1       6.071   7.021   2.348  1.00  0.00    -0.354 N 
ATOM     18  C   UNL     1       6.958   4.867   5.992  1.00  0.00     0.074 A 
ATOM     19  C   UNL     1       6.249   3.606   6.040  1.00  0.00     0.031 C 
ATOM     20  C   UNL     1       5.124   7.290   0.351  1.00  0.00     0.029 A 
ATOM     21  C   UNL     1       6.064   7.890   1.280  1.00  0.00     0.049 A 
ATOM     22  H   UNL     1       6.558   7.196   3.186  1.00  0.00     0.167 HD
ATOM     23  C   UNL     1       7.721   5.360   6.995  1.00  0.00     0.037 A 
ATOM     24  C   UNL     1       6.748   9.030   1.060  1.00  0.00     0.037 A 
ATOM     25  C   UNL     1       8.384   6.636   6.944  1.00  0.00     0.049 A 
ATOM     26  C   UNL     1       7.651   9.523   2.151  1.00  0.00     0.074 A 
ATOM     27  C   UNL     1       9.135   7.260   7.922  1.00  0.00     0.029 A 
ATOM     28  N   UNL     1       8.360   7.492   5.849  1.00  0.00    -0.354 N 
ATOM     29  N   UNL     1       7.921   8.957   3.304  1.00  0.00    -0.248 NA
ATOM     30  C   UNL     1       8.319  10.811   1.933  1.00  0.00     0.031 C 
ATOM     31  C   UNL     1       9.545   8.506   7.428  1.00  0.00     0.029 A 
ATOM     32  C   UNL     1       9.081   8.640   6.128  1.00  0.00     0.049 A 
ATOM     33  H   UNL     1       7.898   7.308   5.000  1.00  0.00     0.167 HD
ATOM     34  C   UNL     1       8.775   9.829   3.961  1.00  0.00     0.074 A 
ATOM     35  C   UNL     1       9.014  10.938   3.056  1.00  0.00     0.031 C 
ATOM     36  C   UNL     1       9.295   9.732   5.209  1.00  0.00     0.037 A 
BRANCH  23  37
ATOM     37  C   UNL     1       7.783   4.530   8.242  1.00  0.00     0.058 A 
ATOM     38  C   UNL     1       8.504   3.326   8.293  1.00  0.00     0.135 A 
ATOM     39  C   UNL     1       7.022   4.890   9.364  1.00  0.00     0.135 A 
ATOM     40  F   UNL     1       9.218   2.920   7.231  1.00  0.00    -0.206 F 
ATOM     41  C   UNL     1       8.425   2.481   9.395  1.00  0.00     0.059 A 
ATOM     42  C   UNL     1       6.947   4.071  10.486  1.00  0.00     0.059 A 
ATOM     43  F   UNL     1       6.305   6.025   9.359  1.00  0.00    -0.206 F 
ATOM     44  C   UNL     1       7.629   2.855  10.479  1.00  0.00     0.060 A 
BRANCH  44  45
ATOM     45  S   UNL     1       7.467   1.717  11.871  1.00  0.00     0.124 S 
ATOM     46  O   UNL     1       6.526   0.739  11.335  1.00  0.00    -0.237 OA
ATOM     47  O   UNL     1       8.836   1.244  12.052  1.00  0.00    -0.237 OA
ATOM     48  O   UNL     1       6.953   2.565  12.942  1.00  0.00    -0.744 OA
ENDBRANCH  44  45
ENDBRANCH  23  37
BRANCH  24  49
ATOM     49  C   UNL     1       6.641   9.745  -0.245  1.00  0.00     0.058 A 
ATOM     50  C   UNL     1       7.724   9.767  -1.138  1.00  0.00     0.135 A 
ATOM     51  C   UNL     1       5.458  10.384  -0.648  1.00  0.00     0.135 A 
ATOM     52  F   UNL     1       8.881   9.176  -0.803  1.00  0.00    -0.206 F 
ATOM     53  C   UNL     1       7.640  10.394  -2.379  1.00  0.00     0.059 A 
ATOM     54  C   UNL     1       5.339  10.992  -1.897  1.00  0.00     0.059 A 
ATOM     55  F   UNL     1       4.391  10.395   0.166  1.00  0.00    -0.206 F 
ATOM     56  C   UNL     1       6.440  10.998  -2.753  1.00  0.00     0.060 A 
BRANCH  56  57
ATOM     57  S   UNL     1       6.320  11.742  -4.397  1.00  0.00     0.124 S 
ATOM     58  O   UNL     1       7.044  12.993  -4.207  1.00  0.00    -0.237 OA
ATOM     59  O   UNL     1       6.981  10.746  -5.236  1.00  0.00    -0.237 OA
ATOM     60  O   UNL     1       4.881  11.868  -4.607  1.00  0.00    -0.744 OA
ENDBRANCH  56  57
ENDBRANCH  24  49
BRANCH  36  61
ATOM     61  C   UNL     1      10.172  10.861   5.656  1.00  0.00     0.058 A 
ATOM     62  C   UNL     1       9.631  12.100   6.034  1.00  0.00     0.135 A 
ATOM     63  C   UNL     1      11.562  10.694   5.728  1.00  0.00     0.135 A 
ATOM     64  F   UNL     1       8.306  12.307   5.972  1.00  0.00    -0.206 F 
ATOM     65  C   UNL     1      10.446  13.148   6.446  1.00  0.00     0.059 A 
ATOM     66  C   UNL     1      12.393  11.721   6.157  1.00  0.00     0.059 A 
ATOM     67  F   UNL     1      12.121   9.524   5.380  1.00  0.00    -0.206 F 
ATOM     68  C   UNL     1      11.827  12.949   6.501  1.00  0.00     0.060 A 
BRANCH  68  69
ATOM     69  S   UNL     1      12.878  14.306   7.056  1.00  0.00     0.124 S 
ATOM     70  O   UNL     1      12.931  15.142   5.862  1.00  0.00    -0.237 OA
ATOM     71  O   UNL     1      12.122  14.852   8.180  1.00  0.00    -0.237 OA
ATOM     72  O   UNL     1      14.126  13.640   7.415  1.00  0.00    -0.744 OA
ENDBRANCH  68  69
ENDBRANCH  36  61
ENDBRANCH  10  11
ENDBRANCH   3   5
ENDBRANCH   2   3
ENDBRANCH   1   2
BRANCH   1  73
ATOM     73  C   UNL     1       3.871  -0.267  -2.028  1.00  0.00     0.275 C 
BRANCH  73  74
ATOM     74  O   UNL     1       3.336   1.022  -1.706  1.00  0.00    -0.458 OA
BRANCH  74  75
ATOM     75  C   UNL     1       1.980   1.074  -1.635  1.00  0.00     0.338 C 
ATOM     76  O   UNL     1       1.198   0.156  -1.803  1.00  0.00    -0.246 OA
BRANCH  75  77
ATOM     77  C   UNL     1       1.566   2.439  -1.264  1.00  0.00     0.062 A 
ATOM     78  C   UNL     1       0.509   2.619  -0.366  1.00  0.00     0.024 A 
ATOM     79  C   UNL     1       2.169   3.533  -1.875  1.00  0.00     0.037 A 
ATOM     80  C   UNL     1       0.055   3.909  -0.040  1.00  0.00    -0.013 A 
ATOM     81  C   UNL     1       1.704   4.811  -1.602  1.00  0.00     0.084 A 
ATOM     82  C   UNL     1       0.675   5.008  -0.666  1.00  0.00     0.030 A 
BRANCH  80  83
ATOM     83  C   UNL     1      -1.090   4.077   0.859  1.00  0.00     0.018 A 
ATOM     84  C   UNL     1      -2.265   4.695   0.465  1.00  0.00     0.123 A 
ATOM     85  C   UNL     1      -1.134   3.573   2.149  1.00  0.00     0.123 A 
ATOM     86  N   UNL     1      -3.374   4.799   1.230  1.00  0.00    -0.244 NA
ATOM     87  N   UNL     1      -2.208   3.646   2.966  1.00  0.00    -0.244 NA
ATOM     88  C   UNL     1      -3.284   4.261   2.455  1.00  0.00     0.221 A 
ENDBRANCH  80  83
BRANCH  81  89
ATOM     89  S   UNL     1       2.330   6.223  -2.497  1.00  0.00     0.243 S 
ATOM     90  O   UNL     1       1.348   6.469  -3.536  1.00  0.00    -0.207 OA
ATOM     91  O   UNL     1       2.635   7.209  -1.494  1.00  0.00    -0.207 OA
BRANCH  89  92
ATOM     92  N   UNL     1       3.754   5.723  -3.221  1.00  0.00    -0.198 NA
ATOM     93  C   UNL     1       3.802   5.197  -4.582  1.00  0.00     0.102 C 
ATOM     94  C   UNL     1       4.980   5.397  -2.492  1.00  0.00     0.102 C 
ATOM     95  C   UNL     1       4.774   4.031  -4.502  1.00  0.00     0.018 C 
ATOM     96  C   UNL     1       5.706   4.361  -3.347  1.00  0.00     0.018 C 
ENDBRANCH  89  92
ENDBRANCH  81  89
ENDBRANCH  75  77
ENDBRANCH  74  75
ENDBRANCH  73  74
ENDBRANCH   1  73
TORSDOF 17
