REMARK SMILES CCc1ccc(C[NH+]2CCC(Oc3ccccc3OC)(C(=O)OCCOC(=O)c3ccc(-c4c5nc(c(-c6c(F)cc(S(=O)(=O)[O-])cc6F)c6ccc([nH]6)c(-c6c(F)cc(S(=O)(=O)[O-])cc6F)c6nc(c(-c7c(F)cc(S(=O)(=O)[O-])cc7F)c7ccc4[nH]7)C=C6)C=C5)cc3)CC2)nc1
REMARK SMILES IDX 24 1 23 2 21 3 22 4 11 5 8 6 9 7 96 8 10 10 95 11 7 12 6 13
REMARK SMILES IDX 3 14 4 15 98 16 5 17 97 18 2 19 1 20 12 21 13 22 14 23 18 24
REMARK SMILES IDX 15 25 17 26 16 27 19 28 20 29 25 30 26 31 27 32 28 33 29 34
REMARK SMILES IDX 30 35 94 36 31 37 93 38 32 39 33 40 34 41 87 42 35 43 92 44
REMARK SMILES IDX 86 45 88 46 36 47 91 48 85 49 84 50 37 52 71 53 50 54 70 55
REMARK SMILES IDX 51 56 54 57 69 58 89 59 52 60 53 61 68 63 90 64 55 65 38 66
REMARK SMILES IDX 39 67 48 68 40 69 41 70 47 71 49 72 42 73 43 74 44 75 45 76
REMARK SMILES IDX 46 77 72 78 73 79 82 80 74 81 75 82 81 83 83 84 76 85 77 86
REMARK SMILES IDX 78 87 79 88 80 89 56 90 57 91 66 92 58 93 59 94 65 95 67 96
REMARK SMILES IDX 60 97 61 98 62 99 63 100 64 101
REMARK H PARENT 8 9 88 51 54 62
REMARK Flexibility Score: inf
ROOT
ATOM      1  C   UNL     1      -2.696  -0.447   6.620  1.00  0.00     0.274 C 
ENDROOT
BRANCH   1   2
ATOM      2  O   UNL     1      -2.164   0.895   6.655  1.00  0.00    -0.459 OA
BRANCH   2   3
ATOM      3  C   UNL     1      -1.265   1.137   7.652  1.00  0.00     0.351 C 
ATOM      4  O   UNL     1      -0.805   0.255   8.374  1.00  0.00    -0.247 OA
BRANCH   3   5
ATOM      5  C   UNL     1      -0.998   2.631   7.896  1.00  0.00     0.216 C 
ATOM      6  N   UNL     1       0.739   3.966   5.917  1.00  0.00    -0.330 N 
ATOM      7  C   UNL     1      -0.642   3.635   5.571  1.00  0.00     0.267 C 
ATOM      8  C   UNL     1       1.297   2.940   6.796  1.00  0.00     0.267 C 
ATOM      9  H   UNL     1       0.718   4.850   6.425  1.00  0.00     0.348 HD
ATOM     10  C   UNL     1      -1.507   3.589   6.815  1.00  0.00     0.122 C 
ATOM     11  C   UNL     1       0.512   2.871   8.117  1.00  0.00     0.122 C 
BRANCH   6  12
ATOM     12  C   UNL     1       1.605   4.237   4.734  1.00  0.00     0.319 C 
BRANCH  12  13
ATOM     13  C   UNL     1       1.457   3.322   3.524  1.00  0.00     0.095 A 
ATOM     14  C   UNL     1       0.940   1.416   1.596  1.00  0.00    -0.030 A 
ATOM     15  C   UNL     1       0.117   2.533   1.687  1.00  0.00     0.007 A 
ATOM     16  C   UNL     1       2.068   1.397   2.407  1.00  0.00     0.115 A 
ATOM     17  C   UNL     1       0.393   3.509   2.639  1.00  0.00     0.030 A 
ATOM     18  N   UNL     1       2.328   2.297   3.385  1.00  0.00    -0.255 NA
BRANCH  14  19
ATOM     19  C   UNL     1       0.570   0.234   0.745  1.00  0.00     0.034 C 
ATOM     20  C   UNL     1       1.198   0.255  -0.634  1.00  0.00     0.009 C 
ENDBRANCH  14  19
ENDBRANCH  12  13
ENDBRANCH   6  12
BRANCH   5  21
ATOM     21  O   UNL     1      -1.925   2.826   9.008  1.00  0.00    -0.471 OA
BRANCH  21  22
ATOM     22  C   UNL     1      -1.491   3.312  10.200  1.00  0.00     0.162 A 
ATOM     23  C   UNL     1      -0.632   2.543  10.994  1.00  0.00     0.050 A 
ATOM     24  C   UNL     1      -2.011   4.513  10.703  1.00  0.00     0.160 A 
ATOM     25  C   UNL     1      -0.208   3.010  12.239  1.00  0.00     0.004 A 
ATOM     26  C   UNL     1      -1.563   4.979  11.946  1.00  0.00     0.050 A 
ATOM     27  C   UNL     1      -0.664   4.236  12.710  1.00  0.00     0.004 A 
BRANCH  24  28
ATOM     28  O   UNL     1      -2.919   5.349  10.110  1.00  0.00    -0.493 OA
ATOM     29  C   UNL     1      -3.865   4.777   9.217  1.00  0.00     0.278 C 
ENDBRANCH  24  28
ENDBRANCH  21  22
ENDBRANCH   5  21
ENDBRANCH   3   5
ENDBRANCH   2   3
ENDBRANCH   1   2
BRANCH   1  30
ATOM     30  C   UNL     1      -1.995  -1.325   5.590  1.00  0.00     0.275 C 
BRANCH  30  31
ATOM     31  O   UNL     1      -0.595  -1.423   5.897  1.00  0.00    -0.458 OA
BRANCH  31  32
ATOM     32  C   UNL     1       0.219  -0.889   4.959  1.00  0.00     0.338 C 
ATOM     33  O   UNL     1      -0.132  -0.443   3.880  1.00  0.00    -0.246 OA
BRANCH  32  34
ATOM     34  C   UNL     1       1.632  -0.899   5.389  1.00  0.00     0.060 A 
ATOM     35  C   UNL     1       2.009  -0.431   6.647  1.00  0.00     0.016 A 
ATOM     36  C   UNL     1       2.608  -1.196   4.435  1.00  0.00     0.016 A 
ATOM     37  C   UNL     1       3.344  -0.106   6.892  1.00  0.00     0.010 A 
ATOM     38  C   UNL     1       3.953  -0.939   4.707  1.00  0.00     0.010 A 
ATOM     39  C   UNL     1       4.327  -0.348   5.921  1.00  0.00    -0.014 A 
BRANCH  39  40
ATOM     40  C   UNL     1       5.757  -0.072   6.205  1.00  0.00     0.031 A 
ATOM     41  C   UNL     1       6.527   0.969   5.437  1.00  0.00     0.074 A 
ATOM     42  C   UNL     1       6.369  -0.815   7.145  1.00  0.00     0.049 A 
ATOM     43  N   UNL     1       7.815   1.203   5.435  1.00  0.00    -0.248 NA
ATOM     44  C   UNL     1       5.757   1.863   4.559  1.00  0.00     0.031 C 
ATOM     45  C   UNL     1       5.715  -1.836   7.967  1.00  0.00     0.029 A 
ATOM     46  N   UNL     1       7.676  -0.843   7.555  1.00  0.00    -0.354 N 
ATOM     47  C   UNL     1       8.016   2.247   4.537  1.00  0.00     0.074 A 
ATOM     48  C   UNL     1       6.715   2.607   4.016  1.00  0.00     0.031 C 
ATOM     49  C   UNL     1       6.621  -2.389   8.784  1.00  0.00     0.029 A 
ATOM     50  C   UNL     1       7.929  -1.819   8.488  1.00  0.00     0.049 A 
ATOM     51  H   UNL     1       8.364  -0.226   7.216  1.00  0.00     0.167 HD
ATOM     52  C   UNL     1       9.184   2.839   4.186  1.00  0.00     0.037 A 
ATOM     53  C   UNL     1       9.090  -2.254   9.008  1.00  0.00     0.037 A 
ATOM     54  C   UNL     1      10.468   2.489   4.744  1.00  0.00     0.049 A 
ATOM     55  C   UNL     1      10.370  -1.621   8.562  1.00  0.00     0.074 A 
ATOM     56  C   UNL     1      11.703   3.067   4.495  1.00  0.00     0.029 A 
ATOM     57  N   UNL     1      10.685   1.471   5.660  1.00  0.00    -0.354 N 
ATOM     58  N   UNL     1      10.547  -0.653   7.696  1.00  0.00    -0.248 NA
ATOM     59  C   UNL     1      11.607  -2.149   9.148  1.00  0.00     0.031 C 
ATOM     60  C   UNL     1      12.670   2.373   5.233  1.00  0.00     0.029 A 
ATOM     61  C   UNL     1      12.034   1.386   5.967  1.00  0.00     0.049 A 
ATOM     62  H   UNL     1       9.983   0.893   6.038  1.00  0.00     0.167 HD
ATOM     63  C   UNL     1      11.918  -0.452   7.632  1.00  0.00     0.074 A 
ATOM     64  C   UNL     1      12.522  -1.390   8.559  1.00  0.00     0.031 C 
ATOM     65  C   UNL     1      12.615   0.431   6.875  1.00  0.00     0.037 A 
BRANCH  52  66
ATOM     66  C   UNL     1       9.157   3.916   3.135  1.00  0.00     0.058 A 
ATOM     67  C   UNL     1       8.769   5.231   3.430  1.00  0.00     0.135 A 
ATOM     68  C   UNL     1       9.643   3.652   1.843  1.00  0.00     0.135 A 
ATOM     69  F   UNL     1       8.292   5.538   4.646  1.00  0.00    -0.206 F 
ATOM     70  C   UNL     1       8.867   6.249   2.483  1.00  0.00     0.059 A 
ATOM     71  C   UNL     1       9.764   4.656   0.886  1.00  0.00     0.059 A 
ATOM     72  F   UNL     1      10.031   2.411   1.509  1.00  0.00    -0.206 F 
ATOM     73  C   UNL     1       9.372   5.953   1.214  1.00  0.00     0.060 A 
BRANCH  73  74
ATOM     74  S   UNL     1       9.553   7.292   0.013  1.00  0.00     0.124 S 
ATOM     75  O   UNL     1       8.172   7.490  -0.415  1.00  0.00    -0.237 OA
ATOM     76  O   UNL     1      10.125   8.365   0.820  1.00  0.00    -0.237 OA
ATOM     77  O   UNL     1      10.447   6.727  -0.993  1.00  0.00    -0.744 OA
ENDBRANCH  73  74
ENDBRANCH  52  66
BRANCH  53  78
ATOM     78  C   UNL     1       9.068  -3.387   9.964  1.00  0.00     0.058 A 
ATOM     79  C   UNL     1       9.259  -3.177  11.335  1.00  0.00     0.135 A 
ATOM     80  C   UNL     1       8.763  -4.687   9.530  1.00  0.00     0.135 A 
ATOM     81  F   UNL     1       9.556  -1.950  11.791  1.00  0.00    -0.206 F 
ATOM     82  C   UNL     1       9.135  -4.216  12.250  1.00  0.00     0.059 A 
ATOM     83  C   UNL     1       8.611  -5.736  10.427  1.00  0.00     0.059 A 
ATOM     84  F   UNL     1       8.552  -4.929   8.227  1.00  0.00    -0.206 F 
ATOM     85  C   UNL     1       8.801  -5.491  11.787  1.00  0.00     0.060 A 
BRANCH  85  86
ATOM     86  S   UNL     1       8.531  -6.817  12.983  1.00  0.00     0.124 S 
ATOM     87  O   UNL     1       9.895  -7.266  13.233  1.00  0.00    -0.237 OA
ATOM     88  O   UNL     1       7.876  -6.118  14.085  1.00  0.00    -0.237 OA
ATOM     89  O   UNL     1       7.679  -7.751  12.253  1.00  0.00    -0.744 OA
ENDBRANCH  85  86
ENDBRANCH  53  78
BRANCH  65  90
ATOM     90  C   UNL     1      14.105   0.415   7.033  1.00  0.00     0.058 A 
ATOM     91  C   UNL     1      14.890  -0.582   6.434  1.00  0.00     0.135 A 
ATOM     92  C   UNL     1      14.752   1.397   7.798  1.00  0.00     0.135 A 
ATOM     93  F   UNL     1      14.313  -1.548   5.702  1.00  0.00    -0.206 F 
ATOM     94  C   UNL     1      16.268  -0.624   6.617  1.00  0.00     0.059 A 
ATOM     95  C   UNL     1      16.131   1.384   7.979  1.00  0.00     0.059 A 
ATOM     96  F   UNL     1      14.042   2.373   8.386  1.00  0.00    -0.206 F 
ATOM     97  C   UNL     1      16.878   0.359   7.399  1.00  0.00     0.060 A 
BRANCH  97  98
ATOM     98  S   UNL     1      18.665   0.293   7.644  1.00  0.00     0.124 S 
ATOM     99  O   UNL     1      18.779  -0.720   8.688  1.00  0.00    -0.237 OA
ATOM    100  O   UNL     1      19.153  -0.098   6.325  1.00  0.00    -0.237 OA
ATOM    101  O   UNL     1      18.999   1.655   8.050  1.00  0.00    -0.744 OA
ENDBRANCH  97  98
ENDBRANCH  65  90
ENDBRANCH  39  40
ENDBRANCH  32  34
ENDBRANCH  31  32
ENDBRANCH  30  31
ENDBRANCH   1  30
TORSDOF 20
