REMARK SMILES O=C1CC[C@@H](CC(=O)N2CCC(Oc3ccccc3)(C(=O)OCCOC(=O)c3ccc(-c4c5nc(c(-c6c(F)cc(S(=O)(=O)[O-])cc6F)c6ccc([nH]6)c(-c6c(F)cc(S(=O)(=O)[O-])cc6F)c6nc(c(-c7c(F)cc(S(=O)(=O)[O-])cc7F)c7ccc4[nH]7)C=C6)C=C5)cc3)CC2)N1
REMARK SMILES IDX 24 1 23 2 22 3 20 4 21 5 12 6 7 7 8 8 9 9 10 10 95 11 11 12
REMARK SMILES IDX 94 13 6 14 5 15 1 16 2 17 3 18 96 19 4 20 13 22 14 23 15 24
REMARK SMILES IDX 19 25 16 26 18 27 17 28 25 29 26 30 27 31 28 32 29 33 93 34
REMARK SMILES IDX 30 35 92 36 31 37 32 38 33 39 86 40 34 41 91 42 85 43 87 44
REMARK SMILES IDX 35 45 90 46 84 47 83 48 36 50 70 51 49 52 69 53 50 54 53 55
REMARK SMILES IDX 68 56 88 57 51 58 52 59 67 61 89 62 54 63 37 64 38 65 47 66
REMARK SMILES IDX 39 67 40 68 46 69 48 70 41 71 42 72 43 73 44 74 45 75 71 76
REMARK SMILES IDX 72 77 81 78 73 79 74 80 80 81 82 82 75 83 76 84 77 85 78 86
REMARK SMILES IDX 79 87 55 88 56 89 65 90 57 91 58 92 64 93 66 94 59 95 60 96
REMARK SMILES IDX 61 97 62 98 63 99
REMARK H PARENT 96 21 87 49 53 60
REMARK Flexibility Score: inf
ROOT
ATOM      1  C   UNL     1      -0.877   4.008  -5.330  1.00  0.00     0.275 C 
ENDROOT
BRANCH   1   2
ATOM      2  C   UNL     1       0.504   3.535  -5.780  1.00  0.00     0.274 C 
BRANCH   2   3
ATOM      3  O   UNL     1       0.649   2.106  -5.618  1.00  0.00    -0.459 OA
BRANCH   3   4
ATOM      4  C   UNL     1       1.381   1.707  -4.541  1.00  0.00     0.350 C 
ATOM      5  O   UNL     1       1.822   2.488  -3.702  1.00  0.00    -0.247 OA
BRANCH   4   6
ATOM      6  C   UNL     1       1.644   0.183  -4.494  1.00  0.00     0.209 C 
ATOM      7  C   UNL     1      -1.221  -2.262  -2.718  1.00  0.00     0.224 C 
ATOM      8  O   UNL     1      -1.478  -3.225  -3.447  1.00  0.00    -0.275 OA
ATOM      9  N   UNL     1      -0.646  -1.113  -3.240  1.00  0.00    -0.342 N 
ATOM     10  C   UNL     1      -0.728  -0.825  -4.669  1.00  0.00     0.124 C 
ATOM     11  C   UNL     1       0.163  -0.178  -2.497  1.00  0.00     0.124 C 
ATOM     12  C   UNL     1       0.647  -0.666  -5.314  1.00  0.00     0.082 C 
ATOM     13  C   UNL     1       1.596  -0.225  -3.003  1.00  0.00     0.082 C 
BRANCH   7  14
ATOM     14  C   UNL     1      -1.730  -2.269  -1.273  1.00  0.00     0.125 C 
BRANCH  14  15
ATOM     15  C   UNL     1      -0.791  -2.382  -0.066  1.00  0.00     0.091 C 
ATOM     16  O   UNL     1       2.663  -2.047   0.427  1.00  0.00    -0.275 OA
ATOM     17  C   UNL     1       1.459  -1.926   0.443  1.00  0.00     0.220 C 
ATOM     18  C   UNL     1       0.669  -0.950   1.276  1.00  0.00     0.102 C 
ATOM     19  N   UNL     1       0.584  -2.659  -0.335  1.00  0.00    -0.353 N 
ATOM     20  C   UNL     1      -0.764  -1.116   0.788  1.00  0.00     0.035 C 
ATOM     21  H   UNL     1       0.881  -3.311  -1.010  1.00  0.00     0.163 HD
ENDBRANCH  14  15
ENDBRANCH   7  14
BRANCH   6  22
ATOM     22  O   UNL     1       2.970   0.139  -5.106  1.00  0.00    -0.475 OA
BRANCH  22  23
ATOM     23  C   UNL     1       3.721  -0.959  -4.794  1.00  0.00     0.121 A 
ATOM     24  C   UNL     1       4.617  -0.895  -3.728  1.00  0.00     0.046 A 
ATOM     25  C   UNL     1       3.623  -2.118  -5.561  1.00  0.00     0.046 A 
ATOM     26  C   UNL     1       5.332  -2.035  -3.360  1.00  0.00     0.004 A 
ATOM     27  C   UNL     1       4.332  -3.258  -5.188  1.00  0.00     0.004 A 
ATOM     28  C   UNL     1       5.175  -3.220  -4.078  1.00  0.00     0.000 A 
ENDBRANCH  22  23
ENDBRANCH   6  22
ENDBRANCH   4   6
ENDBRANCH   3   4
ENDBRANCH   2   3
ENDBRANCH   1   2
BRANCH   1  29
ATOM     29  O   UNL     1      -0.979   3.934  -3.895  1.00  0.00    -0.458 OA
BRANCH  29  30
ATOM     30  C   UNL     1      -2.008   3.206  -3.400  1.00  0.00     0.338 C 
ATOM     31  O   UNL     1      -2.872   2.634  -4.045  1.00  0.00    -0.246 OA
BRANCH  30  32
ATOM     32  C   UNL     1      -1.931   3.132  -1.922  1.00  0.00     0.060 A 
ATOM     33  C   UNL     1      -0.711   2.901  -1.303  1.00  0.00     0.016 A 
ATOM     34  C   UNL     1      -3.099   3.109  -1.155  1.00  0.00     0.016 A 
ATOM     35  C   UNL     1      -0.685   2.484   0.029  1.00  0.00     0.010 A 
ATOM     36  C   UNL     1      -3.041   2.836   0.227  1.00  0.00     0.010 A 
ATOM     37  C   UNL     1      -1.839   2.449   0.841  1.00  0.00    -0.014 A 
BRANCH  37  38
ATOM     38  C   UNL     1      -1.760   1.945   2.267  1.00  0.00     0.031 A 
ATOM     39  C   UNL     1      -2.709   0.878   2.811  1.00  0.00     0.074 A 
ATOM     40  C   UNL     1      -0.734   2.315   3.071  1.00  0.00     0.049 A 
ATOM     41  N   UNL     1      -2.731   0.328   4.005  1.00  0.00    -0.248 NA
ATOM     42  C   UNL     1      -3.714   0.309   1.895  1.00  0.00     0.031 C 
ATOM     43  C   UNL     1       0.323   3.264   2.715  1.00  0.00     0.029 A 
ATOM     44  N   UNL     1      -0.378   1.905   4.340  1.00  0.00    -0.354 N 
ATOM     45  C   UNL     1      -3.728  -0.645   3.979  1.00  0.00     0.074 A 
ATOM     46  C   UNL     1      -4.305  -0.606   2.653  1.00  0.00     0.031 C 
ATOM     47  C   UNL     1       1.254   3.278   3.676  1.00  0.00     0.029 A 
ATOM     48  C   UNL     1       0.776   2.494   4.808  1.00  0.00     0.049 A 
ATOM     49  H   UNL     1      -0.901   1.254   4.862  1.00  0.00     0.167 HD
ATOM     50  C   UNL     1      -4.130  -1.501   4.952  1.00  0.00     0.037 A 
ATOM     51  C   UNL     1       1.360   2.503   6.025  1.00  0.00     0.037 A 
ATOM     52  C   UNL     1      -3.611  -1.536   6.298  1.00  0.00     0.049 A 
ATOM     53  C   UNL     1       0.728   1.758   7.162  1.00  0.00     0.074 A 
ATOM     54  C   UNL     1      -4.034  -2.320   7.361  1.00  0.00     0.029 A 
ATOM     55  N   UNL     1      -2.582  -0.747   6.779  1.00  0.00    -0.354 N 
ATOM     56  N   UNL     1      -0.273   0.914   7.135  1.00  0.00    -0.248 NA
ATOM     57  C   UNL     1       1.270   2.009   8.506  1.00  0.00     0.031 C 
ATOM     58  C   UNL     1      -3.317  -1.945   8.502  1.00  0.00     0.029 A 
ATOM     59  C   UNL     1      -2.403  -0.973   8.136  1.00  0.00     0.049 A 
ATOM     60  H   UNL     1      -2.054  -0.116   6.238  1.00  0.00     0.167 HD
ATOM     61  C   UNL     1      -0.491   0.546   8.458  1.00  0.00     0.074 A 
ATOM     62  C   UNL     1       0.503   1.229   9.257  1.00  0.00     0.031 C 
ATOM     63  C   UNL     1      -1.445  -0.277   8.956  1.00  0.00     0.037 A 
BRANCH  50  64
ATOM     64  C   UNL     1      -5.257  -2.447   4.636  1.00  0.00     0.058 A 
ATOM     65  C   UNL     1      -5.054  -3.638   3.921  1.00  0.00     0.135 A 
ATOM     66  C   UNL     1      -6.545  -2.194   5.136  1.00  0.00     0.135 A 
ATOM     67  F   UNL     1      -3.845  -3.921   3.409  1.00  0.00    -0.206 F 
ATOM     68  C   UNL     1      -6.093  -4.541   3.707  1.00  0.00     0.059 A 
ATOM     69  C   UNL     1      -7.593  -3.089   4.949  1.00  0.00     0.059 A 
ATOM     70  F   UNL     1      -6.789  -1.070   5.829  1.00  0.00    -0.206 F 
ATOM     71  C   UNL     1      -7.359  -4.257   4.225  1.00  0.00     0.060 A 
BRANCH  71  72
ATOM     72  S   UNL     1      -8.700  -5.433   3.936  1.00  0.00     0.124 S 
ATOM     73  O   UNL     1      -8.916  -5.278   2.501  1.00  0.00    -0.237 OA
ATOM     74  O   UNL     1      -8.101  -6.696   4.355  1.00  0.00    -0.237 OA
ATOM     75  O   UNL     1      -9.777  -4.938   4.788  1.00  0.00    -0.744 OA
ENDBRANCH  71  72
ENDBRANCH  50  64
BRANCH  51  76
ATOM     76  C   UNL     1       2.534   3.391   6.263  1.00  0.00     0.058 A 
ATOM     77  C   UNL     1       3.795   2.884   6.604  1.00  0.00     0.135 A 
ATOM     78  C   UNL     1       2.405   4.786   6.134  1.00  0.00     0.135 A 
ATOM     79  F   UNL     1       3.964   1.564   6.779  1.00  0.00    -0.206 F 
ATOM     80  C   UNL     1       4.891   3.725   6.785  1.00  0.00     0.059 A 
ATOM     81  C   UNL     1       3.490   5.639   6.266  1.00  0.00     0.059 A 
ATOM     82  F   UNL     1       1.215   5.326   5.824  1.00  0.00    -0.206 F 
ATOM     83  C   UNL     1       4.729   5.101   6.599  1.00  0.00     0.060 A 
BRANCH  83  84
ATOM     84  S   UNL     1       6.164   6.186   6.745  1.00  0.00     0.124 S 
ATOM     85  O   UNL     1       6.304   6.293   8.192  1.00  0.00    -0.237 OA
ATOM     86  O   UNL     1       7.201   5.425   6.055  1.00  0.00    -0.237 OA
ATOM     87  O   UNL     1       5.731   7.401   6.060  1.00  0.00    -0.744 OA
ENDBRANCH  83  84
ENDBRANCH  51  76
BRANCH  63  88
ATOM     88  C   UNL     1      -1.486  -0.473  10.446  1.00  0.00     0.058 A 
ATOM     89  C   UNL     1      -1.930   0.547  11.303  1.00  0.00     0.135 A 
ATOM     90  C   UNL     1      -1.107  -1.694  11.028  1.00  0.00     0.135 A 
ATOM     91  F   UNL     1      -2.295   1.738  10.802  1.00  0.00    -0.206 F 
ATOM     92  C   UNL     1      -1.975   0.374  12.683  1.00  0.00     0.059 A 
ATOM     93  C   UNL     1      -1.168  -1.899  12.404  1.00  0.00     0.059 A 
ATOM     94  F   UNL     1      -0.680  -2.706  10.257  1.00  0.00    -0.206 F 
ATOM     95  C   UNL     1      -1.592  -0.855  13.225  1.00  0.00     0.060 A 
BRANCH  95  96
ATOM     96  S   UNL     1      -1.678  -1.073  15.015  1.00  0.00     0.124 S 
ATOM     97  O   UNL     1      -0.553  -0.259  15.466  1.00  0.00    -0.237 OA
ATOM     98  O   UNL     1      -3.004  -0.551  15.330  1.00  0.00    -0.237 OA
ATOM     99  O   UNL     1      -1.519  -2.514  15.191  1.00  0.00    -0.744 OA
ENDBRANCH  95  96
ENDBRANCH  63  88
ENDBRANCH  37  38
ENDBRANCH  30  32
ENDBRANCH  29  30
ENDBRANCH   1  29
TORSDOF 18
