REMARK SMILES Cc1cccc(NC(=O)COc2ccc(N3C[C@@H](C(=O)OCCOC(=O)c4ccc(-c5c6nc(c(-c7c(F)cc(S(=O)(=O)[O-])cc7F)c7ccc([nH]7)c(-c7c(F)cc(S(=O)(=O)[O-])cc7F)c7nc(c(-c8c(F)cc(S(=O)(=O)[O-])cc8F)c8ccc5[nH]8)C=C7)C=C6)cc4)CC3=O)cc2)c1
REMARK SMILES IDX 22 1 21 2 19 3 20 4 18 5 16 6 17 7 94 8 93 9 95 10 15 11
REMARK SMILES IDX 12 12 13 13 97 14 14 15 96 16 11 17 10 18 8 19 7 20 9 22
REMARK SMILES IDX 6 23 1 24 2 25 3 26 98 27 4 28 5 29 23 30 24 31 25 32 26 33
REMARK SMILES IDX 27 34 28 35 92 36 29 37 91 38 30 39 31 40 32 41 85 42 33 43
REMARK SMILES IDX 90 44 84 45 86 46 34 47 89 48 83 49 82 50 35 52 69 53 48 54
REMARK SMILES IDX 68 55 49 56 52 57 67 58 87 59 50 60 51 61 66 63 88 64 53 65
REMARK SMILES IDX 36 66 37 67 46 68 38 69 39 70 45 71 47 72 40 73 41 74 42 75
REMARK SMILES IDX 43 76 44 77 70 78 71 79 80 80 72 81 73 82 79 83 81 84 74 85
REMARK SMILES IDX 75 86 76 87 77 88 78 89 54 90 55 91 64 92 56 93 57 94 63 95
REMARK SMILES IDX 65 96 58 97 59 98 60 99 61 100 62 101
REMARK H PARENT 7 21 86 51 52 62
REMARK Flexibility Score: inf
ROOT
ATOM      1  C   UNL     1      -7.324   6.402  -9.728  1.00  0.00     0.274 C 
ENDROOT
BRANCH   1   2
ATOM      2  O   UNL     1      -6.159   5.754  -9.222  1.00  0.00    -0.462 OA
BRANCH   2   3
ATOM      3  C   UNL     1      -6.270   5.307  -7.940  1.00  0.00     0.311 C 
ATOM      4  O   UNL     1      -7.052   5.739  -7.126  1.00  0.00    -0.252 OA
BRANCH   3   5
ATOM      5  C   UNL     1      -5.316   4.158  -7.744  1.00  0.00     0.128 C 
ATOM      6  N   UNL     1      -4.225   2.953  -6.090  1.00  0.00    -0.312 N 
ATOM      7  C   UNL     1      -5.538   3.426  -6.443  1.00  0.00     0.141 C 
ATOM      8  C   UNL     1      -3.224   3.688  -6.724  1.00  0.00     0.227 C 
ATOM      9  C   UNL     1      -3.873   4.614  -7.716  1.00  0.00     0.117 C 
ATOM     10  O   UNL     1      -2.020   3.659  -6.513  1.00  0.00    -0.274 OA
BRANCH   6  11
ATOM     11  C   UNL     1      -4.063   2.289  -4.866  1.00  0.00     0.044 A 
ATOM     12  C   UNL     1      -4.038   1.208  -2.292  1.00  0.00     0.120 A 
ATOM     13  C   UNL     1      -4.653   0.515  -3.336  1.00  0.00     0.048 A 
ATOM     14  C   UNL     1      -3.391   2.413  -2.556  1.00  0.00     0.048 A 
ATOM     15  C   UNL     1      -4.699   1.071  -4.618  1.00  0.00     0.030 A 
ATOM     16  C   UNL     1      -3.382   2.939  -3.841  1.00  0.00     0.030 A 
BRANCH  12  17
ATOM     17  O   UNL     1      -4.063   0.601  -1.071  1.00  0.00    -0.484 OA
BRANCH  17  18
ATOM     18  C   UNL     1      -4.272   1.443   0.052  1.00  0.00     0.329 C 
BRANCH  18  19
ATOM     19  C   UNL     1      -3.177   2.404   0.531  1.00  0.00     0.262 C 
ATOM     20  N   UNL     1      -1.852   2.089   0.547  1.00  0.00    -0.323 N 
ATOM     21  H   UNL     1      -1.277   2.865   0.739  1.00  0.00     0.170 HD
ATOM     22  O   UNL     1      -3.473   3.552   0.887  1.00  0.00    -0.271 OA
BRANCH  20  23
ATOM     23  C   UNL     1      -1.123   0.907   0.350  1.00  0.00     0.041 A 
ATOM     24  C   UNL     1       2.590   0.108  -0.087  1.00  0.00     0.044 C 
ATOM     25  C   UNL     1       1.106  -0.058   0.040  1.00  0.00    -0.049 A 
ATOM     26  C   UNL     1       0.540  -1.333   0.013  1.00  0.00     0.003 A 
ATOM     27  C   UNL     1       0.267   1.054   0.206  1.00  0.00     0.029 A 
ATOM     28  C   UNL     1      -0.836  -1.490   0.162  1.00  0.00     0.002 A 
ATOM     29  C   UNL     1      -1.660  -0.376   0.344  1.00  0.00     0.026 A 
ENDBRANCH  20  23
ENDBRANCH  18  19
ENDBRANCH  17  18
ENDBRANCH  12  17
ENDBRANCH   6  11
ENDBRANCH   3   5
ENDBRANCH   2   3
ENDBRANCH   1   2
BRANCH   1  30
ATOM     30  C   UNL     1      -7.280   6.407 -11.266  1.00  0.00     0.275 C 
BRANCH  30  31
ATOM     31  O   UNL     1      -7.048   5.174 -12.012  1.00  0.00    -0.458 OA
BRANCH  31  32
ATOM     32  C   UNL     1      -6.506   4.069 -11.424  1.00  0.00     0.338 C 
ATOM     33  O   UNL     1      -5.305   3.861 -11.363  1.00  0.00    -0.246 OA
BRANCH  32  34
ATOM     34  C   UNL     1      -7.543   3.289 -10.696  1.00  0.00     0.060 A 
ATOM     35  C   UNL     1      -7.180   2.272  -9.796  1.00  0.00     0.016 A 
ATOM     36  C   UNL     1      -8.829   3.809 -10.681  1.00  0.00     0.016 A 
ATOM     37  C   UNL     1      -8.037   1.927  -8.749  1.00  0.00     0.010 A 
ATOM     38  C   UNL     1      -9.586   3.613  -9.561  1.00  0.00     0.010 A 
ATOM     39  C   UNL     1      -9.209   2.660  -8.602  1.00  0.00    -0.014 A 
BRANCH  39  40
ATOM     40  C   UNL     1     -10.261   2.403  -7.631  1.00  0.00     0.031 A 
ATOM     41  C   UNL     1     -10.181   2.782  -6.210  1.00  0.00     0.074 A 
ATOM     42  C   UNL     1     -11.399   1.999  -8.235  1.00  0.00     0.049 A 
ATOM     43  N   UNL     1     -10.959   2.313  -5.300  1.00  0.00    -0.248 NA
ATOM     44  C   UNL     1      -9.205   3.716  -5.668  1.00  0.00     0.031 C 
ATOM     45  C   UNL     1     -12.773   2.001  -7.784  1.00  0.00     0.029 A 
ATOM     46  N   UNL     1     -11.460   1.379  -9.483  1.00  0.00    -0.354 N 
ATOM     47  C   UNL     1     -10.822   3.103  -4.170  1.00  0.00     0.074 A 
ATOM     48  C   UNL     1      -9.626   3.870  -4.404  1.00  0.00     0.031 C 
ATOM     49  C   UNL     1     -13.484   1.179  -8.584  1.00  0.00     0.029 A 
ATOM     50  C   UNL     1     -12.539   0.512  -9.476  1.00  0.00     0.049 A 
ATOM     51  H   UNL     1     -10.844   1.532 -10.236  1.00  0.00     0.167 HD
ATOM     52  C   UNL     1     -11.849   3.130  -3.268  1.00  0.00     0.037 A 
ATOM     53  C   UNL     1     -12.246  -0.823  -9.483  1.00  0.00     0.037 A 
ATOM     54  C   UNL     1     -12.902   2.226  -3.729  1.00  0.00     0.049 A 
ATOM     55  C   UNL     1     -12.667  -1.444  -8.176  1.00  0.00     0.074 A 
ATOM     56  C   UNL     1     -14.052   2.464  -4.463  1.00  0.00     0.029 A 
ATOM     57  N   UNL     1     -12.662   0.860  -3.787  1.00  0.00    -0.354 N 
ATOM     58  N   UNL     1     -12.616  -0.849  -7.013  1.00  0.00    -0.248 NA
ATOM     59  C   UNL     1     -13.336  -2.736  -8.130  1.00  0.00     0.031 C 
ATOM     60  C   UNL     1     -14.472   1.230  -5.018  1.00  0.00     0.029 A 
ATOM     61  C   UNL     1     -13.579   0.248  -4.619  1.00  0.00     0.049 A 
ATOM     62  H   UNL     1     -11.942   0.394  -3.304  1.00  0.00     0.167 HD
ATOM     63  C   UNL     1     -13.310  -1.603  -6.098  1.00  0.00     0.074 A 
ATOM     64  C   UNL     1     -13.726  -2.777  -6.846  1.00  0.00     0.031 C 
ATOM     65  C   UNL     1     -13.566  -1.192  -4.817  1.00  0.00     0.037 A 
BRANCH  52  66
ATOM     66  C   UNL     1     -12.092   4.152  -2.164  1.00  0.00     0.058 A 
ATOM     67  C   UNL     1     -13.408   4.367  -1.679  1.00  0.00     0.135 A 
ATOM     68  C   UNL     1     -11.116   4.965  -1.554  1.00  0.00     0.135 A 
ATOM     69  F   UNL     1     -14.444   3.626  -2.094  1.00  0.00    -0.206 F 
ATOM     70  C   UNL     1     -13.740   5.353  -0.748  1.00  0.00     0.059 A 
ATOM     71  C   UNL     1     -11.428   5.976  -0.627  1.00  0.00     0.059 A 
ATOM     72  F   UNL     1      -9.812   4.789  -1.796  1.00  0.00    -0.206 F 
ATOM     73  C   UNL     1     -12.747   6.172  -0.240  1.00  0.00     0.060 A 
BRANCH  73  74
ATOM     74  S   UNL     1     -13.219   7.456   0.936  1.00  0.00     0.124 S 
ATOM     75  O   UNL     1     -14.124   8.280   0.140  1.00  0.00    -0.237 OA
ATOM     76  O   UNL     1     -13.844   6.682   2.004  1.00  0.00    -0.237 OA
ATOM     77  O   UNL     1     -11.949   8.086   1.282  1.00  0.00    -0.744 OA
ENDBRANCH  73  74
ENDBRANCH  52  66
BRANCH  53  78
ATOM     78  C   UNL     1     -11.015  -1.150 -10.287  1.00  0.00     0.058 A 
ATOM     79  C   UNL     1     -11.033  -0.828 -11.665  1.00  0.00     0.135 A 
ATOM     80  C   UNL     1      -9.752  -1.370  -9.713  1.00  0.00     0.135 A 
ATOM     81  F   UNL     1     -12.206  -0.599 -12.281  1.00  0.00    -0.206 F 
ATOM     82  C   UNL     1      -9.869  -0.599 -12.397  1.00  0.00     0.059 A 
ATOM     83  C   UNL     1      -8.566  -1.165 -10.439  1.00  0.00     0.059 A 
ATOM     84  F   UNL     1      -9.643  -1.679  -8.414  1.00  0.00    -0.206 F 
ATOM     85  C   UNL     1      -8.638  -0.728 -11.763  1.00  0.00     0.060 A 
BRANCH  85  86
ATOM     86  S   UNL     1      -7.165  -0.161 -12.656  1.00  0.00     0.124 S 
ATOM     87  O   UNL     1      -7.074  -1.133 -13.739  1.00  0.00    -0.237 OA
ATOM     88  O   UNL     1      -7.558   1.190 -13.052  1.00  0.00    -0.237 OA
ATOM     89  O   UNL     1      -6.111  -0.234 -11.649  1.00  0.00    -0.744 OA
ENDBRANCH  85  86
ENDBRANCH  53  78
BRANCH  65  90
ATOM     90  C   UNL     1     -13.988  -2.076  -3.659  1.00  0.00     0.058 A 
ATOM     91  C   UNL     1     -13.877  -3.476  -3.656  1.00  0.00     0.135 A 
ATOM     92  C   UNL     1     -14.397  -1.510  -2.420  1.00  0.00     0.135 A 
ATOM     93  F   UNL     1     -13.353  -4.148  -4.689  1.00  0.00    -0.206 F 
ATOM     94  C   UNL     1     -14.247  -4.257  -2.563  1.00  0.00     0.059 A 
ATOM     95  C   UNL     1     -14.693  -2.267  -1.292  1.00  0.00     0.059 A 
ATOM     96  F   UNL     1     -14.502  -0.185  -2.238  1.00  0.00    -0.206 F 
ATOM     97  C   UNL     1     -14.655  -3.645  -1.385  1.00  0.00     0.060 A 
BRANCH  97  98
ATOM     98  S   UNL     1     -15.079  -4.665   0.030  1.00  0.00     0.124 S 
ATOM     99  O   UNL     1     -16.440  -5.070  -0.306  1.00  0.00    -0.237 OA
ATOM    100  O   UNL     1     -14.072  -5.721  -0.030  1.00  0.00    -0.237 OA
ATOM    101  O   UNL     1     -14.951  -3.750   1.160  1.00  0.00    -0.744 OA
ENDBRANCH  97  98
ENDBRANCH  65  90
ENDBRANCH  39  40
ENDBRANCH  32  34
ENDBRANCH  31  32
ENDBRANCH  30  31
ENDBRANCH   1  30
TORSDOF 19
