REMARK SMILES O=C(CS(=O)(=O)Nc1ccc2ccccc2c1)OCCOC(=O)c1ccc(-c2c3nc(c(-c4c(F)cc(S(=O)(=O)[O-])cc4F)c4ccc([nH]4)c(-c4c(F)cc(S(=O)(=O)[O-])cc4F)c4nc(c(-c5c(F)cc(S(=O)(=O)[O-])cc5F)c5ccc2[nH]5)C=C4)C=C3)cc1
REMARK SMILES IDX 19 1 18 2 2 3 1 4 3 5 4 6 5 7 6 8 7 9 8 11 9 12 17 13 10 14
REMARK SMILES IDX 16 15 11 16 15 17 12 18 14 19 13 20 20 21 21 22 22 23 23 24
REMARK SMILES IDX 24 25 25 26 89 27 26 28 88 29 27 30 28 31 29 32 82 33 30 34
REMARK SMILES IDX 87 35 81 36 83 37 31 38 86 39 80 40 79 41 32 43 66 44 45 45
REMARK SMILES IDX 65 46 46 47 49 48 64 49 84 50 47 51 48 52 63 54 85 55 50 56
REMARK SMILES IDX 33 57 34 58 43 59 35 60 36 61 42 62 44 63 37 64 38 65 39 66
REMARK SMILES IDX 40 67 41 68 67 69 68 70 77 71 69 72 70 73 76 74 78 75 71 76
REMARK SMILES IDX 72 77 73 78 74 79 75 80 51 81 52 82 61 83 53 84 54 85 60 86
REMARK SMILES IDX 62 87 55 88 56 89 57 90 58 91 59 92
REMARK H PARENT 7 10 83 42 49 53
REMARK Flexibility Score: inf
ROOT
ATOM      1  C   UNL     1       4.909  -0.440  -0.854  1.00  0.00     0.274 C 
ENDROOT
BRANCH   1   2
ATOM      2  O   UNL     1       3.622  -0.974  -0.478  1.00  0.00    -0.461 OA
BRANCH   2   3
ATOM      3  C   UNL     1       2.765  -0.281   0.302  1.00  0.00     0.323 C 
ATOM      4  O   UNL     1       1.578  -0.237  -0.020  1.00  0.00    -0.251 OA
BRANCH   3   5
ATOM      5  C   UNL     1       3.260   0.454   1.498  1.00  0.00     0.282 C 
BRANCH   5   6
ATOM      6  S   UNL     1       4.048  -0.577   2.705  1.00  0.00     0.243 S 
ATOM      7  O   UNL     1       4.871  -1.570   2.048  1.00  0.00    -0.206 OA
ATOM      8  O   UNL     1       4.678   0.330   3.648  1.00  0.00    -0.206 OA
BRANCH   6   9
ATOM      9  N   UNL     1       2.927  -1.391   3.639  1.00  0.00    -0.283 N 
ATOM     10  H   UNL     1       3.247  -1.944   4.388  1.00  0.00     0.180 HD
BRANCH   9  11
ATOM     11  C   UNL     1       1.526  -1.316   3.393  1.00  0.00     0.049 A 
ATOM     12  C   UNL     1       0.971  -1.891   2.258  1.00  0.00     0.027 A 
ATOM     13  C   UNL     1       0.700  -0.705   4.339  1.00  0.00     0.035 A 
ATOM     14  C   UNL     1      -0.397  -1.757   2.005  1.00  0.00     0.011 A 
ATOM     15  C   UNL     1      -0.689  -0.637   4.139  1.00  0.00    -0.016 A 
ATOM     16  C   UNL     1      -1.240  -1.138   2.937  1.00  0.00    -0.018 A 
ATOM     17  C   UNL     1      -1.547  -0.095   5.109  1.00  0.00     0.009 A 
ATOM     18  C   UNL     1      -2.620  -1.028   2.711  1.00  0.00     0.009 A 
ATOM     19  C   UNL     1      -2.924  -0.034   4.889  1.00  0.00     0.001 A 
ATOM     20  C   UNL     1      -3.458  -0.484   3.685  1.00  0.00     0.001 A 
ENDBRANCH   9  11
ENDBRANCH   6   9
ENDBRANCH   5   6
ENDBRANCH   3   5
ENDBRANCH   2   3
ENDBRANCH   1   2
BRANCH   1  21
ATOM     21  C   UNL     1       4.762   0.694  -1.871  1.00  0.00     0.275 C 
BRANCH  21  22
ATOM     22  O   UNL     1       4.220   1.856  -1.211  1.00  0.00    -0.458 OA
BRANCH  22  23
ATOM     23  C   UNL     1       2.991   2.264  -1.620  1.00  0.00     0.338 C 
ATOM     24  O   UNL     1       2.351   1.826  -2.560  1.00  0.00    -0.246 OA
BRANCH  23  25
ATOM     25  C   UNL     1       2.460   3.227  -0.628  1.00  0.00     0.060 A 
ATOM     26  C   UNL     1       1.158   3.042  -0.151  1.00  0.00     0.016 A 
ATOM     27  C   UNL     1       3.232   4.298  -0.165  1.00  0.00     0.016 A 
ATOM     28  C   UNL     1       0.613   3.946   0.764  1.00  0.00     0.010 A 
ATOM     29  C   UNL     1       2.680   5.207   0.747  1.00  0.00     0.010 A 
ATOM     30  C   UNL     1       1.357   5.053   1.196  1.00  0.00    -0.014 A 
BRANCH  30  31
ATOM     31  C   UNL     1       0.700   6.109   2.011  1.00  0.00     0.031 A 
ATOM     32  C   UNL     1       0.208   7.361   1.333  1.00  0.00     0.074 A 
ATOM     33  C   UNL     1       0.502   5.942   3.332  1.00  0.00     0.049 A 
ATOM     34  N   UNL     1      -0.430   8.384   1.842  1.00  0.00    -0.248 NA
ATOM     35  C   UNL     1       0.470   7.474  -0.111  1.00  0.00     0.031 C 
ATOM     36  C   UNL     1       0.924   4.779   4.112  1.00  0.00     0.029 A 
ATOM     37  N   UNL     1      -0.106   6.761   4.254  1.00  0.00    -0.354 N 
ATOM     38  C   UNL     1      -0.668   9.250   0.781  1.00  0.00     0.074 A 
ATOM     39  C   UNL     1      -0.057   8.658  -0.390  1.00  0.00     0.031 C 
ATOM     40  C   UNL     1       0.570   4.963   5.396  1.00  0.00     0.029 A 
ATOM     41  C   UNL     1      -0.091   6.261   5.535  1.00  0.00     0.049 A 
ATOM     42  H   UNL     1      -0.514   7.625   4.019  1.00  0.00     0.167 HD
ATOM     43  C   UNL     1      -1.352  10.419   0.774  1.00  0.00     0.037 A 
ATOM     44  C   UNL     1      -0.550   6.792   6.687  1.00  0.00     0.037 A 
ATOM     45  C   UNL     1      -1.948  11.021   1.940  1.00  0.00     0.049 A 
ATOM     46  C   UNL     1      -1.255   8.126   6.663  1.00  0.00     0.074 A 
ATOM     47  C   UNL     1      -2.662  12.204   2.027  1.00  0.00     0.029 A 
ATOM     48  N   UNL     1      -1.894  10.495   3.221  1.00  0.00    -0.354 N 
ATOM     49  N   UNL     1      -1.511   8.909   5.643  1.00  0.00    -0.248 NA
ATOM     50  C   UNL     1      -1.749   8.639   7.950  1.00  0.00     0.031 C 
ATOM     51  C   UNL     1      -3.000  12.416   3.368  1.00  0.00     0.029 A 
ATOM     52  C   UNL     1      -2.544  11.339   4.109  1.00  0.00     0.049 A 
ATOM     53  H   UNL     1      -1.458   9.647   3.466  1.00  0.00     0.167 HD
ATOM     54  C   UNL     1      -2.216   9.994   6.161  1.00  0.00     0.074 A 
ATOM     55  C   UNL     1      -2.368   9.751   7.580  1.00  0.00     0.031 C 
ATOM     56  C   UNL     1      -2.691  11.092   5.521  1.00  0.00     0.037 A 
BRANCH  43  57
ATOM     57  C   UNL     1      -1.499  11.133  -0.542  1.00  0.00     0.058 A 
ATOM     58  C   UNL     1      -2.344  10.640  -1.551  1.00  0.00     0.135 A 
ATOM     59  C   UNL     1      -0.837  12.348  -0.779  1.00  0.00     0.135 A 
ATOM     60  F   UNL     1      -2.986   9.473  -1.385  1.00  0.00    -0.206 F 
ATOM     61  C   UNL     1      -2.516  11.320  -2.752  1.00  0.00     0.059 A 
ATOM     62  C   UNL     1      -1.015  13.059  -1.962  1.00  0.00     0.059 A 
ATOM     63  F   UNL     1      -0.015  12.861   0.150  1.00  0.00    -0.206 F 
ATOM     64  C   UNL     1      -1.851  12.532  -2.946  1.00  0.00     0.060 A 
BRANCH  64  65
ATOM     65  S   UNL     1      -2.108  13.415  -4.500  1.00  0.00     0.124 S 
ATOM     66  O   UNL     1      -1.394  12.559  -5.443  1.00  0.00    -0.237 OA
ATOM     67  O   UNL     1      -3.562  13.415  -4.620  1.00  0.00    -0.237 OA
ATOM     68  O   UNL     1      -1.502  14.720  -4.255  1.00  0.00    -0.744 OA
ENDBRANCH  64  65
ENDBRANCH  43  57
BRANCH  44  69
ATOM     69  C   UNL     1      -0.350   6.072   7.975  1.00  0.00     0.058 A 
ATOM     70  C   UNL     1      -1.433   5.550   8.698  1.00  0.00     0.135 A 
ATOM     71  C   UNL     1       0.932   5.931   8.530  1.00  0.00     0.135 A 
ATOM     72  F   UNL     1      -2.680   5.669   8.218  1.00  0.00    -0.206 F 
ATOM     73  C   UNL     1      -1.258   4.941   9.938  1.00  0.00     0.059 A 
ATOM     74  C   UNL     1       1.137   5.299   9.752  1.00  0.00     0.059 A 
ATOM     75  F   UNL     1       2.004   6.403   7.875  1.00  0.00    -0.206 F 
ATOM     76  C   UNL     1       0.033   4.821  10.456  1.00  0.00     0.060 A 
BRANCH  76  77
ATOM     77  S   UNL     1       0.254   4.002  12.050  1.00  0.00     0.124 S 
ATOM     78  O   UNL     1      -0.254   5.011  12.972  1.00  0.00    -0.237 OA
ATOM     79  O   UNL     1      -0.567   2.805  11.894  1.00  0.00    -0.237 OA
ATOM     80  O   UNL     1       1.693   3.762  12.105  1.00  0.00    -0.744 OA
ENDBRANCH  76  77
ENDBRANCH  44  69
BRANCH  56  81
ATOM     81  C   UNL     1      -3.444  12.104   6.347  1.00  0.00     0.058 A 
ATOM     82  C   UNL     1      -2.801  12.907   7.303  1.00  0.00     0.135 A 
ATOM     83  C   UNL     1      -4.827  12.282   6.171  1.00  0.00     0.135 A 
ATOM     84  F   UNL     1      -1.481  12.780   7.514  1.00  0.00    -0.206 F 
ATOM     85  C   UNL     1      -3.507  13.815   8.086  1.00  0.00     0.059 A 
ATOM     86  C   UNL     1      -5.548  13.208   6.921  1.00  0.00     0.059 A 
ATOM     87  F   UNL     1      -5.493  11.554   5.261  1.00  0.00    -0.206 F 
ATOM     88  C   UNL     1      -4.882  13.954   7.892  1.00  0.00     0.060 A 
BRANCH  88  89
ATOM     89  S   UNL     1      -5.789  15.129   8.921  1.00  0.00     0.124 S 
ATOM     90  O   UNL     1      -5.833  14.425  10.199  1.00  0.00    -0.237 OA
ATOM     91  O   UNL     1      -4.934  16.310   8.877  1.00  0.00    -0.237 OA
ATOM     92  O   UNL     1      -7.070  15.264   8.235  1.00  0.00    -0.744 OA
ENDBRANCH  88  89
ENDBRANCH  56  81
ENDBRANCH  30  31
ENDBRANCH  23  25
ENDBRANCH  22  23
ENDBRANCH  21  22
ENDBRANCH   1  21
TORSDOF 17
