REMARK SMILES CCCC[C@@H](C)[NH2+]Cc1ccc(C(=O)OCCOC(=O)c2ccc(-c3c4nc(c(-c5c(F)cc(S(=O)(=O)[O-])cc5F)c5ccc([nH]5)c(-c5c(F)cc(S(=O)(=O)[O-])cc5F)c5nc(c(-c6c(F)cc(S(=O)(=O)[O-])cc6F)c6ccc3[nH]6)C=C5)C=C4)cc2)cn1
REMARK SMILES IDX 15 1 13 2 14 3 12 4 9 5 10 6 88 7 11 8 87 9 8 10 7 11 5 14
REMARK SMILES IDX 6 15 4 16 3 17 2 18 1 19 16 20 17 21 18 22 19 23 20 24 21 25
REMARK SMILES IDX 22 26 86 27 23 28 85 29 24 30 25 31 26 32 79 33 27 34 84 35
REMARK SMILES IDX 78 36 80 37 28 38 83 39 77 40 76 41 29 43 63 44 42 45 62 46
REMARK SMILES IDX 43 47 46 48 61 49 81 50 44 51 45 52 60 54 82 55 47 56 30 57
REMARK SMILES IDX 31 58 40 59 32 60 33 61 39 62 41 63 34 64 35 65 36 66 37 67
REMARK SMILES IDX 38 68 64 69 65 70 74 71 66 72 67 73 73 74 75 75 68 76 69 77
REMARK SMILES IDX 70 78 71 79 72 80 48 81 49 82 58 83 50 84 51 85 57 86 59 87
REMARK SMILES IDX 52 88 53 89 54 90 55 91 56 92
REMARK H PARENT 7 12 7 13 80 42 46 53
REMARK Flexibility Score: inf
ROOT
ATOM      1  O   UNL     1      -4.379  -7.887  -3.535  1.00  0.00    -0.458 OA
ENDROOT
BRANCH   1   2
ATOM      2  C   UNL     1      -3.877  -6.650  -3.331  1.00  0.00     0.339 C 
ATOM      3  O   UNL     1      -3.400  -5.910  -4.175  1.00  0.00    -0.246 OA
BRANCH   2   4
ATOM      4  C   UNL     1      -3.958  -6.253  -1.922  1.00  0.00     0.078 A 
ATOM      5  C   UNL     1      -3.403  -4.887   0.375  1.00  0.00     0.094 A 
ATOM      6  C   UNL     1      -2.921  -6.193   0.231  1.00  0.00     0.031 A 
ATOM      7  N   UNL     1      -4.309  -4.356  -0.475  1.00  0.00    -0.254 NA
ATOM      8  C   UNL     1      -3.187  -6.881  -0.953  1.00  0.00     0.019 A 
ATOM      9  C   UNL     1      -4.559  -5.046  -1.608  1.00  0.00     0.127 A 
BRANCH   5  10
ATOM     10  C   UNL     1      -2.715  -3.915   1.318  1.00  0.00     0.318 C 
BRANCH  10  11
ATOM     11  N   UNL     1      -1.261  -3.784   1.085  1.00  0.00    -0.339 N 
ATOM     12  H   UNL     1      -0.846  -3.393   1.930  1.00  0.00     0.346 HD
ATOM     13  H   UNL     1      -0.939  -4.724   0.851  1.00  0.00     0.346 HD
BRANCH  11  14
ATOM     14  C   UNL     1      -0.851  -2.934  -0.055  1.00  0.00     0.179 C 
ATOM     15  C   UNL     1      -1.294  -3.442  -1.432  1.00  0.00     0.075 C 
BRANCH  14  16
ATOM     16  C   UNL     1       0.695  -2.855   0.014  1.00  0.00     0.065 C 
BRANCH  16  17
ATOM     17  C   UNL     1       1.390  -2.026  -1.076  1.00  0.00     0.006 C 
BRANCH  17  18
ATOM     18  C   UNL     1       0.879  -0.594  -1.241  1.00  0.00    -0.003 C 
ATOM     19  C   UNL     1       1.130   0.268  -0.015  1.00  0.00     0.004 C 
ENDBRANCH  17  18
ENDBRANCH  16  17
ENDBRANCH  14  16
ENDBRANCH  11  14
ENDBRANCH  10  11
ENDBRANCH   5  10
ENDBRANCH   2   4
ENDBRANCH   1   2
BRANCH   1  20
ATOM     20  C   UNL     1      -4.437  -8.278  -4.922  1.00  0.00     0.275 C 
BRANCH  20  21
ATOM     21  C   UNL     1      -5.819  -8.002  -5.521  1.00  0.00     0.275 C 
BRANCH  21  22
ATOM     22  O   UNL     1      -6.031  -6.595  -5.760  1.00  0.00    -0.458 OA
BRANCH  22  23
ATOM     23  C   UNL     1      -6.682  -5.943  -4.772  1.00  0.00     0.338 C 
ATOM     24  O   UNL     1      -7.088  -6.417  -3.721  1.00  0.00    -0.246 OA
BRANCH  23  25
ATOM     25  C   UNL     1      -6.795  -4.508  -5.065  1.00  0.00     0.060 A 
ATOM     26  C   UNL     1      -5.765  -3.664  -4.660  1.00  0.00     0.016 A 
ATOM     27  C   UNL     1      -8.004  -3.975  -5.510  1.00  0.00     0.016 A 
ATOM     28  C   UNL     1      -5.987  -2.296  -4.561  1.00  0.00     0.010 A 
ATOM     29  C   UNL     1      -8.171  -2.584  -5.543  1.00  0.00     0.010 A 
ATOM     30  C   UNL     1      -7.179  -1.728  -5.031  1.00  0.00    -0.014 A 
BRANCH  30  31
ATOM     31  C   UNL     1      -7.370  -0.249  -4.991  1.00  0.00     0.031 A 
ATOM     32  C   UNL     1      -8.560   0.357  -4.291  1.00  0.00     0.074 A 
ATOM     33  C   UNL     1      -6.466   0.554  -5.590  1.00  0.00     0.049 A 
ATOM     34  N   UNL     1      -8.983   1.596  -4.303  1.00  0.00    -0.248 NA
ATOM     35  C   UNL     1      -9.394  -0.549  -3.484  1.00  0.00     0.031 C 
ATOM     36  C   UNL     1      -5.249   0.102  -6.273  1.00  0.00     0.029 A 
ATOM     37  N   UNL     1      -6.423   1.921  -5.723  1.00  0.00    -0.354 N 
ATOM     38  C   UNL     1     -10.157   1.609  -3.555  1.00  0.00     0.074 A 
ATOM     39  C   UNL     1     -10.385   0.250  -3.112  1.00  0.00     0.031 C 
ATOM     40  C   UNL     1      -4.564   1.165  -6.712  1.00  0.00     0.029 A 
ATOM     41  C   UNL     1      -5.339   2.368  -6.443  1.00  0.00     0.049 A 
ATOM     42  H   UNL     1      -7.102   2.522  -5.340  1.00  0.00     0.167 HD
ATOM     43  C   UNL     1     -10.965   2.659  -3.267  1.00  0.00     0.037 A 
ATOM     44  C   UNL     1      -5.024   3.598  -6.891  1.00  0.00     0.037 A 
ATOM     45  C   UNL     1     -10.697   4.016  -3.679  1.00  0.00     0.049 A 
ATOM     46  C   UNL     1      -5.955   4.737  -6.596  1.00  0.00     0.074 A 
ATOM     47  C   UNL     1     -11.439   5.156  -3.420  1.00  0.00     0.029 A 
ATOM     48  N   UNL     1      -9.599   4.419  -4.426  1.00  0.00    -0.354 N 
ATOM     49  N   UNL     1      -7.080   4.726  -5.921  1.00  0.00    -0.248 NA
ATOM     50  C   UNL     1      -5.585   6.052  -7.133  1.00  0.00     0.031 C 
ATOM     51  C   UNL     1     -10.818   6.237  -4.053  1.00  0.00     0.029 A 
ATOM     52  C   UNL     1      -9.655   5.785  -4.655  1.00  0.00     0.049 A 
ATOM     53  H   UNL     1      -8.884   3.822  -4.746  1.00  0.00     0.167 HD
ATOM     54  C   UNL     1      -7.542   6.036  -5.933  1.00  0.00     0.074 A 
ATOM     55  C   UNL     1      -6.566   6.814  -6.670  1.00  0.00     0.031 C 
ATOM     56  C   UNL     1      -8.671   6.547  -5.385  1.00  0.00     0.037 A 
BRANCH  43  57
ATOM     57  C   UNL     1     -12.235   2.387  -2.502  1.00  0.00     0.058 A 
ATOM     58  C   UNL     1     -12.232   2.032  -1.144  1.00  0.00     0.135 A 
ATOM     59  C   UNL     1     -13.484   2.530  -3.133  1.00  0.00     0.135 A 
ATOM     60  F   UNL     1     -11.071   1.868  -0.490  1.00  0.00    -0.206 F 
ATOM     61  C   UNL     1     -13.416   1.800  -0.448  1.00  0.00     0.059 A 
ATOM     62  C   UNL     1     -14.681   2.334  -2.449  1.00  0.00     0.059 A 
ATOM     63  F   UNL     1     -13.551   2.872  -4.429  1.00  0.00    -0.206 F 
ATOM     64  C   UNL     1     -14.636   1.953  -1.109  1.00  0.00     0.060 A 
BRANCH  64  65
ATOM     65  S   UNL     1     -16.163   1.652  -0.192  1.00  0.00     0.124 S 
ATOM     66  O   UNL     1     -16.134   0.200  -0.046  1.00  0.00    -0.237 OA
ATOM     67  O   UNL     1     -15.947   2.415   1.033  1.00  0.00    -0.237 OA
ATOM     68  O   UNL     1     -17.201   2.171  -1.076  1.00  0.00    -0.744 OA
ENDBRANCH  64  65
ENDBRANCH  43  57
BRANCH  44  69
ATOM     69  C   UNL     1      -3.792   3.795  -7.703  1.00  0.00     0.058 A 
ATOM     70  C   UNL     1      -2.705   4.525  -7.203  1.00  0.00     0.135 A 
ATOM     71  C   UNL     1      -3.665   3.229  -8.983  1.00  0.00     0.135 A 
ATOM     72  F   UNL     1      -2.779   5.093  -5.990  1.00  0.00    -0.206 F 
ATOM     73  C   UNL     1      -1.539   4.695  -7.944  1.00  0.00     0.059 A 
ATOM     74  C   UNL     1      -2.499   3.356  -9.728  1.00  0.00     0.059 A 
ATOM     75  F   UNL     1      -4.671   2.507  -9.502  1.00  0.00    -0.206 F 
ATOM     76  C   UNL     1      -1.444   4.101  -9.204  1.00  0.00     0.060 A 
BRANCH  76  77
ATOM     77  S   UNL     1       0.092   4.282 -10.135  1.00  0.00     0.124 S 
ATOM     78  O   UNL     1       0.022   5.679 -10.547  1.00  0.00    -0.237 OA
ATOM     79  O   UNL     1       1.100   3.962  -9.129  1.00  0.00    -0.237 OA
ATOM     80  O   UNL     1      -0.046   3.300 -11.207  1.00  0.00    -0.744 OA
ENDBRANCH  76  77
ENDBRANCH  44  69
BRANCH  56  81
ATOM     81  C   UNL     1      -8.892   8.028  -5.522  1.00  0.00     0.058 A 
ATOM     82  C   UNL     1      -9.243   8.614  -6.748  1.00  0.00     0.135 A 
ATOM     83  C   UNL     1      -8.787   8.865  -4.400  1.00  0.00     0.135 A 
ATOM     84  F   UNL     1      -9.346   7.860  -7.854  1.00  0.00    -0.206 F 
ATOM     85  C   UNL     1      -9.459   9.984  -6.861  1.00  0.00     0.059 A 
ATOM     86  C   UNL     1      -9.028  10.232  -4.484  1.00  0.00     0.059 A 
ATOM     87  F   UNL     1      -8.460   8.353  -3.202  1.00  0.00    -0.206 F 
ATOM     88  C   UNL     1      -9.351  10.784  -5.722  1.00  0.00     0.060 A 
BRANCH  88  89
ATOM     89  S   UNL     1      -9.667  12.555  -5.877  1.00  0.00     0.124 S 
ATOM     90  O   UNL     1      -8.473  13.006  -6.583  1.00  0.00    -0.237 OA
ATOM     91  O   UNL     1     -10.908  12.584  -6.645  1.00  0.00    -0.237 OA
ATOM     92  O   UNL     1      -9.783  13.002  -4.492  1.00  0.00    -0.744 OA
ENDBRANCH  88  89
ENDBRANCH  56  81
ENDBRANCH  30  31
ENDBRANCH  23  25
ENDBRANCH  22  23
ENDBRANCH  21  22
ENDBRANCH  20  21
ENDBRANCH   1  20
TORSDOF 20
