REMARK SMILES COCc1cc(SCC(=O)OCCOC(=O)c2ccc(-c3c4nc(c(-c5c(F)cc(S(=O)(=O)[O-])cc5F)c5ccc([nH]5)c(-c5c(F)cc(S(=O)(=O)[O-])cc5F)c5nc(c(-c6c(F)cc(S(=O)(=O)[O-])cc6F)c6ccc3[nH]6)C=C5)C=C4)cc2)nc(-c2cccnc2)n1
REMARK SMILES IDX 12 1 11 2 9 3 10 4 8 5 7 6 6 7 4 8 5 9 91 10 84 11 83 12
REMARK SMILES IDX 3 13 2 14 1 15 85 16 86 17 90 18 87 19 89 20 88 21 13 22
REMARK SMILES IDX 14 23 15 24 16 25 17 26 18 27 82 28 19 29 81 30 20 31 21 32
REMARK SMILES IDX 22 33 75 34 23 35 80 36 74 37 76 38 24 39 79 40 73 41 72 42
REMARK SMILES IDX 25 44 59 45 38 46 58 47 39 48 42 49 57 50 77 51 40 52 41 53
REMARK SMILES IDX 56 55 78 56 43 57 26 58 27 59 36 60 28 61 29 62 35 63 37 64
REMARK SMILES IDX 30 65 31 66 32 67 33 68 34 69 60 70 61 71 70 72 62 73 63 74
REMARK SMILES IDX 69 75 71 76 64 77 65 78 66 79 67 80 68 81 44 82 45 83 54 84
REMARK SMILES IDX 46 85 47 86 53 87 55 88 48 89 49 90 50 91 51 92 52 93
REMARK H PARENT 76 43 42 54
REMARK Flexibility Score: inf
ROOT
ATOM      1  C   UNL     1       0.172  -3.663  -1.834  1.00  0.00     0.274 C 
ENDROOT
BRANCH   1   2
ATOM      2  O   UNL     1       0.360  -3.788  -0.408  1.00  0.00    -0.461 OA
BRANCH   2   3
ATOM      3  C   UNL     1       1.623  -4.071   0.003  1.00  0.00     0.316 C 
ATOM      4  O   UNL     1       2.588  -4.125  -0.756  1.00  0.00    -0.251 OA
BRANCH   3   5
ATOM      5  C   UNL     1       1.798  -4.283   1.492  1.00  0.00     0.199 C 
BRANCH   5   6
ATOM      6  S   UNL     1       0.274  -4.490   2.456  1.00  0.00    -0.094 SA
BRANCH   6   7
ATOM      7  C   UNL     1       0.024  -2.910   3.252  1.00  0.00     0.101 A 
ATOM      8  C   UNL     1       0.094  -0.557   3.415  1.00  0.00     0.071 A 
ATOM      9  C   UNL     1       0.518  -1.712   2.782  1.00  0.00     0.062 A 
ATOM     10  N   UNL     1      -0.722  -0.600   4.481  1.00  0.00    -0.230 NA
ATOM     11  C   UNL     1      -1.103  -1.808   4.910  1.00  0.00     0.162 A 
ATOM     12  N   UNL     1      -0.764  -2.975   4.341  1.00  0.00    -0.222 NA
BRANCH   8  13
ATOM     13  C   UNL     1       0.518   0.813   2.936  1.00  0.00     0.215 C 
BRANCH  13  14
ATOM     14  O   UNL     1      -0.586   1.670   2.629  1.00  0.00    -0.378 OA
ATOM     15  C   UNL     1      -1.221   1.350   1.401  1.00  0.00     0.195 C 
ENDBRANCH  13  14
ENDBRANCH   8  13
BRANCH  11  16
ATOM     16  C   UNL     1      -1.920  -1.828   6.109  1.00  0.00     0.038 A 
ATOM     17  C   UNL     1      -1.486  -2.436   7.291  1.00  0.00     0.015 A 
ATOM     18  C   UNL     1      -3.146  -1.167   6.154  1.00  0.00     0.123 A 
ATOM     19  C   UNL     1      -2.260  -2.344   8.445  1.00  0.00     0.021 A 
ATOM     20  N   UNL     1      -3.942  -1.091   7.251  1.00  0.00    -0.264 NA
ATOM     21  C   UNL     1      -3.466  -1.666   8.375  1.00  0.00     0.111 A 
ENDBRANCH  11  16
ENDBRANCH   6   7
ENDBRANCH   5   6
ENDBRANCH   3   5
ENDBRANCH   2   3
ENDBRANCH   1   2
BRANCH   1  22
ATOM     22  C   UNL     1       0.150  -2.209  -2.308  1.00  0.00     0.275 C 
BRANCH  22  23
ATOM     23  O   UNL     1       1.354  -1.504  -1.950  1.00  0.00    -0.458 OA
BRANCH  23  24
ATOM     24  C   UNL     1       1.235  -0.805  -0.807  1.00  0.00     0.338 C 
ATOM     25  O   UNL     1       0.238  -0.750  -0.094  1.00  0.00    -0.246 OA
BRANCH  24  26
ATOM     26  C   UNL     1       2.459  -0.099  -0.419  1.00  0.00     0.060 A 
ATOM     27  C   UNL     1       3.478  -0.789   0.245  1.00  0.00     0.016 A 
ATOM     28  C   UNL     1       2.461   1.297  -0.470  1.00  0.00     0.016 A 
ATOM     29  C   UNL     1       4.488  -0.073   0.891  1.00  0.00     0.010 A 
ATOM     30  C   UNL     1       3.490   2.009   0.148  1.00  0.00     0.010 A 
ATOM     31  C   UNL     1       4.500   1.330   0.847  1.00  0.00    -0.014 A 
BRANCH  31  32
ATOM     32  C   UNL     1       5.635   2.093   1.416  1.00  0.00     0.031 A 
ATOM     33  C   UNL     1       5.522   2.838   2.714  1.00  0.00     0.074 A 
ATOM     34  C   UNL     1       6.767   2.154   0.693  1.00  0.00     0.049 A 
ATOM     35  N   UNL     1       6.399   3.619   3.291  1.00  0.00    -0.248 NA
ATOM     36  C   UNL     1       4.266   2.687   3.462  1.00  0.00     0.031 C 
ATOM     37  C   UNL     1       6.981   1.472  -0.586  1.00  0.00     0.029 A 
ATOM     38  N   UNL     1       7.932   2.838   0.910  1.00  0.00    -0.354 N 
ATOM     39  C   UNL     1       5.808   4.053   4.472  1.00  0.00     0.074 A 
ATOM     40  C   UNL     1       4.487   3.458   4.521  1.00  0.00     0.031 C 
ATOM     41  C   UNL     1       8.194   1.795  -1.054  1.00  0.00     0.029 A 
ATOM     42  C   UNL     1       8.826   2.727  -0.125  1.00  0.00     0.049 A 
ATOM     43  H   UNL     1       8.111   3.358   1.727  1.00  0.00     0.167 HD
ATOM     44  C   UNL     1       6.325   4.869   5.423  1.00  0.00     0.037 A 
ATOM     45  C   UNL     1      10.011   3.332  -0.325  1.00  0.00     0.037 A 
ATOM     46  C   UNL     1       7.637   5.465   5.356  1.00  0.00     0.049 A 
ATOM     47  C   UNL     1      10.543   4.267   0.714  1.00  0.00     0.074 A 
ATOM     48  C   UNL     1       8.269   6.270   6.290  1.00  0.00     0.029 A 
ATOM     49  N   UNL     1       8.514   5.334   4.289  1.00  0.00    -0.354 N 
ATOM     50  N   UNL     1       9.986   4.639   1.841  1.00  0.00    -0.248 NA
ATOM     51  C   UNL     1      11.862   4.857   0.461  1.00  0.00     0.031 C 
ATOM     52  C   UNL     1       9.515   6.649   5.774  1.00  0.00     0.029 A 
ATOM     53  C   UNL     1       9.671   6.058   4.531  1.00  0.00     0.049 A 
ATOM     54  H   UNL     1       8.340   4.805   3.478  1.00  0.00     0.167 HD
ATOM     55  C   UNL     1      10.893   5.500   2.443  1.00  0.00     0.074 A 
ATOM     56  C   UNL     1      12.036   5.590   1.554  1.00  0.00     0.031 C 
ATOM     57  C   UNL     1      10.791   6.150   3.628  1.00  0.00     0.037 A 
BRANCH  44  58
ATOM     58  C   UNL     1       5.471   5.177   6.621  1.00  0.00     0.058 A 
ATOM     59  C   UNL     1       5.311   4.250   7.662  1.00  0.00     0.135 A 
ATOM     60  C   UNL     1       4.861   6.433   6.761  1.00  0.00     0.135 A 
ATOM     61  F   UNL     1       5.866   3.031   7.573  1.00  0.00    -0.206 F 
ATOM     62  C   UNL     1       4.565   4.553   8.798  1.00  0.00     0.059 A 
ATOM     63  C   UNL     1       4.122   6.763   7.895  1.00  0.00     0.059 A 
ATOM     64  F   UNL     1       4.984   7.356   5.794  1.00  0.00    -0.206 F 
ATOM     65  C   UNL     1       3.972   5.813   8.905  1.00  0.00     0.060 A 
BRANCH  65  66
ATOM     66  S   UNL     1       3.029   6.209  10.394  1.00  0.00     0.124 S 
ATOM     67  O   UNL     1       1.761   5.540  10.121  1.00  0.00    -0.237 OA
ATOM     68  O   UNL     1       3.842   5.617  11.452  1.00  0.00    -0.237 OA
ATOM     69  O   UNL     1       2.985   7.668  10.387  1.00  0.00    -0.744 OA
ENDBRANCH  65  66
ENDBRANCH  44  58
BRANCH  45  70
ATOM     70  C   UNL     1      10.747   3.049  -1.579  1.00  0.00     0.058 A 
ATOM     71  C   UNL     1      11.804   2.132  -1.599  1.00  0.00     0.135 A 
ATOM     72  C   UNL     1      10.321   3.598  -2.799  1.00  0.00     0.135 A 
ATOM     73  F   UNL     1      12.238   1.584  -0.453  1.00  0.00    -0.206 F 
ATOM     74  C   UNL     1      12.404   1.747  -2.792  1.00  0.00     0.059 A 
ATOM     75  C   UNL     1      10.896   3.218  -4.005  1.00  0.00     0.059 A 
ATOM     76  F   UNL     1       9.296   4.465  -2.825  1.00  0.00    -0.206 F 
ATOM     77  C   UNL     1      11.934   2.286  -3.991  1.00  0.00     0.060 A 
BRANCH  77  78
ATOM     78  S   UNL     1      12.621   1.681  -5.548  1.00  0.00     0.124 S 
ATOM     79  O   UNL     1      13.851   2.457  -5.647  1.00  0.00    -0.237 OA
ATOM     80  O   UNL     1      12.784   0.254  -5.284  1.00  0.00    -0.237 OA
ATOM     81  O   UNL     1      11.582   2.012  -6.519  1.00  0.00    -0.744 OA
ENDBRANCH  77  78
ENDBRANCH  45  70
BRANCH  57  82
ATOM     82  C   UNL     1      11.958   7.002   4.028  1.00  0.00     0.058 A 
ATOM     83  C   UNL     1      12.150   8.279   3.480  1.00  0.00     0.135 A 
ATOM     84  C   UNL     1      12.894   6.536   4.963  1.00  0.00     0.135 A 
ATOM     85  F   UNL     1      11.285   8.763   2.575  1.00  0.00    -0.206 F 
ATOM     86  C   UNL     1      13.249   9.057   3.826  1.00  0.00     0.059 A 
ATOM     87  C   UNL     1      13.993   7.302   5.335  1.00  0.00     0.059 A 
ATOM     88  F   UNL     1      12.749   5.321   5.516  1.00  0.00    -0.206 F 
ATOM     89  C   UNL     1      14.171   8.556   4.748  1.00  0.00     0.060 A 
BRANCH  89  90
ATOM     90  S   UNL     1      15.602   9.563   5.192  1.00  0.00     0.124 S 
ATOM     91  O   UNL     1      16.511   9.281   4.085  1.00  0.00    -0.237 OA
ATOM     92  O   UNL     1      15.046  10.912   5.226  1.00  0.00    -0.237 OA
ATOM     93  O   UNL     1      16.001   9.024   6.488  1.00  0.00    -0.744 OA
ENDBRANCH  89  90
ENDBRANCH  57  82
ENDBRANCH  31  32
ENDBRANCH  24  26
ENDBRANCH  23  24
ENDBRANCH  22  23
ENDBRANCH   1  22
TORSDOF 19
