REMARK SMILES COc1ccc(C[C@H](C(=O)Nc2ccccc2)[C@@H](C)C(=O)OCCOC(=O)c2ccc(-c3c4nc(c(-c5c(F)cc(S(=O)(=O)[O-])cc5F)c5ccc([nH]5)c(-c5c(F)cc(S(=O)(=O)[O-])cc5F)c5nc(c(-c6c(F)cc(S(=O)(=O)[O-])cc6F)c6ccc3[nH]6)C=C5)C=C4)cc2)cc1
REMARK SMILES IDX 23 1 22 2 20 3 21 4 18 5 19 6 8 7 7 8 6 9 3 10 4 11 95 12
REMARK SMILES IDX 5 13 94 14 2 15 1 16 9 17 10 18 11 19 12 21 13 22 17 23
REMARK SMILES IDX 14 24 16 25 15 26 24 27 25 28 26 29 27 30 28 31 29 32 93 33
REMARK SMILES IDX 30 34 92 35 31 36 32 37 33 38 86 39 34 40 91 41 85 42 87 43
REMARK SMILES IDX 35 44 90 45 84 46 83 47 36 49 70 50 49 51 69 52 50 53 53 54
REMARK SMILES IDX 68 55 88 56 51 57 52 58 67 60 89 61 54 62 37 63 38 64 47 65
REMARK SMILES IDX 39 66 40 67 46 68 48 69 41 70 42 71 43 72 44 73 45 74 71 75
REMARK SMILES IDX 72 76 81 77 73 78 74 79 80 80 82 81 75 82 76 83 77 84 78 85
REMARK SMILES IDX 79 86 55 87 56 88 65 89 57 90 58 91 64 92 66 93 59 94 60 95
REMARK SMILES IDX 61 96 62 97 63 98
REMARK H PARENT 11 20 87 48 53 59
REMARK Flexibility Score: inf
ROOT
ATOM      1  C   UNL     1       2.239  -0.622 -10.486  1.00  0.00     0.274 C 
ENDROOT
BRANCH   1   2
ATOM      2  O   UNL     1       2.186   0.086  -9.229  1.00  0.00    -0.462 OA
BRANCH   2   3
ATOM      3  C   UNL     1       2.408   1.416  -9.342  1.00  0.00     0.309 C 
ATOM      4  O   UNL     1       2.581   1.991 -10.414  1.00  0.00    -0.252 OA
BRANCH   3   5
ATOM      5  C   UNL     1       2.513   2.173  -8.034  1.00  0.00     0.109 C 
ATOM      6  C   UNL     1       3.983   2.642  -7.959  1.00  0.00     0.021 C 
BRANCH   5   7
ATOM      7  C   UNL     1       2.091   1.518  -6.692  1.00  0.00     0.097 C 
BRANCH   7   8
ATOM      8  C   UNL     1       0.851   0.586  -6.641  1.00  0.00     0.050 C 
BRANCH   8   9
ATOM      9  C   UNL     1      -0.016   0.649  -5.397  1.00  0.00    -0.047 A 
ATOM     10  C   UNL     1      -1.607   1.105  -3.110  1.00  0.00     0.118 A 
ATOM     11  C   UNL     1      -0.268   0.733  -2.982  1.00  0.00     0.046 A 
ATOM     12  C   UNL     1      -2.174   1.161  -4.380  1.00  0.00     0.046 A 
ATOM     13  C   UNL     1       0.522   0.500  -4.114  1.00  0.00     0.007 A 
ATOM     14  C   UNL     1      -1.389   0.909  -5.511  1.00  0.00     0.007 A 
BRANCH  10  15
ATOM     15  O   UNL     1      -2.255   1.375  -1.935  1.00  0.00    -0.497 OA
ATOM     16  C   UNL     1      -3.477   2.101  -2.046  1.00  0.00     0.278 C 
ENDBRANCH  10  15
ENDBRANCH   8   9
ENDBRANCH   7   8
BRANCH   7  17
ATOM     17  C   UNL     1       2.168   2.603  -5.611  1.00  0.00     0.228 C 
ATOM     18  O   UNL     1       3.074   2.499  -4.764  1.00  0.00    -0.274 OA
ATOM     19  N   UNL     1       1.419   3.730  -5.521  1.00  0.00    -0.326 N 
ATOM     20  H   UNL     1       1.806   4.360  -4.871  1.00  0.00     0.169 HD
BRANCH  19  21
ATOM     21  C   UNL     1       0.245   4.255  -6.092  1.00  0.00     0.041 A 
ATOM     22  C   UNL     1      -0.170   5.509  -5.615  1.00  0.00     0.026 A 
ATOM     23  C   UNL     1      -0.570   3.617  -7.013  1.00  0.00     0.026 A 
ATOM     24  C   UNL     1      -1.391   6.069  -6.003  1.00  0.00     0.002 A 
ATOM     25  C   UNL     1      -1.825   4.139  -7.349  1.00  0.00     0.002 A 
ATOM     26  C   UNL     1      -2.235   5.368  -6.851  1.00  0.00     0.000 A 
ENDBRANCH  19  21
ENDBRANCH   7  17
ENDBRANCH   5   7
ENDBRANCH   3   5
ENDBRANCH   2   3
ENDBRANCH   1   2
BRANCH   1  27
ATOM     27  C   UNL     1       0.881  -0.720 -11.187  1.00  0.00     0.275 C 
BRANCH  27  28
ATOM     28  O   UNL     1       0.297   0.571 -11.439  1.00  0.00    -0.458 OA
BRANCH  28  29
ATOM     29  C   UNL     1      -0.763   0.881 -10.660  1.00  0.00     0.338 C 
ATOM     30  O   UNL     1      -1.261   0.191  -9.785  1.00  0.00    -0.246 OA
BRANCH  29  31
ATOM     31  C   UNL     1      -1.283   2.221 -10.972  1.00  0.00     0.060 A 
ATOM     32  C   UNL     1      -0.589   3.347 -10.537  1.00  0.00     0.016 A 
ATOM     33  C   UNL     1      -2.575   2.348 -11.489  1.00  0.00     0.016 A 
ATOM     34  C   UNL     1      -1.231   4.587 -10.515  1.00  0.00     0.010 A 
ATOM     35  C   UNL     1      -3.188   3.607 -11.532  1.00  0.00     0.010 A 
ATOM     36  C   UNL     1      -2.549   4.730 -10.984  1.00  0.00    -0.014 A 
BRANCH  36  37
ATOM     37  C   UNL     1      -3.261   6.035 -10.841  1.00  0.00     0.031 A 
ATOM     38  C   UNL     1      -4.513   6.157 -10.001  1.00  0.00     0.074 A 
ATOM     39  C   UNL     1      -2.759   7.139 -11.427  1.00  0.00     0.049 A 
ATOM     40  N   UNL     1      -5.246   7.218  -9.763  1.00  0.00    -0.248 NA
ATOM     41  C   UNL     1      -4.998   4.943  -9.325  1.00  0.00     0.031 C 
ATOM     42  C   UNL     1      -1.542   7.184 -12.240  1.00  0.00     0.029 A 
ATOM     43  N   UNL     1      -3.210   8.437 -11.433  1.00  0.00    -0.354 N 
ATOM     44  C   UNL     1      -6.258   6.807  -8.903  1.00  0.00     0.074 A 
ATOM     45  C   UNL     1      -6.069   5.389  -8.682  1.00  0.00     0.031 C 
ATOM     46  C   UNL     1      -1.337   8.442 -12.655  1.00  0.00     0.029 A 
ATOM     47  C   UNL     1      -2.442   9.280 -12.198  1.00  0.00     0.049 A 
ATOM     48  H   UNL     1      -4.007   8.733 -10.936  1.00  0.00     0.167 HD
ATOM     49  C   UNL     1      -7.248   7.538  -8.335  1.00  0.00     0.037 A 
ATOM     50  C   UNL     1      -2.621  10.570 -12.543  1.00  0.00     0.037 A 
ATOM     51  C   UNL     1      -7.468   8.941  -8.568  1.00  0.00     0.049 A 
ATOM     52  C   UNL     1      -3.818  11.318 -12.039  1.00  0.00     0.074 A 
ATOM     53  C   UNL     1      -8.429   9.768  -8.010  1.00  0.00     0.029 A 
ATOM     54  N   UNL     1      -6.738   9.721  -9.450  1.00  0.00    -0.354 N 
ATOM     55  N   UNL     1      -4.749  10.914 -11.209  1.00  0.00    -0.248 NA
ATOM     56  C   UNL     1      -4.003  12.689 -12.534  1.00  0.00     0.031 C 
ATOM     57  C   UNL     1      -8.313  11.035  -8.595  1.00  0.00     0.029 A 
ATOM     58  C   UNL     1      -7.257  11.005  -9.491  1.00  0.00     0.049 A 
ATOM     59  H   UNL     1      -5.963   9.408  -9.971  1.00  0.00     0.167 HD
ATOM     60  C   UNL     1      -5.631  11.979 -11.082  1.00  0.00     0.074 A 
ATOM     61  C   UNL     1      -5.116  13.052 -11.910  1.00  0.00     0.031 C 
ATOM     62  C   UNL     1      -6.764  12.058 -10.341  1.00  0.00     0.037 A 
BRANCH  49  63
ATOM     63  C   UNL     1      -8.189   6.825  -7.406  1.00  0.00     0.058 A 
ATOM     64  C   UNL     1      -7.822   6.524  -6.086  1.00  0.00     0.135 A 
ATOM     65  C   UNL     1      -9.481   6.474  -7.827  1.00  0.00     0.135 A 
ATOM     66  F   UNL     1      -6.592   6.827  -5.640  1.00  0.00    -0.206 F 
ATOM     67  C   UNL     1      -8.700   5.884  -5.217  1.00  0.00     0.059 A 
ATOM     68  C   UNL     1     -10.380   5.843  -6.972  1.00  0.00     0.059 A 
ATOM     69  F   UNL     1      -9.877   6.737  -9.082  1.00  0.00    -0.206 F 
ATOM     70  C   UNL     1      -9.976   5.543  -5.671  1.00  0.00     0.060 A 
BRANCH  70  71
ATOM     71  S   UNL     1     -11.098   4.699  -4.536  1.00  0.00     0.124 S 
ATOM     72  O   UNL     1     -10.508   3.365  -4.484  1.00  0.00    -0.237 OA
ATOM     73  O   UNL     1     -10.970   5.495  -3.320  1.00  0.00    -0.237 OA
ATOM     74  O   UNL     1     -12.391   4.788  -5.207  1.00  0.00    -0.744 OA
ENDBRANCH  70  71
ENDBRANCH  49  63
BRANCH  50  75
ATOM     75  C   UNL     1      -1.657  11.201 -13.479  1.00  0.00     0.058 A 
ATOM     76  C   UNL     1      -0.716  12.138 -13.034  1.00  0.00     0.135 A 
ATOM     77  C   UNL     1      -1.617  10.814 -14.828  1.00  0.00     0.135 A 
ATOM     78  F   UNL     1      -0.726  12.546 -11.756  1.00  0.00    -0.206 F 
ATOM     79  C   UNL     1       0.250  12.656 -13.892  1.00  0.00     0.059 A 
ATOM     80  C   UNL     1      -0.650  11.301 -15.698  1.00  0.00     0.059 A 
ATOM     81  F   UNL     1      -2.496   9.914 -15.295  1.00  0.00    -0.206 F 
ATOM     82  C   UNL     1       0.281  12.221 -15.219  1.00  0.00     0.060 A 
BRANCH  82  83
ATOM     83  S   UNL     1       1.605  12.802 -16.303  1.00  0.00     0.124 S 
ATOM     84  O   UNL     1       1.090  14.098 -16.725  1.00  0.00    -0.237 OA
ATOM     85  O   UNL     1       2.755  12.832 -15.404  1.00  0.00    -0.237 OA
ATOM     86  O   UNL     1       1.659  11.773 -17.338  1.00  0.00    -0.744 OA
ENDBRANCH  82  83
ENDBRANCH  50  75
BRANCH  62  87
ATOM     87  C   UNL     1      -7.535  13.344 -10.403  1.00  0.00     0.058 A 
ATOM     88  C   UNL     1      -8.339  13.656 -11.509  1.00  0.00     0.135 A 
ATOM     89  C   UNL     1      -7.490  14.261  -9.342  1.00  0.00     0.135 A 
ATOM     90  F   UNL     1      -8.408  12.815 -12.553  1.00  0.00    -0.206 F 
ATOM     91  C   UNL     1      -9.059  14.845 -11.571  1.00  0.00     0.059 A 
ATOM     92  C   UNL     1      -8.216  15.448  -9.374  1.00  0.00     0.059 A 
ATOM     93  F   UNL     1      -6.740  14.006  -8.258  1.00  0.00    -0.206 F 
ATOM     94  C   UNL     1      -8.987  15.738 -10.500  1.00  0.00     0.060 A 
BRANCH  94  95
ATOM     95  S   UNL     1      -9.938  17.271 -10.576  1.00  0.00     0.124 S 
ATOM     96  O   UNL     1      -9.085  18.102 -11.418  1.00  0.00    -0.237 OA
ATOM     97  O   UNL     1     -11.194  16.837 -11.179  1.00  0.00    -0.237 OA
ATOM     98  O   UNL     1     -10.031  17.679  -9.177  1.00  0.00    -0.744 OA
ENDBRANCH  94  95
ENDBRANCH  62  87
ENDBRANCH  36  37
ENDBRANCH  29  31
ENDBRANCH  28  29
ENDBRANCH  27  28
ENDBRANCH   1  27
TORSDOF 20
