REMARK SMILES CC[C@H]1CCCC[C@@H]1C1(C(=O)OCCOC(=O)c2ccc(-c3c4nc(c(-c5c(F)cc(S(=O)(=O)[O-])cc5F)c5ccc([nH]5)c(-c5c(F)cc(S(=O)(=O)[O-])cc5F)c5nc(c(-c6c(F)cc(S(=O)(=O)[O-])cc6F)c6ccc3[nH]6)C=C5)C=C4)cc2)CC1
REMARK SMILES IDX 14 1 13 2 12 3 10 4 11 5 9 6 84 7 85 8 8 9 3 10 4 11 5 12
REMARK SMILES IDX 7 13 6 14 2 15 1 16 15 17 16 18 17 19 18 20 19 21 83 22
REMARK SMILES IDX 20 23 82 24 21 25 22 26 23 27 76 28 24 29 81 30 75 31 77 32
REMARK SMILES IDX 25 33 80 34 74 35 73 36 26 38 60 39 39 40 59 41 40 42 43 43
REMARK SMILES IDX 58 44 78 45 41 46 42 47 57 49 79 50 44 51 27 52 28 53 37 54
REMARK SMILES IDX 29 55 30 56 36 57 38 58 31 59 32 60 33 61 34 62 35 63 61 64
REMARK SMILES IDX 62 65 71 66 63 67 64 68 70 69 72 70 65 71 66 72 67 73 68 74
REMARK SMILES IDX 69 75 45 76 46 77 55 78 47 79 48 80 54 81 56 82 49 83 50 84
REMARK SMILES IDX 51 85 52 86 53 87
REMARK H PARENT 77 37 43 48
REMARK Flexibility Score: inf
ROOT
ATOM      1  C   UNL     1       6.299  -2.186  -4.111  1.00  0.00     0.275 C 
ENDROOT
BRANCH   1   2
ATOM      2  C   UNL     1       6.253  -1.191  -2.942  1.00  0.00     0.274 C 
BRANCH   2   3
ATOM      3  O   UNL     1       5.226  -1.600  -2.022  1.00  0.00    -0.462 OA
BRANCH   3   4
ATOM      4  C   UNL     1       4.608  -0.597  -1.346  1.00  0.00     0.312 C 
ATOM      5  O   UNL     1       4.988   0.564  -1.278  1.00  0.00    -0.252 OA
BRANCH   4   6
ATOM      6  C   UNL     1       3.295  -1.051  -0.728  1.00  0.00     0.071 C 
ATOM      7  C   UNL     1       3.013  -0.459   0.659  1.00  0.00     0.020 C 
ATOM      8  C   UNL     1       3.342  -1.911   0.526  1.00  0.00     0.020 C 
BRANCH   6   9
ATOM      9  C   UNL     1       2.179  -1.366  -1.761  1.00  0.00     0.009 C 
ATOM     10  C   UNL     1       0.690  -1.060  -1.360  1.00  0.00    -0.007 C 
ATOM     11  C   UNL     1      -0.229  -2.294  -1.269  1.00  0.00     0.004 C 
ATOM     12  C   UNL     1       0.057  -3.378  -2.290  1.00  0.00     0.000 C 
ATOM     13  C   UNL     1       2.443  -2.741  -2.433  1.00  0.00     0.005 C 
ATOM     14  C   UNL     1       1.479  -3.857  -2.101  1.00  0.00     0.000 C 
BRANCH  10  15
ATOM     15  C   UNL     1       0.128   0.146  -2.179  1.00  0.00     0.000 C 
ATOM     16  C   UNL     1      -1.309   0.070  -2.678  1.00  0.00     0.004 C 
ENDBRANCH  10  15
ENDBRANCH   6   9
ENDBRANCH   4   6
ENDBRANCH   3   4
ENDBRANCH   2   3
ENDBRANCH   1   2
BRANCH   1  17
ATOM     17  O   UNL     1       5.028  -2.321  -4.784  1.00  0.00    -0.458 OA
BRANCH  17  18
ATOM     18  C   UNL     1       4.662  -1.278  -5.566  1.00  0.00     0.338 C 
ATOM     19  O   UNL     1       5.311  -0.271  -5.787  1.00  0.00    -0.246 OA
BRANCH  18  20
ATOM     20  C   UNL     1       3.249  -1.457  -5.954  1.00  0.00     0.060 A 
ATOM     21  C   UNL     1       2.321  -0.658  -5.303  1.00  0.00     0.016 A 
ATOM     22  C   UNL     1       2.817  -2.380  -6.912  1.00  0.00     0.016 A 
ATOM     23  C   UNL     1       0.964  -0.839  -5.552  1.00  0.00     0.010 A 
ATOM     24  C   UNL     1       1.447  -2.456  -7.250  1.00  0.00     0.010 A 
ATOM     25  C   UNL     1       0.495  -1.671  -6.581  1.00  0.00    -0.014 A 
BRANCH  25  26
ATOM     26  C   UNL     1      -0.960  -1.584  -6.955  1.00  0.00     0.031 A 
ATOM     27  C   UNL     1      -1.870  -2.787  -6.997  1.00  0.00     0.074 A 
ATOM     28  C   UNL     1      -1.510  -0.366  -7.176  1.00  0.00     0.049 A 
ATOM     29  N   UNL     1      -3.123  -2.855  -7.380  1.00  0.00    -0.248 NA
ATOM     30  C   UNL     1      -1.313  -4.070  -6.551  1.00  0.00     0.031 C 
ATOM     31  C   UNL     1      -0.787   0.908  -7.119  1.00  0.00     0.029 A 
ATOM     32  N   UNL     1      -2.807   0.018  -7.433  1.00  0.00    -0.354 N 
ATOM     33  C   UNL     1      -3.488  -4.193  -7.286  1.00  0.00     0.074 A 
ATOM     34  C   UNL     1      -2.328  -4.898  -6.775  1.00  0.00     0.031 C 
ATOM     35  C   UNL     1      -1.657   1.920  -7.192  1.00  0.00     0.029 A 
ATOM     36  C   UNL     1      -2.979   1.384  -7.483  1.00  0.00     0.049 A 
ATOM     37  H   UNL     1      -3.542  -0.623  -7.568  1.00  0.00     0.167 HD
ATOM     38  C   UNL     1      -4.668  -4.780  -7.618  1.00  0.00     0.037 A 
ATOM     39  C   UNL     1      -4.050   2.143  -7.788  1.00  0.00     0.037 A 
ATOM     40  C   UNL     1      -5.833  -4.074  -8.098  1.00  0.00     0.049 A 
ATOM     41  C   UNL     1      -5.326   1.473  -8.200  1.00  0.00     0.074 A 
ATOM     42  C   UNL     1      -7.051  -4.597  -8.505  1.00  0.00     0.029 A 
ATOM     43  N   UNL     1      -5.937  -2.696  -8.229  1.00  0.00    -0.354 N 
ATOM     44  N   UNL     1      -5.612   0.195  -8.220  1.00  0.00    -0.248 NA
ATOM     45  C   UNL     1      -6.408   2.344  -8.679  1.00  0.00     0.031 C 
ATOM     46  C   UNL     1      -7.870  -3.542  -8.927  1.00  0.00     0.029 A 
ATOM     47  C   UNL     1      -7.186  -2.354  -8.730  1.00  0.00     0.049 A 
ATOM     48  H   UNL     1      -5.227  -2.053  -7.999  1.00  0.00     0.167 HD
ATOM     49  C   UNL     1      -6.903   0.105  -8.725  1.00  0.00     0.074 A 
ATOM     50  C   UNL     1      -7.355   1.461  -8.964  1.00  0.00     0.031 C 
ATOM     51  C   UNL     1      -7.636  -1.006  -8.980  1.00  0.00     0.037 A 
BRANCH  38  52
ATOM     52  C   UNL     1      -4.726  -6.285  -7.572  1.00  0.00     0.058 A 
ATOM     53  C   UNL     1      -4.789  -7.007  -6.371  1.00  0.00     0.135 A 
ATOM     54  C   UNL     1      -4.726  -7.016  -8.773  1.00  0.00     0.135 A 
ATOM     55  F   UNL     1      -4.785  -6.362  -5.194  1.00  0.00    -0.206 F 
ATOM     56  C   UNL     1      -4.798  -8.400  -6.361  1.00  0.00     0.059 A 
ATOM     57  C   UNL     1      -4.761  -8.406  -8.788  1.00  0.00     0.059 A 
ATOM     58  F   UNL     1      -4.679  -6.377  -9.953  1.00  0.00    -0.206 F 
ATOM     59  C   UNL     1      -4.770  -9.091  -7.575  1.00  0.00     0.060 A 
BRANCH  59  60
ATOM     60  S   UNL     1      -4.717 -10.896  -7.551  1.00  0.00     0.124 S 
ATOM     61  O   UNL     1      -3.338 -11.138  -7.137  1.00  0.00    -0.237 OA
ATOM     62  O   UNL     1      -5.741 -11.229  -6.566  1.00  0.00    -0.237 OA
ATOM     63  O   UNL     1      -5.031 -11.265  -8.928  1.00  0.00    -0.744 OA
ENDBRANCH  59  60
ENDBRANCH  38  52
BRANCH  39  64
ATOM     64  C   UNL     1      -3.922   3.628  -7.802  1.00  0.00     0.058 A 
ATOM     65  C   UNL     1      -4.611   4.428  -6.880  1.00  0.00     0.135 A 
ATOM     66  C   UNL     1      -3.070   4.273  -8.715  1.00  0.00     0.135 A 
ATOM     67  F   UNL     1      -5.455   3.865  -6.001  1.00  0.00    -0.206 F 
ATOM     68  C   UNL     1      -4.450   5.811  -6.853  1.00  0.00     0.059 A 
ATOM     69  C   UNL     1      -2.862   5.646  -8.681  1.00  0.00     0.059 A 
ATOM     70  F   UNL     1      -2.384   3.554  -9.618  1.00  0.00    -0.206 F 
ATOM     71  C   UNL     1      -3.563   6.409  -7.750  1.00  0.00     0.060 A 
BRANCH  71  72
ATOM     72  S   UNL     1      -3.289   8.191  -7.656  1.00  0.00     0.124 S 
ATOM     73  O   UNL     1      -4.494   8.706  -8.297  1.00  0.00    -0.237 OA
ATOM     74  O   UNL     1      -3.186   8.413  -6.217  1.00  0.00    -0.237 OA
ATOM     75  O   UNL     1      -2.047   8.377  -8.400  1.00  0.00    -0.744 OA
ENDBRANCH  71  72
ENDBRANCH  39  64
BRANCH  51  76
ATOM     76  C   UNL     1      -9.019  -0.804  -9.538  1.00  0.00     0.058 A 
ATOM     77  C   UNL     1      -9.226  -0.386 -10.863  1.00  0.00     0.135 A 
ATOM     78  C   UNL     1     -10.151  -1.054  -8.747  1.00  0.00     0.135 A 
ATOM     79  F   UNL     1      -8.178  -0.121 -11.660  1.00  0.00    -0.206 F 
ATOM     80  C   UNL     1     -10.507  -0.202 -11.377  1.00  0.00     0.059 A 
ATOM     81  C   UNL     1     -11.441  -0.901  -9.248  1.00  0.00     0.059 A 
ATOM     82  F   UNL     1     -10.011  -1.459  -7.475  1.00  0.00    -0.206 F 
ATOM     83  C   UNL     1     -11.609  -0.462 -10.560  1.00  0.00     0.060 A 
BRANCH  83  84
ATOM     84  S   UNL     1     -13.266  -0.246 -11.245  1.00  0.00     0.124 S 
ATOM     85  O   UNL     1     -13.386   1.208 -11.273  1.00  0.00    -0.237 OA
ATOM     86  O   UNL     1     -13.154  -0.898 -12.547  1.00  0.00    -0.237 OA
ATOM     87  O   UNL     1     -14.123  -0.929 -10.281  1.00  0.00    -0.744 OA
ENDBRANCH  83  84
ENDBRANCH  51  76
ENDBRANCH  25  26
ENDBRANCH  18  20
ENDBRANCH  17  18
ENDBRANCH   1  17
TORSDOF 16
