REMARK SMILES Cc1cc(OCC(=O)N/C(=C/c2ccccc2Cl)C(=O)OCCOC(=O)c2ccc(-c3c4nc(c(-c5c(F)cc(S(=O)(=O)[O-])cc5F)c5ccc([nH]5)c(-c5c(F)cc(S(=O)(=O)[O-])cc5F)c5nc(c(-c6c(F)cc(S(=O)(=O)[O-])cc6F)c6ccc3[nH]6)C=C5)C=C4)cc2)cc(C)c1Cl
REMARK SMILES IDX 22 1 21 2 19 3 20 4 10 5 11 6 9 7 7 8 8 9 6 11 5 12 4 13
REMARK SMILES IDX 1 14 2 15 3 16 96 17 94 18 97 19 93 20 95 21 12 22 13 23
REMARK SMILES IDX 17 24 14 25 16 26 18 27 15 28 23 29 24 30 25 31 26 32 27 33
REMARK SMILES IDX 28 34 92 35 29 36 91 37 30 38 31 39 32 40 85 41 33 42 90 43
REMARK SMILES IDX 84 44 86 45 34 46 89 47 83 48 82 49 35 51 69 52 48 53 68 54
REMARK SMILES IDX 49 55 52 56 67 57 87 58 50 59 51 60 66 62 88 63 53 64 36 65
REMARK SMILES IDX 37 66 46 67 38 68 39 69 45 70 47 71 40 72 41 73 42 74 43 75
REMARK SMILES IDX 44 76 70 77 71 78 80 79 72 80 73 81 79 82 81 83 74 84 75 85
REMARK SMILES IDX 76 86 77 87 78 88 54 89 55 90 64 91 56 92 57 93 63 94 65 95
REMARK SMILES IDX 58 96 59 97 60 98 61 99 62 100
REMARK H PARENT 9 10 86 50 52 61
REMARK Flexibility Score: inf
ROOT
ATOM      1  C   UNL     1       6.820  -2.003  -0.283  1.00  0.00     0.275 C 
ENDROOT
BRANCH   1   2
ATOM      2  O   UNL     1       6.313  -1.259  -1.403  1.00  0.00    -0.457 OA
BRANCH   2   3
ATOM      3  C   UNL     1       4.997  -1.460  -1.669  1.00  0.00     0.354 C 
ATOM      4  O   UNL     1       4.253  -2.230  -1.085  1.00  0.00    -0.244 OA
BRANCH   3   5
ATOM      5  C   UNL     1       4.595  -0.597  -2.817  1.00  0.00     0.128 C 
ATOM      6  C   UNL     1       4.904  -1.010  -4.064  1.00  0.00     0.043 C 
BRANCH   5   7
ATOM      7  N   UNL     1       3.924   0.595  -2.662  1.00  0.00    -0.317 N 
ATOM      8  C   UNL     1       3.517   1.318  -1.583  1.00  0.00     0.262 C 
ATOM      9  O   UNL     1       2.978   2.405  -1.821  1.00  0.00    -0.271 OA
ATOM     10  H   UNL     1       3.688   1.017  -3.519  1.00  0.00     0.170 HD
BRANCH   8  11
ATOM     11  C   UNL     1       3.757   0.870  -0.138  1.00  0.00     0.329 C 
BRANCH  11  12
ATOM     12  O   UNL     1       2.999  -0.185   0.407  1.00  0.00    -0.484 OA
BRANCH  12  13
ATOM     13  C   UNL     1       1.647  -0.121   0.251  1.00  0.00     0.120 A 
ATOM     14  C   UNL     1      -1.268   2.271  -0.177  1.00  0.00     0.046 C 
ATOM     15  C   UNL     1      -0.497   0.983  -0.058  1.00  0.00    -0.029 A 
ATOM     16  C   UNL     1       0.891   1.044   0.149  1.00  0.00     0.051 A 
ATOM     17  C   UNL     1      -1.120  -0.278  -0.127  1.00  0.00     0.047 A 
ATOM     18  C   UNL     1      -0.364  -1.459   0.005  1.00  0.00    -0.029 A 
ATOM     19  Cl  UNL     1      -2.830  -0.386  -0.389  1.00  0.00    -0.084 Cl
ATOM     20  C   UNL     1       1.018  -1.360   0.206  1.00  0.00     0.051 A 
ATOM     21  C   UNL     1      -0.984  -2.825  -0.059  1.00  0.00     0.046 C 
ENDBRANCH  12  13
ENDBRANCH  11  12
ENDBRANCH   8  11
ENDBRANCH   5   7
BRANCH   6  22
ATOM     22  C   UNL     1       5.640  -2.240  -4.388  1.00  0.00    -0.005 A 
ATOM     23  C   UNL     1       6.962  -2.100  -4.840  1.00  0.00     0.010 A 
ATOM     24  C   UNL     1       5.108  -3.531  -4.233  1.00  0.00     0.048 A 
ATOM     25  C   UNL     1       7.749  -3.225  -5.088  1.00  0.00     0.001 A 
ATOM     26  C   UNL     1       5.909  -4.653  -4.452  1.00  0.00     0.021 A 
ATOM     27  Cl  UNL     1       3.453  -3.799  -3.811  1.00  0.00    -0.084 Cl
ATOM     28  C   UNL     1       7.230  -4.500  -4.875  1.00  0.00     0.002 A 
ENDBRANCH   6  22
ENDBRANCH   3   5
ENDBRANCH   2   3
ENDBRANCH   1   2
BRANCH   1  29
ATOM     29  C   UNL     1       8.003  -1.257   0.333  1.00  0.00     0.275 C 
BRANCH  29  30
ATOM     30  O   UNL     1       7.580   0.045   0.778  1.00  0.00    -0.458 OA
BRANCH  30  31
ATOM     31  C   UNL     1       7.762   1.052  -0.116  1.00  0.00     0.338 C 
ATOM     32  O   UNL     1       8.365   0.984  -1.175  1.00  0.00    -0.246 OA
BRANCH  31  33
ATOM     33  C   UNL     1       6.958   2.229   0.294  1.00  0.00     0.060 A 
ATOM     34  C   UNL     1       6.405   3.023  -0.717  1.00  0.00     0.016 A 
ATOM     35  C   UNL     1       6.680   2.516   1.637  1.00  0.00     0.016 A 
ATOM     36  C   UNL     1       5.557   4.084  -0.390  1.00  0.00     0.010 A 
ATOM     37  C   UNL     1       5.854   3.598   1.964  1.00  0.00     0.010 A 
ATOM     38  C   UNL     1       5.287   4.388   0.954  1.00  0.00    -0.014 A 
BRANCH  38  39
ATOM     39  C   UNL     1       4.509   5.609   1.282  1.00  0.00     0.031 A 
ATOM     40  C   UNL     1       5.197   6.939   1.198  1.00  0.00     0.074 A 
ATOM     41  C   UNL     1       3.209   5.545   1.626  1.00  0.00     0.049 A 
ATOM     42  N   UNL     1       4.701   8.139   1.347  1.00  0.00    -0.248 NA
ATOM     43  C   UNL     1       6.642   6.910   0.917  1.00  0.00     0.031 C 
ATOM     44  C   UNL     1       2.434   4.317   1.765  1.00  0.00     0.029 A 
ATOM     45  N   UNL     1       2.305   6.539   1.911  1.00  0.00    -0.354 N 
ATOM     46  C   UNL     1       5.766   9.010   1.161  1.00  0.00     0.074 A 
ATOM     47  C   UNL     1       6.939   8.201   0.904  1.00  0.00     0.031 C 
ATOM     48  C   UNL     1       1.163   4.626   2.071  1.00  0.00     0.029 A 
ATOM     49  C   UNL     1       1.038   6.076   2.181  1.00  0.00     0.049 A 
ATOM     50  H   UNL     1       2.542   7.495   1.923  1.00  0.00     0.167 HD
ATOM     51  C   UNL     1       5.770  10.362   1.210  1.00  0.00     0.037 A 
ATOM     52  C   UNL     1      -0.092   6.745   2.486  1.00  0.00     0.037 A 
ATOM     53  C   UNL     1       4.622  11.164   1.535  1.00  0.00     0.049 A 
ATOM     54  C   UNL     1      -0.050   8.249   2.581  1.00  0.00     0.074 A 
ATOM     55  C   UNL     1       4.536  12.540   1.644  1.00  0.00     0.029 A 
ATOM     56  N   UNL     1       3.364  10.659   1.831  1.00  0.00    -0.354 N 
ATOM     57  N   UNL     1       0.954   9.062   2.351  1.00  0.00    -0.248 NA
ATOM     58  C   UNL     1      -1.289   8.925   2.993  1.00  0.00     0.031 C 
ATOM     59  C   UNL     1       3.237  12.865   2.050  1.00  0.00     0.029 A 
ATOM     60  C   UNL     1       2.502  11.694   2.150  1.00  0.00     0.049 A 
ATOM     61  H   UNL     1       3.120   9.705   1.816  1.00  0.00     0.167 HD
ATOM     62  C   UNL     1       0.466  10.344   2.583  1.00  0.00     0.074 A 
ATOM     63  C   UNL     1      -0.929  10.200   2.947  1.00  0.00     0.031 C 
ATOM     64  C   UNL     1       1.115  11.532   2.512  1.00  0.00     0.037 A 
BRANCH  51  65
ATOM     65  C   UNL     1       7.081  11.042   0.953  1.00  0.00     0.058 A 
ATOM     66  C   UNL     1       7.616  11.133  -0.342  1.00  0.00     0.135 A 
ATOM     67  C   UNL     1       7.822  11.585   2.014  1.00  0.00     0.135 A 
ATOM     68  F   UNL     1       6.956  10.605  -1.385  1.00  0.00    -0.206 F 
ATOM     69  C   UNL     1       8.856  11.716  -0.573  1.00  0.00     0.059 A 
ATOM     70  C   UNL     1       9.057  12.190   1.803  1.00  0.00     0.059 A 
ATOM     71  F   UNL     1       7.358  11.510   3.271  1.00  0.00    -0.206 F 
ATOM     72  C   UNL     1       9.573  12.235   0.508  1.00  0.00     0.060 A 
BRANCH  72  73
ATOM     73  S   UNL     1      11.196  12.961   0.199  1.00  0.00     0.124 S 
ATOM     74  O   UNL     1      12.010  11.769  -0.021  1.00  0.00    -0.237 OA
ATOM     75  O   UNL     1      10.951  13.787  -0.979  1.00  0.00    -0.237 OA
ATOM     76  O   UNL     1      11.478  13.696   1.428  1.00  0.00    -0.744 OA
ENDBRANCH  72  73
ENDBRANCH  51  65
BRANCH  52  77
ATOM     77  C   UNL     1      -1.363   6.011   2.736  1.00  0.00     0.058 A 
ATOM     78  C   UNL     1      -2.444   6.118   1.848  1.00  0.00     0.135 A 
ATOM     79  C   UNL     1      -1.535   5.215   3.879  1.00  0.00     0.135 A 
ATOM     80  F   UNL     1      -2.334   6.874   0.745  1.00  0.00    -0.206 F 
ATOM     81  C   UNL     1      -3.659   5.487   2.097  1.00  0.00     0.059 A 
ATOM     82  C   UNL     1      -2.732   4.554   4.138  1.00  0.00     0.059 A 
ATOM     83  F   UNL     1      -0.529   5.071   4.756  1.00  0.00    -0.206 F 
ATOM     84  C   UNL     1      -3.795   4.711   3.249  1.00  0.00     0.060 A 
BRANCH  84  85
ATOM     85  S   UNL     1      -5.372   3.888   3.567  1.00  0.00     0.124 S 
ATOM     86  O   UNL     1      -6.182   4.993   4.065  1.00  0.00    -0.237 OA
ATOM     87  O   UNL     1      -5.729   3.381   2.245  1.00  0.00    -0.237 OA
ATOM     88  O   UNL     1      -5.022   2.867   4.550  1.00  0.00    -0.744 OA
ENDBRANCH  84  85
ENDBRANCH  52  77
BRANCH  64  89
ATOM     89  C   UNL     1       0.328  12.773   2.827  1.00  0.00     0.058 A 
ATOM     90  C   UNL     1      -0.026  13.102   4.144  1.00  0.00     0.135 A 
ATOM     91  C   UNL     1      -0.023  13.673   1.808  1.00  0.00     0.135 A 
ATOM     92  F   UNL     1       0.281  12.272   5.154  1.00  0.00    -0.206 F 
ATOM     93  C   UNL     1      -0.716  14.273   4.440  1.00  0.00     0.059 A 
ATOM     94  C   UNL     1      -0.692  14.861   2.083  1.00  0.00     0.059 A 
ATOM     95  F   UNL     1       0.302  13.410   0.532  1.00  0.00    -0.206 F 
ATOM     96  C   UNL     1      -1.043  15.148   3.402  1.00  0.00     0.060 A 
BRANCH  96  97
ATOM     97  S   UNL     1      -1.897  16.688   3.801  1.00  0.00     0.124 S 
ATOM     98  O   UNL     1      -3.261  16.220   4.021  1.00  0.00    -0.237 OA
ATOM     99  O   UNL     1      -1.185  17.145   4.990  1.00  0.00    -0.237 OA
ATOM    100  O   UNL     1      -1.697  17.505   2.607  1.00  0.00    -0.744 OA
ENDBRANCH  96  97
ENDBRANCH  64  89
ENDBRANCH  38  39
ENDBRANCH  31  33
ENDBRANCH  30  31
ENDBRANCH  29  30
ENDBRANCH   1  29
TORSDOF 19
