REMARK SMILES C[C@H](c1ccccc1)[N@@H+](CC(=O)OCCOC(=O)c1ccc(-c2c3nc(c(-c4c(F)cc(S(=O)(=O)[O-])cc4F)c4ccc([nH]4)c(-c4c(F)cc(S(=O)(=O)[O-])cc4F)c4nc(c(-c5c(F)cc(S(=O)(=O)[O-])cc5F)c5ccc2[nH]5)C=C4)C=C3)cc1)CC(F)(F)F
REMARK SMILES IDX 14 1 13 2 11 3 12 4 10 5 9 6 2 8 1 9 3 10 4 11 8 12 5 13
REMARK SMILES IDX 7 14 6 15 85 16 86 17 87 18 88 19 89 20 15 21 16 22 17 23
REMARK SMILES IDX 18 24 19 25 20 26 84 27 21 28 83 29 22 30 23 31 24 32 77 33
REMARK SMILES IDX 25 34 82 35 76 36 78 37 26 38 81 39 75 40 74 41 27 43 61 44
REMARK SMILES IDX 40 45 60 46 41 47 44 48 59 49 79 50 42 51 43 52 58 54 80 55
REMARK SMILES IDX 45 56 28 57 29 58 38 59 30 60 31 61 37 62 39 63 32 64 33 65
REMARK SMILES IDX 34 66 35 67 36 68 62 69 63 70 72 71 64 72 65 73 71 74 73 75
REMARK SMILES IDX 66 76 67 77 68 78 69 79 70 80 46 81 47 82 56 83 48 84 49 85
REMARK SMILES IDX 55 86 57 87 50 88 51 89 52 90 53 91 54 92
REMARK H PARENT 9 7 78 42 44 53
REMARK Flexibility Score: inf
ROOT
ATOM      1  C   UNL     1       0.359   5.510  -0.543  1.00  0.00     0.274 C 
ENDROOT
BRANCH   1   2
ATOM      2  O   UNL     1       0.256   4.101  -0.239  1.00  0.00    -0.458 OA
BRANCH   2   3
ATOM      3  C   UNL     1      -0.734   3.722   0.609  1.00  0.00     0.361 C 
ATOM      4  O   UNL     1      -1.497   4.510   1.161  1.00  0.00    -0.245 OA
BRANCH   3   5
ATOM      5  C   UNL     1      -0.786   2.217   0.898  1.00  0.00     0.387 C 
BRANCH   5   6
ATOM      6  N   UNL     1      -0.236   1.327  -0.137  1.00  0.00    -0.312 N 
ATOM      7  H   UNL     1      -0.212   0.310  -0.064  1.00  0.00     0.349 HD
BRANCH   6   8
ATOM      8  C   UNL     1       1.190   1.031  -0.071  1.00  0.00     0.212 C 
ATOM      9  C   UNL     1       2.043   1.681  -1.165  1.00  0.00     0.081 C 
BRANCH   8  10
ATOM     10  C   UNL     1       1.580  -0.442   0.098  1.00  0.00     0.009 A 
ATOM     11  C   UNL     1       0.975  -1.497  -0.597  1.00  0.00     0.010 A 
ATOM     12  C   UNL     1       2.691  -0.761   0.903  1.00  0.00     0.010 A 
ATOM     13  C   UNL     1       1.483  -2.799  -0.549  1.00  0.00     0.001 A 
ATOM     14  C   UNL     1       3.189  -2.067   0.972  1.00  0.00     0.001 A 
ATOM     15  C   UNL     1       2.596  -3.083   0.230  1.00  0.00     0.000 A 
ENDBRANCH   8  10
ENDBRANCH   6   8
BRANCH   6  16
ATOM     16  C   UNL     1      -1.131   0.999  -1.259  1.00  0.00     0.380 C 
BRANCH  16  17
ATOM     17  C   UNL     1      -0.712   0.903  -2.755  1.00  0.00     0.438 C 
ATOM     18  F   UNL     1      -0.076  -0.261  -3.027  1.00  0.00    -0.165 F 
ATOM     19  F   UNL     1      -1.817   0.915  -3.543  1.00  0.00    -0.165 F 
ATOM     20  F   UNL     1       0.104   1.889  -3.172  1.00  0.00    -0.165 F 
ENDBRANCH  16  17
ENDBRANCH   6  16
ENDBRANCH   5   6
ENDBRANCH   3   5
ENDBRANCH   2   3
ENDBRANCH   1   2
BRANCH   1  21
ATOM     21  C   UNL     1      -0.252   5.852  -1.905  1.00  0.00     0.275 C 
BRANCH  21  22
ATOM     22  O   UNL     1      -1.691   5.796  -1.867  1.00  0.00    -0.458 OA
BRANCH  22  23
ATOM     23  C   UNL     1      -2.191   4.595  -2.215  1.00  0.00     0.338 C 
ATOM     24  O   UNL     1      -1.557   3.613  -2.564  1.00  0.00    -0.246 OA
BRANCH  23  25
ATOM     25  C   UNL     1      -3.640   4.522  -2.086  1.00  0.00     0.060 A 
ATOM     26  C   UNL     1      -4.183   3.921  -0.947  1.00  0.00     0.016 A 
ATOM     27  C   UNL     1      -4.436   4.842  -3.186  1.00  0.00     0.016 A 
ATOM     28  C   UNL     1      -5.543   3.641  -0.905  1.00  0.00     0.010 A 
ATOM     29  C   UNL     1      -5.804   4.585  -3.131  1.00  0.00     0.010 A 
ATOM     30  C   UNL     1      -6.362   3.985  -1.991  1.00  0.00    -0.014 A 
BRANCH  30  31
ATOM     31  C   UNL     1      -7.827   3.836  -1.878  1.00  0.00     0.031 A 
ATOM     32  C   UNL     1      -8.560   2.752  -2.605  1.00  0.00     0.074 A 
ATOM     33  C   UNL     1      -8.482   4.733  -1.118  1.00  0.00     0.049 A 
ATOM     34  N   UNL     1      -9.849   2.546  -2.683  1.00  0.00    -0.248 NA
ATOM     35  C   UNL     1      -7.746   1.772  -3.340  1.00  0.00     0.031 C 
ATOM     36  C   UNL     1      -7.843   5.816  -0.363  1.00  0.00     0.029 A 
ATOM     37  N   UNL     1      -9.816   4.886  -0.858  1.00  0.00    -0.354 N 
ATOM     38  C   UNL     1     -10.008   1.426  -3.488  1.00  0.00     0.074 A 
ATOM     39  C   UNL     1      -8.680   0.995  -3.876  1.00  0.00     0.031 C 
ATOM     40  C   UNL     1      -8.787   6.518   0.279  1.00  0.00     0.029 A 
ATOM     41  C   UNL     1     -10.093   5.967  -0.058  1.00  0.00     0.049 A 
ATOM     42  H   UNL     1     -10.508   4.281  -1.209  1.00  0.00     0.167 HD
ATOM     43  C   UNL     1     -11.162   0.825  -3.868  1.00  0.00     0.037 A 
ATOM     44  C   UNL     1     -11.274   6.476   0.335  1.00  0.00     0.037 A 
ATOM     45  C   UNL     1     -12.472   1.275  -3.468  1.00  0.00     0.049 A 
ATOM     46  C   UNL     1     -12.534   5.808  -0.121  1.00  0.00     0.074 A 
ATOM     47  C   UNL     1     -13.706   0.733  -3.785  1.00  0.00     0.029 A 
ATOM     48  N   UNL     1     -12.718   2.380  -2.664  1.00  0.00    -0.354 N 
ATOM     49  N   UNL     1     -12.669   4.751  -0.886  1.00  0.00    -0.248 NA
ATOM     50  C   UNL     1     -13.798   6.402   0.326  1.00  0.00     0.031 C 
ATOM     51  C   UNL     1     -14.698   1.528  -3.197  1.00  0.00     0.029 A 
ATOM     52  C   UNL     1     -14.082   2.547  -2.488  1.00  0.00     0.049 A 
ATOM     53  H   UNL     1     -12.024   2.961  -2.276  1.00  0.00     0.167 HD
ATOM     54  C   UNL     1     -14.036   4.548  -1.011  1.00  0.00     0.074 A 
ATOM     55  C   UNL     1     -14.683   5.584  -0.228  1.00  0.00     0.031 C 
ATOM     56  C   UNL     1     -14.697   3.595  -1.712  1.00  0.00     0.037 A 
BRANCH  43  57
ATOM     57  C   UNL     1     -11.063  -0.362  -4.783  1.00  0.00     0.058 A 
ATOM     58  C   UNL     1     -10.680  -1.627  -4.313  1.00  0.00     0.135 A 
ATOM     59  C   UNL     1     -11.398  -0.243  -6.142  1.00  0.00     0.135 A 
ATOM     60  F   UNL     1     -10.337  -1.794  -3.026  1.00  0.00    -0.206 F 
ATOM     61  C   UNL     1     -10.616  -2.730  -5.161  1.00  0.00     0.059 A 
ATOM     62  C   UNL     1     -11.357  -1.335  -7.005  1.00  0.00     0.059 A 
ATOM     63  F   UNL     1     -11.770   0.946  -6.643  1.00  0.00    -0.206 F 
ATOM     64  C   UNL     1     -10.953  -2.573  -6.507  1.00  0.00     0.060 A 
BRANCH  64  65
ATOM     65  S   UNL     1     -10.871  -4.010  -7.599  1.00  0.00     0.124 S 
ATOM     66  O   UNL     1      -9.434  -4.116  -7.832  1.00  0.00    -0.237 OA
ATOM     67  O   UNL     1     -11.459  -5.064  -6.779  1.00  0.00    -0.237 OA
ATOM     68  O   UNL     1     -11.666  -3.603  -8.754  1.00  0.00    -0.744 OA
ENDBRANCH  64  65
ENDBRANCH  43  57
BRANCH  44  69
ATOM     69  C   UNL     1     -11.293   7.687   1.191  1.00  0.00     0.058 A 
ATOM     70  C   UNL     1     -11.597   7.598   2.555  1.00  0.00     0.135 A 
ATOM     71  C   UNL     1     -10.935   8.943   0.675  1.00  0.00     0.135 A 
ATOM     72  F   UNL     1     -11.943   6.418   3.090  1.00  0.00    -0.206 F 
ATOM     73  C   UNL     1     -11.544   8.714   3.384  1.00  0.00     0.059 A 
ATOM     74  C   UNL     1     -10.856  10.068   1.487  1.00  0.00     0.059 A 
ATOM     75  F   UNL     1     -10.615   9.071  -0.622  1.00  0.00    -0.206 F 
ATOM     76  C   UNL     1     -11.167   9.944   2.841  1.00  0.00     0.060 A 
BRANCH  76  77
ATOM     77  S   UNL     1     -11.018  11.373   3.935  1.00  0.00     0.124 S 
ATOM     78  O   UNL     1     -12.409  11.793   4.058  1.00  0.00    -0.237 OA
ATOM     79  O   UNL     1     -10.418  10.791   5.131  1.00  0.00    -0.237 OA
ATOM     80  O   UNL     1     -10.147  12.275   3.185  1.00  0.00    -0.744 OA
ENDBRANCH  76  77
ENDBRANCH  44  69
BRANCH  56  81
ATOM     81  C   UNL     1     -16.194   3.636  -1.650  1.00  0.00     0.058 A 
ATOM     82  C   UNL     1     -16.928   4.563  -2.405  1.00  0.00     0.135 A 
ATOM     83  C   UNL     1     -16.899   2.733  -0.840  1.00  0.00     0.135 A 
ATOM     84  F   UNL     1     -16.294   5.452  -3.185  1.00  0.00    -0.206 F 
ATOM     85  C   UNL     1     -18.316   4.608  -2.343  1.00  0.00     0.059 A 
ATOM     86  C   UNL     1     -18.288   2.750  -0.776  1.00  0.00     0.059 A 
ATOM     87  F   UNL     1     -16.238   1.827  -0.103  1.00  0.00    -0.206 F 
ATOM     88  C   UNL     1     -18.987   3.700  -1.521  1.00  0.00     0.060 A 
BRANCH  88  89
ATOM     89  S   UNL     1     -20.790   3.752  -1.456  1.00  0.00     0.124 S 
ATOM     90  O   UNL     1     -21.017   4.862  -0.536  1.00  0.00    -0.237 OA
ATOM     91  O   UNL     1     -21.151   3.999  -2.848  1.00  0.00    -0.237 OA
ATOM     92  O   UNL     1     -21.146   2.430  -0.948  1.00  0.00    -0.744 OA
ENDBRANCH  88  89
ENDBRANCH  56  81
ENDBRANCH  30  31
ENDBRANCH  23  25
ENDBRANCH  22  23
ENDBRANCH  21  22
ENDBRANCH   1  21
TORSDOF 19
