REMARK SMILES C[C@H]1CC[C@@](CCOCCO)(C(=O)OCCOC(=O)c2ccc(-c3c4nc(c(-c5c(F)cc(S(=O)(=O)[O-])cc5F)c5ccc([nH]5)c(-c5c(F)cc(S(=O)(=O)[O-])cc5F)c5nc(c(-c6c(F)cc(S(=O)(=O)[O-])cc6F)c6ccc3[nH]6)C=C5)C=C4)cc2)C1
REMARK SMILES IDX 14 1 12 2 13 3 5 4 1 5 2 6 3 7 86 8 4 9 6 10 7 11 8 12 9 13
REMARK SMILES IDX 10 14 11 15 15 17 16 18 17 19 18 20 19 21 20 22 21 23 85 24
REMARK SMILES IDX 22 25 84 26 23 27 24 28 25 29 78 30 26 31 83 32 77 33 79 34
REMARK SMILES IDX 27 35 82 36 76 37 75 38 28 40 62 41 41 42 61 43 42 44 45 45
REMARK SMILES IDX 60 46 80 47 43 48 44 49 59 51 81 52 46 53 29 54 30 55 39 56
REMARK SMILES IDX 31 57 32 58 38 59 40 60 33 61 34 62 35 63 36 64 37 65 63 66
REMARK SMILES IDX 64 67 73 68 65 69 66 70 72 71 74 72 67 73 68 74 69 75 70 76
REMARK SMILES IDX 71 77 47 78 48 79 57 80 49 81 50 82 56 83 58 84 51 85 52 86
REMARK SMILES IDX 53 87 54 88 55 89
REMARK H PARENT 11 16 79 39 45 50
REMARK Flexibility Score: inf
ROOT
ATOM      1  O   UNL     1      -3.253   1.455   0.112  1.00  0.00    -0.462 OA
ENDROOT
BRANCH   1   2
ATOM      2  C   UNL     1      -2.098   2.018  -0.323  1.00  0.00     0.312 C 
ATOM      3  O   UNL     1      -1.903   3.228  -0.367  1.00  0.00    -0.252 OA
BRANCH   2   4
ATOM      4  C   UNL     1      -1.059   0.986  -0.801  1.00  0.00     0.070 C 
ATOM      5  C   UNL     1       2.219   0.179   1.035  1.00  0.00     0.007 C 
ATOM      6  C   UNL     1       1.056   0.069   0.062  1.00  0.00    -0.013 C 
ATOM      7  C   UNL     1      -0.056  -0.806   0.605  1.00  0.00     0.004 C 
ATOM      8  C   UNL     1       0.334   1.390  -0.213  1.00  0.00     0.022 C 
ATOM      9  C   UNL     1      -1.254  -0.461  -0.269  1.00  0.00     0.019 C 
BRANCH   4  10
ATOM     10  C   UNL     1      -0.996   1.103  -2.352  1.00  0.00     0.047 C 
BRANCH  10  11
ATOM     11  C   UNL     1      -1.931   0.245  -3.212  1.00  0.00     0.161 C 
BRANCH  11  12
ATOM     12  O   UNL     1      -3.315   0.532  -3.073  1.00  0.00    -0.379 OA
BRANCH  12  13
ATOM     13  C   UNL     1      -4.066  -0.334  -2.221  1.00  0.00     0.188 C 
BRANCH  13  14
ATOM     14  C   UNL     1      -4.443  -1.687  -2.825  1.00  0.00     0.184 C 
BRANCH  14  15
ATOM     15  O   UNL     1      -3.333  -2.572  -2.922  1.00  0.00    -0.394 OA
ATOM     16  H   UNL     1      -2.661  -2.186  -3.505  1.00  0.00     0.210 HD
ENDBRANCH  14  15
ENDBRANCH  13  14
ENDBRANCH  12  13
ENDBRANCH  11  12
ENDBRANCH  10  11
ENDBRANCH   4  10
ENDBRANCH   2   4
ENDBRANCH   1   2
BRANCH   1  17
ATOM     17  C   UNL     1      -4.331   2.348   0.461  1.00  0.00     0.274 C 
BRANCH  17  18
ATOM     18  C   UNL     1      -5.086   1.785   1.665  1.00  0.00     0.275 C 
BRANCH  18  19
ATOM     19  O   UNL     1      -4.253   1.948   2.825  1.00  0.00    -0.458 OA
BRANCH  19  20
ATOM     20  C   UNL     1      -3.590   0.846   3.231  1.00  0.00     0.338 C 
ATOM     21  O   UNL     1      -3.794  -0.319   2.914  1.00  0.00    -0.246 OA
BRANCH  20  22
ATOM     22  C   UNL     1      -2.422   1.298   3.990  1.00  0.00     0.060 A 
ATOM     23  C   UNL     1      -1.331   1.772   3.262  1.00  0.00     0.016 A 
ATOM     24  C   UNL     1      -2.365   1.213   5.377  1.00  0.00     0.016 A 
ATOM     25  C   UNL     1      -0.149   2.111   3.908  1.00  0.00     0.010 A 
ATOM     26  C   UNL     1      -1.197   1.619   6.032  1.00  0.00     0.010 A 
ATOM     27  C   UNL     1      -0.069   2.049   5.303  1.00  0.00    -0.014 A 
BRANCH  27  28
ATOM     28  C   UNL     1       1.212   2.359   5.993  1.00  0.00     0.031 A 
ATOM     29  C   UNL     1       1.878   1.294   6.820  1.00  0.00     0.074 A 
ATOM     30  C   UNL     1       1.793   3.569   5.868  1.00  0.00     0.049 A 
ATOM     31  N   UNL     1       2.846   1.405   7.691  1.00  0.00    -0.248 NA
ATOM     32  C   UNL     1       1.372  -0.079   6.656  1.00  0.00     0.031 C 
ATOM     33  C   UNL     1       1.297   4.670   5.040  1.00  0.00     0.029 A 
ATOM     34  N   UNL     1       2.935   4.075   6.439  1.00  0.00    -0.354 N 
ATOM     35  C   UNL     1       3.013   0.137   8.235  1.00  0.00     0.074 A 
ATOM     36  C   UNL     1       2.057  -0.732   7.584  1.00  0.00     0.031 C 
ATOM     37  C   UNL     1       2.143   5.707   5.132  1.00  0.00     0.029 A 
ATOM     38  C   UNL     1       3.191   5.382   6.094  1.00  0.00     0.049 A 
ATOM     39  H   UNL     1       3.516   3.552   7.037  1.00  0.00     0.167 HD
ATOM     40  C   UNL     1       3.880  -0.258   9.198  1.00  0.00     0.037 A 
ATOM     41  C   UNL     1       4.131   6.238   6.540  1.00  0.00     0.037 A 
ATOM     42  C   UNL     1       4.869   0.605   9.789  1.00  0.00     0.049 A 
ATOM     43  C   UNL     1       5.088   5.779   7.604  1.00  0.00     0.074 A 
ATOM     44  C   UNL     1       5.783   0.317  10.787  1.00  0.00     0.029 A 
ATOM     45  N   UNL     1       5.093   1.921   9.411  1.00  0.00    -0.354 N 
ATOM     46  N   UNL     1       5.163   4.610   8.194  1.00  0.00    -0.248 NA
ATOM     47  C   UNL     1       6.071   6.761   8.082  1.00  0.00     0.031 C 
ATOM     48  C   UNL     1       6.549   1.465  11.024  1.00  0.00     0.029 A 
ATOM     49  C   UNL     1       6.134   2.457  10.150  1.00  0.00     0.049 A 
ATOM     50  H   UNL     1       4.586   2.404   8.718  1.00  0.00     0.167 HD
ATOM     51  C   UNL     1       6.198   4.715   9.116  1.00  0.00     0.074 A 
ATOM     52  C   UNL     1       6.738   6.054   8.985  1.00  0.00     0.031 C 
ATOM     53  C   UNL     1       6.654   3.793   9.998  1.00  0.00     0.037 A 
BRANCH  40  54
ATOM     54  C   UNL     1       3.758  -1.668   9.703  1.00  0.00     0.058 A 
ATOM     55  C   UNL     1       4.179  -2.772   8.947  1.00  0.00     0.135 A 
ATOM     56  C   UNL     1       3.207  -1.915  10.972  1.00  0.00     0.135 A 
ATOM     57  F   UNL     1       4.692  -2.594   7.719  1.00  0.00    -0.206 F 
ATOM     58  C   UNL     1       4.032  -4.074   9.417  1.00  0.00     0.059 A 
ATOM     59  C   UNL     1       3.072  -3.207  11.472  1.00  0.00     0.059 A 
ATOM     60  F   UNL     1       2.785  -0.896  11.736  1.00  0.00    -0.206 F 
ATOM     61  C   UNL     1       3.471  -4.281  10.679  1.00  0.00     0.060 A 
BRANCH  61  62
ATOM     62  S   UNL     1       3.270  -5.974  11.275  1.00  0.00     0.124 S 
ATOM     63  O   UNL     1       2.100  -6.410  10.520  1.00  0.00    -0.237 OA
ATOM     64  O   UNL     1       4.535  -6.595  10.895  1.00  0.00    -0.237 OA
ATOM     65  O   UNL     1       3.065  -5.806  12.710  1.00  0.00    -0.744 OA
ENDBRANCH  61  62
ENDBRANCH  40  54
BRANCH  41  66
ATOM     66  C   UNL     1       4.171   7.630   6.015  1.00  0.00     0.058 A 
ATOM     67  C   UNL     1       5.208   8.057   5.174  1.00  0.00     0.135 A 
ATOM     68  C   UNL     1       3.155   8.550   6.318  1.00  0.00     0.135 A 
ATOM     69  F   UNL     1       6.211   7.220   4.867  1.00  0.00    -0.206 F 
ATOM     70  C   UNL     1       5.236   9.345   4.647  1.00  0.00     0.059 A 
ATOM     71  C   UNL     1       3.146   9.834   5.783  1.00  0.00     0.059 A 
ATOM     72  F   UNL     1       2.135   8.188   7.112  1.00  0.00    -0.206 F 
ATOM     73  C   UNL     1       4.196  10.225   4.953  1.00  0.00     0.060 A 
BRANCH  73  74
ATOM     74  S   UNL     1       4.192  11.869   4.204  1.00  0.00     0.124 S 
ATOM     75  O   UNL     1       5.158  12.574   5.040  1.00  0.00    -0.237 OA
ATOM     76  O   UNL     1       4.616  11.589   2.836  1.00  0.00    -0.237 OA
ATOM     77  O   UNL     1       2.803  12.296   4.345  1.00  0.00    -0.744 OA
ENDBRANCH  73  74
ENDBRANCH  41  66
BRANCH  53  78
ATOM     78  C   UNL     1       7.804   4.196  10.874  1.00  0.00     0.058 A 
ATOM     79  C   UNL     1       7.620   5.037  11.982  1.00  0.00     0.135 A 
ATOM     80  C   UNL     1       9.094   3.705  10.625  1.00  0.00     0.135 A 
ATOM     81  F   UNL     1       6.405   5.537  12.256  1.00  0.00    -0.206 F 
ATOM     82  C   UNL     1       8.683   5.396  12.803  1.00  0.00     0.059 A 
ATOM     83  C   UNL     1      10.169   4.034  11.444  1.00  0.00     0.059 A 
ATOM     84  F   UNL     1       9.318   2.890   9.582  1.00  0.00    -0.206 F 
ATOM     85  C   UNL     1       9.955   4.890  12.525  1.00  0.00     0.060 A 
BRANCH  85  86
ATOM     86  S   UNL     1      11.325   5.340  13.610  1.00  0.00     0.124 S 
ATOM     87  O   UNL     1      11.627   6.694  13.156  1.00  0.00    -0.237 OA
ATOM     88  O   UNL     1      10.725   5.235  14.937  1.00  0.00    -0.237 OA
ATOM     89  O   UNL     1      12.340   4.335  13.308  1.00  0.00    -0.744 OA
ENDBRANCH  85  86
ENDBRANCH  53  78
ENDBRANCH  27  28
ENDBRANCH  20  22
ENDBRANCH  19  20
ENDBRANCH  18  19
ENDBRANCH  17  18
ENDBRANCH   1  17
TORSDOF 20
