REMARK SMILES CC(C)c1cc(C#N)cc2nc(-c3ccc(C(=O)OCCOC(=O)c4ccc(-c5c6nc(c(-c7c(F)cc(S(=O)(=O)[O-])cc7F)c7ccc([nH]7)c(-c7c(F)cc(S(=O)(=O)[O-])cc7F)c7nc(c(-c8c(F)cc(S(=O)(=O)[O-])cc8F)c8ccc5[nH]8)C=C7)C=C6)cc4)cc3)oc12
REMARK SMILES IDX 21 1 20 2 19 3 17 4 18 5 16 6 13 7 14 8 92 9 15 10 91 11
REMARK SMILES IDX 12 12 4 13 5 14 94 15 6 16 10 17 93 18 9 19 11 20 2 21 1 22
REMARK SMILES IDX 3 23 7 24 8 25 22 26 23 27 24 28 25 29 26 30 90 31 27 32
REMARK SMILES IDX 89 33 28 34 29 35 30 36 83 37 31 38 88 39 82 40 84 41 32 42
REMARK SMILES IDX 87 43 81 44 80 45 33 47 67 48 46 49 66 50 47 51 50 52 65 53
REMARK SMILES IDX 85 54 48 55 49 56 64 58 86 59 51 60 34 61 35 62 44 63 36 64
REMARK SMILES IDX 37 65 43 66 45 67 38 68 39 69 40 70 41 71 42 72 68 73 69 74
REMARK SMILES IDX 78 75 70 76 71 77 77 78 79 79 72 80 73 81 74 82 75 83 76 84
REMARK SMILES IDX 52 85 53 86 62 87 54 88 55 89 61 90 63 91 56 92 57 93 58 94
REMARK SMILES IDX 59 95 60 96
REMARK H PARENT 84 46 50 57
REMARK Flexibility Score: inf
ROOT
ATOM      1  C   UNL     1      -1.645  -9.945  -1.215  1.00  0.00     0.275 C 
ENDROOT
BRANCH   1   2
ATOM      2  C   UNL     1      -3.089  -9.472  -0.998  1.00  0.00     0.275 C 
BRANCH   2   3
ATOM      3  O   UNL     1      -3.214  -8.030  -1.118  1.00  0.00    -0.458 OA
BRANCH   3   4
ATOM      4  C   UNL     1      -3.507  -7.387   0.042  1.00  0.00     0.338 C 
ATOM      5  O   UNL     1      -3.622  -7.957   1.113  1.00  0.00    -0.246 OA
BRANCH   4   6
ATOM      6  C   UNL     1      -3.506  -5.896  -0.110  1.00  0.00     0.060 A 
ATOM      7  C   UNL     1      -3.086  -3.092  -0.183  1.00  0.00     0.037 A 
ATOM      8  C   UNL     1      -2.862  -3.787   0.985  1.00  0.00     0.014 A 
ATOM      9  C   UNL     1      -3.600  -3.794  -1.292  1.00  0.00     0.014 A 
ATOM     10  C   UNL     1      -3.171  -5.139   1.008  1.00  0.00     0.016 A 
ATOM     11  C   UNL     1      -3.769  -5.197  -1.273  1.00  0.00     0.016 A 
BRANCH   7  12
ATOM     12  C   UNL     1      -3.009  -1.648  -0.141  1.00  0.00     0.227 A 
ATOM     13  C   UNL     1      -1.170   1.366   0.246  1.00  0.00     0.001 A 
ATOM     14  C   UNL     1      -1.842   2.615   0.374  1.00  0.00     0.027 A 
ATOM     15  C   UNL     1      -2.055   0.281   0.125  1.00  0.00     0.158 A 
ATOM     16  C   UNL     1      -3.243   2.752   0.360  1.00  0.00     0.055 A 
ATOM     17  C   UNL     1      -3.443   0.393   0.105  1.00  0.00     0.111 A 
ATOM     18  O   UNL     1      -1.772  -1.062  -0.003  1.00  0.00    -0.436 OA
ATOM     19  C   UNL     1      -4.063   1.634   0.249  1.00  0.00     0.052 A 
ATOM     20  N   UNL     1      -4.024  -0.821  -0.098  1.00  0.00    -0.209 NA
BRANCH  13  21
ATOM     21  C   UNL     1       0.355   1.342   0.244  1.00  0.00     0.017 C 
ATOM     22  C   UNL     1       0.989  -0.040   0.067  1.00  0.00     0.012 C 
ATOM     23  C   UNL     1       0.934   2.278  -0.833  1.00  0.00     0.012 C 
ENDBRANCH  13  21
BRANCH  16  24
ATOM     24  C   UNL     1      -3.832   4.067   0.382  1.00  0.00     0.099 C 
ATOM     25  N   UNL     1      -4.253   5.137   0.335  1.00  0.00    -0.192 NA
ENDBRANCH  16  24
ENDBRANCH   7  12
ENDBRANCH   4   6
ENDBRANCH   3   4
ENDBRANCH   2   3
ENDBRANCH   1   2
BRANCH   1  26
ATOM     26  O   UNL     1      -0.871  -9.736  -0.025  1.00  0.00    -0.458 OA
BRANCH  26  27
ATOM     27  C   UNL     1      -0.068  -8.649  -0.039  1.00  0.00     0.338 C 
ATOM     28  O   UNL     1       0.370  -8.066  -1.017  1.00  0.00    -0.246 OA
BRANCH  27  29
ATOM     29  C   UNL     1      -0.181  -8.060   1.303  1.00  0.00     0.060 A 
ATOM     30  C   UNL     1      -0.313  -8.776   2.502  1.00  0.00     0.016 A 
ATOM     31  C   UNL     1      -0.402  -6.709   1.312  1.00  0.00     0.016 A 
ATOM     32  C   UNL     1      -1.093  -8.227   3.544  1.00  0.00     0.010 A 
ATOM     33  C   UNL     1      -0.891  -6.189   2.484  1.00  0.00     0.010 A 
ATOM     34  C   UNL     1      -1.648  -6.968   3.371  1.00  0.00    -0.014 A 
BRANCH  34  35
ATOM     35  C   UNL     1      -2.613  -6.240   4.290  1.00  0.00     0.031 A 
ATOM     36  C   UNL     1      -1.770  -5.500   5.275  1.00  0.00     0.074 A 
ATOM     37  C   UNL     1      -3.987  -6.035   4.236  1.00  0.00     0.049 A 
ATOM     38  N   UNL     1      -1.379  -5.991   6.408  1.00  0.00    -0.248 NA
ATOM     39  C   UNL     1      -0.959  -4.332   4.851  1.00  0.00     0.031 C 
ATOM     40  C   UNL     1      -5.030  -6.492   3.289  1.00  0.00     0.029 A 
ATOM     41  N   UNL     1      -4.793  -5.249   5.070  1.00  0.00    -0.354 N 
ATOM     42  C   UNL     1      -0.554  -5.017   6.945  1.00  0.00     0.074 A 
ATOM     43  C   UNL     1      -0.050  -4.278   5.830  1.00  0.00     0.031 C 
ATOM     44  C   UNL     1      -6.175  -5.762   3.387  1.00  0.00     0.029 A 
ATOM     45  C   UNL     1      -6.075  -4.884   4.532  1.00  0.00     0.049 A 
ATOM     46  H   UNL     1      -4.500  -4.965   5.966  1.00  0.00     0.167 HD
ATOM     47  C   UNL     1      -0.688  -4.641   8.245  1.00  0.00     0.037 A 
ATOM     48  C   UNL     1      -7.055  -4.075   5.083  1.00  0.00     0.037 A 
ATOM     49  C   UNL     1      -1.520  -5.589   8.947  1.00  0.00     0.049 A 
ATOM     50  C   UNL     1      -6.749  -4.013   6.540  1.00  0.00     0.074 A 
ATOM     51  C   UNL     1      -1.447  -6.948   9.184  1.00  0.00     0.029 A 
ATOM     52  N   UNL     1      -2.845  -5.247   9.072  1.00  0.00    -0.354 N 
ATOM     53  N   UNL     1      -6.819  -5.071   7.309  1.00  0.00    -0.248 NA
ATOM     54  C   UNL     1      -5.773  -2.997   6.914  1.00  0.00     0.031 C 
ATOM     55  C   UNL     1      -2.772  -7.433   8.983  1.00  0.00     0.029 A 
ATOM     56  C   UNL     1      -3.621  -6.344   8.790  1.00  0.00     0.049 A 
ATOM     57  H   UNL     1      -3.184  -4.357   9.324  1.00  0.00     0.167 HD
ATOM     58  C   UNL     1      -5.592  -5.091   7.954  1.00  0.00     0.074 A 
ATOM     59  C   UNL     1      -4.976  -3.795   7.632  1.00  0.00     0.031 C 
ATOM     60  C   UNL     1      -5.010  -6.250   8.387  1.00  0.00     0.037 A 
BRANCH  47  61
ATOM     61  C   UNL     1      -0.452  -3.238   8.752  1.00  0.00     0.058 A 
ATOM     62  C   UNL     1      -0.391  -3.027  10.142  1.00  0.00     0.135 A 
ATOM     63  C   UNL     1      -0.510  -2.064   7.963  1.00  0.00     0.135 A 
ATOM     64  F   UNL     1      -0.366  -4.069  10.988  1.00  0.00    -0.206 F 
ATOM     65  C   UNL     1      -0.406  -1.751  10.705  1.00  0.00     0.059 A 
ATOM     66  C   UNL     1      -0.475  -0.782   8.501  1.00  0.00     0.059 A 
ATOM     67  F   UNL     1      -0.689  -2.091   6.638  1.00  0.00    -0.206 F 
ATOM     68  C   UNL     1      -0.440  -0.634   9.875  1.00  0.00     0.060 A 
BRANCH  68  69
ATOM     69  S   UNL     1      -0.452   1.008  10.612  1.00  0.00     0.124 S 
ATOM     70  O   UNL     1      -1.714   0.997  11.342  1.00  0.00    -0.237 OA
ATOM     71  O   UNL     1       0.759   0.973  11.425  1.00  0.00    -0.237 OA
ATOM     72  O   UNL     1      -0.398   1.897   9.456  1.00  0.00    -0.744 OA
ENDBRANCH  68  69
ENDBRANCH  47  61
BRANCH  48  73
ATOM     73  C   UNL     1      -7.890  -2.987   4.418  1.00  0.00     0.058 A 
ATOM     74  C   UNL     1      -8.916  -2.226   5.050  1.00  0.00     0.135 A 
ATOM     75  C   UNL     1      -7.470  -2.471   3.181  1.00  0.00     0.135 A 
ATOM     76  F   UNL     1      -9.397  -2.599   6.248  1.00  0.00    -0.206 F 
ATOM     77  C   UNL     1      -9.446  -1.026   4.500  1.00  0.00     0.059 A 
ATOM     78  C   UNL     1      -7.970  -1.289   2.623  1.00  0.00     0.059 A 
ATOM     79  F   UNL     1      -6.477  -3.064   2.506  1.00  0.00    -0.206 F 
ATOM     80  C   UNL     1      -8.943  -0.553   3.288  1.00  0.00     0.060 A 
BRANCH  80  81
ATOM     81  S   UNL     1      -9.459   1.054   2.604  1.00  0.00     0.124 S 
ATOM     82  O   UNL     1     -10.867   0.829   2.300  1.00  0.00    -0.237 OA
ATOM     83  O   UNL     1      -9.184   1.970   3.705  1.00  0.00    -0.237 OA
ATOM     84  O   UNL     1      -8.592   1.218   1.437  1.00  0.00    -0.744 OA
ENDBRANCH  80  81
ENDBRANCH  48  73
BRANCH  60  85
ATOM     85  C   UNL     1      -5.787  -7.550   8.349  1.00  0.00     0.058 A 
ATOM     86  C   UNL     1      -6.176  -8.243   7.185  1.00  0.00     0.135 A 
ATOM     87  C   UNL     1      -5.953  -8.227   9.565  1.00  0.00     0.135 A 
ATOM     88  F   UNL     1      -5.969  -7.715   5.971  1.00  0.00    -0.206 F 
ATOM     89  C   UNL     1      -6.726  -9.534   7.235  1.00  0.00     0.059 A 
ATOM     90  C   UNL     1      -6.470  -9.517   9.638  1.00  0.00     0.059 A 
ATOM     91  F   UNL     1      -5.541  -7.655  10.708  1.00  0.00    -0.206 F 
ATOM     92  C   UNL     1      -6.869 -10.162   8.472  1.00  0.00     0.060 A 
BRANCH  92  93
ATOM     93  S   UNL     1      -7.562 -11.831   8.560  1.00  0.00     0.124 S 
ATOM     94  O   UNL     1      -8.921 -11.627   8.069  1.00  0.00    -0.237 OA
ATOM     95  O   UNL     1      -6.678 -12.590   7.681  1.00  0.00    -0.237 OA
ATOM     96  O   UNL     1      -7.460 -12.170   9.978  1.00  0.00    -0.744 OA
ENDBRANCH  92  93
ENDBRANCH  60  85
ENDBRANCH  34  35
ENDBRANCH  27  29
ENDBRANCH  26  27
ENDBRANCH   1  26
TORSDOF 17
