REMARK SMILES CC1=C(C)C[C@@H](C(=O)OCCOC(=O)c2ccc(-c3c4nc(c(-c5c(F)cc(S(=O)(=O)[O-])cc5F)c5ccc([nH]5)c(-c5c(F)cc(S(=O)(=O)[O-])cc5F)c5nc(c(-c6c(F)cc(S(=O)(=O)[O-])cc6F)c6ccc3[nH]6)C=C5)C=C4)cc2)[C@@H](C(=O)NCC[NH+]2CCOCC2)C1
REMARK SMILES IDX 10 1 9 2 7 3 8 4 6 5 1 6 2 7 3 8 93 9 4 10 5 11 81 12 82 13
REMARK SMILES IDX 83 14 84 15 85 17 86 18 87 19 88 20 92 21 89 23 91 24 90 25
REMARK SMILES IDX 11 26 12 27 13 28 14 29 15 30 16 31 80 32 17 33 79 34 18 35
REMARK SMILES IDX 19 36 20 37 73 38 21 39 78 40 72 41 74 42 22 43 77 44 71 45
REMARK SMILES IDX 70 46 23 48 57 49 36 50 56 51 37 52 40 53 55 54 75 55 38 56
REMARK SMILES IDX 39 57 54 59 76 60 41 61 24 62 25 63 34 64 26 65 27 66 33 67
REMARK SMILES IDX 35 68 28 69 29 70 30 71 31 72 32 73 58 74 59 75 68 76 60 77
REMARK SMILES IDX 61 78 67 79 69 80 62 81 63 82 64 83 65 84 66 85 42 86 43 87
REMARK SMILES IDX 52 88 44 89 45 90 51 91 53 92 46 93 47 94 48 95 49 96 50 97
REMARK H PARENT 84 16 87 22 74 47 40 58
REMARK Flexibility Score: inf
ROOT
ATOM      1  C   UNL     1       1.847   3.791   4.550  1.00  0.00     0.274 C 
ENDROOT
BRANCH   1   2
ATOM      2  O   UNL     1       1.589   3.418   3.177  1.00  0.00    -0.462 OA
BRANCH   2   3
ATOM      3  C   UNL     1       0.316   3.553   2.762  1.00  0.00     0.310 C 
ATOM      4  O   UNL     1      -0.590   3.943   3.498  1.00  0.00    -0.252 OA
BRANCH   3   5
ATOM      5  C   UNL     1       0.019   3.189   1.308  1.00  0.00     0.116 C 
ATOM      6  C   UNL     1       1.225  -0.901   0.120  1.00  0.00     0.039 C 
ATOM      7  C   UNL     1       0.637   0.452   0.428  1.00  0.00    -0.074 C 
ATOM      8  C   UNL     1      -0.471   0.670   1.163  1.00  0.00    -0.073 C 
ATOM      9  C   UNL     1       1.401   1.580  -0.222  1.00  0.00     0.045 C 
ATOM     10  C   UNL     1      -1.305  -0.393   1.829  1.00  0.00     0.039 C 
ATOM     11  C   UNL     1      -1.026   2.063   1.318  1.00  0.00     0.046 C 
ATOM     12  C   UNL     1       1.085   3.026   0.208  1.00  0.00     0.097 C 
BRANCH  12  13
ATOM     13  C   UNL     1       2.391   3.764   0.466  1.00  0.00     0.224 C 
ATOM     14  O   UNL     1       3.309   3.263   1.119  1.00  0.00    -0.275 OA
ATOM     15  N   UNL     1       2.579   5.002  -0.050  1.00  0.00    -0.350 N 
ATOM     16  H   UNL     1       3.373   5.457   0.314  1.00  0.00     0.163 HD
BRANCH  15  17
ATOM     17  C   UNL     1       1.856   5.806  -1.032  1.00  0.00     0.177 C 
BRANCH  17  18
ATOM     18  C   UNL     1       2.000   7.328  -0.763  1.00  0.00     0.283 C 
BRANCH  18  19
ATOM     19  N   UNL     1       3.318   7.676  -0.279  1.00  0.00    -0.330 N 
ATOM     20  C   UNL     1       4.515   7.537  -1.087  1.00  0.00     0.291 C 
ATOM     21  C   UNL     1       3.469   8.622   0.814  1.00  0.00     0.291 C 
ATOM     22  H   UNL     1       3.267   6.745   0.134  1.00  0.00     0.348 HD
ATOM     23  C   UNL     1       5.664   7.093  -0.156  1.00  0.00     0.221 C 
ATOM     24  C   UNL     1       4.592   8.079   1.711  1.00  0.00     0.221 C 
ATOM     25  O   UNL     1       5.825   7.970   0.976  1.00  0.00    -0.370 OA
ENDBRANCH  18  19
ENDBRANCH  17  18
ENDBRANCH  15  17
ENDBRANCH  12  13
ENDBRANCH   3   5
ENDBRANCH   2   3
ENDBRANCH   1   2
BRANCH   1  26
ATOM     26  C   UNL     1       2.246   5.263   4.731  1.00  0.00     0.275 C 
BRANCH  26  27
ATOM     27  O   UNL     1       1.173   6.187   4.446  1.00  0.00    -0.458 OA
BRANCH  27  28
ATOM     28  C   UNL     1       1.160   6.601   3.162  1.00  0.00     0.338 C 
ATOM     29  O   UNL     1       1.950   6.269   2.297  1.00  0.00    -0.246 OA
BRANCH  28  30
ATOM     30  C   UNL     1       0.052   7.500   2.830  1.00  0.00     0.060 A 
ATOM     31  C   UNL     1      -0.972   7.002   2.020  1.00  0.00     0.016 A 
ATOM     32  C   UNL     1       0.163   8.870   3.071  1.00  0.00     0.016 A 
ATOM     33  C   UNL     1      -1.883   7.872   1.431  1.00  0.00     0.010 A 
ATOM     34  C   UNL     1      -0.766   9.743   2.497  1.00  0.00     0.010 A 
ATOM     35  C   UNL     1      -1.788   9.248   1.670  1.00  0.00    -0.014 A 
BRANCH  35  36
ATOM     36  C   UNL     1      -2.849  10.142   1.159  1.00  0.00     0.031 A 
ATOM     37  C   UNL     1      -2.650  10.991  -0.059  1.00  0.00     0.074 A 
ATOM     38  C   UNL     1      -4.016  10.157   1.829  1.00  0.00     0.049 A 
ATOM     39  N   UNL     1      -3.469  11.861  -0.590  1.00  0.00    -0.248 NA
ATOM     40  C   UNL     1      -1.377  10.841  -0.781  1.00  0.00     0.031 C 
ATOM     41  C   UNL     1      -4.314   9.341   3.010  1.00  0.00     0.029 A 
ATOM     42  N   UNL     1      -5.158  10.882   1.625  1.00  0.00    -0.354 N 
ATOM     43  C   UNL     1      -2.816  12.371  -1.704  1.00  0.00     0.074 A 
ATOM     44  C   UNL     1      -1.526  11.713  -1.772  1.00  0.00     0.031 C 
ATOM     45  C   UNL     1      -5.553   9.624   3.436  1.00  0.00     0.029 A 
ATOM     46  C   UNL     1      -6.117  10.664   2.583  1.00  0.00     0.049 A 
ATOM     47  H   UNL     1      -5.281  11.498   0.867  1.00  0.00     0.167 HD
ATOM     48  C   UNL     1      -3.259  13.304  -2.582  1.00  0.00     0.037 A 
ATOM     49  C   UNL     1      -7.305  11.263   2.779  1.00  0.00     0.037 A 
ATOM     50  C   UNL     1      -4.545  13.951  -2.496  1.00  0.00     0.049 A 
ATOM     51  C   UNL     1      -7.745  12.331   1.827  1.00  0.00     0.074 A 
ATOM     52  C   UNL     1      -5.096  14.892  -3.350  1.00  0.00     0.029 A 
ATOM     53  N   UNL     1      -5.477  13.732  -1.492  1.00  0.00    -0.354 N 
ATOM     54  N   UNL     1      -7.116  12.801   0.777  1.00  0.00    -0.248 NA
ATOM     55  C   UNL     1      -9.047  12.955   2.088  1.00  0.00     0.031 C 
ATOM     56  C   UNL     1      -6.349  15.263  -2.845  1.00  0.00     0.029 A 
ATOM     57  C   UNL     1      -6.589  14.535  -1.691  1.00  0.00     0.049 A 
ATOM     58  H   UNL     1      -5.365  13.099  -0.747  1.00  0.00     0.167 HD
ATOM     59  C   UNL     1      -7.944  13.780   0.249  1.00  0.00     0.074 A 
ATOM     60  C   UNL     1      -9.128  13.822   1.087  1.00  0.00     0.031 C 
ATOM     61  C   UNL     1      -7.743  14.575  -0.830  1.00  0.00     0.037 A 
BRANCH  48  62
ATOM     62  C   UNL     1      -2.346  13.701  -3.706  1.00  0.00     0.058 A 
ATOM     63  C   UNL     1      -2.218  12.914  -4.859  1.00  0.00     0.135 A 
ATOM     64  C   UNL     1      -1.650  14.920  -3.661  1.00  0.00     0.135 A 
ATOM     65  F   UNL     1      -2.853  11.734  -4.947  1.00  0.00    -0.206 F 
ATOM     66  C   UNL     1      -1.426  13.319  -5.931  1.00  0.00     0.059 A 
ATOM     67  C   UNL     1      -0.861  15.350  -4.725  1.00  0.00     0.059 A 
ATOM     68  F   UNL     1      -1.738  15.707  -2.578  1.00  0.00    -0.206 F 
ATOM     69  C   UNL     1      -0.750  14.538  -5.854  1.00  0.00     0.060 A 
BRANCH  69  70
ATOM     70  S   UNL     1       0.255  15.066  -7.259  1.00  0.00     0.124 S 
ATOM     71  O   UNL     1       1.450  14.247  -7.084  1.00  0.00    -0.237 OA
ATOM     72  O   UNL     1      -0.589  14.720  -8.399  1.00  0.00    -0.237 OA
ATOM     73  O   UNL     1       0.434  16.496  -7.029  1.00  0.00    -0.744 OA
ENDBRANCH  69  70
ENDBRANCH  48  62
BRANCH  49  74
ATOM     74  C   UNL     1      -8.119  10.878   3.955  1.00  0.00     0.058 A 
ATOM     75  C   UNL     1      -9.240  10.050   3.820  1.00  0.00     0.135 A 
ATOM     76  C   UNL     1      -7.735  11.267   5.248  1.00  0.00     0.135 A 
ATOM     77  F   UNL     1      -9.639   9.655   2.601  1.00  0.00    -0.206 F 
ATOM     78  C   UNL     1      -9.952   9.609   4.930  1.00  0.00     0.059 A 
ATOM     79  C   UNL     1      -8.420  10.826   6.373  1.00  0.00     0.059 A 
ATOM     80  F   UNL     1      -6.655  12.044   5.424  1.00  0.00    -0.206 F 
ATOM     81  C   UNL     1      -9.530   9.998   6.204  1.00  0.00     0.060 A 
BRANCH  81  82
ATOM     82  S   UNL     1     -10.390   9.348   7.653  1.00  0.00     0.124 S 
ATOM     83  O   UNL     1     -11.499  10.285   7.778  1.00  0.00    -0.237 OA
ATOM     84  O   UNL     1     -10.742   7.995   7.231  1.00  0.00    -0.237 OA
ATOM     85  O   UNL     1      -9.373   9.422   8.698  1.00  0.00    -0.744 OA
ENDBRANCH  81  82
ENDBRANCH  49  74
BRANCH  61  86
ATOM     86  C   UNL     1      -8.828  15.559  -1.146  1.00  0.00     0.058 A 
ATOM     87  C   UNL     1      -8.947  16.760  -0.432  1.00  0.00     0.135 A 
ATOM     88  C   UNL     1      -9.755  15.299  -2.167  1.00  0.00     0.135 A 
ATOM     89  F   UNL     1      -8.089  17.044   0.560  1.00  0.00    -0.206 F 
ATOM     90  C   UNL     1      -9.967  17.665  -0.703  1.00  0.00     0.059 A 
ATOM     91  C   UNL     1     -10.774  16.197  -2.465  1.00  0.00     0.059 A 
ATOM     92  F   UNL     1      -9.677  14.164  -2.878  1.00  0.00    -0.206 F 
ATOM     93  C   UNL     1     -10.881  17.370  -1.717  1.00  0.00     0.060 A 
BRANCH  93  94
ATOM     94  S   UNL     1     -12.205  18.546  -2.070  1.00  0.00     0.124 S 
ATOM     95  O   UNL     1     -13.188  18.192  -1.052  1.00  0.00    -0.237 OA
ATOM     96  O   UNL     1     -11.543  19.835  -1.892  1.00  0.00    -0.237 OA
ATOM     97  O   UNL     1     -12.578  18.226  -3.445  1.00  0.00    -0.744 OA
ENDBRANCH  93  94
ENDBRANCH  61  86
ENDBRANCH  35  36
ENDBRANCH  28  30
ENDBRANCH  27  28
ENDBRANCH  26  27
ENDBRANCH   1  26
TORSDOF 18
