REMARK SMILES O=C(OCCOC(=O)c1ccc(-c2c3nc(c(-c4c(F)cc(S(=O)(=O)[O-])cc4F)c4ccc([nH]4)c(-c4c(F)cc(S(=O)(=O)[O-])cc4F)c4nc(c(-c5c(F)cc(S(=O)(=O)[O-])cc5F)c5ccc2[nH]5)C=C4)C=C3)cc1)C1=Cc2c(ccc(Cl)c2Oc2ccccc2)O[C@H]1C(F)(F)F
REMARK SMILES IDX 5 1 4 2 3 3 2 4 1 5 75 6 76 7 92 8 77 9 91 10 78 11 83 12
REMARK SMILES IDX 79 13 81 14 80 15 82 16 93 17 94 18 95 19 96 20 84 21 85 22
REMARK SMILES IDX 86 23 90 24 87 25 89 26 88 27 6 28 7 29 8 30 9 31 10 32
REMARK SMILES IDX 74 33 11 34 73 35 12 36 13 37 14 38 67 39 15 40 72 41 66 42
REMARK SMILES IDX 68 43 16 44 71 45 65 46 64 47 17 49 51 50 30 51 50 52 31 53
REMARK SMILES IDX 34 54 49 55 69 56 32 57 33 58 48 60 70 61 35 62 18 63 19 64
REMARK SMILES IDX 28 65 20 66 21 67 27 68 29 69 22 70 23 71 24 72 25 73 26 74
REMARK SMILES IDX 52 75 53 76 62 77 54 78 55 79 61 80 63 81 56 82 57 83 58 84
REMARK SMILES IDX 59 85 60 86 36 87 37 88 46 89 38 90 39 91 45 92 47 93 40 94
REMARK SMILES IDX 41 95 42 96 43 97 44 98
REMARK H PARENT 68 48 34 59
REMARK Flexibility Score: inf
ROOT
ATOM      1  C   UNL     1       2.546  -1.782  -0.214  1.00  0.00     0.275 C 
ENDROOT
BRANCH   1   2
ATOM      2  C   UNL     1       2.072  -0.338  -0.026  1.00  0.00     0.275 C 
BRANCH   2   3
ATOM      3  O   UNL     1       2.135   0.358  -1.278  1.00  0.00    -0.459 OA
BRANCH   3   4
ATOM      4  C   UNL     1       3.251   1.053  -1.594  1.00  0.00     0.338 C 
ATOM      5  O   UNL     1       3.176   2.127  -2.176  1.00  0.00    -0.246 OA
BRANCH   4   6
ATOM      6  C   UNL     1       4.574   0.406  -1.362  1.00  0.00     0.088 C 
ATOM      7  C   UNL     1       4.875  -0.495  -0.405  1.00  0.00     0.031 C 
ATOM      8  C   UNL     1       5.726   1.173  -1.953  1.00  0.00     0.316 C 
ATOM      9  C   UNL     1       5.521   0.152   0.746  1.00  0.00     0.062 A 
ATOM     10  O   UNL     1       6.858   1.232  -1.018  1.00  0.00    -0.475 OA
ATOM     11  C   UNL     1       6.559   1.024   0.323  1.00  0.00     0.131 A 
ATOM     12  C   UNL     1       5.291  -0.146   2.123  1.00  0.00     0.156 A 
ATOM     13  C   UNL     1       7.416   1.573   1.257  1.00  0.00     0.049 A 
ATOM     14  C   UNL     1       6.152   0.473   3.042  1.00  0.00     0.084 A 
ATOM     15  C   UNL     1       7.202   1.309   2.612  1.00  0.00     0.028 A 
ATOM     16  Cl  UNL     1       6.061   0.121   4.734  1.00  0.00    -0.080 Cl
BRANCH   8  17
ATOM     17  C   UNL     1       6.076   0.524  -3.308  1.00  0.00     0.430 C 
ATOM     18  F   UNL     1       4.958   0.190  -4.002  1.00  0.00    -0.167 F 
ATOM     19  F   UNL     1       6.804   1.346  -4.091  1.00  0.00    -0.167 F 
ATOM     20  F   UNL     1       6.781  -0.621  -3.137  1.00  0.00    -0.167 F 
ENDBRANCH   8  17
BRANCH  12  21
ATOM     21  O   UNL     1       4.704  -1.330   2.562  1.00  0.00    -0.455 OA
BRANCH  21  22
ATOM     22  C   UNL     1       3.376  -1.589   2.850  1.00  0.00     0.127 A 
ATOM     23  C   UNL     1       2.298  -0.721   3.008  1.00  0.00     0.047 A 
ATOM     24  C   UNL     1       3.110  -2.977   2.855  1.00  0.00     0.047 A 
ATOM     25  C   UNL     1       0.975  -1.235   2.979  1.00  0.00     0.004 A 
ATOM     26  C   UNL     1       1.805  -3.485   2.829  1.00  0.00     0.004 A 
ATOM     27  C   UNL     1       0.731  -2.607   2.850  1.00  0.00     0.000 A 
ENDBRANCH  21  22
ENDBRANCH  12  21
ENDBRANCH   4   6
ENDBRANCH   3   4
ENDBRANCH   2   3
ENDBRANCH   1   2
BRANCH   1  28
ATOM     28  O   UNL     1       1.520  -2.739  -0.010  1.00  0.00    -0.458 OA
BRANCH  28  29
ATOM     29  C   UNL     1       0.481  -2.555  -0.845  1.00  0.00     0.338 C 
ATOM     30  O   UNL     1      -0.619  -2.224  -0.492  1.00  0.00    -0.246 OA
BRANCH  29  31
ATOM     31  C   UNL     1       0.897  -2.818  -2.234  1.00  0.00     0.060 A 
ATOM     32  C   UNL     1       0.091  -2.254  -3.210  1.00  0.00     0.016 A 
ATOM     33  C   UNL     1       2.022  -3.616  -2.545  1.00  0.00     0.016 A 
ATOM     34  C   UNL     1       0.293  -2.652  -4.504  1.00  0.00     0.010 A 
ATOM     35  C   UNL     1       2.301  -3.914  -3.855  1.00  0.00     0.010 A 
ATOM     36  C   UNL     1       1.354  -3.524  -4.794  1.00  0.00    -0.014 A 
BRANCH  36  37
ATOM     37  C   UNL     1       1.317  -4.190  -6.084  1.00  0.00     0.031 A 
ATOM     38  C   UNL     1       0.783  -5.586  -6.116  1.00  0.00     0.074 A 
ATOM     39  C   UNL     1       1.630  -3.427  -7.135  1.00  0.00     0.049 A 
ATOM     40  N   UNL     1       0.504  -6.328  -7.146  1.00  0.00    -0.248 NA
ATOM     41  C   UNL     1       0.521  -6.244  -4.819  1.00  0.00     0.031 C 
ATOM     42  C   UNL     1       2.134  -2.050  -7.044  1.00  0.00     0.029 A 
ATOM     43  N   UNL     1       1.530  -3.667  -8.464  1.00  0.00    -0.354 N 
ATOM     44  C   UNL     1       0.049  -7.535  -6.625  1.00  0.00     0.074 A 
ATOM     45  C   UNL     1       0.115  -7.447  -5.189  1.00  0.00     0.031 C 
ATOM     46  C   UNL     1       2.265  -1.554  -8.280  1.00  0.00     0.029 A 
ATOM     47  C   UNL     1       1.905  -2.595  -9.230  1.00  0.00     0.049 A 
ATOM     48  H   UNL     1       1.220  -4.523  -8.840  1.00  0.00     0.167 HD
ATOM     49  C   UNL     1      -0.384  -8.608  -7.323  1.00  0.00     0.037 A 
ATOM     50  C   UNL     1       1.960  -2.504 -10.567  1.00  0.00     0.037 A 
ATOM     51  C   UNL     1      -0.404  -8.591  -8.761  1.00  0.00     0.049 A 
ATOM     52  C   UNL     1       1.472  -3.704 -11.321  1.00  0.00     0.074 A 
ATOM     53  C   UNL     1      -0.789  -9.578  -9.642  1.00  0.00     0.029 A 
ATOM     54  N   UNL     1      -0.001  -7.495  -9.527  1.00  0.00    -0.354 N 
ATOM     55  N   UNL     1       1.028  -4.845 -10.834  1.00  0.00    -0.248 NA
ATOM     56  C   UNL     1       1.471  -3.622 -12.778  1.00  0.00     0.031 C 
ATOM     57  C   UNL     1      -0.573  -9.094 -10.939  1.00  0.00     0.029 A 
ATOM     58  C   UNL     1      -0.105  -7.784 -10.871  1.00  0.00     0.049 A 
ATOM     59  H   UNL     1       0.313  -6.637  -9.159  1.00  0.00     0.167 HD
ATOM     60  C   UNL     1       0.689  -5.624 -11.924  1.00  0.00     0.074 A 
ATOM     61  C   UNL     1       0.966  -4.807 -13.098  1.00  0.00     0.031 C 
ATOM     62  C   UNL     1       0.201  -6.891 -11.969  1.00  0.00     0.037 A 
BRANCH  49  63
ATOM     63  C   UNL     1      -0.769  -9.839  -6.544  1.00  0.00     0.058 A 
ATOM     64  C   UNL     1      -1.893  -9.877  -5.698  1.00  0.00     0.135 A 
ATOM     65  C   UNL     1       0.045 -10.983  -6.582  1.00  0.00     0.135 A 
ATOM     66  F   UNL     1      -2.695  -8.806  -5.593  1.00  0.00    -0.206 F 
ATOM     67  C   UNL     1      -2.168 -10.980  -4.890  1.00  0.00     0.059 A 
ATOM     68  C   UNL     1      -0.225 -12.107  -5.802  1.00  0.00     0.059 A 
ATOM     69  F   UNL     1       1.141 -11.007  -7.356  1.00  0.00    -0.206 F 
ATOM     70  C   UNL     1      -1.321 -12.088  -4.941  1.00  0.00     0.060 A 
BRANCH  70  71
ATOM     71  S   UNL     1      -1.657 -13.492  -3.854  1.00  0.00     0.124 S 
ATOM     72  O   UNL     1      -1.246 -12.963  -2.557  1.00  0.00    -0.237 OA
ATOM     73  O   UNL     1      -3.092 -13.690  -4.031  1.00  0.00    -0.237 OA
ATOM     74  O   UNL     1      -0.811 -14.552  -4.395  1.00  0.00    -0.744 OA
ENDBRANCH  70  71
ENDBRANCH  49  63
BRANCH  50  75
ATOM     75  C   UNL     1       2.502  -1.266 -11.177  1.00  0.00     0.058 A 
ATOM     76  C   UNL     1       1.680  -0.340 -11.828  1.00  0.00     0.135 A 
ATOM     77  C   UNL     1       3.850  -0.912 -10.973  1.00  0.00     0.135 A 
ATOM     78  F   UNL     1       0.382  -0.616 -12.026  1.00  0.00    -0.206 F 
ATOM     79  C   UNL     1       2.171   0.893 -12.256  1.00  0.00     0.059 A 
ATOM     80  C   UNL     1       4.356   0.321 -11.368  1.00  0.00     0.059 A 
ATOM     81  F   UNL     1       4.671  -1.747 -10.315  1.00  0.00    -0.206 F 
ATOM     82  C   UNL     1       3.509   1.216 -12.015  1.00  0.00     0.060 A 
BRANCH  82  83
ATOM     83  S   UNL     1       4.119   2.842 -12.514  1.00  0.00     0.124 S 
ATOM     84  O   UNL     1       4.161   2.704 -13.966  1.00  0.00    -0.237 OA
ATOM     85  O   UNL     1       3.089   3.732 -11.987  1.00  0.00    -0.237 OA
ATOM     86  O   UNL     1       5.416   2.935 -11.851  1.00  0.00    -0.744 OA
ENDBRANCH  82  83
ENDBRANCH  50  75
BRANCH  62  87
ATOM     87  C   UNL     1      -0.065  -7.434 -13.334  1.00  0.00     0.058 A 
ATOM     88  C   UNL     1       0.982  -7.895 -14.144  1.00  0.00     0.135 A 
ATOM     89  C   UNL     1      -1.385  -7.585 -13.782  1.00  0.00     0.135 A 
ATOM     90  F   UNL     1       2.257  -7.755 -13.749  1.00  0.00    -0.206 F 
ATOM     91  C   UNL     1       0.725  -8.492 -15.367  1.00  0.00     0.059 A 
ATOM     92  C   UNL     1      -1.665  -8.205 -14.989  1.00  0.00     0.059 A 
ATOM     93  F   UNL     1      -2.410  -7.164 -13.024  1.00  0.00    -0.206 F 
ATOM     94  C   UNL     1      -0.602  -8.653 -15.775  1.00  0.00     0.060 A 
BRANCH  94  95
ATOM     95  S   UNL     1      -0.923  -9.507 -17.328  1.00  0.00     0.124 S 
ATOM     96  O   UNL     1      -0.549  -8.488 -18.303  1.00  0.00    -0.237 OA
ATOM     97  O   UNL     1      -0.031 -10.659 -17.238  1.00  0.00    -0.237 OA
ATOM     98  O   UNL     1      -2.348  -9.817 -17.255  1.00  0.00    -0.744 OA
ENDBRANCH  94  95
ENDBRANCH  62  87
ENDBRANCH  36  37
ENDBRANCH  29  31
ENDBRANCH  28  29
ENDBRANCH   1  28
TORSDOF 17
