REMARK SMILES Cc1ccc(S(=O)(=O)n2cc(C(=O)C(=O)NCC(=O)OCCOC(=O)c3ccc(-c4c5nc(c(-c6c(F)cc(S(=O)(=O)[O-])cc6F)c6ccc([nH]6)c(-c6c(F)cc(S(=O)(=O)[O-])cc6F)c6nc(c(-c7c(F)cc(S(=O)(=O)[O-])cc7F)c7ccc4[nH]7)C=C6)C=C5)cc3)c3ccccc32)cc1
REMARK SMILES IDX 21 1 20 2 18 3 19 4 17 5 16 6 14 7 15 8 12 10 13 11 11 12
REMARK SMILES IDX 9 13 10 14 97 15 92 16 96 17 93 18 95 19 94 20 6 21 7 22
REMARK SMILES IDX 8 23 5 24 1 25 2 26 3 27 99 28 4 29 98 30 22 31 23 32 24 33
REMARK SMILES IDX 25 34 26 35 27 36 91 37 28 38 90 39 29 40 30 41 31 42 84 43
REMARK SMILES IDX 32 44 89 45 83 46 85 47 33 48 88 49 82 50 81 51 34 53 68 54
REMARK SMILES IDX 47 55 67 56 48 57 51 58 66 59 86 60 49 61 50 62 65 64 87 65
REMARK SMILES IDX 52 66 35 67 36 68 45 69 37 70 38 71 44 72 46 73 39 74 40 75
REMARK SMILES IDX 41 76 42 77 43 78 69 79 70 80 79 81 71 82 72 83 78 84 80 85
REMARK SMILES IDX 73 86 74 87 75 88 76 89 77 90 53 91 54 92 63 93 55 94 56 95
REMARK SMILES IDX 62 96 64 97 57 98 58 99 59 100 60 101 61 102
REMARK H PARENT 16 9 85 52 51 63
REMARK Flexibility Score: inf
ROOT
ATOM      1  C   UNL     1     -11.614   3.962   2.165  1.00  0.00     0.274 C 
ENDROOT
BRANCH   1   2
ATOM      2  O   UNL     1     -10.212   3.691   2.235  1.00  0.00    -0.461 OA
BRANCH   2   3
ATOM      3  C   UNL     1      -9.510   4.141   1.165  1.00  0.00     0.325 C 
ATOM      4  O   UNL     1     -10.013   4.505   0.109  1.00  0.00    -0.250 OA
BRANCH   3   5
ATOM      5  C   UNL     1      -8.016   4.212   1.440  1.00  0.00     0.239 C 
BRANCH   5   6
ATOM      6  N   UNL     1      -7.507   3.657   2.680  1.00  0.00    -0.338 N 
ATOM      7  C   UNL     1      -6.159   3.542   2.947  1.00  0.00     0.292 C 
ATOM      8  O   UNL     1      -5.699   3.018   3.951  1.00  0.00    -0.265 OA
ATOM      9  H   UNL     1      -8.151   3.349   3.358  1.00  0.00     0.164 HD
BRANCH   7  10
ATOM     10  C   UNL     1      -5.215   4.093   1.866  1.00  0.00     0.252 C 
ATOM     11  O   UNL     1      -5.000   5.300   1.854  1.00  0.00    -0.283 OA
BRANCH  10  12
ATOM     12  C   UNL     1      -4.717   3.195   0.828  1.00  0.00     0.054 A 
ATOM     13  N   UNL     1      -4.069   1.348  -0.227  1.00  0.00    -0.240 N 
ATOM     14  C   UNL     1      -4.605   1.824   0.939  1.00  0.00     0.117 A 
ATOM     15  C   UNL     1      -3.864   2.365  -1.138  1.00  0.00     0.065 A 
ATOM     16  C   UNL     1      -4.263   3.545  -0.489  1.00  0.00     0.012 A 
ATOM     17  C   UNL     1      -3.330   2.382  -2.439  1.00  0.00     0.028 A 
ATOM     18  C   UNL     1      -4.152   4.768  -1.187  1.00  0.00     0.011 A 
ATOM     19  C   UNL     1      -3.218   3.610  -3.095  1.00  0.00     0.002 A 
ATOM     20  C   UNL     1      -3.630   4.787  -2.483  1.00  0.00     0.001 A 
BRANCH  13  21
ATOM     21  S   UNL     1      -3.444  -0.229  -0.379  1.00  0.00     0.268 S 
ATOM     22  O   UNL     1      -3.687  -0.640  -1.735  1.00  0.00    -0.201 OA
ATOM     23  O   UNL     1      -3.986  -0.974   0.758  1.00  0.00    -0.201 OA
BRANCH  21  24
ATOM     24  C   UNL     1      -1.690  -0.116  -0.138  1.00  0.00     0.088 A 
ATOM     25  C   UNL     1       2.603  -0.050   0.071  1.00  0.00     0.044 C 
ATOM     26  C   UNL     1       1.104  -0.072   0.036  1.00  0.00    -0.051 A 
ATOM     27  C   UNL     1       0.422  -1.290  -0.077  1.00  0.00     0.005 A 
ATOM     28  C   UNL     1       0.372   1.118   0.104  1.00  0.00     0.005 A 
ATOM     29  C   UNL     1      -0.970  -1.314  -0.168  1.00  0.00     0.022 A 
ATOM     30  C   UNL     1      -1.022   1.100   0.027  1.00  0.00     0.022 A 
ENDBRANCH  21  24
ENDBRANCH  13  21
ENDBRANCH  10  12
ENDBRANCH   7  10
ENDBRANCH   5   6
ENDBRANCH   3   5
ENDBRANCH   2   3
ENDBRANCH   1   2
BRANCH   1  31
ATOM     31  C   UNL     1     -12.225   4.006   3.575  1.00  0.00     0.275 C 
BRANCH  31  32
ATOM     32  O   UNL     1     -11.684   4.926   4.563  1.00  0.00    -0.458 OA
BRANCH  32  33
ATOM     33  C   UNL     1     -10.366   5.271   4.540  1.00  0.00     0.338 C 
ATOM     34  O   UNL     1      -9.459   4.525   4.880  1.00  0.00    -0.246 OA
BRANCH  33  35
ATOM     35  C   UNL     1     -10.175   6.510   3.732  1.00  0.00     0.060 A 
ATOM     36  C   UNL     1      -8.890   6.942   3.366  1.00  0.00     0.016 A 
ATOM     37  C   UNL     1     -11.284   6.972   3.042  1.00  0.00     0.016 A 
ATOM     38  C   UNL     1      -8.713   7.690   2.193  1.00  0.00     0.010 A 
ATOM     39  C   UNL     1     -11.086   7.487   1.792  1.00  0.00     0.010 A 
ATOM     40  C   UNL     1      -9.812   7.883   1.357  1.00  0.00    -0.014 A 
BRANCH  40  41
ATOM     41  C   UNL     1      -9.815   8.556   0.054  1.00  0.00     0.031 A 
ATOM     42  C   UNL     1      -9.006   8.115  -1.108  1.00  0.00     0.074 A 
ATOM     43  C   UNL     1     -10.730   9.552  -0.031  1.00  0.00     0.049 A 
ATOM     44  N   UNL     1      -8.822   8.824  -2.167  1.00  0.00    -0.248 NA
ATOM     45  C   UNL     1      -8.336   6.824  -1.207  1.00  0.00     0.031 C 
ATOM     46  C   UNL     1     -11.204  10.335  -1.157  1.00  0.00     0.029 A 
ATOM     47  N   UNL     1     -11.314  10.189   1.075  1.00  0.00    -0.354 N 
ATOM     48  C   UNL     1      -8.260   8.026  -3.147  1.00  0.00     0.074 A 
ATOM     49  C   UNL     1      -7.941   6.789  -2.487  1.00  0.00     0.031 C 
ATOM     50  C   UNL     1     -11.674  11.508  -0.682  1.00  0.00     0.029 A 
ATOM     51  C   UNL     1     -11.399  11.537   0.753  1.00  0.00     0.049 A 
ATOM     52  H   UNL     1     -11.606   9.764   1.914  1.00  0.00     0.167 HD
ATOM     53  C   UNL     1      -8.250   8.480  -4.433  1.00  0.00     0.037 A 
ATOM     54  C   UNL     1     -10.547  12.379   1.410  1.00  0.00     0.037 A 
ATOM     55  C   UNL     1      -8.689   9.872  -4.455  1.00  0.00     0.049 A 
ATOM     56  C   UNL     1      -9.588  12.983   0.418  1.00  0.00     0.074 A 
ATOM     57  C   UNL     1      -9.939  10.443  -4.625  1.00  0.00     0.029 A 
ATOM     58  N   UNL     1      -7.894  10.834  -3.835  1.00  0.00    -0.354 N 
ATOM     59  N   UNL     1      -9.123  12.366  -0.638  1.00  0.00    -0.248 NA
ATOM     60  C   UNL     1      -9.235  14.396   0.460  1.00  0.00     0.031 C 
ATOM     61  C   UNL     1      -9.930  11.700  -3.968  1.00  0.00     0.029 A 
ATOM     62  C   UNL     1      -8.670  11.903  -3.425  1.00  0.00     0.049 A 
ATOM     63  H   UNL     1      -6.921  10.764  -3.708  1.00  0.00     0.167 HD
ATOM     64  C   UNL     1      -8.525  13.288  -1.457  1.00  0.00     0.074 A 
ATOM     65  C   UNL     1      -8.593  14.535  -0.711  1.00  0.00     0.031 C 
ATOM     66  C   UNL     1      -8.082  13.030  -2.724  1.00  0.00     0.037 A 
BRANCH  53  67
ATOM     67  C   UNL     1      -8.109   7.613  -5.667  1.00  0.00     0.058 A 
ATOM     68  C   UNL     1      -8.886   7.890  -6.817  1.00  0.00     0.135 A 
ATOM     69  C   UNL     1      -7.269   6.487  -5.783  1.00  0.00     0.135 A 
ATOM     70  F   UNL     1      -9.722   8.935  -6.862  1.00  0.00    -0.206 F 
ATOM     71  C   UNL     1      -8.868   7.099  -7.968  1.00  0.00     0.059 A 
ATOM     72  C   UNL     1      -7.256   5.657  -6.919  1.00  0.00     0.059 A 
ATOM     73  F   UNL     1      -6.407   6.168  -4.806  1.00  0.00    -0.206 F 
ATOM     74  C   UNL     1      -8.060   5.973  -8.009  1.00  0.00     0.060 A 
BRANCH  74  75
ATOM     75  S   UNL     1      -8.089   4.959  -9.503  1.00  0.00     0.124 S 
ATOM     76  O   UNL     1      -9.508   4.640  -9.633  1.00  0.00    -0.237 OA
ATOM     77  O   UNL     1      -7.554   5.876 -10.504  1.00  0.00    -0.237 OA
ATOM     78  O   UNL     1      -7.228   3.829  -9.166  1.00  0.00    -0.744 OA
ENDBRANCH  74  75
ENDBRANCH  53  67
BRANCH  54  79
ATOM     79  C   UNL     1     -10.273  11.949   2.831  1.00  0.00     0.058 A 
ATOM     80  C   UNL     1     -11.390  11.784   3.688  1.00  0.00     0.135 A 
ATOM     81  C   UNL     1      -9.074  11.358   3.259  1.00  0.00     0.135 A 
ATOM     82  F   UNL     1     -12.575  12.323   3.350  1.00  0.00    -0.206 F 
ATOM     83  C   UNL     1     -11.362  10.968   4.819  1.00  0.00     0.059 A 
ATOM     84  C   UNL     1      -9.016  10.551   4.411  1.00  0.00     0.059 A 
ATOM     85  F   UNL     1      -7.960  11.478   2.523  1.00  0.00    -0.206 F 
ATOM     86  C   UNL     1     -10.177  10.322   5.154  1.00  0.00     0.060 A 
BRANCH  86  87
ATOM     87  S   UNL     1     -10.238   9.077   6.473  1.00  0.00     0.124 S 
ATOM     88  O   UNL     1     -10.372   9.906   7.666  1.00  0.00    -0.237 OA
ATOM     89  O   UNL     1     -11.423   8.301   6.112  1.00  0.00    -0.237 OA
ATOM     90  O   UNL     1      -8.970   8.369   6.334  1.00  0.00    -0.744 OA
ENDBRANCH  86  87
ENDBRANCH  54  79
BRANCH  66  91
ATOM     91  C   UNL     1      -7.145  13.934  -3.481  1.00  0.00     0.058 A 
ATOM     92  C   UNL     1      -6.201  14.754  -2.841  1.00  0.00     0.135 A 
ATOM     93  C   UNL     1      -7.063  13.882  -4.893  1.00  0.00     0.135 A 
ATOM     94  F   UNL     1      -6.085  14.779  -1.506  1.00  0.00    -0.206 F 
ATOM     95  C   UNL     1      -5.312  15.553  -3.550  1.00  0.00     0.059 A 
ATOM     96  C   UNL     1      -6.134  14.618  -5.617  1.00  0.00     0.059 A 
ATOM     97  F   UNL     1      -7.872  13.098  -5.621  1.00  0.00    -0.206 F 
ATOM     98  C   UNL     1      -5.289  15.482  -4.938  1.00  0.00     0.060 A 
BRANCH  98  99
ATOM     99  S   UNL     1      -4.117  16.493  -5.850  1.00  0.00     0.124 S 
ATOM    100  O   UNL     1      -4.867  17.737  -5.996  1.00  0.00    -0.237 OA
ATOM    101  O   UNL     1      -2.971  16.548  -4.948  1.00  0.00    -0.237 OA
ATOM    102  O   UNL     1      -3.904  15.733  -7.078  1.00  0.00    -0.744 OA
ENDBRANCH  98  99
ENDBRANCH  66  91
ENDBRANCH  40  41
ENDBRANCH  33  35
ENDBRANCH  32  33
ENDBRANCH  31  32
ENDBRANCH   1  31
TORSDOF 19
