REMARK SMILES C[C@H](Cc1ccco1)[NH2+]Cc1cc(C(=O)OCCOC(=O)c2ccc(-c3c4nc(c(-c5c(F)cc(S(=O)(=O)[O-])cc5F)c5ccc([nH]5)c(-c5c(F)cc(S(=O)(=O)[O-])cc5F)c5nc(c(-c6c(F)cc(S(=O)(=O)[O-])cc6F)c6ccc3[nH]6)C=C5)C=C4)cc2)cs1
REMARK SMILES IDX 17 1 16 2 14 3 15 4 13 5 11 6 12 7 89 8 88 9 10 10 9 11 2 14
REMARK SMILES IDX 1 15 3 16 4 17 5 18 8 19 6 20 7 21 18 22 19 23 20 24 21 25
REMARK SMILES IDX 22 26 23 27 87 28 24 29 86 30 25 31 26 32 27 33 80 34 28 35
REMARK SMILES IDX 85 36 79 37 81 38 29 39 84 40 78 41 77 42 30 44 64 45 43 46
REMARK SMILES IDX 63 47 44 48 47 49 62 50 82 51 45 52 46 53 61 55 83 56 48 57
REMARK SMILES IDX 31 58 32 59 41 60 33 61 34 62 40 63 42 64 35 65 36 66 37 67
REMARK SMILES IDX 38 68 39 69 65 70 66 71 75 72 67 73 68 74 74 75 76 76 69 77
REMARK SMILES IDX 70 78 71 79 72 80 73 81 49 82 50 83 59 84 51 85 52 86 58 87
REMARK SMILES IDX 60 88 53 89 54 90 55 91 56 92 57 93
REMARK H PARENT 9 12 9 13 81 43 47 54
REMARK Flexibility Score: inf
ROOT
ATOM      1  C   UNL     1      -2.877   8.816   3.146  1.00  0.00     0.275 C 
ENDROOT
BRANCH   1   2
ATOM      2  O   UNL     1      -2.590   7.437   2.848  1.00  0.00    -0.458 OA
BRANCH   2   3
ATOM      3  C   UNL     1      -2.385   7.178   1.525  1.00  0.00     0.339 C 
ATOM      4  O   UNL     1      -2.451   8.029   0.642  1.00  0.00    -0.246 OA
BRANCH   3   5
ATOM      5  C   UNL     1      -2.074   5.782   1.230  1.00  0.00     0.071 A 
ATOM      6  C   UNL     1      -1.619   3.476   1.478  1.00  0.00     0.060 A 
ATOM      7  C   UNL     1      -1.934   4.663   2.127  1.00  0.00     0.037 A 
ATOM      8  S   UNL     1      -1.561   3.722  -0.219  1.00  0.00    -0.142 S 
ATOM      9  C   UNL     1      -1.846   5.382  -0.073  1.00  0.00     0.081 A 
BRANCH   6  10
ATOM     10  C   UNL     1      -1.401   2.105   2.090  1.00  0.00     0.308 C 
BRANCH  10  11
ATOM     11  N   UNL     1      -1.019   1.061   1.133  1.00  0.00    -0.339 N 
ATOM     12  H   UNL     1      -1.512   0.207   1.395  1.00  0.00     0.346 HD
ATOM     13  H   UNL     1      -1.268   1.431   0.217  1.00  0.00     0.346 HD
BRANCH  11  14
ATOM     14  C   UNL     1       0.419   0.739   1.046  1.00  0.00     0.187 C 
ATOM     15  C   UNL     1       1.383   1.929   0.966  1.00  0.00     0.075 C 
BRANCH  14  16
ATOM     16  C   UNL     1       0.688  -0.282  -0.096  1.00  0.00     0.140 C 
BRANCH  16  17
ATOM     17  C   UNL     1       0.626   0.242  -1.495  1.00  0.00     0.109 A 
ATOM     18  C   UNL     1      -0.309   0.926  -2.247  1.00  0.00     0.046 A 
ATOM     19  O   UNL     1       1.707  -0.049  -2.281  1.00  0.00    -0.469 OA
ATOM     20  C   UNL     1       0.251   1.110  -3.534  1.00  0.00     0.042 A 
ATOM     21  C   UNL     1       1.470   0.479  -3.510  1.00  0.00     0.195 A 
ENDBRANCH  16  17
ENDBRANCH  14  16
ENDBRANCH  11  14
ENDBRANCH  10  11
ENDBRANCH   6  10
ENDBRANCH   3   5
ENDBRANCH   2   3
ENDBRANCH   1   2
BRANCH   1  22
ATOM     22  C   UNL     1      -1.630   9.593   3.580  1.00  0.00     0.275 C 
BRANCH  22  23
ATOM     23  O   UNL     1      -0.633   9.675   2.543  1.00  0.00    -0.458 OA
BRANCH  23  24
ATOM     24  C   UNL     1       0.326   8.719   2.598  1.00  0.00     0.338 C 
ATOM     25  O   UNL     1       0.409   7.814   3.412  1.00  0.00    -0.246 OA
BRANCH  24  26
ATOM     26  C   UNL     1       1.243   8.843   1.453  1.00  0.00     0.060 A 
ATOM     27  C   UNL     1       1.206   7.851   0.472  1.00  0.00     0.016 A 
ATOM     28  C   UNL     1       2.220   9.841   1.411  1.00  0.00     0.016 A 
ATOM     29  C   UNL     1       2.157   7.838  -0.547  1.00  0.00     0.010 A 
ATOM     30  C   UNL     1       3.165   9.835   0.374  1.00  0.00     0.010 A 
ATOM     31  C   UNL     1       3.154   8.824  -0.604  1.00  0.00    -0.014 A 
BRANCH  31  32
ATOM     32  C   UNL     1       4.208   8.756  -1.656  1.00  0.00     0.031 A 
ATOM     33  C   UNL     1       5.638   8.468  -1.280  1.00  0.00     0.074 A 
ATOM     34  C   UNL     1       3.884   8.922  -2.954  1.00  0.00     0.049 A 
ATOM     35  N   UNL     1       6.710   8.473  -2.033  1.00  0.00    -0.248 NA
ATOM     36  C   UNL     1       5.897   8.136   0.129  1.00  0.00     0.031 C 
ATOM     37  C   UNL     1       2.533   9.163  -3.462  1.00  0.00     0.029 A 
ATOM     38  N   UNL     1       4.666   8.906  -4.083  1.00  0.00    -0.354 N 
ATOM     39  C   UNL     1       7.774   8.183  -1.186  1.00  0.00     0.074 A 
ATOM     40  C   UNL     1       7.218   8.015   0.141  1.00  0.00     0.031 C 
ATOM     41  C   UNL     1       2.578   9.252  -4.801  1.00  0.00     0.029 A 
ATOM     42  C   UNL     1       3.965   9.136  -5.243  1.00  0.00     0.049 A 
ATOM     43  H   UNL     1       5.637   8.746  -4.063  1.00  0.00     0.167 HD
ATOM     44  C   UNL     1       9.091   8.066  -1.485  1.00  0.00     0.037 A 
ATOM     45  C   UNL     1       4.389   9.271  -6.515  1.00  0.00     0.037 A 
ATOM     46  C   UNL     1       9.637   8.194  -2.813  1.00  0.00     0.049 A 
ATOM     47  C   UNL     1       5.859   9.167  -6.821  1.00  0.00     0.074 A 
ATOM     48  C   UNL     1      10.957   8.079  -3.216  1.00  0.00     0.029 A 
ATOM     49  N   UNL     1       8.895   8.453  -3.956  1.00  0.00    -0.354 N 
ATOM     50  N   UNL     1       6.856   8.931  -6.002  1.00  0.00    -0.248 NA
ATOM     51  C   UNL     1       6.263   9.362  -8.220  1.00  0.00     0.031 C 
ATOM     52  C   UNL     1      11.018   8.302  -4.596  1.00  0.00     0.029 A 
ATOM     53  C   UNL     1       9.730   8.515  -5.060  1.00  0.00     0.049 A 
ATOM     54  H   UNL     1       7.919   8.575  -3.979  1.00  0.00     0.167 HD
ATOM     55  C   UNL     1       8.003   8.938  -6.787  1.00  0.00     0.074 A 
ATOM     56  C   UNL     1       7.576   9.185  -8.149  1.00  0.00     0.031 C 
ATOM     57  C   UNL     1       9.294   8.760  -6.412  1.00  0.00     0.037 A 
BRANCH  44  58
ATOM     58  C   UNL     1      10.044   7.819  -0.348  1.00  0.00     0.058 A 
ATOM     59  C   UNL     1      10.132   6.574   0.293  1.00  0.00     0.135 A 
ATOM     60  C   UNL     1      10.907   8.840   0.086  1.00  0.00     0.135 A 
ATOM     61  F   UNL     1       9.322   5.568  -0.072  1.00  0.00    -0.206 F 
ATOM     62  C   UNL     1      11.018   6.358   1.345  1.00  0.00     0.059 A 
ATOM     63  C   UNL     1      11.817   8.640   1.119  1.00  0.00     0.059 A 
ATOM     64  F   UNL     1      10.868  10.050  -0.495  1.00  0.00    -0.206 F 
ATOM     65  C   UNL     1      11.853   7.400   1.754  1.00  0.00     0.060 A 
BRANCH  65  66
ATOM     66  S   UNL     1      12.991   7.112   3.127  1.00  0.00     0.124 S 
ATOM     67  O   UNL     1      12.083   7.152   4.269  1.00  0.00    -0.237 OA
ATOM     68  O   UNL     1      13.547   5.801   2.806  1.00  0.00    -0.237 OA
ATOM     69  O   UNL     1      13.928   8.227   3.031  1.00  0.00    -0.744 OA
ENDBRANCH  65  66
ENDBRANCH  44  58
BRANCH  45  70
ATOM     70  C   UNL     1       3.406   9.551  -7.595  1.00  0.00     0.058 A 
ATOM     71  C   UNL     1       3.095   8.584  -8.561  1.00  0.00     0.135 A 
ATOM     72  C   UNL     1       2.743  10.786  -7.669  1.00  0.00     0.135 A 
ATOM     73  F   UNL     1       3.713   7.393  -8.541  1.00  0.00    -0.206 F 
ATOM     74  C   UNL     1       2.163   8.830  -9.564  1.00  0.00     0.059 A 
ATOM     75  C   UNL     1       1.788  11.047  -8.646  1.00  0.00     0.059 A 
ATOM     76  F   UNL     1       3.000  11.743  -6.763  1.00  0.00    -0.206 F 
ATOM     77  C   UNL     1       1.510  10.064  -9.595  1.00  0.00     0.060 A 
BRANCH  77  78
ATOM     78  S   UNL     1       0.249  10.352 -10.856  1.00  0.00     0.124 S 
ATOM     79  O   UNL     1       1.068  10.594 -12.038  1.00  0.00    -0.237 OA
ATOM     80  O   UNL     1      -0.495   9.096 -10.841  1.00  0.00    -0.237 OA
ATOM     81  O   UNL     1      -0.479  11.508 -10.342  1.00  0.00    -0.744 OA
ENDBRANCH  77  78
ENDBRANCH  45  70
BRANCH  57  82
ATOM     82  C   UNL     1      10.338   8.801  -7.492  1.00  0.00     0.058 A 
ATOM     83  C   UNL     1      10.742  10.010  -8.080  1.00  0.00     0.135 A 
ATOM     84  C   UNL     1      10.973   7.622  -7.915  1.00  0.00     0.135 A 
ATOM     85  F   UNL     1      10.162  11.165  -7.716  1.00  0.00    -0.206 F 
ATOM     86  C   UNL     1      11.726  10.047  -9.064  1.00  0.00     0.059 A 
ATOM     87  C   UNL     1      11.974   7.638  -8.881  1.00  0.00     0.059 A 
ATOM     88  F   UNL     1      10.629   6.440  -7.379  1.00  0.00    -0.206 F 
ATOM     89  C   UNL     1      12.336   8.854  -9.459  1.00  0.00     0.060 A 
BRANCH  89  90
ATOM     90  S   UNL     1      13.631   8.917 -10.715  1.00  0.00     0.124 S 
ATOM     91  O   UNL     1      12.850   9.103 -11.934  1.00  0.00    -0.237 OA
ATOM     92  O   UNL     1      14.427  10.065 -10.291  1.00  0.00    -0.237 OA
ATOM     93  O   UNL     1      14.293   7.622 -10.584  1.00  0.00    -0.744 OA
ENDBRANCH  89  90
ENDBRANCH  57  82
ENDBRANCH  31  32
ENDBRANCH  24  26
ENDBRANCH  23  24
ENDBRANCH  22  23
ENDBRANCH   1  22
TORSDOF 19
