REMARK SMILES C[C@H]1[C@H](C(=O)OCCOC(=O)c2ccc(-c3c4nc(c(-c5c(F)cc(S(=O)(=O)[O-])cc5F)c5ccc([nH]5)c(-c5c(F)cc(S(=O)(=O)[O-])cc5F)c5nc(c(-c6c(F)cc(S(=O)(=O)[O-])cc6F)c6ccc3[nH]6)C=C5)C=C4)cc2)CCN1C(=O)COc1ccccc1F
REMARK SMILES IDX 7 1 6 2 4 3 5 4 3 5 1 6 2 7 80 8 78 9 79 10 81 11 82 12
REMARK SMILES IDX 83 13 84 14 85 15 86 16 90 17 87 18 89 19 91 20 88 21 8 22
REMARK SMILES IDX 9 23 10 24 11 25 12 26 13 27 77 28 14 29 76 30 15 31 16 32
REMARK SMILES IDX 17 33 70 34 18 35 75 36 69 37 71 38 19 39 74 40 68 41 67 42
REMARK SMILES IDX 20 44 54 45 33 46 53 47 34 48 37 49 52 50 72 51 35 52 36 53
REMARK SMILES IDX 51 55 73 56 38 57 21 58 22 59 31 60 23 61 24 62 30 63 32 64
REMARK SMILES IDX 25 65 26 66 27 67 28 68 29 69 55 70 56 71 65 72 57 73 58 74
REMARK SMILES IDX 64 75 66 76 59 77 60 78 61 79 62 80 63 81 39 82 40 83 49 84
REMARK SMILES IDX 41 85 42 86 48 87 50 88 43 89 44 90 45 91 46 92 47 93
REMARK H PARENT 71 43 37 54
REMARK Flexibility Score: inf
ROOT
ATOM      1  C   UNL     1      -0.381   2.901   3.437  1.00  0.00     0.274 C 
ENDROOT
BRANCH   1   2
ATOM      2  O   UNL     1      -0.357   1.824   2.479  1.00  0.00    -0.462 OA
BRANCH   2   3
ATOM      3  C   UNL     1      -0.733   2.144   1.216  1.00  0.00     0.311 C 
ATOM      4  O   UNL     1      -1.150   3.245   0.874  1.00  0.00    -0.252 OA
BRANCH   3   5
ATOM      5  C   UNL     1      -0.666   0.985   0.251  1.00  0.00     0.123 C 
ATOM      6  C   UNL     1       1.560   0.063  -0.454  1.00  0.00     0.032 C 
ATOM      7  C   UNL     1       0.403  -0.097   0.535  1.00  0.00     0.096 C 
ATOM      8  N   UNL     1      -0.330  -1.366   0.371  1.00  0.00    -0.336 N 
ATOM      9  C   UNL     1      -2.005   0.255   0.234  1.00  0.00     0.039 C 
ATOM     10  C   UNL     1      -1.634  -1.136  -0.218  1.00  0.00     0.121 C 
BRANCH   8  11
ATOM     11  C   UNL     1       0.011  -2.639   0.778  1.00  0.00     0.260 C 
ATOM     12  O   UNL     1      -0.838  -3.535   0.866  1.00  0.00    -0.271 OA
BRANCH  11  13
ATOM     13  C   UNL     1       1.464  -2.956   1.153  1.00  0.00     0.329 C 
BRANCH  13  14
ATOM     14  O   UNL     1       2.567  -2.670   0.319  1.00  0.00    -0.481 OA
BRANCH  14  15
ATOM     15  C   UNL     1       2.711  -3.307  -0.880  1.00  0.00     0.155 A 
ATOM     16  C   UNL     1       4.040  -3.556  -1.240  1.00  0.00     0.049 A 
ATOM     17  C   UNL     1       1.714  -3.590  -1.814  1.00  0.00     0.165 A 
ATOM     18  C   UNL     1       4.360  -4.091  -2.492  1.00  0.00     0.004 A 
ATOM     19  C   UNL     1       2.025  -4.120  -3.066  1.00  0.00     0.043 A 
ATOM     20  F   UNL     1       0.429  -3.302  -1.594  1.00  0.00    -0.203 F 
ATOM     21  C   UNL     1       3.350  -4.371  -3.409  1.00  0.00     0.003 A 
ENDBRANCH  14  15
ENDBRANCH  13  14
ENDBRANCH  11  13
ENDBRANCH   8  11
ENDBRANCH   3   5
ENDBRANCH   2   3
ENDBRANCH   1   2
BRANCH   1  22
ATOM     22  C   UNL     1       1.006   3.523   3.630  1.00  0.00     0.275 C 
BRANCH  22  23
ATOM     23  O   UNL     1       1.451   4.227   2.457  1.00  0.00    -0.458 OA
BRANCH  23  24
ATOM     24  C   UNL     1       2.156   3.478   1.577  1.00  0.00     0.338 C 
ATOM     25  O   UNL     1       2.456   2.302   1.688  1.00  0.00    -0.246 OA
BRANCH  24  26
ATOM     26  C   UNL     1       2.432   4.263   0.366  1.00  0.00     0.060 A 
ATOM     27  C   UNL     1       1.760   3.933  -0.814  1.00  0.00     0.016 A 
ATOM     28  C   UNL     1       3.418   5.247   0.370  1.00  0.00     0.016 A 
ATOM     29  C   UNL     1       2.095   4.559  -2.010  1.00  0.00     0.010 A 
ATOM     30  C   UNL     1       3.733   5.896  -0.825  1.00  0.00     0.010 A 
ATOM     31  C   UNL     1       3.085   5.545  -2.024  1.00  0.00    -0.014 A 
BRANCH  31  32
ATOM     32  C   UNL     1       3.474   6.202  -3.292  1.00  0.00     0.031 A 
ATOM     33  C   UNL     1       4.824   5.922  -3.885  1.00  0.00     0.074 A 
ATOM     34  C   UNL     1       2.631   7.067  -3.885  1.00  0.00     0.049 A 
ATOM     35  N   UNL     1       5.447   6.544  -4.850  1.00  0.00    -0.248 NA
ATOM     36  C   UNL     1       5.574   4.794  -3.309  1.00  0.00     0.031 C 
ATOM     37  C   UNL     1       1.271   7.366  -3.434  1.00  0.00     0.029 A 
ATOM     38  N   UNL     1       2.805   7.873  -4.981  1.00  0.00    -0.354 N 
ATOM     39  C   UNL     1       6.678   5.912  -4.973  1.00  0.00     0.074 A 
ATOM     40  C   UNL     1       6.713   4.855  -3.985  1.00  0.00     0.031 C 
ATOM     41  C   UNL     1       0.741   8.304  -4.236  1.00  0.00     0.029 A 
ATOM     42  C   UNL     1       1.744   8.716  -5.212  1.00  0.00     0.049 A 
ATOM     43  H   UNL     1       3.611   7.850  -5.547  1.00  0.00     0.167 HD
ATOM     44  C   UNL     1       7.686   6.200  -5.829  1.00  0.00     0.037 A 
ATOM     45  C   UNL     1       1.617   9.741  -6.077  1.00  0.00     0.037 A 
ATOM     46  C   UNL     1       7.623   7.244  -6.819  1.00  0.00     0.049 A 
ATOM     47  C   UNL     1       2.771  10.082  -6.979  1.00  0.00     0.074 A 
ATOM     48  C   UNL     1       8.588   7.621  -7.736  1.00  0.00     0.029 A 
ATOM     49  N   UNL     1       6.530   8.075  -7.022  1.00  0.00    -0.354 N 
ATOM     50  N   UNL     1       3.946   9.505  -7.064  1.00  0.00    -0.248 NA
ATOM     51  C   UNL     1       2.592  11.219  -7.892  1.00  0.00     0.031 C 
ATOM     52  C   UNL     1       8.091   8.702  -8.472  1.00  0.00     0.029 A 
ATOM     53  C   UNL     1       6.801   8.971  -8.041  1.00  0.00     0.049 A 
ATOM     54  H   UNL     1       5.687   8.033  -6.515  1.00  0.00     0.167 HD
ATOM     55  C   UNL     1       4.636  10.190  -8.057  1.00  0.00     0.074 A 
ATOM     56  C   UNL     1       3.748  11.226  -8.543  1.00  0.00     0.031 C 
ATOM     57  C   UNL     1       5.889   9.978  -8.526  1.00  0.00     0.037 A 
BRANCH  44  58
ATOM     58  C   UNL     1       8.954   5.404  -5.708  1.00  0.00     0.058 A 
ATOM     59  C   UNL     1       9.040   4.074  -6.147  1.00  0.00     0.135 A 
ATOM     60  C   UNL     1      10.109   5.992  -5.168  1.00  0.00     0.135 A 
ATOM     61  F   UNL     1       7.960   3.459  -6.655  1.00  0.00    -0.206 F 
ATOM     62  C   UNL     1      10.221   3.347  -6.034  1.00  0.00     0.059 A 
ATOM     63  C   UNL     1      11.307   5.291  -5.065  1.00  0.00     0.059 A 
ATOM     64  F   UNL     1      10.080   7.261  -4.730  1.00  0.00    -0.206 F 
ATOM     65  C   UNL     1      11.348   3.963  -5.487  1.00  0.00     0.060 A 
BRANCH  65  66
ATOM     66  S   UNL     1      12.873   3.007  -5.340  1.00  0.00     0.124 S 
ATOM     67  O   UNL     1      12.566   2.147  -4.202  1.00  0.00    -0.237 OA
ATOM     68  O   UNL     1      12.952   2.339  -6.635  1.00  0.00    -0.237 OA
ATOM     69  O   UNL     1      13.891   4.026  -5.101  1.00  0.00    -0.744 OA
ENDBRANCH  65  66
ENDBRANCH  44  58
BRANCH  45  70
ATOM     70  C   UNL     1       0.363  10.539  -6.096  1.00  0.00     0.058 A 
ATOM     71  C   UNL     1      -0.534  10.447  -7.169  1.00  0.00     0.135 A 
ATOM     72  C   UNL     1       0.024  11.386  -5.029  1.00  0.00     0.135 A 
ATOM     73  F   UNL     1      -0.249   9.658  -8.216  1.00  0.00    -0.206 F 
ATOM     74  C   UNL     1      -1.721  11.172  -7.188  1.00  0.00     0.059 A 
ATOM     75  C   UNL     1      -1.168  12.102  -5.014  1.00  0.00     0.059 A 
ATOM     76  F   UNL     1       0.844  11.498  -3.972  1.00  0.00    -0.206 F 
ATOM     77  C   UNL     1      -2.031  11.995  -6.103  1.00  0.00     0.060 A 
BRANCH  77  78
ATOM     78  S   UNL     1      -3.601  12.887  -6.110  1.00  0.00     0.124 S 
ATOM     79  O   UNL     1      -3.320  13.965  -7.051  1.00  0.00    -0.237 OA
ATOM     80  O   UNL     1      -4.536  11.865  -6.570  1.00  0.00    -0.237 OA
ATOM     81  O   UNL     1      -3.762  13.291  -4.716  1.00  0.00    -0.744 OA
ENDBRANCH  77  78
ENDBRANCH  45  70
BRANCH  57  82
ATOM     82  C   UNL     1       6.366  10.842  -9.656  1.00  0.00     0.058 A 
ATOM     83  C   UNL     1       6.814  12.153  -9.441  1.00  0.00     0.135 A 
ATOM     84  C   UNL     1       6.471  10.312 -10.952  1.00  0.00     0.135 A 
ATOM     85  F   UNL     1       6.726  12.706  -8.222  1.00  0.00    -0.206 F 
ATOM     86  C   UNL     1       7.355  12.910 -10.475  1.00  0.00     0.059 A 
ATOM     87  C   UNL     1       7.026  11.043 -11.995  1.00  0.00     0.059 A 
ATOM     88  F   UNL     1       6.061   9.058 -11.204  1.00  0.00    -0.206 F 
ATOM     89  C   UNL     1       7.466  12.343 -11.747  1.00  0.00     0.060 A 
BRANCH  89  90
ATOM     90  S   UNL     1       8.246  13.305 -13.061  1.00  0.00     0.124 S 
ATOM     91  O   UNL     1       7.188  14.249 -13.402  1.00  0.00    -0.237 OA
ATOM     92  O   UNL     1       9.409  13.873 -12.386  1.00  0.00    -0.237 OA
ATOM     93  O   UNL     1       8.548  12.304 -14.080  1.00  0.00    -0.744 OA
ENDBRANCH  89  90
ENDBRANCH  57  82
ENDBRANCH  31  32
ENDBRANCH  24  26
ENDBRANCH  23  24
ENDBRANCH  22  23
ENDBRANCH   1  22
TORSDOF 18
