REMARK SMILES CCOC(=O)CS[C@H]1CC(=O)N(c2ccc(C(=O)OCCOC(=O)c3ccc(-c4c5nc(c(-c6c(F)cc(S(=O)(=O)[O-])cc6F)c6ccc([nH]6)c(-c6c(F)cc(S(=O)(=O)[O-])cc6F)c6nc(c(-c7c(F)cc(S(=O)(=O)[O-])cc7F)c7ccc4[nH]7)C=C6)C=C5)cc3)c(O)c2)C1=O
REMARK SMILES IDX 19 1 17 2 18 3 16 4 13 5 14 6 93 7 15 8 91 9 12 10 8 11 9 12
REMARK SMILES IDX 94 13 10 14 95 15 11 16 7 17 6 18 4 19 5 20 3 21 2 22 1 23
REMARK SMILES IDX 92 24 20 26 21 27 22 28 23 29 24 30 25 31 26 32 90 33 27 34
REMARK SMILES IDX 89 35 28 36 29 37 30 38 83 39 31 40 88 41 82 42 84 43 32 44
REMARK SMILES IDX 87 45 81 46 80 47 33 49 67 50 46 51 66 52 47 53 50 54 65 55
REMARK SMILES IDX 85 56 48 57 49 58 64 60 86 61 51 62 34 63 35 64 44 65 36 66
REMARK SMILES IDX 37 67 43 68 45 69 38 70 39 71 40 72 41 73 42 74 68 75 69 76
REMARK SMILES IDX 78 77 70 78 71 79 77 80 79 81 72 82 73 83 74 84 75 85 76 86
REMARK SMILES IDX 52 87 53 88 62 89 54 90 55 91 61 92 63 93 56 94 57 95 58 96
REMARK SMILES IDX 59 97 60 98
REMARK H PARENT 92 25 84 48 50 59
REMARK Flexibility Score: inf
ROOT
ATOM      1  O   UNL     1       5.422 -11.798  -2.361  1.00  0.00    -0.458 OA
ENDROOT
BRANCH   1   2
ATOM      2  C   UNL     1       4.995 -11.095  -1.283  1.00  0.00     0.342 C 
ATOM      3  O   UNL     1       4.772 -11.547  -0.168  1.00  0.00    -0.246 OA
BRANCH   2   4
ATOM      4  C   UNL     1       4.875  -9.655  -1.593  1.00  0.00     0.101 A 
ATOM      5  C   UNL     1       4.436  -6.876  -1.854  1.00  0.00     0.055 A 
ATOM      6  C   UNL     1       5.221  -7.379  -0.818  1.00  0.00     0.028 A 
ATOM      7  C   UNL     1       3.919  -7.780  -2.797  1.00  0.00     0.074 A 
ATOM      8  C   UNL     1       5.379  -8.750  -0.658  1.00  0.00     0.022 A 
ATOM      9  C   UNL     1       4.185  -9.156  -2.696  1.00  0.00     0.132 A 
BRANCH   5  10
ATOM     10  N   UNL     1       4.121  -5.496  -1.854  1.00  0.00    -0.249 N 
ATOM     11  C   UNL     1       2.847  -3.538  -1.721  1.00  0.00     0.146 C 
ATOM     12  C   UNL     1       4.322  -3.180  -1.649  1.00  0.00     0.125 C 
ATOM     13  C   UNL     1       2.882  -4.984  -2.160  1.00  0.00     0.247 C 
ATOM     14  C   UNL     1       4.989  -4.507  -1.447  1.00  0.00     0.235 C 
ATOM     15  O   UNL     1       1.919  -5.561  -2.651  1.00  0.00    -0.273 OA
ATOM     16  O   UNL     1       6.155  -4.615  -1.095  1.00  0.00    -0.274 OA
BRANCH  11  17
ATOM     17  S   UNL     1       2.110  -3.247  -0.066  1.00  0.00    -0.136 SA
BRANCH  17  18
ATOM     18  C   UNL     1       0.642  -4.330  -0.049  1.00  0.00     0.192 C 
BRANCH  18  19
ATOM     19  C   UNL     1       0.867  -5.522   0.858  1.00  0.00     0.315 C 
ATOM     20  O   UNL     1       0.232  -5.730   1.884  1.00  0.00    -0.251 OA
BRANCH  19  21
ATOM     21  O   UNL     1       1.851  -6.323   0.368  1.00  0.00    -0.465 OA
BRANCH  21  22
ATOM     22  C   UNL     1       2.208  -7.458   1.170  1.00  0.00     0.229 C 
ATOM     23  C   UNL     1       3.279  -7.061   2.168  1.00  0.00     0.049 C 
ENDBRANCH  21  22
ENDBRANCH  19  21
ENDBRANCH  18  19
ENDBRANCH  17  18
ENDBRANCH  11  17
ENDBRANCH   5  10
BRANCH   9  24
ATOM     24  O   UNL     1       3.713  -9.957  -3.698  1.00  0.00    -0.507 OA
ATOM     25  H   UNL     1       3.867 -10.881  -3.671  1.00  0.00     0.293 HD
ENDBRANCH   9  24
ENDBRANCH   2   4
ENDBRANCH   1   2
BRANCH   1  26
ATOM     26  C   UNL     1       5.708 -13.195  -2.111  1.00  0.00     0.275 C 
BRANCH  26  27
ATOM     27  C   UNL     1       7.207 -13.452  -1.919  1.00  0.00     0.275 C 
BRANCH  27  28
ATOM     28  O   UNL     1       7.664 -12.973  -0.639  1.00  0.00    -0.458 OA
BRANCH  28  29
ATOM     29  C   UNL     1       8.314 -11.790  -0.680  1.00  0.00     0.338 C 
ATOM     30  O   UNL     1       8.544 -11.116  -1.671  1.00  0.00    -0.246 OA
BRANCH  29  31
ATOM     31  C   UNL     1       8.634 -11.309   0.673  1.00  0.00     0.060 A 
ATOM     32  C   UNL     1       7.646 -10.603   1.342  1.00  0.00     0.016 A 
ATOM     33  C   UNL     1       9.942 -11.282   1.147  1.00  0.00     0.016 A 
ATOM     34  C   UNL     1       7.989  -9.687   2.330  1.00  0.00     0.010 A 
ATOM     35  C   UNL     1      10.252 -10.493   2.267  1.00  0.00     0.010 A 
ATOM     36  C   UNL     1       9.299  -9.616   2.821  1.00  0.00    -0.014 A 
BRANCH  36  37
ATOM     37  C   UNL     1       9.665  -8.587   3.850  1.00  0.00     0.031 A 
ATOM     38  C   UNL     1      10.837  -7.653   3.621  1.00  0.00     0.074 A 
ATOM     39  C   UNL     1       8.930  -8.445   4.976  1.00  0.00     0.049 A 
ATOM     40  N   UNL     1      11.401  -6.810   4.451  1.00  0.00    -0.248 NA
ATOM     41  C   UNL     1      11.472  -7.688   2.294  1.00  0.00     0.031 C 
ATOM     42  C   UNL     1       7.750  -9.239   5.330  1.00  0.00     0.029 A 
ATOM     43  N   UNL     1       9.057  -7.571   6.030  1.00  0.00    -0.354 N 
ATOM     44  C   UNL     1      12.489  -6.268   3.771  1.00  0.00     0.074 A 
ATOM     45  C   UNL     1      12.518  -6.892   2.467  1.00  0.00     0.031 C 
ATOM     46  C   UNL     1       7.231  -8.780   6.477  1.00  0.00     0.029 A 
ATOM     47  C   UNL     1       8.097  -7.734   7.004  1.00  0.00     0.049 A 
ATOM     48  H   UNL     1       9.767  -6.891   6.083  1.00  0.00     0.167 HD
ATOM     49  C   UNL     1      13.379  -5.333   4.189  1.00  0.00     0.037 A 
ATOM     50  C   UNL     1       7.946  -7.150   8.208  1.00  0.00     0.037 A 
ATOM     51  C   UNL     1      13.305  -4.658   5.462  1.00  0.00     0.049 A 
ATOM     52  C   UNL     1       8.949  -6.123   8.654  1.00  0.00     0.074 A 
ATOM     53  C   UNL     1      14.147  -3.683   5.969  1.00  0.00     0.029 A 
ATOM     54  N   UNL     1      12.320  -4.867   6.416  1.00  0.00    -0.354 N 
ATOM     55  N   UNL     1      10.005  -5.672   8.021  1.00  0.00    -0.248 NA
ATOM     56  C   UNL     1       8.744  -5.531   9.982  1.00  0.00     0.031 C 
ATOM     57  C   UNL     1      13.697  -3.333   7.247  1.00  0.00     0.029 A 
ATOM     58  C   UNL     1      12.539  -4.046   7.512  1.00  0.00     0.049 A 
ATOM     59  H   UNL     1      11.575  -5.504   6.329  1.00  0.00     0.167 HD
ATOM     60  C   UNL     1      10.574  -4.722   8.862  1.00  0.00     0.074 A 
ATOM     61  C   UNL     1       9.734  -4.653  10.040  1.00  0.00     0.031 C 
ATOM     62  C   UNL     1      11.691  -3.975   8.675  1.00  0.00     0.037 A 
BRANCH  49  63
ATOM     63  C   UNL     1      14.534  -4.999   3.278  1.00  0.00     0.058 A 
ATOM     64  C   UNL     1      14.366  -4.286   2.081  1.00  0.00     0.135 A 
ATOM     65  C   UNL     1      15.843  -5.365   3.637  1.00  0.00     0.135 A 
ATOM     66  F   UNL     1      13.138  -3.921   1.678  1.00  0.00    -0.206 F 
ATOM     67  C   UNL     1      15.446  -3.976   1.258  1.00  0.00     0.059 A 
ATOM     68  C   UNL     1      16.941  -5.038   2.847  1.00  0.00     0.059 A 
ATOM     69  F   UNL     1      16.067  -6.045   4.773  1.00  0.00    -0.206 F 
ATOM     70  C   UNL     1      16.731  -4.356   1.650  1.00  0.00     0.060 A 
BRANCH  70  71
ATOM     71  S   UNL     1      18.123  -3.940   0.577  1.00  0.00     0.124 S 
ATOM     72  O   UNL     1      17.924  -4.867  -0.532  1.00  0.00    -0.237 OA
ATOM     73  O   UNL     1      17.878  -2.533   0.279  1.00  0.00    -0.237 OA
ATOM     74  O   UNL     1      19.290  -4.206   1.413  1.00  0.00    -0.744 OA
ENDBRANCH  70  71
ENDBRANCH  49  63
BRANCH  50  75
ATOM     75  C   UNL     1       6.820  -7.552   9.098  1.00  0.00     0.058 A 
ATOM     76  C   UNL     1       5.784  -6.659   9.408  1.00  0.00     0.135 A 
ATOM     77  C   UNL     1       6.759  -8.839   9.655  1.00  0.00     0.135 A 
ATOM     78  F   UNL     1       5.800  -5.413   8.910  1.00  0.00    -0.206 F 
ATOM     79  C   UNL     1       4.739  -7.019  10.255  1.00  0.00     0.059 A 
ATOM     80  C   UNL     1       5.707  -9.235  10.475  1.00  0.00     0.059 A 
ATOM     81  F   UNL     1       7.716  -9.739   9.380  1.00  0.00    -0.206 F 
ATOM     82  C   UNL     1       4.709  -8.312  10.781  1.00  0.00     0.060 A 
BRANCH  82  83
ATOM     83  S   UNL     1       3.332  -8.785  11.848  1.00  0.00     0.124 S 
ATOM     84  O   UNL     1       3.650  -8.064  13.075  1.00  0.00    -0.237 OA
ATOM     85  O   UNL     1       2.179  -8.294  11.099  1.00  0.00    -0.237 OA
ATOM     86  O   UNL     1       3.448 -10.238  11.922  1.00  0.00    -0.744 OA
ENDBRANCH  82  83
ENDBRANCH  50  75
BRANCH  62  87
ATOM     87  C   UNL     1      12.030  -2.971   9.744  1.00  0.00     0.058 A 
ATOM     88  C   UNL     1      12.483  -3.357  11.015  1.00  0.00     0.135 A 
ATOM     89  C   UNL     1      11.896  -1.597   9.486  1.00  0.00     0.135 A 
ATOM     90  F   UNL     1      12.625  -4.658  11.316  1.00  0.00    -0.206 F 
ATOM     91  C   UNL     1      12.742  -2.419  12.010  1.00  0.00     0.059 A 
ATOM     92  C   UNL     1      12.182  -0.640  10.455  1.00  0.00     0.059 A 
ATOM     93  F   UNL     1      11.481  -1.170   8.283  1.00  0.00    -0.206 F 
ATOM     94  C   UNL     1      12.582  -1.062  11.722  1.00  0.00     0.060 A 
BRANCH  94  95
ATOM     95  S   UNL     1      12.907   0.145  13.023  1.00  0.00     0.124 S 
ATOM     96  O   UNL     1      11.730  -0.013  13.870  1.00  0.00    -0.237 OA
ATOM     97  O   UNL     1      14.165  -0.333  13.588  1.00  0.00    -0.237 OA
ATOM     98  O   UNL     1      12.993   1.410  12.299  1.00  0.00    -0.744 OA
ENDBRANCH  94  95
ENDBRANCH  62  87
ENDBRANCH  36  37
ENDBRANCH  29  31
ENDBRANCH  28  29
ENDBRANCH  27  28
ENDBRANCH  26  27
ENDBRANCH   1  26
TORSDOF 21
