REMARK SMILES CC(C)CCc1cc2c(cc1Cl)C=C(C(=O)OCCOC(=O)c1ccc(-c3c4nc(c(-c5c(F)cc(S(=O)(=O)[O-])cc5F)c5ccc([nH]5)c(-c5c(F)cc(S(=O)(=O)[O-])cc5F)c5nc(c(-c6c(F)cc(S(=O)(=O)[O-])cc6F)c6ccc3[nH]6)C=C5)C=C4)cc1)[C@H](C(F)(F)F)O2
REMARK SMILES IDX 18 1 17 2 15 3 16 4 14 5 6 6 7 7 11 8 8 9 10 10 12 11 9 12
REMARK SMILES IDX 94 13 13 14 89 15 5 16 4 17 2 18 1 19 3 20 90 21 91 22 92 23
REMARK SMILES IDX 93 24 19 25 20 26 21 27 22 28 23 29 24 30 88 31 25 32 87 33
REMARK SMILES IDX 26 34 27 35 28 36 81 37 29 38 86 39 80 40 82 41 30 42 85 43
REMARK SMILES IDX 79 44 78 45 31 47 65 48 44 49 64 50 45 51 48 52 63 53 83 54
REMARK SMILES IDX 46 55 47 56 62 58 84 59 49 60 32 61 33 62 42 63 34 64 35 65
REMARK SMILES IDX 41 66 43 67 36 68 37 69 38 70 39 71 40 72 66 73 67 74 76 75
REMARK SMILES IDX 68 76 69 77 75 78 77 79 70 80 71 81 72 82 73 83 74 84 50 85
REMARK SMILES IDX 51 86 60 87 52 88 53 89 59 90 61 91 54 92 55 93 56 94 57 95
REMARK SMILES IDX 58 96
REMARK H PARENT 82 46 48 57
REMARK Flexibility Score: inf
ROOT
ATOM      1  C   UNL     1       0.241   7.692   8.381  1.00  0.00     0.275 C 
ENDROOT
BRANCH   1   2
ATOM      2  O   UNL     1      -0.184   7.052   7.159  1.00  0.00    -0.459 OA
BRANCH   2   3
ATOM      3  C   UNL     1       0.607   6.055   6.705  1.00  0.00     0.338 C 
ATOM      4  O   UNL     1       1.700   5.759   7.151  1.00  0.00    -0.246 OA
BRANCH   3   5
ATOM      5  C   UNL     1      -0.071   5.289   5.635  1.00  0.00     0.087 C 
ATOM      6  C   UNL     1      -1.306   1.696   2.338  1.00  0.00    -0.026 A 
ATOM      7  C   UNL     1      -1.470   3.100   2.369  1.00  0.00     0.052 A 
ATOM      8  C   UNL     1      -0.720   1.064   3.448  1.00  0.00     0.045 A 
ATOM      9  C   UNL     1      -0.989   3.854   3.438  1.00  0.00     0.128 A 
ATOM     10  C   UNL     1      -0.219   1.822   4.505  1.00  0.00     0.032 A 
ATOM     11  Cl  UNL     1      -0.552  -0.651   3.571  1.00  0.00    -0.084 Cl
ATOM     12  C   UNL     1      -0.323   3.213   4.477  1.00  0.00     0.019 A 
ATOM     13  O   UNL     1      -1.120   5.220   3.384  1.00  0.00    -0.475 OA
ATOM     14  C   UNL     1       0.317   4.015   5.495  1.00  0.00     0.027 C 
ATOM     15  C   UNL     1      -1.033   5.932   4.670  1.00  0.00     0.316 C 
BRANCH   6  16
ATOM     16  C   UNL     1      -1.715   0.935   1.095  1.00  0.00     0.037 C 
BRANCH  16  17
ATOM     17  C   UNL     1      -1.006   1.421  -0.183  1.00  0.00     0.008 C 
BRANCH  17  18
ATOM     18  C   UNL     1       0.537   1.398  -0.135  1.00  0.00    -0.017 C 
ATOM     19  C   UNL     1       1.099  -0.022  -0.067  1.00  0.00     0.007 C 
ATOM     20  C   UNL     1       1.101   2.118  -1.363  1.00  0.00     0.007 C 
ENDBRANCH  17  18
ENDBRANCH  16  17
ENDBRANCH   6  16
BRANCH  15  21
ATOM     21  C   UNL     1      -2.460   6.225   5.172  1.00  0.00     0.430 C 
ATOM     22  F   UNL     1      -3.277   5.154   5.069  1.00  0.00    -0.167 F 
ATOM     23  F   UNL     1      -2.515   6.653   6.449  1.00  0.00    -0.167 F 
ATOM     24  F   UNL     1      -3.011   7.216   4.418  1.00  0.00    -0.167 F 
ENDBRANCH  15  21
ENDBRANCH   3   5
ENDBRANCH   2   3
ENDBRANCH   1   2
BRANCH   1  25
ATOM     25  C   UNL     1      -0.534   7.151   9.587  1.00  0.00     0.275 C 
BRANCH  25  26
ATOM     26  O   UNL     1      -0.087   5.824   9.931  1.00  0.00    -0.458 OA
BRANCH  26  27
ATOM     27  C   UNL     1      -0.957   4.822   9.676  1.00  0.00     0.338 C 
ATOM     28  O   UNL     1      -2.076   4.914   9.195  1.00  0.00    -0.246 OA
BRANCH  27  29
ATOM     29  C   UNL     1      -0.309   3.530   9.944  1.00  0.00     0.060 A 
ATOM     30  C   UNL     1      -0.514   2.825  11.124  1.00  0.00     0.016 A 
ATOM     31  C   UNL     1       0.428   2.960   8.913  1.00  0.00     0.016 A 
ATOM     32  C   UNL     1       0.052   1.548  11.260  1.00  0.00     0.010 A 
ATOM     33  C   UNL     1       0.911   1.659   9.008  1.00  0.00     0.010 A 
ATOM     34  C   UNL     1       0.752   0.939  10.195  1.00  0.00    -0.014 A 
BRANCH  34  35
ATOM     35  C   UNL     1       1.294  -0.446  10.308  1.00  0.00     0.031 A 
ATOM     36  C   UNL     1       2.768  -0.726  10.129  1.00  0.00     0.074 A 
ATOM     37  C   UNL     1       0.446  -1.471  10.531  1.00  0.00     0.049 A 
ATOM     38  N   UNL     1       3.409  -1.864  10.233  1.00  0.00    -0.248 NA
ATOM     39  C   UNL     1       3.631   0.404   9.747  1.00  0.00     0.031 C 
ATOM     40  C   UNL     1      -1.012  -1.359  10.610  1.00  0.00     0.029 A 
ATOM     41  N   UNL     1       0.685  -2.806  10.751  1.00  0.00    -0.354 N 
ATOM     42  C   UNL     1       4.736  -1.588   9.919  1.00  0.00     0.074 A 
ATOM     43  C   UNL     1       4.798  -0.192   9.551  1.00  0.00     0.031 C 
ATOM     44  C   UNL     1      -1.530  -2.553  10.939  1.00  0.00     0.029 A 
ATOM     45  C   UNL     1      -0.447  -3.523  11.063  1.00  0.00     0.049 A 
ATOM     46  H   UNL     1       1.581  -3.211  10.690  1.00  0.00     0.167 HD
ATOM     47  C   UNL     1       5.814  -2.408   9.972  1.00  0.00     0.037 A 
ATOM     48  C   UNL     1      -0.596  -4.809  11.438  1.00  0.00     0.037 A 
ATOM     49  C   UNL     1       5.759  -3.784  10.392  1.00  0.00     0.049 A 
ATOM     50  C   UNL     1       0.621  -5.684  11.564  1.00  0.00     0.074 A 
ATOM     51  C   UNL     1       6.804  -4.678  10.552  1.00  0.00     0.029 A 
ATOM     52  N   UNL     1       4.598  -4.461  10.732  1.00  0.00    -0.354 N 
ATOM     53  N   UNL     1       1.877  -5.382  11.338  1.00  0.00    -0.248 NA
ATOM     54  C   UNL     1       0.403  -7.070  12.000  1.00  0.00     0.031 C 
ATOM     55  C   UNL     1       6.271  -5.902  10.967  1.00  0.00     0.029 A 
ATOM     56  C   UNL     1       4.899  -5.761  11.100  1.00  0.00     0.049 A 
ATOM     57  H   UNL     1       3.693  -4.074  10.715  1.00  0.00     0.167 HD
ATOM     58  C   UNL     1       2.601  -6.534  11.622  1.00  0.00     0.074 A 
ATOM     59  C   UNL     1       1.645  -7.535  12.049  1.00  0.00     0.031 C 
ATOM     60  C   UNL     1       3.937  -6.743  11.533  1.00  0.00     0.037 A 
BRANCH  47  61
ATOM     61  C   UNL     1       7.158  -1.828   9.615  1.00  0.00     0.058 A 
ATOM     62  C   UNL     1       7.795  -0.896  10.451  1.00  0.00     0.135 A 
ATOM     63  C   UNL     1       7.841  -2.240   8.459  1.00  0.00     0.135 A 
ATOM     64  F   UNL     1       7.184  -0.458  11.564  1.00  0.00    -0.206 F 
ATOM     65  C   UNL     1       9.044  -0.370  10.139  1.00  0.00     0.059 A 
ATOM     66  C   UNL     1       9.105  -1.749   8.142  1.00  0.00     0.059 A 
ATOM     67  F   UNL     1       7.283  -3.134   7.626  1.00  0.00    -0.206 F 
ATOM     68  C   UNL     1       9.692  -0.803   8.982  1.00  0.00     0.060 A 
BRANCH  68  69
ATOM     69  S   UNL     1      11.318  -0.117   8.601  1.00  0.00     0.124 S 
ATOM     70  O   UNL     1      10.972   1.240   8.188  1.00  0.00    -0.237 OA
ATOM     71  O   UNL     1      12.012  -0.230   9.880  1.00  0.00    -0.237 OA
ATOM     72  O   UNL     1      11.817  -0.987   7.542  1.00  0.00    -0.744 OA
ENDBRANCH  68  69
ENDBRANCH  47  61
BRANCH  48  73
ATOM     73  C   UNL     1      -1.945  -5.315  11.806  1.00  0.00     0.058 A 
ATOM     74  C   UNL     1      -2.278  -5.541  13.149  1.00  0.00     0.135 A 
ATOM     75  C   UNL     1      -2.938  -5.531  10.839  1.00  0.00     0.135 A 
ATOM     76  F   UNL     1      -1.360  -5.351  14.109  1.00  0.00    -0.206 F 
ATOM     77  C   UNL     1      -3.548  -5.967  13.524  1.00  0.00     0.059 A 
ATOM     78  C   UNL     1      -4.223  -5.937  11.191  1.00  0.00     0.059 A 
ATOM     79  F   UNL     1      -2.674  -5.311   9.542  1.00  0.00    -0.206 F 
ATOM     80  C   UNL     1      -4.517  -6.156  12.537  1.00  0.00     0.060 A 
BRANCH  80  81
ATOM     81  S   UNL     1      -6.182  -6.639  13.044  1.00  0.00     0.124 S 
ATOM     82  O   UNL     1      -5.979  -8.028  13.436  1.00  0.00    -0.237 OA
ATOM     83  O   UNL     1      -6.454  -5.703  14.130  1.00  0.00    -0.237 OA
ATOM     84  O   UNL     1      -6.974  -6.432  11.835  1.00  0.00    -0.744 OA
ENDBRANCH  80  81
ENDBRANCH  48  73
BRANCH  60  85
ATOM     85  C   UNL     1       4.460  -8.097  11.918  1.00  0.00     0.058 A 
ATOM     86  C   UNL     1       4.319  -9.203  11.067  1.00  0.00     0.135 A 
ATOM     87  C   UNL     1       5.189  -8.267  13.106  1.00  0.00     0.135 A 
ATOM     88  F   UNL     1       3.625  -9.092   9.924  1.00  0.00    -0.206 F 
ATOM     89  C   UNL     1       4.881 -10.435  11.383  1.00  0.00     0.059 A 
ATOM     90  C   UNL     1       5.778  -9.485  13.431  1.00  0.00     0.059 A 
ATOM     91  F   UNL     1       5.359  -7.236  13.948  1.00  0.00    -0.206 F 
ATOM     92  C   UNL     1       5.616 -10.564  12.563  1.00  0.00     0.060 A 
BRANCH  92  93
ATOM     93  S   UNL     1       6.393 -12.153  12.926  1.00  0.00     0.124 S 
ATOM     94  O   UNL     1       5.240 -12.969  13.290  1.00  0.00    -0.237 OA
ATOM     95  O   UNL     1       7.030 -12.486  11.655  1.00  0.00    -0.237 OA
ATOM     96  O   UNL     1       7.312 -11.841  14.017  1.00  0.00    -0.744 OA
ENDBRANCH  92  93
ENDBRANCH  60  85
ENDBRANCH  34  35
ENDBRANCH  27  29
ENDBRANCH  26  27
ENDBRANCH  25  26
ENDBRANCH   1  25
TORSDOF 18
