REMARK SMILES Cc1cc2c(c(C)c1Br)C=C(C(=O)OCCOC(=O)c1ccc(-c3c4nc(c(-c5c(F)cc(S(=O)(=O)[O-])cc5F)c5ccc([nH]5)c(-c5c(F)cc(S(=O)(=O)[O-])cc5F)c5nc(c(-c6c(F)cc(S(=O)(=O)[O-])cc6F)c6ccc3[nH]6)C=C5)C=C4)cc1)[C@@H](C(F)(F)F)O2
REMARK SMILES IDX 16 1 15 2 14 3 12 4 13 5 11 6 1 7 2 8 3 9 8 10 4 11 6 12
REMARK SMILES IDX 9 13 5 14 91 15 7 16 10 17 86 18 87 19 88 20 89 21 90 22
REMARK SMILES IDX 17 23 18 24 19 25 20 26 21 27 85 28 22 29 84 30 23 31 24 32
REMARK SMILES IDX 25 33 78 34 26 35 83 36 77 37 79 38 27 39 82 40 76 41 75 42
REMARK SMILES IDX 28 44 62 45 41 46 61 47 42 48 45 49 60 50 80 51 43 52 44 53
REMARK SMILES IDX 59 55 81 56 46 57 29 58 30 59 39 60 31 61 32 62 38 63 40 64
REMARK SMILES IDX 33 65 34 66 35 67 36 68 37 69 63 70 64 71 73 72 65 73 66 74
REMARK SMILES IDX 72 75 74 76 67 77 68 78 69 79 70 80 71 81 47 82 48 83 57 84
REMARK SMILES IDX 49 85 50 86 56 87 58 88 51 89 52 90 53 91 54 92 55 93
REMARK H PARENT 79 43 45 54
REMARK Flexibility Score: inf
ROOT
ATOM      1  C   UNL     1      -3.389   1.383  -9.512  1.00  0.00     0.275 C 
ENDROOT
BRANCH   1   2
ATOM      2  C   UNL     1      -2.349   0.278  -9.336  1.00  0.00     0.275 C 
BRANCH   2   3
ATOM      3  O   UNL     1      -2.105   0.013  -7.938  1.00  0.00    -0.459 OA
BRANCH   3   4
ATOM      4  C   UNL     1      -0.941   0.499  -7.448  1.00  0.00     0.338 C 
ATOM      5  O   UNL     1      -0.080   1.097  -8.074  1.00  0.00    -0.246 OA
BRANCH   4   6
ATOM      6  C   UNL     1      -0.819   0.199  -6.011  1.00  0.00     0.087 C 
ATOM      7  C   UNL     1       0.926  -0.270   0.214  1.00  0.00     0.046 C 
ATOM      8  C   UNL     1       0.493   0.190  -1.152  1.00  0.00    -0.033 A 
ATOM      9  C   UNL     1       0.047  -0.773  -2.068  1.00  0.00     0.051 A 
ATOM     10  C   UNL     1       0.555   1.541  -1.555  1.00  0.00     0.024 A 
ATOM     11  C   UNL     1      -0.305  -0.419  -3.367  1.00  0.00     0.128 A 
ATOM     12  C   UNL     1       0.168   1.926  -2.861  1.00  0.00    -0.026 A 
ATOM     13  Br  UNL     1       1.213   2.833  -0.303  1.00  0.00    -0.050 Br
ATOM     14  C   UNL     1      -0.238   0.917  -3.776  1.00  0.00     0.021 A 
ATOM     15  O   UNL     1      -0.715  -1.455  -4.162  1.00  0.00    -0.475 OA
ATOM     16  C   UNL     1       0.200   3.371  -3.310  1.00  0.00     0.046 C 
ATOM     17  C   UNL     1      -0.548   1.207  -5.174  1.00  0.00     0.027 C 
ATOM     18  C   UNL     1      -0.851  -1.235  -5.589  1.00  0.00     0.316 C 
BRANCH  18  19
ATOM     19  C   UNL     1       0.207  -2.070  -6.329  1.00  0.00     0.430 C 
ATOM     20  F   UNL     1       0.189  -3.362  -5.919  1.00  0.00    -0.167 F 
ATOM     21  F   UNL     1      -0.024  -2.093  -7.665  1.00  0.00    -0.167 F 
ATOM     22  F   UNL     1       1.461  -1.603  -6.141  1.00  0.00    -0.167 F 
ENDBRANCH  18  19
ENDBRANCH   4   6
ENDBRANCH   3   4
ENDBRANCH   2   3
ENDBRANCH   1   2
BRANCH   1  23
ATOM     23  O   UNL     1      -2.857   2.635  -9.046  1.00  0.00    -0.458 OA
BRANCH  23  24
ATOM     24  C   UNL     1      -3.361   3.079  -7.872  1.00  0.00     0.338 C 
ATOM     25  O   UNL     1      -4.255   2.576  -7.214  1.00  0.00    -0.246 OA
BRANCH  24  26
ATOM     26  C   UNL     1      -2.613   4.265  -7.424  1.00  0.00     0.060 A 
ATOM     27  C   UNL     1      -1.256   4.139  -7.156  1.00  0.00     0.016 A 
ATOM     28  C   UNL     1      -3.282   5.440  -7.089  1.00  0.00     0.016 A 
ATOM     29  C   UNL     1      -0.606   5.110  -6.401  1.00  0.00     0.010 A 
ATOM     30  C   UNL     1      -2.582   6.479  -6.461  1.00  0.00     0.010 A 
ATOM     31  C   UNL     1      -1.250   6.304  -6.044  1.00  0.00    -0.014 A 
BRANCH  31  32
ATOM     32  C   UNL     1      -0.548   7.313  -5.188  1.00  0.00     0.031 A 
ATOM     33  C   UNL     1      -1.196   7.823  -3.919  1.00  0.00     0.074 A 
ATOM     34  C   UNL     1       0.695   7.739  -5.504  1.00  0.00     0.049 A 
ATOM     35  N   UNL     1      -0.822   8.804  -3.136  1.00  0.00    -0.248 NA
ATOM     36  C   UNL     1      -2.434   7.158  -3.479  1.00  0.00     0.031 C 
ATOM     37  C   UNL     1       1.473   7.301  -6.666  1.00  0.00     0.029 A 
ATOM     38  N   UNL     1       1.540   8.613  -4.862  1.00  0.00    -0.354 N 
ATOM     39  C   UNL     1      -1.806   8.914  -2.158  1.00  0.00     0.074 A 
ATOM     40  C   UNL     1      -2.804   7.911  -2.453  1.00  0.00     0.031 C 
ATOM     41  C   UNL     1       2.701   7.835  -6.607  1.00  0.00     0.029 A 
ATOM     42  C   UNL     1       2.764   8.754  -5.479  1.00  0.00     0.049 A 
ATOM     43  H   UNL     1       1.294   9.093  -4.039  1.00  0.00     0.167 HD
ATOM     44  C   UNL     1      -1.867   9.765  -1.105  1.00  0.00     0.037 A 
ATOM     45  C   UNL     1       3.807   9.563  -5.206  1.00  0.00     0.037 A 
ATOM     46  C   UNL     1      -0.831  10.706  -0.768  1.00  0.00     0.049 A 
ATOM     47  C   UNL     1       3.694  10.538  -4.068  1.00  0.00     0.074 A 
ATOM     48  C   UNL     1      -0.789  11.596   0.292  1.00  0.00     0.029 A 
ATOM     49  N   UNL     1       0.356  10.864  -1.468  1.00  0.00    -0.354 N 
ATOM     50  N   UNL     1       2.725  10.672  -3.195  1.00  0.00    -0.248 NA
ATOM     51  C   UNL     1       4.794  11.498  -3.901  1.00  0.00     0.031 C 
ATOM     52  C   UNL     1       0.403  12.321   0.208  1.00  0.00     0.029 A 
ATOM     53  C   UNL     1       1.124  11.855  -0.879  1.00  0.00     0.049 A 
ATOM     54  H   UNL     1       0.614  10.349  -2.266  1.00  0.00     0.167 HD
ATOM     55  C   UNL     1       3.094  11.736  -2.381  1.00  0.00     0.074 A 
ATOM     56  C   UNL     1       4.390  12.189  -2.844  1.00  0.00     0.031 C 
ATOM     57  C   UNL     1       2.412  12.296  -1.353  1.00  0.00     0.037 A 
BRANCH  44  58
ATOM     58  C   UNL     1      -3.101   9.738  -0.240  1.00  0.00     0.058 A 
ATOM     59  C   UNL     1      -3.367   8.683   0.645  1.00  0.00     0.135 A 
ATOM     60  C   UNL     1      -4.001  10.818  -0.258  1.00  0.00     0.135 A 
ATOM     61  F   UNL     1      -2.550   7.619   0.694  1.00  0.00    -0.206 F 
ATOM     62  C   UNL     1      -4.493   8.687   1.465  1.00  0.00     0.059 A 
ATOM     63  C   UNL     1      -5.117  10.857   0.574  1.00  0.00     0.059 A 
ATOM     64  F   UNL     1      -3.794  11.857  -1.083  1.00  0.00    -0.206 F 
ATOM     65  C   UNL     1      -5.361   9.780   1.423  1.00  0.00     0.060 A 
BRANCH  65  66
ATOM     66  S   UNL     1      -6.810   9.770   2.500  1.00  0.00     0.124 S 
ATOM     67  O   UNL     1      -7.621   8.721   1.889  1.00  0.00    -0.237 OA
ATOM     68  O   UNL     1      -6.230   9.445   3.799  1.00  0.00    -0.237 OA
ATOM     69  O   UNL     1      -7.341  11.123   2.374  1.00  0.00    -0.744 OA
ENDBRANCH  65  66
ENDBRANCH  44  58
BRANCH  45  70
ATOM     70  C   UNL     1       5.025   9.521  -6.063  1.00  0.00     0.058 A 
ATOM     71  C   UNL     1       6.247   9.057  -5.558  1.00  0.00     0.135 A 
ATOM     72  C   UNL     1       4.984   9.912  -7.412  1.00  0.00     0.135 A 
ATOM     73  F   UNL     1       6.344   8.688  -4.271  1.00  0.00    -0.206 F 
ATOM     74  C   UNL     1       7.383   8.974  -6.358  1.00  0.00     0.059 A 
ATOM     75  C   UNL     1       6.097   9.809  -8.240  1.00  0.00     0.059 A 
ATOM     76  F   UNL     1       3.838  10.360  -7.949  1.00  0.00    -0.206 F 
ATOM     77  C   UNL     1       7.295   9.343  -7.702  1.00  0.00     0.060 A 
BRANCH  77  78
ATOM     78  S   UNL     1       8.757   9.168  -8.747  1.00  0.00     0.124 S 
ATOM     79  O   UNL     1       9.613  10.231  -8.235  1.00  0.00    -0.237 OA
ATOM     80  O   UNL     1       9.183   7.804  -8.448  1.00  0.00    -0.237 OA
ATOM     81  O   UNL     1       8.234   9.372 -10.095  1.00  0.00    -0.744 OA
ENDBRANCH  77  78
ENDBRANCH  45  70
BRANCH  57  82
ATOM     82  C   UNL     1       3.037  13.472  -0.659  1.00  0.00     0.058 A 
ATOM     83  C   UNL     1       3.043  14.743  -1.253  1.00  0.00     0.135 A 
ATOM     84  C   UNL     1       3.538  13.352   0.647  1.00  0.00     0.135 A 
ATOM     85  F   UNL     1       2.586  14.906  -2.505  1.00  0.00    -0.206 F 
ATOM     86  C   UNL     1       3.519  15.858  -0.573  1.00  0.00     0.059 A 
ATOM     87  C   UNL     1       3.997  14.459   1.355  1.00  0.00     0.059 A 
ATOM     88  F   UNL     1       3.549  12.158   1.260  1.00  0.00    -0.206 F 
ATOM     89  C   UNL     1       3.982  15.708   0.736  1.00  0.00     0.060 A 
BRANCH  89  90
ATOM     90  S   UNL     1       4.519  17.181   1.630  1.00  0.00     0.124 S 
ATOM     91  O   UNL     1       5.746  17.527   0.920  1.00  0.00    -0.237 OA
ATOM     92  O   UNL     1       3.394  18.090   1.432  1.00  0.00    -0.237 OA
ATOM     93  O   UNL     1       4.700  16.704   2.998  1.00  0.00    -0.744 OA
ENDBRANCH  89  90
ENDBRANCH  57  82
ENDBRANCH  31  32
ENDBRANCH  24  26
ENDBRANCH  23  24
ENDBRANCH   1  23
TORSDOF 15
