REMARK SMILES CC(C)CN(C)S(=O)(=O)c1ccc(C(=O)OCCOC(=O)c2ccc(-c3c4nc(c(-c5c(F)cc(S(=O)(=O)[O-])cc5F)c5ccc([nH]5)c(-c5c(F)cc(S(=O)(=O)[O-])cc5F)c5nc(c(-c6c(F)cc(S(=O)(=O)[O-])cc6F)c6ccc3[nH]6)C=C5)C=C4)cc2)cc1
REMARK SMILES IDX 17 1 16 2 14 3 15 4 13 5 10 6 11 7 89 8 12 9 88 10 7 11 8 12
REMARK SMILES IDX 9 13 5 14 6 15 4 16 2 17 1 18 3 19 18 20 19 21 20 22 21 23
REMARK SMILES IDX 22 24 23 25 87 26 24 27 86 28 25 29 26 30 27 31 80 32 28 33
REMARK SMILES IDX 85 34 79 35 81 36 29 37 84 38 78 39 77 40 30 42 64 43 43 44
REMARK SMILES IDX 63 45 44 46 47 47 62 48 82 49 45 50 46 51 61 53 83 54 48 55
REMARK SMILES IDX 31 56 32 57 41 58 33 59 34 60 40 61 42 62 35 63 36 64 37 65
REMARK SMILES IDX 38 66 39 67 65 68 66 69 75 70 67 71 68 72 74 73 76 74 69 75
REMARK SMILES IDX 70 76 71 77 72 78 73 79 49 80 50 81 59 82 51 83 52 84 58 85
REMARK SMILES IDX 60 86 53 87 54 88 55 89 56 90 57 91
REMARK H PARENT 81 41 47 52
REMARK Flexibility Score: inf
ROOT
ATOM      1  C   UNL     1      -3.848   2.470  -8.766  1.00  0.00     0.275 C 
ENDROOT
BRANCH   1   2
ATOM      2  O   UNL     1      -3.755   1.950  -7.424  1.00  0.00    -0.458 OA
BRANCH   2   3
ATOM      3  C   UNL     1      -2.596   2.247  -6.797  1.00  0.00     0.338 C 
ATOM      4  O   UNL     1      -1.651   2.871  -7.250  1.00  0.00    -0.246 OA
BRANCH   3   5
ATOM      5  C   UNL     1      -2.590   1.742  -5.415  1.00  0.00     0.060 A 
ATOM      6  C   UNL     1      -1.869   1.085  -2.820  1.00  0.00     0.082 A 
ATOM      7  C   UNL     1      -2.440   2.334  -3.081  1.00  0.00     0.022 A 
ATOM      8  C   UNL     1      -1.735   0.127  -3.832  1.00  0.00     0.022 A 
ATOM      9  C   UNL     1      -2.811   2.656  -4.381  1.00  0.00     0.017 A 
ATOM     10  C   UNL     1      -2.096   0.461  -5.143  1.00  0.00     0.017 A 
BRANCH   6  11
ATOM     11  S   UNL     1      -1.137   0.842  -1.219  1.00  0.00     0.242 S 
ATOM     12  O   UNL     1      -1.840   1.679  -0.281  1.00  0.00    -0.207 OA
ATOM     13  O   UNL     1       0.290   0.979  -1.443  1.00  0.00    -0.207 OA
BRANCH  11  14
ATOM     14  N   UNL     1      -1.471  -0.791  -0.767  1.00  0.00    -0.201 NA
ATOM     15  C   UNL     1      -2.937  -1.082  -0.748  1.00  0.00     0.124 C 
BRANCH  14  16
ATOM     16  C   UNL     1      -0.891  -1.138   0.591  1.00  0.00     0.105 C 
BRANCH  16  17
ATOM     17  C   UNL     1       0.571  -1.627   0.562  1.00  0.00    -0.002 C 
ATOM     18  C   UNL     1       1.602  -0.495   0.649  1.00  0.00     0.009 C 
ATOM     19  C   UNL     1       0.804  -2.568   1.755  1.00  0.00     0.009 C 
ENDBRANCH  16  17
ENDBRANCH  14  16
ENDBRANCH  11  14
ENDBRANCH   6  11
ENDBRANCH   3   5
ENDBRANCH   2   3
ENDBRANCH   1   2
BRANCH   1  20
ATOM     20  C   UNL     1      -4.622   3.787  -8.810  1.00  0.00     0.275 C 
BRANCH  20  21
ATOM     21  O   UNL     1      -3.917   4.842  -8.126  1.00  0.00    -0.458 OA
BRANCH  21  22
ATOM     22  C   UNL     1      -4.461   5.213  -6.946  1.00  0.00     0.338 C 
ATOM     23  O   UNL     1      -5.453   4.739  -6.414  1.00  0.00    -0.246 OA
BRANCH  22  24
ATOM     24  C   UNL     1      -3.693   6.293  -6.304  1.00  0.00     0.060 A 
ATOM     25  C   UNL     1      -2.491   5.993  -5.667  1.00  0.00     0.016 A 
ATOM     26  C   UNL     1      -4.307   7.530  -6.094  1.00  0.00     0.016 A 
ATOM     27  C   UNL     1      -1.996   6.860  -4.691  1.00  0.00     0.010 A 
ATOM     28  C   UNL     1      -3.736   8.448  -5.203  1.00  0.00     0.010 A 
ATOM     29  C   UNL     1      -2.616   8.096  -4.430  1.00  0.00    -0.014 A 
BRANCH  29  30
ATOM     30  C   UNL     1      -2.152   8.967  -3.302  1.00  0.00     0.031 A 
ATOM     31  C   UNL     1      -3.120   9.409  -2.222  1.00  0.00     0.074 A 
ATOM     32  C   UNL     1      -0.861   9.347  -3.203  1.00  0.00     0.049 A 
ATOM     33  N   UNL     1      -2.954  10.294  -1.269  1.00  0.00    -0.248 NA
ATOM     34  C   UNL     1      -4.457   8.793  -2.228  1.00  0.00     0.031 C 
ATOM     35  C   UNL     1       0.205   8.989  -4.140  1.00  0.00     0.029 A 
ATOM     36  N   UNL     1      -0.220  10.103  -2.251  1.00  0.00    -0.354 N 
ATOM     37  C   UNL     1      -4.181  10.399  -0.620  1.00  0.00     0.074 A 
ATOM     38  C   UNL     1      -5.082   9.480  -1.282  1.00  0.00     0.031 C 
ATOM     39  C   UNL     1       1.373   9.466  -3.683  1.00  0.00     0.029 A 
ATOM     40  C   UNL     1       1.131  10.237  -2.469  1.00  0.00     0.049 A 
ATOM     41  H   UNL     1      -0.685  10.511  -1.485  1.00  0.00     0.167 HD
ATOM     42  C   UNL     1      -4.529  11.187   0.428  1.00  0.00     0.037 A 
ATOM     43  C   UNL     1       2.072  10.921  -1.790  1.00  0.00     0.037 A 
ATOM     44  C   UNL     1      -3.614  12.030   1.154  1.00  0.00     0.049 A 
ATOM     45  C   UNL     1       1.680  11.732  -0.587  1.00  0.00     0.074 A 
ATOM     46  C   UNL     1      -3.874  12.866   2.228  1.00  0.00     0.029 A 
ATOM     47  N   UNL     1      -2.252  12.115   0.908  1.00  0.00    -0.354 N 
ATOM     48  N   UNL     1       0.493  11.897  -0.057  1.00  0.00    -0.248 NA
ATOM     49  C   UNL     1       2.755  12.465   0.097  1.00  0.00     0.031 C 
ATOM     50  C   UNL     1      -2.670  13.460   2.628  1.00  0.00     0.029 A 
ATOM     51  C   UNL     1      -1.657  12.974   1.819  1.00  0.00     0.049 A 
ATOM     52  H   UNL     1      -1.777  11.634   0.192  1.00  0.00     0.167 HD
ATOM     53  C   UNL     1       0.677  12.753   1.023  1.00  0.00     0.074 A 
ATOM     54  C   UNL     1       2.094  13.049   1.087  1.00  0.00     0.031 C 
ATOM     55  C   UNL     1      -0.247  13.258   1.876  1.00  0.00     0.037 A 
BRANCH  42  56
ATOM     56  C   UNL     1      -5.977  11.199   0.841  1.00  0.00     0.058 A 
ATOM     57  C   UNL     1      -6.563  10.139   1.548  1.00  0.00     0.135 A 
ATOM     58  C   UNL     1      -6.783  12.312   0.545  1.00  0.00     0.135 A 
ATOM     59  F   UNL     1      -5.843   9.045   1.843  1.00  0.00    -0.206 F 
ATOM     60  C   UNL     1      -7.904  10.167   1.921  1.00  0.00     0.059 A 
ATOM     61  C   UNL     1      -8.119  12.371   0.928  1.00  0.00     0.059 A 
ATOM     62  F   UNL     1      -6.272  13.357  -0.126  1.00  0.00    -0.206 F 
ATOM     63  C   UNL     1      -8.677  11.285   1.600  1.00  0.00     0.060 A 
BRANCH  63  64
ATOM     64  S   UNL     1     -10.418  11.312   2.080  1.00  0.00     0.124 S 
ATOM     65  O   UNL     1     -11.017  10.478   1.043  1.00  0.00    -0.237 OA
ATOM     66  O   UNL     1     -10.388  10.732   3.419  1.00  0.00    -0.237 OA
ATOM     67  O   UNL     1     -10.762  12.729   2.024  1.00  0.00    -0.744 OA
ENDBRANCH  63  64
ENDBRANCH  42  56
BRANCH  43  68
ATOM     68  C   UNL     1       3.485  10.884  -2.251  1.00  0.00     0.058 A 
ATOM     69  C   UNL     1       4.459  10.177  -1.532  1.00  0.00     0.135 A 
ATOM     70  C   UNL     1       3.880  11.533  -3.431  1.00  0.00     0.135 A 
ATOM     71  F   UNL     1       4.130   9.553  -0.391  1.00  0.00    -0.206 F 
ATOM     72  C   UNL     1       5.780  10.116  -1.964  1.00  0.00     0.059 A 
ATOM     73  C   UNL     1       5.189  11.465  -3.896  1.00  0.00     0.059 A 
ATOM     74  F   UNL     1       2.981  12.211  -4.159  1.00  0.00    -0.206 F 
ATOM     75  C   UNL     1       6.134  10.761  -3.151  1.00  0.00     0.060 A 
BRANCH  75  76
ATOM     76  S   UNL     1       7.832  10.623  -3.751  1.00  0.00     0.124 S 
ATOM     77  O   UNL     1       8.507  11.642  -2.957  1.00  0.00    -0.237 OA
ATOM     78  O   UNL     1       8.167   9.239  -3.432  1.00  0.00    -0.237 OA
ATOM     79  O   UNL     1       7.703  10.913  -5.176  1.00  0.00    -0.744 OA
ENDBRANCH  75  76
ENDBRANCH  43  68
BRANCH  55  80
ATOM     80  C   UNL     1       0.256  14.163   2.963  1.00  0.00     0.058 A 
ATOM     81  C   UNL     1       0.634  15.489   2.697  1.00  0.00     0.135 A 
ATOM     82  C   UNL     1       0.367  13.699   4.283  1.00  0.00     0.135 A 
ATOM     83  F   UNL     1       0.551  15.977   1.450  1.00  0.00    -0.206 F 
ATOM     84  C   UNL     1       1.139  16.314   3.697  1.00  0.00     0.059 A 
ATOM     85  C   UNL     1       0.852  14.513   5.302  1.00  0.00     0.059 A 
ATOM     86  F   UNL     1       0.010  12.442   4.590  1.00  0.00    -0.206 F 
ATOM     87  C   UNL     1       1.254  15.813   4.995  1.00  0.00     0.060 A 
BRANCH  87  88
ATOM     88  S   UNL     1       1.920  16.883   6.289  1.00  0.00     0.124 S 
ATOM     89  O   UNL     1       3.355  16.770   6.052  1.00  0.00    -0.237 OA
ATOM     90  O   UNL     1       1.325  18.177   5.970  1.00  0.00    -0.237 OA
ATOM     91  O   UNL     1       1.435  16.265   7.519  1.00  0.00    -0.744 OA
ENDBRANCH  87  88
ENDBRANCH  55  80
ENDBRANCH  29  30
ENDBRANCH  22  24
ENDBRANCH  21  22
ENDBRANCH  20  21
ENDBRANCH   1  20
TORSDOF 18
