REMARK SMILES C[C@H](NC(=O)OCc1ccccc1)C(=O)NCC(=O)N1CCC[C@H]1C(=O)OCCOC(=O)c1ccc(-c2c3nc(c(-c4c(F)cc(S(=O)(=O)[O-])cc4F)c4ccc([nH]4)c(-c4c(F)cc(S(=O)(=O)[O-])cc4F)c4nc(c(-c5c(F)cc(S(=O)(=O)[O-])cc5F)c5ccc2[nH]5)C=C4)C=C3)cc1
REMARK SMILES IDX 25 1 26 2 24 3 20 4 21 5 22 6 23 7 18 8 19 9 17 10 16 11
REMARK SMILES IDX 14 12 15 13 2 15 1 16 3 17 4 18 5 20 6 21 7 22 8 23 9 24
REMARK SMILES IDX 13 25 10 26 12 27 11 28 27 29 28 30 29 31 30 32 31 33 32 34
REMARK SMILES IDX 33 35 34 36 98 37 35 38 97 39 36 40 37 41 38 42 91 43 39 44
REMARK SMILES IDX 96 45 90 46 92 47 40 48 95 49 89 50 88 51 41 53 75 54 54 55
REMARK SMILES IDX 74 56 55 57 58 58 73 59 93 60 56 61 57 62 72 64 94 65 59 66
REMARK SMILES IDX 42 67 43 68 52 69 44 70 45 71 51 72 53 73 46 74 47 75 48 76
REMARK SMILES IDX 49 77 50 78 76 79 77 80 86 81 78 82 79 83 85 84 87 85 80 86
REMARK SMILES IDX 81 87 82 88 83 89 84 90 60 91 61 92 70 93 62 94 63 95 69 96
REMARK SMILES IDX 71 97 64 98 65 99 66 100 67 101 68 102
REMARK H PARENT 16 14 3 19 92 52 58 63
REMARK Flexibility Score: inf
ROOT
ATOM      1  C   UNL     1      -1.085   4.062   2.496  1.00  0.00     0.328 C 
ATOM      2  O   UNL     1      -0.456   4.671   3.357  1.00  0.00    -0.250 OA
ENDROOT
BRANCH   1   3
ATOM      3  C   UNL     1      -0.432   2.965   1.634  1.00  0.00     0.195 C 
ATOM      4  N   UNL     1      -1.320   1.989   0.997  1.00  0.00    -0.327 N 
ATOM      5  C   UNL     1      -1.502   2.261  -0.405  1.00  0.00     0.120 C 
ATOM      6  C   UNL     1      -0.181   2.900  -0.789  1.00  0.00     0.024 C 
ATOM      7  C   UNL     1       0.196   3.716   0.444  1.00  0.00     0.039 C 
BRANCH   4   8
ATOM      8  C   UNL     1      -1.995   0.958   1.606  1.00  0.00     0.242 C 
ATOM      9  O   UNL     1      -3.227   0.932   1.616  1.00  0.00    -0.273 OA
BRANCH   8  10
ATOM     10  C   UNL     1      -1.196  -0.333   1.849  1.00  0.00     0.216 C 
BRANCH  10  11
ATOM     11  N   UNL     1      -1.588  -1.192   0.728  1.00  0.00    -0.345 N 
ATOM     12  C   UNL     1      -0.929  -1.700  -0.349  1.00  0.00     0.242 C 
ATOM     13  O   UNL     1      -1.615  -2.164  -1.264  1.00  0.00    -0.273 OA
ATOM     14  H   UNL     1      -2.535  -1.461   0.761  1.00  0.00     0.164 HD
BRANCH  12  15
ATOM     15  C   UNL     1       0.598  -1.875  -0.363  1.00  0.00     0.171 C 
ATOM     16  C   UNL     1       0.943  -3.063   0.535  1.00  0.00     0.042 C 
BRANCH  15  17
ATOM     17  N   UNL     1       1.282  -0.656   0.025  1.00  0.00    -0.310 N 
ATOM     18  C   UNL     1       2.621  -0.459   0.109  1.00  0.00     0.408 C 
ATOM     19  H   UNL     1       0.711   0.114   0.251  1.00  0.00     0.167 HD
ATOM     20  O   UNL     1       3.062   0.563   0.623  1.00  0.00    -0.225 OA
BRANCH  18  21
ATOM     21  O   UNL     1       3.343  -1.444  -0.464  1.00  0.00    -0.445 OA
BRANCH  21  22
ATOM     22  C   UNL     1       4.768  -1.327  -0.350  1.00  0.00     0.270 C 
BRANCH  22  23
ATOM     23  C   UNL     1       5.412  -0.572  -1.496  1.00  0.00    -0.011 A 
ATOM     24  C   UNL     1       6.661  -0.988  -1.981  1.00  0.00     0.007 A 
ATOM     25  C   UNL     1       4.853   0.601  -2.025  1.00  0.00     0.007 A 
ATOM     26  C   UNL     1       7.325  -0.254  -2.968  1.00  0.00     0.000 A 
ATOM     27  C   UNL     1       5.516   1.335  -3.009  1.00  0.00     0.000 A 
ATOM     28  C   UNL     1       6.754   0.909  -3.479  1.00  0.00     0.000 A 
ENDBRANCH  22  23
ENDBRANCH  21  22
ENDBRANCH  18  21
ENDBRANCH  15  17
ENDBRANCH  12  15
ENDBRANCH  10  11
ENDBRANCH   8  10
ENDBRANCH   4   8
ENDBRANCH   1   3
BRANCH   1  29
ATOM     29  O   UNL     1      -2.344   4.386   2.087  1.00  0.00    -0.461 OA
BRANCH  29  30
ATOM     30  C   UNL     1      -2.988   5.455   2.815  1.00  0.00     0.274 C 
BRANCH  30  31
ATOM     31  C   UNL     1      -4.055   4.886   3.740  1.00  0.00     0.275 C 
BRANCH  31  32
ATOM     32  O   UNL     1      -3.461   3.836   4.519  1.00  0.00    -0.458 OA
BRANCH  32  33
ATOM     33  C   UNL     1      -4.039   2.621   4.372  1.00  0.00     0.338 C 
ATOM     34  O   UNL     1      -5.100   2.378   3.824  1.00  0.00    -0.246 OA
BRANCH  33  35
ATOM     35  C   UNL     1      -3.206   1.591   5.026  1.00  0.00     0.060 A 
ATOM     36  C   UNL     1      -1.814   1.572   4.904  1.00  0.00     0.016 A 
ATOM     37  C   UNL     1      -3.854   0.573   5.722  1.00  0.00     0.016 A 
ATOM     38  C   UNL     1      -1.081   0.496   5.406  1.00  0.00     0.010 A 
ATOM     39  C   UNL     1      -3.108  -0.445   6.318  1.00  0.00     0.010 A 
ATOM     40  C   UNL     1      -1.716  -0.513   6.145  1.00  0.00    -0.014 A 
BRANCH  40  41
ATOM     41  C   UNL     1      -0.938  -1.619   6.773  1.00  0.00     0.031 A 
ATOM     42  C   UNL     1      -1.275  -3.060   6.478  1.00  0.00     0.074 A 
ATOM     43  C   UNL     1       0.036  -1.328   7.661  1.00  0.00     0.049 A 
ATOM     44  N   UNL     1      -0.835  -4.145   7.063  1.00  0.00    -0.248 NA
ATOM     45  C   UNL     1      -2.243  -3.317   5.398  1.00  0.00     0.031 C 
ATOM     46  C   UNL     1       0.464   0.021   8.042  1.00  0.00     0.029 A 
ATOM     47  N   UNL     1       0.832  -2.150   8.422  1.00  0.00    -0.354 N 
ATOM     48  C   UNL     1      -1.510  -5.205   6.466  1.00  0.00     0.074 A 
ATOM     49  C   UNL     1      -2.388  -4.634   5.467  1.00  0.00     0.031 C 
ATOM     50  C   UNL     1       1.449  -0.064   8.947  1.00  0.00     0.029 A 
ATOM     51  C   UNL     1       1.666  -1.467   9.278  1.00  0.00     0.049 A 
ATOM     52  H   UNL     1       0.809  -3.132   8.361  1.00  0.00     0.167 HD
ATOM     53  C   UNL     1      -1.410  -6.529   6.733  1.00  0.00     0.037 A 
ATOM     54  C   UNL     1       2.475  -1.906  10.261  1.00  0.00     0.037 A 
ATOM     55  C   UNL     1      -0.497  -7.096   7.695  1.00  0.00     0.049 A 
ATOM     56  C   UNL     1       2.558  -3.380  10.540  1.00  0.00     0.074 A 
ATOM     57  C   UNL     1      -0.271  -8.434   7.976  1.00  0.00     0.029 A 
ATOM     58  N   UNL     1       0.333  -6.368   8.533  1.00  0.00    -0.354 N 
ATOM     59  N   UNL     1       1.932  -4.367   9.945  1.00  0.00    -0.248 NA
ATOM     60  C   UNL     1       3.448  -3.800  11.630  1.00  0.00     0.031 C 
ATOM     61  C   UNL     1       0.656  -8.512   9.020  1.00  0.00     0.029 A 
ATOM     62  C   UNL     1       1.050  -7.226   9.352  1.00  0.00     0.049 A 
ATOM     63  H   UNL     1       0.403  -5.386   8.545  1.00  0.00     0.167 HD
ATOM     64  C   UNL     1       2.368  -5.526  10.578  1.00  0.00     0.074 A 
ATOM     65  C   UNL     1       3.326  -5.119  11.584  1.00  0.00     0.031 C 
ATOM     66  C   UNL     1       2.003  -6.811  10.349  1.00  0.00     0.037 A 
BRANCH  53  67
ATOM     67  C   UNL     1      -2.319  -7.480   6.001  1.00  0.00     0.058 A 
ATOM     68  C   UNL     1      -2.118  -7.818   4.655  1.00  0.00     0.135 A 
ATOM     69  C   UNL     1      -3.345  -8.143   6.697  1.00  0.00     0.135 A 
ATOM     70  F   UNL     1      -1.162  -7.205   3.939  1.00  0.00    -0.206 F 
ATOM     71  C   UNL     1      -2.902  -8.779   4.023  1.00  0.00     0.059 A 
ATOM     72  C   UNL     1      -4.125  -9.124   6.092  1.00  0.00     0.059 A 
ATOM     73  F   UNL     1      -3.581  -7.856   7.987  1.00  0.00    -0.206 F 
ATOM     74  C   UNL     1      -3.898  -9.434   4.753  1.00  0.00     0.060 A 
BRANCH  74  75
ATOM     75  S   UNL     1      -4.866 -10.720   3.935  1.00  0.00     0.124 S 
ATOM     76  O   UNL     1      -5.708  -9.929   3.042  1.00  0.00    -0.237 OA
ATOM     77  O   UNL     1      -3.834 -11.523   3.287  1.00  0.00    -0.237 OA
ATOM     78  O   UNL     1      -5.564 -11.375   5.037  1.00  0.00    -0.744 OA
ENDBRANCH  74  75
ENDBRANCH  53  67
BRANCH  54  79
ATOM     79  C   UNL     1       3.236  -0.933  11.090  1.00  0.00     0.058 A 
ATOM     80  C   UNL     1       4.634  -0.861  11.023  1.00  0.00     0.135 A 
ATOM     81  C   UNL     1       2.577  -0.063  11.974  1.00  0.00     0.135 A 
ATOM     82  F   UNL     1       5.309  -1.676  10.198  1.00  0.00    -0.206 F 
ATOM     83  C   UNL     1       5.357   0.020  11.822  1.00  0.00     0.059 A 
ATOM     84  C   UNL     1       3.275   0.849  12.758  1.00  0.00     0.059 A 
ATOM     85  F   UNL     1       1.238  -0.079  12.063  1.00  0.00    -0.206 F 
ATOM     86  C   UNL     1       4.667   0.870  12.688  1.00  0.00     0.060 A 
BRANCH  86  87
ATOM     87  S   UNL     1       5.609   2.026  13.705  1.00  0.00     0.124 S 
ATOM     88  O   UNL     1       6.142   1.141  14.734  1.00  0.00    -0.237 OA
ATOM     89  O   UNL     1       6.579   2.556  12.752  1.00  0.00    -0.237 OA
ATOM     90  O   UNL     1       4.596   2.978  14.152  1.00  0.00    -0.744 OA
ENDBRANCH  86  87
ENDBRANCH  54  79
BRANCH  66  91
ATOM     91  C   UNL     1       2.671  -7.872  11.178  1.00  0.00     0.058 A 
ATOM     92  C   UNL     1       2.374  -8.043  12.539  1.00  0.00     0.135 A 
ATOM     93  C   UNL     1       3.609  -8.742  10.597  1.00  0.00     0.135 A 
ATOM     94  F   UNL     1       1.492  -7.232  13.144  1.00  0.00    -0.206 F 
ATOM     95  C   UNL     1       3.008  -9.016  13.304  1.00  0.00     0.059 A 
ATOM     96  C   UNL     1       4.233  -9.741  11.337  1.00  0.00     0.059 A 
ATOM     97  F   UNL     1       3.922  -8.629   9.297  1.00  0.00    -0.206 F 
ATOM     98  C   UNL     1       3.938  -9.859  12.694  1.00  0.00     0.060 A 
BRANCH  98  99
ATOM     99  S   UNL     1       4.749 -11.125  13.695  1.00  0.00     0.124 S 
ATOM    100  O   UNL     1       5.696 -10.327  14.466  1.00  0.00    -0.237 OA
ATOM    101  O   UNL     1       3.634 -11.690  14.449  1.00  0.00    -0.237 OA
ATOM    102  O   UNL     1       5.340 -12.015  12.701  1.00  0.00    -0.744 OA
ENDBRANCH  98  99
ENDBRANCH  66  91
ENDBRANCH  40  41
ENDBRANCH  33  35
ENDBRANCH  32  33
ENDBRANCH  31  32
ENDBRANCH  30  31
ENDBRANCH  29  30
ENDBRANCH   1  29
TORSDOF 22
