REMARK SMILES CC[N@H+](CC(C)(C)C(=O)OCCOC(=O)c1ccc(-c2c3nc(c(-c4c(F)cc(S(=O)(=O)[O-])cc4F)c4ccc([nH]4)c(-c4c(F)cc(S(=O)(=O)[O-])cc4F)c4nc(c(-c5c(F)cc(S(=O)(=O)[O-])cc5F)c5ccc2[nH]5)C=C4)C=C3)cc1)[C@H]1CC[NH2+]C1
REMARK SMILES IDX 11 1 10 2 8 3 9 4 5 5 6 6 7 7 4 8 3 9 2 11 1 12 82 13 83 14
REMARK SMILES IDX 86 15 84 16 85 17 12 20 13 21 14 22 15 23 16 24 17 25 81 26
REMARK SMILES IDX 18 27 80 28 19 29 20 30 21 31 74 32 22 33 79 34 73 35 75 36
REMARK SMILES IDX 23 37 78 38 72 39 71 40 24 42 58 43 37 44 57 45 38 46 41 47
REMARK SMILES IDX 56 48 76 49 39 50 40 51 55 53 77 54 42 55 25 56 26 57 35 58
REMARK SMILES IDX 27 59 28 60 34 61 36 62 29 63 30 64 31 65 32 66 33 67 59 68
REMARK SMILES IDX 60 69 69 70 61 71 62 72 68 73 70 74 63 75 64 76 65 77 66 78
REMARK SMILES IDX 67 79 43 80 44 81 53 82 45 83 46 84 52 85 54 86 47 87 48 88
REMARK SMILES IDX 49 89 50 90 51 91
REMARK H PARENT 3 10 85 18 85 19 75 41 41 52
REMARK Flexibility Score: inf
ROOT
ATOM      1  C   UNL     1       4.604  -1.705   7.391  1.00  0.00     0.274 C 
ENDROOT
BRANCH   1   2
ATOM      2  O   UNL     1       3.584  -0.679   7.328  1.00  0.00    -0.461 OA
BRANCH   2   3
ATOM      3  C   UNL     1       3.322  -0.261   6.062  1.00  0.00     0.317 C 
ATOM      4  O   UNL     1       3.778  -0.851   5.092  1.00  0.00    -0.251 OA
BRANCH   3   5
ATOM      5  C   UNL     1       2.420   0.967   5.955  1.00  0.00     0.111 C 
ATOM      6  C   UNL     1       2.967   2.169   6.734  1.00  0.00     0.029 C 
ATOM      7  C   UNL     1       1.062   0.558   6.573  1.00  0.00     0.029 C 
BRANCH   5   8
ATOM      8  C   UNL     1       2.176   1.350   4.445  1.00  0.00     0.280 C 
BRANCH   8   9
ATOM      9  N   UNL     1       3.221   1.962   3.558  1.00  0.00    -0.327 N 
ATOM     10  H   UNL     1       3.461   2.892   3.902  1.00  0.00     0.348 HD
BRANCH   9  11
ATOM     11  C   UNL     1       4.502   1.230   3.603  1.00  0.00     0.259 C 
ATOM     12  C   UNL     1       5.698   1.728   2.802  1.00  0.00     0.071 C 
ENDBRANCH   9  11
BRANCH   9  13
ATOM     13  C   UNL     1       2.651   2.102   2.184  1.00  0.00     0.245 C 
ATOM     14  C   UNL     1       3.020   3.437   1.533  1.00  0.00     0.132 C 
ATOM     15  C   UNL     1       2.945   1.062   1.079  1.00  0.00     0.326 C 
ATOM     16  C   UNL     1       2.952   3.141   0.045  1.00  0.00     0.267 C 
ATOM     17  N   UNL     1       3.504   1.797  -0.062  1.00  0.00    -0.341 N 
ATOM     18  H   UNL     1       4.522   1.822  -0.008  1.00  0.00     0.346 HD
ATOM     19  H   UNL     1       3.269   1.357  -0.952  1.00  0.00     0.346 HD
ENDBRANCH   9  13
ENDBRANCH   8   9
ENDBRANCH   5   8
ENDBRANCH   3   5
ENDBRANCH   2   3
ENDBRANCH   1   2
BRANCH   1  20
ATOM     20  C   UNL     1       4.138  -3.141   7.056  1.00  0.00     0.275 C 
BRANCH  20  21
ATOM     21  O   UNL     1       3.887  -3.388   5.650  1.00  0.00    -0.458 OA
BRANCH  21  22
ATOM     22  C   UNL     1       2.581  -3.351   5.267  1.00  0.00     0.338 C 
ATOM     23  O   UNL     1       1.625  -3.250   6.021  1.00  0.00    -0.246 OA
BRANCH  22  24
ATOM     24  C   UNL     1       2.439  -3.230   3.787  1.00  0.00     0.060 A 
ATOM     25  C   UNL     1       1.586  -2.224   3.319  1.00  0.00     0.016 A 
ATOM     26  C   UNL     1       3.089  -4.048   2.861  1.00  0.00     0.016 A 
ATOM     27  C   UNL     1       1.444  -1.978   1.950  1.00  0.00     0.010 A 
ATOM     28  C   UNL     1       2.903  -3.833   1.477  1.00  0.00     0.010 A 
ATOM     29  C   UNL     1       2.103  -2.777   1.004  1.00  0.00    -0.014 A 
BRANCH  29  30
ATOM     30  C   UNL     1       1.913  -2.499  -0.455  1.00  0.00     0.031 A 
ATOM     31  C   UNL     1       0.591  -2.794  -1.113  1.00  0.00     0.074 A 
ATOM     32  C   UNL     1       2.884  -1.909  -1.186  1.00  0.00     0.049 A 
ATOM     33  N   UNL     1       0.233  -2.631  -2.362  1.00  0.00    -0.248 NA
ATOM     34  C   UNL     1      -0.459  -3.365  -0.258  1.00  0.00     0.031 C 
ATOM     35  C   UNL     1       4.189  -1.509  -0.669  1.00  0.00     0.029 A 
ATOM     36  N   UNL     1       2.903  -1.479  -2.496  1.00  0.00    -0.354 N 
ATOM     37  C   UNL     1      -1.055  -3.143  -2.459  1.00  0.00     0.074 A 
ATOM     38  C   UNL     1      -1.441  -3.559  -1.127  1.00  0.00     0.031 C 
ATOM     39  C   UNL     1       4.832  -0.793  -1.607  1.00  0.00     0.029 A 
ATOM     40  C   UNL     1       4.029  -0.750  -2.827  1.00  0.00     0.049 A 
ATOM     41  H   UNL     1       2.181  -1.673  -3.137  1.00  0.00     0.167 HD
ATOM     42  C   UNL     1      -1.819  -3.311  -3.567  1.00  0.00     0.037 A 
ATOM     43  C   UNL     1       4.375  -0.126  -3.977  1.00  0.00     0.037 A 
ATOM     44  C   UNL     1      -1.424  -2.921  -4.897  1.00  0.00     0.049 A 
ATOM     45  C   UNL     1       3.501  -0.316  -5.196  1.00  0.00     0.074 A 
ATOM     46  C   UNL     1      -2.102  -3.120  -6.088  1.00  0.00     0.029 A 
ATOM     47  N   UNL     1      -0.245  -2.262  -5.217  1.00  0.00    -0.354 N 
ATOM     48  N   UNL     1       2.317  -0.872  -5.289  1.00  0.00    -0.248 NA
ATOM     49  C   UNL     1       4.050   0.136  -6.486  1.00  0.00     0.031 C 
ATOM     50  C   UNL     1      -1.308  -2.635  -7.132  1.00  0.00     0.029 A 
ATOM     51  C   UNL     1      -0.162  -2.078  -6.589  1.00  0.00     0.049 A 
ATOM     52  H   UNL     1       0.432  -1.969  -4.566  1.00  0.00     0.167 HD
ATOM     53  C   UNL     1       2.002  -0.877  -6.645  1.00  0.00     0.074 A 
ATOM     54  C   UNL     1       3.086  -0.205  -7.330  1.00  0.00     0.031 C 
ATOM     55  C   UNL     1       0.931  -1.427  -7.269  1.00  0.00     0.037 A 
BRANCH  42  56
ATOM     56  C   UNL     1      -3.107  -4.069  -3.398  1.00  0.00     0.058 A 
ATOM     57  C   UNL     1      -4.229  -3.520  -2.762  1.00  0.00     0.135 A 
ATOM     58  C   UNL     1      -3.204  -5.388  -3.877  1.00  0.00     0.135 A 
ATOM     59  F   UNL     1      -4.184  -2.274  -2.265  1.00  0.00    -0.206 F 
ATOM     60  C   UNL     1      -5.390  -4.265  -2.571  1.00  0.00     0.059 A 
ATOM     61  C   UNL     1      -4.363  -6.139  -3.724  1.00  0.00     0.059 A 
ATOM     62  F   UNL     1      -2.158  -5.963  -4.490  1.00  0.00    -0.206 F 
ATOM     63  C   UNL     1      -5.444  -5.576  -3.050  1.00  0.00     0.060 A 
BRANCH  63  64
ATOM     64  S   UNL     1      -6.943  -6.541  -2.765  1.00  0.00     0.124 S 
ATOM     65  O   UNL     1      -6.857  -6.793  -1.330  1.00  0.00    -0.237 OA
ATOM     66  O   UNL     1      -7.992  -5.618  -3.184  1.00  0.00    -0.237 OA
ATOM     67  O   UNL     1      -6.763  -7.712  -3.619  1.00  0.00    -0.744 OA
ENDBRANCH  63  64
ENDBRANCH  42  56
BRANCH  43  68
ATOM     68  C   UNL     1       5.629   0.685  -4.079  1.00  0.00     0.058 A 
ATOM     69  C   UNL     1       5.585   2.049  -4.420  1.00  0.00     0.135 A 
ATOM     70  C   UNL     1       6.899   0.120  -3.879  1.00  0.00     0.135 A 
ATOM     71  F   UNL     1       4.407   2.643  -4.666  1.00  0.00    -0.206 F 
ATOM     72  C   UNL     1       6.743   2.815  -4.557  1.00  0.00     0.059 A 
ATOM     73  C   UNL     1       8.067   0.874  -3.968  1.00  0.00     0.059 A 
ATOM     74  F   UNL     1       7.018  -1.182  -3.577  1.00  0.00    -0.206 F 
ATOM     75  C   UNL     1       7.981   2.219  -4.319  1.00  0.00     0.060 A 
BRANCH  75  76
ATOM     76  S   UNL     1       9.479   3.224  -4.435  1.00  0.00     0.124 S 
ATOM     77  O   UNL     1       9.649   3.338  -5.878  1.00  0.00    -0.237 OA
ATOM     78  O   UNL     1       9.088   4.447  -3.740  1.00  0.00    -0.237 OA
ATOM     79  O   UNL     1      10.478   2.414  -3.743  1.00  0.00    -0.744 OA
ENDBRANCH  75  76
ENDBRANCH  43  68
BRANCH  55  80
ATOM     80  C   UNL     1       0.892  -1.380  -8.775  1.00  0.00     0.058 A 
ATOM     81  C   UNL     1       1.741  -2.188  -9.550  1.00  0.00     0.135 A 
ATOM     82  C   UNL     1      -0.060  -0.599  -9.451  1.00  0.00     0.135 A 
ATOM     83  F   UNL     1       2.674  -2.951  -8.958  1.00  0.00    -0.206 F 
ATOM     84  C   UNL     1       1.652  -2.220 -10.938  1.00  0.00     0.059 A 
ATOM     85  C   UNL     1      -0.184  -0.635 -10.838  1.00  0.00     0.059 A 
ATOM     86  F   UNL     1      -0.903   0.185  -8.761  1.00  0.00    -0.206 F 
ATOM     87  C   UNL     1       0.679  -1.447 -11.574  1.00  0.00     0.060 A 
BRANCH  87  88
ATOM     88  S   UNL     1       0.531  -1.552 -13.371  1.00  0.00     0.124 S 
ATOM     89  O   UNL     1       1.745  -0.873 -13.809  1.00  0.00    -0.237 OA
ATOM     90  O   UNL     1       0.496  -2.994 -13.596  1.00  0.00    -0.237 OA
ATOM     91  O   UNL     1      -0.717  -0.850 -13.653  1.00  0.00    -0.744 OA
ENDBRANCH  87  88
ENDBRANCH  55  80
ENDBRANCH  29  30
ENDBRANCH  22  24
ENDBRANCH  21  22
ENDBRANCH  20  21
ENDBRANCH   1  20
TORSDOF 18
