REMARK SMILES C[N@@H+]1CCN(C(=O)c2ccc3[nH]c4c(c3c2)CSCC4)C[C@H]1C(=O)OCCOC(=O)c1ccc(-c2c3nc(c(-c4c(F)cc(S(=O)(=O)[O-])cc4F)c4ccc([nH]4)c(-c4c(F)cc(S(=O)(=O)[O-])cc4F)c4nc(c(-c5c(F)cc(S(=O)(=O)[O-])cc5F)c5ccc2[nH]5)C=C4)C=C3)cc1
REMARK SMILES IDX 27 1 26 2 25 3 23 4 24 5 22 6 1 7 2 8 3 9 4 11 21 12 5 13
REMARK SMILES IDX 6 14 7 15 8 16 9 17 16 18 10 19 15 20 11 21 14 22 12 23
REMARK SMILES IDX 13 24 17 25 20 27 18 28 19 29 28 30 29 31 30 32 31 33 32 34
REMARK SMILES IDX 96 35 33 36 95 37 34 38 35 39 36 40 89 41 37 42 94 43 88 44
REMARK SMILES IDX 90 45 38 46 93 47 87 48 86 49 39 51 73 52 52 53 72 54 53 55
REMARK SMILES IDX 56 56 71 57 91 58 54 59 55 60 70 62 92 63 57 64 40 65 41 66
REMARK SMILES IDX 50 67 42 68 43 69 49 70 51 71 44 72 45 73 46 74 47 75 48 76
REMARK SMILES IDX 74 77 75 78 84 79 76 80 77 81 83 82 85 83 78 84 79 85 80 86
REMARK SMILES IDX 81 87 82 88 58 89 59 90 68 91 60 92 61 93 67 94 69 95 62 96
REMARK SMILES IDX 63 97 64 98 65 99 66 100
REMARK H PARENT 2 10 12 26 90 50 56 61
REMARK Flexibility Score: inf
ROOT
ATOM      1  C   UNL     1       3.686  -4.031  -1.020  1.00  0.00     0.275 C 
ENDROOT
BRANCH   1   2
ATOM      2  C   UNL     1       2.718  -3.626  -2.144  1.00  0.00     0.274 C 
BRANCH   2   3
ATOM      3  O   UNL     1       2.284  -2.250  -2.020  1.00  0.00    -0.458 OA
BRANCH   3   4
ATOM      4  C   UNL     1       1.187  -2.137  -1.246  1.00  0.00     0.366 C 
ATOM      5  O   UNL     1       0.641  -3.118  -0.740  1.00  0.00    -0.245 OA
BRANCH   4   6
ATOM      6  C   UNL     1       0.566  -0.780  -1.061  1.00  0.00     0.314 C 
ATOM      7  C   UNL     1       2.602   0.550  -0.488  1.00  0.00     0.333 C 
ATOM      8  N   UNL     1       1.292   0.517  -1.116  1.00  0.00    -0.323 N 
ATOM      9  C   UNL     1       0.360   1.508  -0.462  1.00  0.00     0.284 C 
ATOM     10  H   UNL     1       1.511   0.725  -2.090  1.00  0.00     0.348 HD
ATOM     11  C   UNL     1      -1.127   1.494  -0.987  1.00  0.00     0.181 C 
ATOM     12  C   UNL     1      -0.571  -0.641  -2.072  1.00  0.00     0.197 C 
ATOM     13  N   UNL     1      -1.593   0.161  -1.424  1.00  0.00    -0.326 N 
BRANCH  13  14
ATOM     14  C   UNL     1      -2.898  -0.259  -1.203  1.00  0.00     0.254 C 
ATOM     15  O   UNL     1      -3.766   0.529  -0.831  1.00  0.00    -0.269 OA
BRANCH  14  16
ATOM     16  C   UNL     1      -3.270  -1.716  -1.325  1.00  0.00     0.040 A 
ATOM     17  C   UNL     1      -2.446  -2.730  -0.812  1.00  0.00     0.016 A 
ATOM     18  C   UNL     1      -4.591  -2.026  -1.657  1.00  0.00     0.024 A 
ATOM     19  C   UNL     1      -2.890  -4.031  -0.563  1.00  0.00     0.027 A 
ATOM     20  C   UNL     1      -5.099  -3.300  -1.317  1.00  0.00     0.004 A 
ATOM     21  C   UNL     1      -4.247  -4.251  -0.752  1.00  0.00     0.046 A 
ATOM     22  C   UNL     1      -6.409  -3.857  -1.312  1.00  0.00    -0.009 A 
ATOM     23  N   UNL     1      -5.021  -5.318  -0.358  1.00  0.00    -0.358 N 
ATOM     24  C   UNL     1      -6.336  -5.030  -0.585  1.00  0.00     0.021 A 
ATOM     25  C   UNL     1      -7.655  -3.218  -1.821  1.00  0.00     0.107 C 
ATOM     26  H   UNL     1      -4.680  -6.157   0.027  1.00  0.00     0.166 HD
ATOM     27  C   UNL     1      -7.455  -5.869  -0.073  1.00  0.00     0.065 C 
ATOM     28  S   UNL     1      -9.081  -4.364  -1.804  1.00  0.00    -0.157 SA
ATOM     29  C   UNL     1      -8.787  -5.109  -0.151  1.00  0.00     0.076 C 
ENDBRANCH  14  16
ENDBRANCH  13  14
ENDBRANCH   4   6
ENDBRANCH   3   4
ENDBRANCH   2   3
ENDBRANCH   1   2
BRANCH   1  30
ATOM     30  O   UNL     1       3.011  -4.144   0.247  1.00  0.00    -0.458 OA
BRANCH  30  31
ATOM     31  C   UNL     1       3.183  -3.128   1.124  1.00  0.00     0.338 C 
ATOM     32  O   UNL     1       4.049  -2.256   1.070  1.00  0.00    -0.246 OA
BRANCH  31  33
ATOM     33  C   UNL     1       1.982  -3.028   1.980  1.00  0.00     0.060 A 
ATOM     34  C   UNL     1       1.257  -4.147   2.388  1.00  0.00     0.016 A 
ATOM     35  C   UNL     1       1.482  -1.739   2.215  1.00  0.00     0.016 A 
ATOM     36  C   UNL     1      -0.000  -3.963   2.955  1.00  0.00     0.010 A 
ATOM     37  C   UNL     1       0.203  -1.555   2.716  1.00  0.00     0.010 A 
ATOM     38  C   UNL     1      -0.538  -2.671   3.079  1.00  0.00    -0.014 A 
BRANCH  38  39
ATOM     39  C   UNL     1      -1.784  -2.523   3.815  1.00  0.00     0.031 A 
ATOM     40  C   UNL     1      -1.609  -2.513   5.271  1.00  0.00     0.074 A 
ATOM     41  C   UNL     1      -3.001  -2.255   3.316  1.00  0.00     0.049 A 
ATOM     42  N   UNL     1      -1.780  -3.492   6.090  1.00  0.00    -0.248 NA
ATOM     43  C   UNL     1      -1.039  -1.298   5.868  1.00  0.00     0.031 C 
ATOM     44  C   UNL     1      -3.271  -1.694   2.014  1.00  0.00     0.029 A 
ATOM     45  N   UNL     1      -4.239  -2.357   3.883  1.00  0.00    -0.354 N 
ATOM     46  C   UNL     1      -1.623  -2.924   7.342  1.00  0.00     0.074 A 
ATOM     47  C   UNL     1      -0.947  -1.666   7.146  1.00  0.00     0.031 C 
ATOM     48  C   UNL     1      -4.587  -1.444   1.880  1.00  0.00     0.029 A 
ATOM     49  C   UNL     1      -5.264  -1.865   3.086  1.00  0.00     0.049 A 
ATOM     50  H   UNL     1      -4.391  -2.744   4.775  1.00  0.00     0.167 HD
ATOM     51  C   UNL     1      -2.345  -3.376   8.401  1.00  0.00     0.037 A 
ATOM     52  C   UNL     1      -6.580  -1.711   3.375  1.00  0.00     0.037 A 
ATOM     53  C   UNL     1      -2.894  -4.689   8.164  1.00  0.00     0.049 A 
ATOM     54  C   UNL     1      -6.880  -2.593   4.530  1.00  0.00     0.074 A 
ATOM     55  C   UNL     1      -2.353  -5.895   7.752  1.00  0.00     0.029 A 
ATOM     56  N   UNL     1      -4.247  -4.807   7.947  1.00  0.00    -0.354 N 
ATOM     57  N   UNL     1      -6.787  -3.901   4.490  1.00  0.00    -0.248 NA
ATOM     58  C   UNL     1      -6.769  -2.012   5.861  1.00  0.00     0.031 C 
ATOM     59  C   UNL     1      -3.324  -6.463   6.874  1.00  0.00     0.029 A 
ATOM     60  C   UNL     1      -4.418  -5.596   6.834  1.00  0.00     0.049 A 
ATOM     61  H   UNL     1      -4.962  -4.401   8.489  1.00  0.00     0.167 HD
ATOM     62  C   UNL     1      -6.200  -4.262   5.700  1.00  0.00     0.074 A 
ATOM     63  C   UNL     1      -6.281  -3.062   6.528  1.00  0.00     0.031 C 
ATOM     64  C   UNL     1      -5.451  -5.400   5.834  1.00  0.00     0.037 A 
BRANCH  51  65
ATOM     65  C   UNL     1      -2.813  -2.451   9.486  1.00  0.00     0.058 A 
ATOM     66  C   UNL     1      -3.192  -2.968  10.733  1.00  0.00     0.135 A 
ATOM     67  C   UNL     1      -3.090  -1.078   9.275  1.00  0.00     0.135 A 
ATOM     68  F   UNL     1      -3.033  -4.273  11.005  1.00  0.00    -0.206 F 
ATOM     69  C   UNL     1      -3.794  -2.175  11.709  1.00  0.00     0.059 A 
ATOM     70  C   UNL     1      -3.624  -0.255  10.254  1.00  0.00     0.059 A 
ATOM     71  F   UNL     1      -2.934  -0.498   8.077  1.00  0.00    -0.206 F 
ATOM     72  C   UNL     1      -3.999  -0.819  11.461  1.00  0.00     0.060 A 
BRANCH  72  73
ATOM     73  S   UNL     1      -4.811   0.196  12.706  1.00  0.00     0.124 S 
ATOM     74  O   UNL     1      -6.184  -0.288  12.620  1.00  0.00    -0.237 OA
ATOM     75  O   UNL     1      -4.078  -0.164  13.915  1.00  0.00    -0.237 OA
ATOM     76  O   UNL     1      -4.588   1.557  12.227  1.00  0.00    -0.744 OA
ENDBRANCH  72  73
ENDBRANCH  51  65
BRANCH  52  77
ATOM     77  C   UNL     1      -7.370  -0.552   2.863  1.00  0.00     0.058 A 
ATOM     78  C   UNL     1      -8.737  -0.573   2.559  1.00  0.00     0.135 A 
ATOM     79  C   UNL     1      -6.727   0.702   2.701  1.00  0.00     0.135 A 
ATOM     80  F   UNL     1      -9.453  -1.692   2.750  1.00  0.00    -0.206 F 
ATOM     81  C   UNL     1      -9.405   0.561   2.054  1.00  0.00     0.059 A 
ATOM     82  C   UNL     1      -7.353   1.824   2.171  1.00  0.00     0.059 A 
ATOM     83  F   UNL     1      -5.455   0.872   3.096  1.00  0.00    -0.206 F 
ATOM     84  C   UNL     1      -8.699   1.752   1.851  1.00  0.00     0.060 A 
BRANCH  84  85
ATOM     85  S   UNL     1      -9.527   3.217   1.182  1.00  0.00     0.124 S 
ATOM     86  O   UNL     1     -10.322   2.664   0.091  1.00  0.00    -0.237 OA
ATOM     87  O   UNL     1     -10.279   3.690   2.340  1.00  0.00    -0.237 OA
ATOM     88  O   UNL     1      -8.421   4.076   0.765  1.00  0.00    -0.744 OA
ENDBRANCH  84  85
ENDBRANCH  52  77
BRANCH  64  89
ATOM     89  C   UNL     1      -5.498  -6.423   4.728  1.00  0.00     0.058 A 
ATOM     90  C   UNL     1      -4.674  -6.353   3.590  1.00  0.00     0.135 A 
ATOM     91  C   UNL     1      -6.216  -7.611   4.928  1.00  0.00     0.135 A 
ATOM     92  F   UNL     1      -3.888  -5.288   3.376  1.00  0.00    -0.206 F 
ATOM     93  C   UNL     1      -4.571  -7.418   2.692  1.00  0.00     0.059 A 
ATOM     94  C   UNL     1      -6.134  -8.683   4.038  1.00  0.00     0.059 A 
ATOM     95  F   UNL     1      -6.955  -7.768   6.038  1.00  0.00    -0.206 F 
ATOM     96  C   UNL     1      -5.316  -8.574   2.915  1.00  0.00     0.060 A 
BRANCH  96  97
ATOM     97  S   UNL     1      -5.153  -9.965   1.771  1.00  0.00     0.124 S 
ATOM     98  O   UNL     1      -6.097  -9.592   0.723  1.00  0.00    -0.237 OA
ATOM     99  O   UNL     1      -3.743  -9.912   1.394  1.00  0.00    -0.237 OA
ATOM    100  O   UNL     1      -5.531 -11.118   2.584  1.00  0.00    -0.744 OA
ENDBRANCH  96  97
ENDBRANCH  64  89
ENDBRANCH  38  39
ENDBRANCH  31  33
ENDBRANCH  30  31
ENDBRANCH   1  30
TORSDOF 16
