REMARK SMILES Cn1ccc(NC(=O)[C@@H]2CCCC[C@@H]2C(=O)OCCOC(=O)c2ccc(-c3c4nc(c(-c5c(F)cc(S(=O)(=O)[O-])cc5F)c5ccc([nH]5)c(-c5c(F)cc(S(=O)(=O)[O-])cc5F)c5nc(c(-c6c(F)cc(S(=O)(=O)[O-])cc6F)c6ccc3[nH]6)C=C5)C=C4)cc2)n1
REMARK SMILES IDX 19 1 18 2 17 3 15 4 16 5 14 6 9 7 10 8 11 9 13 10 12 11 7 12
REMARK SMILES IDX 6 13 8 15 5 16 1 17 2 18 3 19 89 20 4 21 20 22 21 23 22 24
REMARK SMILES IDX 23 25 24 26 88 27 25 28 87 29 26 30 27 31 28 32 81 33 29 34
REMARK SMILES IDX 86 35 80 36 82 37 30 38 85 39 79 40 78 41 31 43 65 44 44 45
REMARK SMILES IDX 64 46 45 47 48 48 63 49 83 50 46 51 47 52 62 54 84 55 49 56
REMARK SMILES IDX 32 57 33 58 42 59 34 60 35 61 41 62 43 63 36 64 37 65 38 66
REMARK SMILES IDX 39 67 40 68 66 69 67 70 76 71 68 72 69 73 75 74 77 75 70 76
REMARK SMILES IDX 71 77 72 78 73 79 74 80 50 81 51 82 60 83 52 84 53 85 59 86
REMARK SMILES IDX 61 87 54 88 55 89 56 90 57 91 58 92
REMARK H PARENT 6 14 82 42 48 53
REMARK Flexibility Score: inf
ROOT
ATOM      1  C   UNL     1       2.518   3.440   4.477  1.00  0.00     0.275 C 
ENDROOT
BRANCH   1   2
ATOM      2  C   UNL     1       2.390   2.321   3.451  1.00  0.00     0.274 C 
BRANCH   2   3
ATOM      3  O   UNL     1       1.784   2.814   2.237  1.00  0.00    -0.462 OA
BRANCH   3   4
ATOM      4  C   UNL     1       0.506   2.425   2.010  1.00  0.00     0.309 C 
ATOM      5  O   UNL     1      -0.171   1.780   2.806  1.00  0.00    -0.252 OA
BRANCH   4   6
ATOM      6  C   UNL     1      -0.028   2.815   0.640  1.00  0.00     0.111 C 
ATOM      7  C   UNL     1       0.987   3.228  -0.454  1.00  0.00     0.093 C 
ATOM      8  C   UNL     1       1.243   4.753  -0.407  1.00  0.00     0.014 C 
ATOM      9  C   UNL     1      -0.045   5.564  -0.471  1.00  0.00     0.001 C 
ATOM     10  C   UNL     1      -1.265   3.721   0.706  1.00  0.00     0.016 C 
ATOM     11  C   UNL     1      -0.953   5.207   0.692  1.00  0.00     0.001 C 
BRANCH   7  12
ATOM     12  C   UNL     1       2.342   2.489  -0.445  1.00  0.00     0.229 C 
ATOM     13  N   UNL     1       2.450   1.133  -0.493  1.00  0.00    -0.309 N 
ATOM     14  H   UNL     1       3.367   0.788  -0.393  1.00  0.00     0.171 HD
ATOM     15  O   UNL     1       3.411   3.111  -0.375  1.00  0.00    -0.274 OA
BRANCH  13  16
ATOM     16  C   UNL     1       1.488   0.172  -0.658  1.00  0.00     0.154 A 
ATOM     17  C   UNL     1      -1.849  -0.733  -0.845  1.00  0.00     0.173 C 
ATOM     18  N   UNL     1      -0.405  -0.744  -0.838  1.00  0.00    -0.274 N 
ATOM     19  C   UNL     1       0.415  -1.756  -0.440  1.00  0.00     0.110 A 
ATOM     20  N   UNL     1       0.259   0.389  -1.115  1.00  0.00    -0.155 NA
ATOM     21  C   UNL     1       1.669  -1.195  -0.340  1.00  0.00     0.068 A 
ENDBRANCH  13  16
ENDBRANCH   7  12
ENDBRANCH   4   6
ENDBRANCH   3   4
ENDBRANCH   2   3
ENDBRANCH   1   2
BRANCH   1  22
ATOM     22  O   UNL     1       1.212   3.972   4.741  1.00  0.00    -0.458 OA
BRANCH  22  23
ATOM     23  C   UNL     1       1.090   5.315   4.644  1.00  0.00     0.338 C 
ATOM     24  O   UNL     1       2.002   6.123   4.534  1.00  0.00    -0.246 OA
BRANCH  23  25
ATOM     25  C   UNL     1      -0.339   5.699   4.645  1.00  0.00     0.060 A 
ATOM     26  C   UNL     1      -1.316   4.847   4.129  1.00  0.00     0.016 A 
ATOM     27  C   UNL     1      -0.697   6.985   5.052  1.00  0.00     0.016 A 
ATOM     28  C   UNL     1      -2.612   5.316   3.910  1.00  0.00     0.010 A 
ATOM     29  C   UNL     1      -2.026   7.409   4.941  1.00  0.00     0.010 A 
ATOM     30  C   UNL     1      -2.997   6.595   4.331  1.00  0.00    -0.014 A 
BRANCH  30  31
ATOM     31  C   UNL     1      -4.386   7.103   4.117  1.00  0.00     0.031 A 
ATOM     32  C   UNL     1      -4.610   8.440   3.453  1.00  0.00     0.074 A 
ATOM     33  C   UNL     1      -5.458   6.393   4.527  1.00  0.00     0.049 A 
ATOM     34  N   UNL     1      -5.678   9.195   3.454  1.00  0.00    -0.248 NA
ATOM     35  C   UNL     1      -3.475   9.012   2.710  1.00  0.00     0.031 C 
ATOM     36  C   UNL     1      -5.421   5.064   5.141  1.00  0.00     0.029 A 
ATOM     37  N   UNL     1      -6.798   6.698   4.492  1.00  0.00    -0.354 N 
ATOM     38  C   UNL     1      -5.317  10.369   2.801  1.00  0.00     0.074 A 
ATOM     39  C   UNL     1      -3.938  10.213   2.388  1.00  0.00     0.031 C 
ATOM     40  C   UNL     1      -6.673   4.650   5.378  1.00  0.00     0.029 A 
ATOM     41  C   UNL     1      -7.598   5.726   5.046  1.00  0.00     0.049 A 
ATOM     42  H   UNL     1      -7.151   7.532   4.107  1.00  0.00     0.167 HD
ATOM     43  C   UNL     1      -6.065  11.477   2.583  1.00  0.00     0.037 A 
ATOM     44  C   UNL     1      -8.916   5.716   5.322  1.00  0.00     0.037 A 
ATOM     45  C   UNL     1      -7.463  11.588   2.914  1.00  0.00     0.049 A 
ATOM     46  C   UNL     1      -9.735   6.943   5.051  1.00  0.00     0.074 A 
ATOM     47  C   UNL     1      -8.313  12.664   2.719  1.00  0.00     0.029 A 
ATOM     48  N   UNL     1      -8.226  10.576   3.475  1.00  0.00    -0.354 N 
ATOM     49  N   UNL     1      -9.352   8.091   4.547  1.00  0.00    -0.248 NA
ATOM     50  C   UNL     1     -11.156   6.887   5.419  1.00  0.00     0.031 C 
ATOM     51  C   UNL     1      -9.587  12.307   3.177  1.00  0.00     0.029 A 
ATOM     52  C   UNL     1      -9.536  10.999   3.630  1.00  0.00     0.049 A 
ATOM     53  H   UNL     1      -7.887   9.687   3.727  1.00  0.00     0.167 HD
ATOM     54  C   UNL     1     -10.481   8.900   4.549  1.00  0.00     0.074 A 
ATOM     55  C   UNL     1     -11.569   8.100   5.077  1.00  0.00     0.031 C 
ATOM     56  C   UNL     1     -10.603  10.193   4.163  1.00  0.00     0.037 A 
BRANCH  43  57
ATOM     57  C   UNL     1      -5.384  12.682   1.996  1.00  0.00     0.058 A 
ATOM     58  C   UNL     1      -5.059  12.771   0.635  1.00  0.00     0.135 A 
ATOM     59  C   UNL     1      -5.105  13.794   2.811  1.00  0.00     0.135 A 
ATOM     60  F   UNL     1      -5.287  11.732  -0.183  1.00  0.00    -0.206 F 
ATOM     61  C   UNL     1      -4.469  13.915   0.103  1.00  0.00     0.059 A 
ATOM     62  C   UNL     1      -4.535  14.954   2.296  1.00  0.00     0.059 A 
ATOM     63  F   UNL     1      -5.396  13.760   4.121  1.00  0.00    -0.206 F 
ATOM     64  C   UNL     1      -4.211  15.002   0.942  1.00  0.00     0.060 A 
BRANCH  64  65
ATOM     65  S   UNL     1      -3.469  16.491   0.238  1.00  0.00     0.124 S 
ATOM     66  O   UNL     1      -2.070  16.092   0.124  1.00  0.00    -0.237 OA
ATOM     67  O   UNL     1      -4.190  16.637  -1.022  1.00  0.00    -0.237 OA
ATOM     68  O   UNL     1      -3.751  17.515   1.239  1.00  0.00    -0.744 OA
ENDBRANCH  64  65
ENDBRANCH  43  57
BRANCH  44  69
ATOM     69  C   UNL     1      -9.521   4.515   5.955  1.00  0.00     0.058 A 
ATOM     70  C   UNL     1     -10.354   3.659   5.222  1.00  0.00     0.135 A 
ATOM     71  C   UNL     1      -9.228   4.170   7.284  1.00  0.00     0.135 A 
ATOM     72  F   UNL     1     -10.673   3.956   3.953  1.00  0.00    -0.206 F 
ATOM     73  C   UNL     1     -10.867   2.492   5.781  1.00  0.00     0.059 A 
ATOM     74  C   UNL     1      -9.708   2.997   7.855  1.00  0.00     0.059 A 
ATOM     75  F   UNL     1      -8.425   4.953   8.021  1.00  0.00    -0.206 F 
ATOM     76  C   UNL     1     -10.530   2.165   7.096  1.00  0.00     0.060 A 
BRANCH  76  77
ATOM     77  S   UNL     1     -11.106   0.598   7.785  1.00  0.00     0.124 S 
ATOM     78  O   UNL     1     -12.457   0.943   8.208  1.00  0.00    -0.237 OA
ATOM     79  O   UNL     1     -11.005  -0.304   6.642  1.00  0.00    -0.237 OA
ATOM     80  O   UNL     1     -10.151   0.339   8.859  1.00  0.00    -0.744 OA
ENDBRANCH  76  77
ENDBRANCH  44  69
BRANCH  56  81
ATOM     81  C   UNL     1     -11.962  10.815   4.290  1.00  0.00     0.058 A 
ATOM     82  C   UNL     1     -12.454  11.245   5.531  1.00  0.00     0.135 A 
ATOM     83  C   UNL     1     -12.771  10.999   3.158  1.00  0.00     0.135 A 
ATOM     84  F   UNL     1     -11.719  11.082   6.642  1.00  0.00    -0.206 F 
ATOM     85  C   UNL     1     -13.716  11.817   5.651  1.00  0.00     0.059 A 
ATOM     86  C   UNL     1     -14.029  11.585   3.252  1.00  0.00     0.059 A 
ATOM     87  F   UNL     1     -12.340  10.610   1.948  1.00  0.00    -0.206 F 
ATOM     88  C   UNL     1     -14.498  11.977   4.506  1.00  0.00     0.060 A 
BRANCH  88  89
ATOM     89  S   UNL     1     -16.132  12.729   4.667  1.00  0.00     0.124 S 
ATOM     90  O   UNL     1     -16.919  11.610   5.175  1.00  0.00    -0.237 OA
ATOM     91  O   UNL     1     -15.891  13.814   5.612  1.00  0.00    -0.237 OA
ATOM     92  O   UNL     1     -16.445  13.151   3.305  1.00  0.00    -0.744 OA
ENDBRANCH  88  89
ENDBRANCH  56  81
ENDBRANCH  30  31
ENDBRANCH  23  25
ENDBRANCH  22  23
ENDBRANCH   1  22
TORSDOF 16
