REMARK SMILES Cc1cc(=O)oc2cc(NC(=O)CC3(CC(=O)OCCOC(=O)c4ccc(-c5c6nc(c(-c7c(F)cc(S(=O)(=O)[O-])cc7F)c7ccc([nH]7)c(-c7c(F)cc(S(=O)(=O)[O-])cc7F)c7nc(c(-c8c(F)cc(S(=O)(=O)[O-])cc8F)c8ccc5[nH]8)C=C7)C=C6)cc4)CCCC3)ccc12
REMARK SMILES IDX 19 1 18 2 16 3 17 4 15 5 14 6 90 7 93 8 91 9 92 10 13 11
REMARK SMILES IDX 11 12 10 13 12 15 9 16 1 17 2 18 3 19 96 20 4 21 7 22 95 23
REMARK SMILES IDX 5 24 6 25 8 26 94 27 20 28 21 29 22 30 23 31 24 32 25 33
REMARK SMILES IDX 89 34 26 35 88 36 27 37 28 38 29 39 82 40 30 41 87 42 81 43
REMARK SMILES IDX 83 44 31 45 86 46 80 47 79 48 32 50 66 51 45 52 65 53 46 54
REMARK SMILES IDX 49 55 64 56 84 57 47 58 48 59 63 61 85 62 50 63 33 64 34 65
REMARK SMILES IDX 43 66 35 67 36 68 42 69 44 70 37 71 38 72 39 73 40 74 41 75
REMARK SMILES IDX 67 76 68 77 77 78 69 79 70 80 76 81 78 82 71 83 72 84 73 85
REMARK SMILES IDX 74 86 75 87 51 88 52 89 61 90 53 91 54 92 60 93 62 94 55 95
REMARK SMILES IDX 56 96 57 97 58 98 59 99
REMARK H PARENT 10 14 83 49 49 60
REMARK Flexibility Score: inf
ROOT
ATOM      1  C   UNL     1       8.969  -1.772   2.066  1.00  0.00     0.274 C 
ENDROOT
BRANCH   1   2
ATOM      2  O   UNL     1       7.593  -1.361   1.938  1.00  0.00    -0.462 OA
BRANCH   2   3
ATOM      3  C   UNL     1       7.201  -0.401   2.807  1.00  0.00     0.306 C 
ATOM      4  O   UNL     1       7.936   0.117   3.643  1.00  0.00    -0.252 OA
BRANCH   3   5
ATOM      5  C   UNL     1       5.733  -0.039   2.741  1.00  0.00     0.130 C 
BRANCH   5   6
ATOM      6  C   UNL     1       4.784  -0.528   1.609  1.00  0.00    -0.011 C 
ATOM      7  C   UNL     1       3.344  -0.279   2.119  1.00  0.00     0.008 C 
ATOM      8  C   UNL     1       4.723  -2.063   1.444  1.00  0.00     0.008 C 
ATOM      9  C   UNL     1       3.024  -1.437   3.065  1.00  0.00     0.001 C 
ATOM     10  C   UNL     1       3.944  -2.580   2.647  1.00  0.00     0.001 C 
BRANCH   6  11
ATOM     11  C   UNL     1       5.122   0.138   0.245  1.00  0.00     0.108 C 
BRANCH  11  12
ATOM     12  C   UNL     1       4.580   1.538  -0.017  1.00  0.00     0.224 C 
ATOM     13  N   UNL     1       3.336   1.812  -0.502  1.00  0.00    -0.326 N 
ATOM     14  H   UNL     1       3.182   2.767  -0.683  1.00  0.00     0.169 HD
ATOM     15  O   UNL     1       5.271   2.514   0.286  1.00  0.00    -0.275 OA
BRANCH  13  16
ATOM     16  C   UNL     1       2.233   0.998  -0.792  1.00  0.00     0.044 A 
ATOM     17  C   UNL     1      -0.950  -3.062  -0.306  1.00  0.00     0.045 C 
ATOM     18  C   UNL     1      -1.134  -1.574  -0.316  1.00  0.00    -0.033 A 
ATOM     19  C   UNL     1      -2.286  -1.002   0.063  1.00  0.00     0.098 A 
ATOM     20  C   UNL     1      -0.005  -0.700  -0.652  1.00  0.00     0.021 A 
ATOM     21  C   UNL     1      -2.469   0.455   0.171  1.00  0.00     0.336 A 
ATOM     22  C   UNL     1      -0.121   0.667  -0.408  1.00  0.00     0.140 A 
ATOM     23  C   UNL     1       1.214  -1.171  -1.146  1.00  0.00     0.014 A 
ATOM     24  O   UNL     1      -3.566   0.923   0.453  1.00  0.00    -0.246 OA
ATOM     25  O   UNL     1      -1.344   1.240  -0.009  1.00  0.00    -0.423 OA
ATOM     26  C   UNL     1       0.976   1.525  -0.487  1.00  0.00     0.074 A 
ATOM     27  C   UNL     1       2.321  -0.319  -1.237  1.00  0.00     0.027 A 
ENDBRANCH  13  16
ENDBRANCH  11  12
ENDBRANCH   6  11
ENDBRANCH   5   6
ENDBRANCH   3   5
ENDBRANCH   2   3
ENDBRANCH   1   2
BRANCH   1  28
ATOM     28  C   UNL     1       9.843  -1.111   1.006  1.00  0.00     0.275 C 
BRANCH  28  29
ATOM     29  O   UNL     1       9.663   0.313   1.030  1.00  0.00    -0.458 OA
BRANCH  29  30
ATOM     30  C   UNL     1       9.142   0.853  -0.095  1.00  0.00     0.338 C 
ATOM     31  O   UNL     1       8.880   0.271  -1.139  1.00  0.00    -0.246 OA
BRANCH  30  32
ATOM     32  C   UNL     1       8.927   2.296   0.094  1.00  0.00     0.060 A 
ATOM     33  C   UNL     1       8.114   2.759   1.127  1.00  0.00     0.016 A 
ATOM     34  C   UNL     1       9.446   3.187  -0.845  1.00  0.00     0.016 A 
ATOM     35  C   UNL     1       7.754   4.105   1.178  1.00  0.00     0.010 A 
ATOM     36  C   UNL     1       9.154   4.549  -0.738  1.00  0.00     0.010 A 
ATOM     37  C   UNL     1       8.282   5.020   0.258  1.00  0.00    -0.014 A 
BRANCH  37  38
ATOM     38  C   UNL     1       7.939   6.466   0.328  1.00  0.00     0.031 A 
ATOM     39  C   UNL     1       7.294   7.154  -0.846  1.00  0.00     0.074 A 
ATOM     40  C   UNL     1       8.254   7.176   1.429  1.00  0.00     0.049 A 
ATOM     41  N   UNL     1       7.158   8.434  -1.081  1.00  0.00    -0.248 NA
ATOM     42  C   UNL     1       6.744   6.289  -1.901  1.00  0.00     0.031 C 
ATOM     43  C   UNL     1       8.840   6.628   2.654  1.00  0.00     0.029 A 
ATOM     44  N   UNL     1       8.143   8.520   1.689  1.00  0.00    -0.354 N 
ATOM     45  C   UNL     1       6.560   8.532  -2.332  1.00  0.00     0.074 A 
ATOM     46  C   UNL     1       6.353   7.178  -2.805  1.00  0.00     0.031 C 
ATOM     47  C   UNL     1       9.032   7.621   3.534  1.00  0.00     0.029 A 
ATOM     48  C   UNL     1       8.664   8.885   2.908  1.00  0.00     0.049 A 
ATOM     49  H   UNL     1       7.732   9.160   1.063  1.00  0.00     0.167 HD
ATOM     50  C   UNL     1       6.221   9.649  -3.020  1.00  0.00     0.037 A 
ATOM     51  C   UNL     1       8.878  10.101   3.445  1.00  0.00     0.037 A 
ATOM     52  C   UNL     1       6.386  10.990  -2.516  1.00  0.00     0.049 A 
ATOM     53  C   UNL     1       8.521  11.325   2.655  1.00  0.00     0.074 A 
ATOM     54  C   UNL     1       6.055  12.188  -3.127  1.00  0.00     0.029 A 
ATOM     55  N   UNL     1       6.915  11.312  -1.274  1.00  0.00    -0.354 N 
ATOM     56  N   UNL     1       8.008  11.406   1.451  1.00  0.00    -0.248 NA
ATOM     57  C   UNL     1       8.785  12.624   3.289  1.00  0.00     0.031 C 
ATOM     58  C   UNL     1       6.410  13.233  -2.268  1.00  0.00     0.029 A 
ATOM     59  C   UNL     1       6.927  12.687  -1.105  1.00  0.00     0.049 A 
ATOM     60  H   UNL     1       7.235  10.658  -0.611  1.00  0.00     0.167 HD
ATOM     61  C   UNL     1       7.874  12.764   1.187  1.00  0.00     0.074 A 
ATOM     62  C   UNL     1       8.350  13.467   2.362  1.00  0.00     0.031 C 
ATOM     63  C   UNL     1       7.399  13.371   0.073  1.00  0.00     0.037 A 
BRANCH  50  64
ATOM     64  C   UNL     1       5.665   9.481  -4.408  1.00  0.00     0.058 A 
ATOM     65  C   UNL     1       4.355   9.036  -4.636  1.00  0.00     0.135 A 
ATOM     66  C   UNL     1       6.443   9.827  -5.526  1.00  0.00     0.135 A 
ATOM     67  F   UNL     1       3.573   8.680  -3.605  1.00  0.00    -0.206 F 
ATOM     68  C   UNL     1       3.840   8.921  -5.925  1.00  0.00     0.059 A 
ATOM     69  C   UNL     1       5.941   9.741  -6.822  1.00  0.00     0.059 A 
ATOM     70  F   UNL     1       7.703  10.261  -5.365  1.00  0.00    -0.206 F 
ATOM     71  C   UNL     1       4.642   9.274  -7.012  1.00  0.00     0.060 A 
BRANCH  71  72
ATOM     72  S   UNL     1       3.959   9.132  -8.678  1.00  0.00     0.124 S 
ATOM     73  O   UNL     1       4.015   7.689  -8.893  1.00  0.00    -0.237 OA
ATOM     74  O   UNL     1       2.623   9.697  -8.521  1.00  0.00    -0.237 OA
ATOM     75  O   UNL     1       4.878   9.923  -9.491  1.00  0.00    -0.744 OA
ENDBRANCH  71  72
ENDBRANCH  50  64
BRANCH  51  76
ATOM     76  C   UNL     1       9.500  10.205   4.790  1.00  0.00     0.058 A 
ATOM     77  C   UNL     1       8.743  10.589   5.904  1.00  0.00     0.135 A 
ATOM     78  C   UNL     1      10.849   9.872   4.993  1.00  0.00     0.135 A 
ATOM     79  F   UNL     1       7.452  10.924   5.755  1.00  0.00    -0.206 F 
ATOM     80  C   UNL     1       9.300  10.640   7.178  1.00  0.00     0.059 A 
ATOM     81  C   UNL     1      11.421   9.892   6.260  1.00  0.00     0.059 A 
ATOM     82  F   UNL     1      11.610   9.484   3.958  1.00  0.00    -0.206 F 
ATOM     83  C   UNL     1      10.639  10.283   7.346  1.00  0.00     0.060 A 
BRANCH  83  84
ATOM     84  S   UNL     1      11.336  10.278   9.012  1.00  0.00     0.124 S 
ATOM     85  O   UNL     1      11.571  11.699   9.236  1.00  0.00    -0.237 OA
ATOM     86  O   UNL     1      10.261   9.677   9.797  1.00  0.00    -0.237 OA
ATOM     87  O   UNL     1      12.532   9.452   8.871  1.00  0.00    -0.744 OA
ENDBRANCH  83  84
ENDBRANCH  51  76
BRANCH  63  88
ATOM     88  C   UNL     1       7.337  14.871   0.086  1.00  0.00     0.058 A 
ATOM     89  C   UNL     1       8.488  15.656  -0.080  1.00  0.00     0.135 A 
ATOM     90  C   UNL     1       6.105  15.528   0.231  1.00  0.00     0.135 A 
ATOM     91  F   UNL     1       9.690  15.074  -0.214  1.00  0.00    -0.206 F 
ATOM     92  C   UNL     1       8.422  17.046  -0.083  1.00  0.00     0.059 A 
ATOM     93  C   UNL     1       6.014  16.916   0.211  1.00  0.00     0.059 A 
ATOM     94  F   UNL     1       4.975  14.820   0.387  1.00  0.00    -0.206 F 
ATOM     95  C   UNL     1       7.180  17.667   0.065  1.00  0.00     0.060 A 
BRANCH  95  96
ATOM     96  S   UNL     1       7.100  19.470   0.032  1.00  0.00     0.124 S 
ATOM     97  O   UNL     1       7.578  19.810   1.368  1.00  0.00    -0.237 OA
ATOM     98  O   UNL     1       8.000  19.806  -1.067  1.00  0.00    -0.237 OA
ATOM     99  O   UNL     1       5.688  19.742  -0.218  1.00  0.00    -0.744 OA
ENDBRANCH  95  96
ENDBRANCH  63  88
ENDBRANCH  37  38
ENDBRANCH  30  32
ENDBRANCH  29  30
ENDBRANCH  28  29
ENDBRANCH   1  28
TORSDOF 18
