REMARK SMILES Cc1cc2c(c(C)c1Br)C=C(C(=O)OCCOC(=O)c1ccc(-c3c4nc(c(-c5c(F)cc(S(=O)(=O)[O-])cc5F)c5ccc([nH]5)c(-c5c(F)cc(S(=O)(=O)[O-])cc5F)c5nc(c(-c6c(F)cc(S(=O)(=O)[O-])cc6F)c6ccc3[nH]6)C=C5)C=C4)cc1)[C@@H](C(F)(F)F)O2
REMARK SMILES IDX 16 1 15 2 14 3 12 4 13 5 11 6 1 7 2 8 3 9 8 10 4 11 6 12
REMARK SMILES IDX 9 13 5 14 91 15 7 16 10 17 86 18 87 19 88 20 89 21 90 22
REMARK SMILES IDX 17 23 18 24 19 25 20 26 21 27 85 28 22 29 84 30 23 31 24 32
REMARK SMILES IDX 25 33 78 34 26 35 83 36 77 37 79 38 27 39 82 40 76 41 75 42
REMARK SMILES IDX 28 44 62 45 41 46 61 47 42 48 45 49 60 50 80 51 43 52 44 53
REMARK SMILES IDX 59 55 81 56 46 57 29 58 30 59 39 60 31 61 32 62 38 63 40 64
REMARK SMILES IDX 33 65 34 66 35 67 36 68 37 69 63 70 64 71 73 72 65 73 66 74
REMARK SMILES IDX 72 75 74 76 67 77 68 78 69 79 70 80 71 81 47 82 48 83 57 84
REMARK SMILES IDX 49 85 50 86 56 87 58 88 51 89 52 90 53 91 54 92 55 93
REMARK H PARENT 79 43 45 54
REMARK Flexibility Score: inf
ROOT
ATOM      1  C   UNL     1      -3.547   0.632  -9.629  1.00  0.00     0.275 C 
ENDROOT
BRANCH   1   2
ATOM      2  C   UNL     1      -2.463  -0.423  -9.413  1.00  0.00     0.275 C 
BRANCH   2   3
ATOM      3  O   UNL     1      -2.196  -0.614  -8.006  1.00  0.00    -0.459 OA
BRANCH   3   4
ATOM      4  C   UNL     1      -1.048  -0.062  -7.552  1.00  0.00     0.338 C 
ATOM      5  O   UNL     1      -0.216   0.540  -8.213  1.00  0.00    -0.246 OA
BRANCH   4   6
ATOM      6  C   UNL     1      -0.902  -0.290  -6.104  1.00  0.00     0.087 C 
ATOM      7  C   UNL     1       0.886  -0.407   0.126  1.00  0.00     0.046 C 
ATOM      8  C   UNL     1       0.433  -0.026  -1.258  1.00  0.00    -0.033 A 
ATOM      9  C   UNL     1       0.016  -1.046  -2.125  1.00  0.00     0.051 A 
ATOM     10  C   UNL     1       0.452   1.305  -1.725  1.00  0.00     0.024 A 
ATOM     11  C   UNL     1      -0.352  -0.765  -3.438  1.00  0.00     0.128 A 
ATOM     12  C   UNL     1       0.047   1.615  -3.045  1.00  0.00    -0.026 A 
ATOM     13  Br  UNL     1       1.075   2.675  -0.541  1.00  0.00    -0.050 Br
ATOM     14  C   UNL     1      -0.330   0.551  -3.910  1.00  0.00     0.021 A 
ATOM     15  O   UNL     1      -0.731  -1.851  -4.180  1.00  0.00    -0.475 OA
ATOM     16  C   UNL     1       0.028   3.037  -3.562  1.00  0.00     0.046 C 
ATOM     17  C   UNL     1      -0.658   0.765  -5.318  1.00  0.00     0.027 C 
ATOM     18  C   UNL     1      -0.885  -1.703  -5.614  1.00  0.00     0.316 C 
BRANCH  18  19
ATOM     19  C   UNL     1       0.193  -2.537  -6.325  1.00  0.00     0.430 C 
ATOM     20  F   UNL     1       0.221  -3.808  -5.855  1.00  0.00    -0.167 F 
ATOM     21  F   UNL     1      -0.048  -2.630  -7.656  1.00  0.00    -0.167 F 
ATOM     22  F   UNL     1       1.432  -2.021  -6.171  1.00  0.00    -0.167 F 
ENDBRANCH  18  19
ENDBRANCH   4   6
ENDBRANCH   3   4
ENDBRANCH   2   3
ENDBRANCH   1   2
BRANCH   1  23
ATOM     23  O   UNL     1      -3.060   1.923  -9.225  1.00  0.00    -0.458 OA
BRANCH  23  24
ATOM     24  C   UNL     1      -3.573   2.402  -8.069  1.00  0.00     0.338 C 
ATOM     25  O   UNL     1      -4.441   1.895  -7.379  1.00  0.00    -0.246 OA
BRANCH  24  26
ATOM     26  C   UNL     1      -2.868   3.635  -7.682  1.00  0.00     0.060 A 
ATOM     27  C   UNL     1      -1.506   3.574  -7.419  1.00  0.00     0.016 A 
ATOM     28  C   UNL     1      -3.580   4.797  -7.396  1.00  0.00     0.016 A 
ATOM     29  C   UNL     1      -0.889   4.602  -6.714  1.00  0.00     0.010 A 
ATOM     30  C   UNL     1      -2.917   5.891  -6.821  1.00  0.00     0.010 A 
ATOM     31  C   UNL     1      -1.576   5.785  -6.406  1.00  0.00    -0.014 A 
BRANCH  31  32
ATOM     32  C   UNL     1      -0.910   6.859  -5.602  1.00  0.00     0.031 A 
ATOM     33  C   UNL     1      -1.571   7.402  -4.354  1.00  0.00     0.074 A 
ATOM     34  C   UNL     1       0.315   7.317  -5.945  1.00  0.00     0.049 A 
ATOM     35  N   UNL     1      -1.234   8.434  -3.622  1.00  0.00    -0.248 NA
ATOM     36  C   UNL     1      -2.778   6.708  -3.874  1.00  0.00     0.031 C 
ATOM     37  C   UNL     1       1.105   6.856  -7.089  1.00  0.00     0.029 A 
ATOM     38  N   UNL     1       1.127   8.253  -5.350  1.00  0.00    -0.354 N 
ATOM     39  C   UNL     1      -2.217   8.551  -2.643  1.00  0.00     0.074 A 
ATOM     40  C   UNL     1      -3.174   7.494  -2.882  1.00  0.00     0.031 C 
ATOM     41  C   UNL     1       2.311   7.440  -7.062  1.00  0.00     0.029 A 
ATOM     42  C   UNL     1       2.341   8.414  -5.979  1.00  0.00     0.049 A 
ATOM     43  H   UNL     1       0.866   8.761  -4.548  1.00  0.00     0.167 HD
ATOM     44  C   UNL     1      -2.309   9.448  -1.632  1.00  0.00     0.037 A 
ATOM     45  C   UNL     1       3.352   9.278  -5.753  1.00  0.00     0.037 A 
ATOM     46  C   UNL     1      -1.310  10.447  -1.348  1.00  0.00     0.049 A 
ATOM     47  C   UNL     1       3.204  10.301  -4.663  1.00  0.00     0.074 A 
ATOM     48  C   UNL     1      -1.301  11.387  -0.332  1.00  0.00     0.029 A 
ATOM     49  N   UNL     1      -0.134  10.619  -2.062  1.00  0.00    -0.354 N 
ATOM     50  N   UNL     1       2.233  10.438  -3.792  1.00  0.00    -0.248 NA
ATOM     51  C   UNL     1       4.264  11.312  -4.550  1.00  0.00     0.031 C 
ATOM     52  C   UNL     1      -0.140  12.155  -0.458  1.00  0.00     0.029 A 
ATOM     53  C   UNL     1       0.596  11.667  -1.526  1.00  0.00     0.049 A 
ATOM     54  H   UNL     1       0.142  10.076  -2.836  1.00  0.00     0.167 HD
ATOM     55  C   UNL     1       2.562  11.554  -3.032  1.00  0.00     0.074 A 
ATOM     56  C   UNL     1       3.837  12.037  -3.524  1.00  0.00     0.031 C 
ATOM     57  C   UNL     1       1.862  12.136  -2.029  1.00  0.00     0.037 A 
BRANCH  44  58
ATOM     58  C   UNL     1      -3.536   9.413  -0.759  1.00  0.00     0.058 A 
ATOM     59  C   UNL     1      -3.755   8.392   0.178  1.00  0.00     0.135 A 
ATOM     60  C   UNL     1      -4.479  10.453  -0.822  1.00  0.00     0.135 A 
ATOM     61  F   UNL     1      -2.895   7.366   0.273  1.00  0.00    -0.206 F 
ATOM     62  C   UNL     1      -4.876   8.390   1.004  1.00  0.00     0.059 A 
ATOM     63  C   UNL     1      -5.593  10.487   0.013  1.00  0.00     0.059 A 
ATOM     64  F   UNL     1      -4.320  11.458  -1.698  1.00  0.00    -0.206 F 
ATOM     65  C   UNL     1      -5.788   9.443   0.916  1.00  0.00     0.060 A 
BRANCH  65  66
ATOM     66  S   UNL     1      -7.231   9.427   2.002  1.00  0.00     0.124 S 
ATOM     67  O   UNL     1      -8.001   8.317   1.447  1.00  0.00    -0.237 OA
ATOM     68  O   UNL     1      -6.632   9.190   3.311  1.00  0.00    -0.237 OA
ATOM     69  O   UNL     1      -7.817  10.750   1.813  1.00  0.00    -0.744 OA
ENDBRANCH  65  66
ENDBRANCH  44  58
BRANCH  45  70
ATOM     70  C   UNL     1       4.566   9.244  -6.615  1.00  0.00     0.058 A 
ATOM     71  C   UNL     1       5.809   8.855  -6.096  1.00  0.00     0.135 A 
ATOM     72  C   UNL     1       4.503   9.567  -7.981  1.00  0.00     0.135 A 
ATOM     73  F   UNL     1       5.927   8.553  -4.794  1.00  0.00    -0.206 F 
ATOM     74  C   UNL     1       6.944   8.780  -6.899  1.00  0.00     0.059 A 
ATOM     75  C   UNL     1       5.615   9.469  -8.810  1.00  0.00     0.059 A 
ATOM     76  F   UNL     1       3.337   9.941  -8.531  1.00  0.00    -0.206 F 
ATOM     77  C   UNL     1       6.834   9.079  -8.258  1.00  0.00     0.060 A 
BRANCH  77  78
ATOM     78  S   UNL     1       8.297   8.913  -9.303  1.00  0.00     0.124 S 
ATOM     79  O   UNL     1       9.112  10.034  -8.850  1.00  0.00    -0.237 OA
ATOM     80  O   UNL     1       8.780   7.584  -8.942  1.00  0.00    -0.237 OA
ATOM     81  O   UNL     1       7.759   9.030 -10.656  1.00  0.00    -0.744 OA
ENDBRANCH  77  78
ENDBRANCH  45  70
BRANCH  57  82
ATOM     82  C   UNL     1       2.442  13.369  -1.396  1.00  0.00     0.058 A 
ATOM     83  C   UNL     1       2.396  14.608  -2.052  1.00  0.00     0.135 A 
ATOM     84  C   UNL     1       2.953  13.333  -0.089  1.00  0.00     0.135 A 
ATOM     85  F   UNL     1       1.928  14.692  -3.307  1.00  0.00    -0.206 F 
ATOM     86  C   UNL     1       2.833  15.773  -1.431  1.00  0.00     0.059 A 
ATOM     87  C   UNL     1       3.373  14.489   0.560  1.00  0.00     0.059 A 
ATOM     88  F   UNL     1       3.013  12.171   0.582  1.00  0.00    -0.206 F 
ATOM     89  C   UNL     1       3.307  15.705  -0.119  1.00  0.00     0.060 A 
BRANCH  89  90
ATOM     90  S   UNL     1       3.793  17.240   0.698  1.00  0.00     0.124 S 
ATOM     91  O   UNL     1       5.003  17.596  -0.037  1.00  0.00    -0.237 OA
ATOM     92  O   UNL     1       2.634  18.096   0.463  1.00  0.00    -0.237 OA
ATOM     93  O   UNL     1       3.998  16.838   2.086  1.00  0.00    -0.744 OA
ENDBRANCH  89  90
ENDBRANCH  57  82
ENDBRANCH  31  32
ENDBRANCH  24  26
ENDBRANCH  23  24
ENDBRANCH   1  23
TORSDOF 15
