REMARK SMILES COC(=O)[C@H]1CC[C@]2(C)[C@H]3CC=C4[C@@H]5CC(C)(C)CC[C@@]5(C(=O)OCCOC(=O)c5ccc(-c6c7nc(c(-c8c(F)cc(S(=O)(=O)[O-])cc8F)c8ccc([nH]8)c(-c8c(F)cc(S(=O)(=O)[O-])cc8F)c8nc(c(-c9c(F)cc(S(=O)(=O)[O-])cc9F)c9ccc6[nH]9)C=C8)C=C7)cc5)CC[C@@]4(C)[C@@]3(C)CC[C@H]2C1(C)C
REMARK SMILES IDX 26 1 25 2 24 3 22 4 23 5 21 6 5 7 6 8 105 9 7 10 104 11
REMARK SMILES IDX 106 12 107 13 8 14 103 15 9 16 10 17 102 18 11 19 100 20
REMARK SMILES IDX 12 21 98 22 101 23 13 24 97 25 99 26 14 27 96 28 15 29 16 30
REMARK SMILES IDX 20 31 17 32 18 33 19 34 3 35 4 36 2 37 1 38 27 39 28 40
REMARK SMILES IDX 29 41 30 42 31 43 95 44 32 45 94 46 33 47 34 48 35 49 88 50
REMARK SMILES IDX 36 51 93 52 87 53 89 54 37 55 92 56 86 57 85 58 38 60 72 61
REMARK SMILES IDX 51 62 71 63 52 64 55 65 70 66 90 67 53 68 54 69 69 71 91 72
REMARK SMILES IDX 56 73 39 74 40 75 49 76 41 77 42 78 48 79 50 80 43 81 44 82
REMARK SMILES IDX 45 83 46 84 47 85 73 86 74 87 83 88 75 89 76 90 82 91 84 92
REMARK SMILES IDX 77 93 78 94 79 95 80 96 81 97 57 98 58 99 67 100 59 101
REMARK SMILES IDX 60 102 66 103 68 104 61 105 62 106 63 107 64 108 65 109
REMARK H PARENT 89 59 55 70
REMARK Flexibility Score: inf
ROOT
ATOM      1  C   UNL     1      -0.211  12.572   0.245  1.00  0.00     0.275 C 
ENDROOT
BRANCH   1   2
ATOM      2  C   UNL     1      -0.272  11.671   1.474  1.00  0.00     0.274 C 
BRANCH   2   3
ATOM      3  O   UNL     1       0.858  11.763   2.367  1.00  0.00    -0.462 OA
BRANCH   3   4
ATOM      4  C   UNL     1       2.051  11.254   1.960  1.00  0.00     0.312 C 
ATOM      5  O   UNL     1       2.838  11.932   1.309  1.00  0.00    -0.252 OA
BRANCH   4   6
ATOM      6  C   UNL     1       2.464   9.954   2.683  1.00  0.00     0.075 C 
ATOM      7  C   UNL     1       0.417   2.212   3.395  1.00  0.00     0.105 C 
ATOM      8  C   UNL     1      -0.467   2.177   2.109  1.00  0.00     0.016 C 
ATOM      9  C   UNL     1       1.206   3.533   3.758  1.00  0.00    -0.019 C 
ATOM     10  C   UNL     1      -0.151   3.197   0.989  1.00  0.00     0.008 C 
ATOM     11  C   UNL     1       1.489   4.269   2.417  1.00  0.00     0.002 C 
ATOM     12  C   UNL     1       0.593   4.470   4.840  1.00  0.00     0.012 C 
ATOM     13  C   UNL     1       2.551   3.086   4.414  1.00  0.00     0.012 C 
ATOM     14  C   UNL     1       0.215   4.601   1.558  1.00  0.00    -0.026 C 
ATOM     15  C   UNL     1       2.459   5.423   2.527  1.00  0.00     0.005 C 
ATOM     16  C   UNL     1      -1.045   5.006   2.374  1.00  0.00     0.012 C 
ATOM     17  C   UNL     1       0.464   5.662   0.347  1.00  0.00     0.006 C 
ATOM     18  C   UNL     1       2.985   5.725   1.149  1.00  0.00     0.008 C 
ATOM     19  C   UNL     1      -0.651   6.774   0.275  1.00  0.00     0.032 C 
ATOM     20  C   UNL     1       1.937   6.341   0.201  1.00  0.00    -0.020 C 
ATOM     21  C   UNL     1      -0.391   7.845   1.308  1.00  0.00    -0.027 C 
ATOM     22  C   UNL     1       1.879   7.956   0.380  1.00  0.00    -0.006 C 
ATOM     23  C   UNL     1       2.465   5.971  -1.222  1.00  0.00     0.012 C 
ATOM     24  C   UNL     1       0.866   8.294   1.501  1.00  0.00    -0.063 C 
ATOM     25  C   UNL     1       3.256   8.675   0.579  1.00  0.00     0.013 C 
ATOM     26  C   UNL     1       1.391   8.594  -0.972  1.00  0.00     0.017 C 
ATOM     27  C   UNL     1       1.344   8.914   2.833  1.00  0.00     0.033 C 
ATOM     28  C   UNL     1       3.622   9.222   1.949  1.00  0.00     0.020 C 
ATOM     29  C   UNL     1       0.290   9.262   3.917  1.00  0.00     0.015 C 
ATOM     30  C   UNL     1       0.902   9.701   5.278  1.00  0.00    -0.035 C 
ATOM     31  C   UNL     1       3.049  10.372   4.058  1.00  0.00     0.020 C 
ATOM     32  C   UNL     1      -0.202  10.313   6.160  1.00  0.00     0.011 C 
ATOM     33  C   UNL     1       1.475   8.478   6.028  1.00  0.00     0.011 C 
ATOM     34  C   UNL     1       1.998  10.766   5.085  1.00  0.00     0.007 C 
BRANCH   7  35
ATOM     35  C   UNL     1      -0.324   1.686   4.616  1.00  0.00     0.309 C 
ATOM     36  O   UNL     1       0.123   0.831   5.370  1.00  0.00    -0.252 OA
BRANCH  35  37
ATOM     37  O   UNL     1      -1.462   2.397   4.847  1.00  0.00    -0.469 OA
ATOM     38  C   UNL     1      -1.938   2.304   6.187  1.00  0.00     0.282 C 
ENDBRANCH  35  37
ENDBRANCH   7  35
ENDBRANCH   4   6
ENDBRANCH   3   4
ENDBRANCH   2   3
ENDBRANCH   1   2
BRANCH   1  39
ATOM     39  O   UNL     1       0.765  12.038  -0.652  1.00  0.00    -0.458 OA
BRANCH  39  40
ATOM     40  C   UNL     1       0.908  12.665  -1.845  1.00  0.00     0.338 C 
ATOM     41  O   UNL     1       0.247  13.594  -2.261  1.00  0.00    -0.246 OA
BRANCH  40  42
ATOM     42  C   UNL     1       1.942  11.918  -2.608  1.00  0.00     0.060 A 
ATOM     43  C   UNL     1       3.023  11.346  -1.935  1.00  0.00     0.016 A 
ATOM     44  C   UNL     1       1.811  11.725  -3.983  1.00  0.00     0.016 A 
ATOM     45  C   UNL     1       3.892  10.475  -2.584  1.00  0.00     0.010 A 
ATOM     46  C   UNL     1       2.719  10.893  -4.655  1.00  0.00     0.010 A 
ATOM     47  C   UNL     1       3.744  10.239  -3.950  1.00  0.00    -0.014 A 
BRANCH  47  48
ATOM     48  C   UNL     1       4.811   9.491  -4.648  1.00  0.00     0.031 A 
ATOM     49  C   UNL     1       6.027  10.266  -5.048  1.00  0.00     0.074 A 
ATOM     50  C   UNL     1       4.764   8.159  -4.838  1.00  0.00     0.049 A 
ATOM     51  N   UNL     1       6.998   9.922  -5.847  1.00  0.00    -0.248 NA
ATOM     52  C   UNL     1       6.167  11.611  -4.463  1.00  0.00     0.031 C 
ATOM     53  C   UNL     1       3.726   7.269  -4.327  1.00  0.00     0.029 A 
ATOM     54  N   UNL     1       5.629   7.316  -5.492  1.00  0.00    -0.354 N 
ATOM     55  C   UNL     1       7.822  11.035  -5.919  1.00  0.00     0.074 A 
ATOM     56  C   UNL     1       7.282  12.037  -5.030  1.00  0.00     0.031 C 
ATOM     57  C   UNL     1       4.030   6.000  -4.660  1.00  0.00     0.029 A 
ATOM     58  C   UNL     1       5.229   5.999  -5.496  1.00  0.00     0.049 A 
ATOM     59  H   UNL     1       6.460   7.626  -5.918  1.00  0.00     0.167 HD
ATOM     60  C   UNL     1       8.901  11.220  -6.711  1.00  0.00     0.037 A 
ATOM     61  C   UNL     1       5.744   4.937  -6.153  1.00  0.00     0.037 A 
ATOM     62  C   UNL     1       9.401  10.214  -7.603  1.00  0.00     0.049 A 
ATOM     63  C   UNL     1       6.898   5.182  -7.102  1.00  0.00     0.074 A 
ATOM     64  C   UNL     1      10.400  10.317  -8.550  1.00  0.00     0.029 A 
ATOM     65  N   UNL     1       8.930   8.909  -7.648  1.00  0.00    -0.354 N 
ATOM     66  N   UNL     1       7.582   6.285  -7.304  1.00  0.00    -0.248 NA
ATOM     67  C   UNL     1       7.311   4.059  -7.957  1.00  0.00     0.031 C 
ATOM     68  C   UNL     1      10.511   9.079  -9.194  1.00  0.00     0.029 A 
ATOM     69  C   UNL     1       9.614   8.195  -8.612  1.00  0.00     0.049 A 
ATOM     70  H   UNL     1       8.214   8.547  -7.077  1.00  0.00     0.167 HD
ATOM     71  C   UNL     1       8.496   5.991  -8.312  1.00  0.00     0.074 A 
ATOM     72  C   UNL     1       8.302   4.597  -8.654  1.00  0.00     0.031 C 
ATOM     73  C   UNL     1       9.400   6.802  -8.917  1.00  0.00     0.037 A 
BRANCH  60  74
ATOM     74  C   UNL     1       9.485  12.598  -6.731  1.00  0.00     0.058 A 
ATOM     75  C   UNL     1      10.248  13.106  -5.670  1.00  0.00     0.135 A 
ATOM     76  C   UNL     1       9.199  13.454  -7.808  1.00  0.00     0.135 A 
ATOM     77  F   UNL     1      10.505  12.344  -4.596  1.00  0.00    -0.206 F 
ATOM     78  C   UNL     1      10.687  14.427  -5.664  1.00  0.00     0.059 A 
ATOM     79  C   UNL     1       9.648  14.768  -7.834  1.00  0.00     0.059 A 
ATOM     80  F   UNL     1       8.449  13.022  -8.834  1.00  0.00    -0.206 F 
ATOM     81  C   UNL     1      10.376  15.251  -6.748  1.00  0.00     0.060 A 
BRANCH  81  82
ATOM     82  S   UNL     1      10.929  16.968  -6.719  1.00  0.00     0.124 S 
ATOM     83  O   UNL     1      10.008  17.554  -5.750  1.00  0.00    -0.237 OA
ATOM     84  O   UNL     1      12.316  16.842  -6.280  1.00  0.00    -0.237 OA
ATOM     85  O   UNL     1      10.750  17.406  -8.100  1.00  0.00    -0.744 OA
ENDBRANCH  81  82
ENDBRANCH  60  74
BRANCH  61  86
ATOM     86  C   UNL     1       5.134   3.577  -6.042  1.00  0.00     0.058 A 
ATOM     87  C   UNL     1       5.867   2.487  -5.543  1.00  0.00     0.135 A 
ATOM     88  C   UNL     1       3.825   3.320  -6.482  1.00  0.00     0.135 A 
ATOM     89  F   UNL     1       7.133   2.664  -5.131  1.00  0.00    -0.206 F 
ATOM     90  C   UNL     1       5.335   1.200  -5.496  1.00  0.00     0.059 A 
ATOM     91  C   UNL     1       3.259   2.049  -6.416  1.00  0.00     0.059 A 
ATOM     92  F   UNL     1       3.074   4.314  -6.981  1.00  0.00    -0.206 F 
ATOM     93  C   UNL     1       4.026   0.991  -5.934  1.00  0.00     0.060 A 
BRANCH  93  94
ATOM     94  S   UNL     1       3.323  -0.672  -5.837  1.00  0.00     0.124 S 
ATOM     95  O   UNL     1       3.981  -1.336  -6.956  1.00  0.00    -0.237 OA
ATOM     96  O   UNL     1       3.735  -1.104  -4.505  1.00  0.00    -0.237 OA
ATOM     97  O   UNL     1       1.890  -0.438  -5.994  1.00  0.00    -0.744 OA
ENDBRANCH  93  94
ENDBRANCH  61  86
BRANCH  73  98
ATOM     98  C   UNL     1      10.260   6.206  -9.994  1.00  0.00     0.058 A 
ATOM     99  C   UNL     1       9.756   5.954 -11.279  1.00  0.00     0.135 A 
ATOM    100  C   UNL     1      11.627   5.985  -9.765  1.00  0.00     0.135 A 
ATOM    101  F   UNL     1       8.454   6.148 -11.544  1.00  0.00    -0.206 F 
ATOM    102  C   UNL     1      10.579   5.498 -12.302  1.00  0.00     0.059 A 
ATOM    103  C   UNL     1      12.473   5.551 -10.780  1.00  0.00     0.059 A 
ATOM    104  F   UNL     1      12.158   6.223  -8.556  1.00  0.00    -0.206 F 
ATOM    105  C   UNL     1      11.939   5.306 -12.044  1.00  0.00     0.060 A 
BRANCH 105 106
ATOM    106  S   UNL     1      13.010   4.779 -13.398  1.00  0.00     0.124 S 
ATOM    107  O   UNL     1      12.646   3.373 -13.530  1.00  0.00    -0.237 OA
ATOM    108  O   UNL     1      12.586   5.650 -14.490  1.00  0.00    -0.237 OA
ATOM    109  O   UNL     1      14.354   5.036 -12.887  1.00  0.00    -0.744 OA
ENDBRANCH 105 106
ENDBRANCH  73  98
ENDBRANCH  47  48
ENDBRANCH  40  42
ENDBRANCH  39  40
ENDBRANCH   1  39
TORSDOF 16
