REMARK SMILES Cc1ccccc1CNc1ccc(C(=O)OCCOC(=O)c2ccc(-c3c4nc(c(-c5c(F)cc(S(=O)(=O)[O-])cc5F)c5ccc([nH]5)c(-c5c(F)cc(S(=O)(=O)[O-])cc5F)c5nc(c(-c6c(F)cc(S(=O)(=O)[O-])cc6F)c6ccc3[nH]6)C=C5)C=C4)cc2)c(F)c1F
REMARK SMILES IDX 17 1 16 2 14 3 15 4 13 5 10 6 11 7 90 8 12 9 88 10 91 11
REMARK SMILES IDX 89 12 9 13 8 15 7 16 1 17 2 18 3 19 4 20 6 21 5 22 18 23
REMARK SMILES IDX 19 24 20 25 21 26 22 27 23 28 87 29 24 30 86 31 25 32 26 33
REMARK SMILES IDX 27 34 80 35 28 36 85 37 79 38 81 39 29 40 84 41 78 42 77 43
REMARK SMILES IDX 30 45 64 46 43 47 63 48 44 49 47 50 62 51 82 52 45 53 46 54
REMARK SMILES IDX 61 56 83 57 48 58 31 59 32 60 41 61 33 62 34 63 40 64 42 65
REMARK SMILES IDX 35 66 36 67 37 68 38 69 39 70 65 71 66 72 75 73 67 74 68 75
REMARK SMILES IDX 74 76 76 77 69 78 70 79 71 80 72 81 73 82 49 83 50 84 59 85
REMARK SMILES IDX 51 86 52 87 58 88 60 89 53 90 54 91 55 92 56 93 57 94
REMARK H PARENT 9 14 81 44 47 55
REMARK Flexibility Score: inf
ROOT
ATOM      1  C   UNL     1       0.420  10.784  -0.792  1.00  0.00     0.275 C 
ENDROOT
BRANCH   1   2
ATOM      2  O   UNL     1       0.579   9.422  -1.233  1.00  0.00    -0.458 OA
BRANCH   2   3
ATOM      3  C   UNL     1       0.569   8.537  -0.209  1.00  0.00     0.341 C 
ATOM      4  O   UNL     1       0.463   8.825   0.978  1.00  0.00    -0.246 OA
BRANCH   3   5
ATOM      5  C   UNL     1       0.888   7.160  -0.612  1.00  0.00     0.099 A 
ATOM      6  C   UNL     1       1.281   4.389  -0.924  1.00  0.00     0.074 A 
ATOM      7  C   UNL     1       2.020   5.108   0.020  1.00  0.00     0.030 A 
ATOM      8  C   UNL     1       0.414   5.102  -1.768  1.00  0.00     0.182 A 
ATOM      9  C   UNL     1       1.812   6.477   0.190  1.00  0.00     0.021 A 
ATOM     10  C   UNL     1       0.227   6.476  -1.623  1.00  0.00     0.175 A 
ATOM     11  F   UNL     1      -0.302   4.425  -2.680  1.00  0.00    -0.201 F 
ATOM     12  F   UNL     1      -0.634   7.096  -2.432  1.00  0.00    -0.203 F 
BRANCH   6  13
ATOM     13  N   UNL     1       1.307   2.991  -0.953  1.00  0.00    -0.379 N 
ATOM     14  H   UNL     1       1.422   2.494  -1.794  1.00  0.00     0.161 HD
BRANCH  13  15
ATOM     15  C   UNL     1       1.157   2.307   0.325  1.00  0.00     0.149 C 
BRANCH  15  16
ATOM     16  C   UNL     1       0.421   1.001   0.136  1.00  0.00    -0.026 A 
ATOM     17  C   UNL     1       2.568  -0.382  -0.042  1.00  0.00     0.044 C 
ATOM     18  C   UNL     1       1.072  -0.238  -0.025  1.00  0.00    -0.046 A 
ATOM     19  C   UNL     1       0.295  -1.406  -0.124  1.00  0.00     0.004 A 
ATOM     20  C   UNL     1      -1.099  -1.349  -0.113  1.00  0.00     0.000 A 
ATOM     21  C   UNL     1      -0.988   1.043   0.113  1.00  0.00     0.006 A 
ATOM     22  C   UNL     1      -1.741  -0.122  -0.009  1.00  0.00     0.000 A 
ENDBRANCH  15  16
ENDBRANCH  13  15
ENDBRANCH   6  13
ENDBRANCH   3   5
ENDBRANCH   2   3
ENDBRANCH   1   2
BRANCH   1  23
ATOM     23  C   UNL     1       0.093  11.741  -1.952  1.00  0.00     0.275 C 
BRANCH  23  24
ATOM     24  O   UNL     1      -1.230  11.655  -2.517  1.00  0.00    -0.458 OA
BRANCH  24  25
ATOM     25  C   UNL     1      -1.670  10.399  -2.815  1.00  0.00     0.338 C 
ATOM     26  O   UNL     1      -1.198   9.715  -3.702  1.00  0.00    -0.246 OA
BRANCH  25  27
ATOM     27  C   UNL     1      -2.552   9.959  -1.694  1.00  0.00     0.060 A 
ATOM     28  C   UNL     1      -2.842   8.600  -1.516  1.00  0.00     0.016 A 
ATOM     29  C   UNL     1      -2.825  10.873  -0.671  1.00  0.00     0.016 A 
ATOM     30  C   UNL     1      -3.281   8.133  -0.275  1.00  0.00     0.010 A 
ATOM     31  C   UNL     1      -3.152  10.408   0.578  1.00  0.00     0.010 A 
ATOM     32  C   UNL     1      -3.397   9.042   0.775  1.00  0.00    -0.014 A 
BRANCH  32  33
ATOM     33  C   UNL     1      -4.063   8.775   2.041  1.00  0.00     0.031 A 
ATOM     34  C   UNL     1      -3.392   8.264   3.248  1.00  0.00     0.074 A 
ATOM     35  C   UNL     1      -5.308   9.293   2.062  1.00  0.00     0.049 A 
ATOM     36  N   UNL     1      -4.018   7.939   4.327  1.00  0.00    -0.248 NA
ATOM     37  C   UNL     1      -1.956   8.044   3.346  1.00  0.00     0.031 C 
ATOM     38  C   UNL     1      -6.162   9.648   3.179  1.00  0.00     0.029 A 
ATOM     39  N   UNL     1      -6.113   9.490   0.946  1.00  0.00    -0.354 N 
ATOM     40  C   UNL     1      -3.091   7.744   5.331  1.00  0.00     0.074 A 
ATOM     41  C   UNL     1      -1.821   7.736   4.644  1.00  0.00     0.031 C 
ATOM     42  C   UNL     1      -7.424   9.772   2.725  1.00  0.00     0.029 A 
ATOM     43  C   UNL     1      -7.433   9.324   1.335  1.00  0.00     0.049 A 
ATOM     44  H   UNL     1      -5.801   9.710   0.038  1.00  0.00     0.167 HD
ATOM     45  C   UNL     1      -3.530   7.753   6.628  1.00  0.00     0.037 A 
ATOM     46  C   UNL     1      -8.086   8.211   0.882  1.00  0.00     0.037 A 
ATOM     47  C   UNL     1      -4.997   7.794   6.647  1.00  0.00     0.049 A 
ATOM     48  C   UNL     1      -8.416   7.274   2.020  1.00  0.00     0.074 A 
ATOM     49  C   UNL     1      -5.894   8.842   6.781  1.00  0.00     0.029 A 
ATOM     50  N   UNL     1      -5.723   6.713   6.152  1.00  0.00    -0.354 N 
ATOM     51  N   UNL     1      -7.699   7.137   3.104  1.00  0.00    -0.248 NA
ATOM     52  C   UNL     1      -9.659   6.515   2.061  1.00  0.00     0.031 C 
ATOM     53  C   UNL     1      -7.139   8.417   6.250  1.00  0.00     0.029 A 
ATOM     54  C   UNL     1      -7.010   7.102   5.828  1.00  0.00     0.049 A 
ATOM     55  H   UNL     1      -5.370   5.800   6.048  1.00  0.00     0.167 HD
ATOM     56  C   UNL     1      -8.394   6.375   4.008  1.00  0.00     0.074 A 
ATOM     57  C   UNL     1      -9.605   5.994   3.298  1.00  0.00     0.031 C 
ATOM     58  C   UNL     1      -7.976   6.154   5.292  1.00  0.00     0.037 A 
BRANCH  45  59
ATOM     59  C   UNL     1      -2.678   8.020   7.868  1.00  0.00     0.058 A 
ATOM     60  C   UNL     1      -3.270   8.544   9.045  1.00  0.00     0.135 A 
ATOM     61  C   UNL     1      -1.281   7.858   7.958  1.00  0.00     0.135 A 
ATOM     62  F   UNL     1      -4.598   8.682   9.161  1.00  0.00    -0.206 F 
ATOM     63  C   UNL     1      -2.535   8.963  10.161  1.00  0.00     0.059 A 
ATOM     64  C   UNL     1      -0.519   8.297   9.052  1.00  0.00     0.059 A 
ATOM     65  F   UNL     1      -0.585   7.224   7.009  1.00  0.00    -0.206 F 
ATOM     66  C   UNL     1      -1.153   8.866  10.146  1.00  0.00     0.060 A 
BRANCH  66  67
ATOM     67  S   UNL     1      -0.216   9.466  11.566  1.00  0.00     0.124 S 
ATOM     68  O   UNL     1      -0.562  10.884  11.584  1.00  0.00    -0.237 OA
ATOM     69  O   UNL     1      -0.760   8.665  12.657  1.00  0.00    -0.237 OA
ATOM     70  O   UNL     1       1.170   9.171  11.209  1.00  0.00    -0.744 OA
ENDBRANCH  66  67
ENDBRANCH  45  59
BRANCH  46  71
ATOM     71  C   UNL     1      -7.708   7.819  -0.516  1.00  0.00     0.058 A 
ATOM     72  C   UNL     1      -7.949   8.757  -1.545  1.00  0.00     0.135 A 
ATOM     73  C   UNL     1      -6.832   6.764  -0.818  1.00  0.00     0.135 A 
ATOM     74  F   UNL     1      -8.776   9.793  -1.324  1.00  0.00    -0.206 F 
ATOM     75  C   UNL     1      -7.266   8.728  -2.758  1.00  0.00     0.059 A 
ATOM     76  C   UNL     1      -6.146   6.705  -2.041  1.00  0.00     0.059 A 
ATOM     77  F   UNL     1      -6.551   5.832   0.103  1.00  0.00    -0.206 F 
ATOM     78  C   UNL     1      -6.335   7.719  -2.982  1.00  0.00     0.060 A 
BRANCH  78  79
ATOM     79  S   UNL     1      -5.278   7.865  -4.446  1.00  0.00     0.124 S 
ATOM     80  O   UNL     1      -6.235   7.665  -5.529  1.00  0.00    -0.237 OA
ATOM     81  O   UNL     1      -4.763   9.224  -4.300  1.00  0.00    -0.237 OA
ATOM     82  O   UNL     1      -4.301   6.797  -4.260  1.00  0.00    -0.744 OA
ENDBRANCH  78  79
ENDBRANCH  46  71
BRANCH  58  83
ATOM     83  C   UNL     1      -8.553   5.110   6.220  1.00  0.00     0.058 A 
ATOM     84  C   UNL     1      -9.163   3.926   5.771  1.00  0.00     0.135 A 
ATOM     85  C   UNL     1      -8.367   5.203   7.622  1.00  0.00     0.135 A 
ATOM     86  F   UNL     1      -9.275   3.647   4.464  1.00  0.00    -0.206 F 
ATOM     87  C   UNL     1      -9.640   2.951   6.645  1.00  0.00     0.059 A 
ATOM     88  C   UNL     1      -8.776   4.211   8.508  1.00  0.00     0.059 A 
ATOM     89  F   UNL     1      -7.759   6.257   8.186  1.00  0.00    -0.206 F 
ATOM     90  C   UNL     1      -9.442   3.102   8.012  1.00  0.00     0.060 A 
BRANCH  90  91
ATOM     91  S   UNL     1      -9.999   1.815   9.140  1.00  0.00     0.124 S 
ATOM     92  O   UNL     1     -11.355   2.261   9.441  1.00  0.00    -0.237 OA
ATOM     93  O   UNL     1      -9.898   0.607   8.326  1.00  0.00    -0.237 OA
ATOM     94  O   UNL     1      -9.043   1.900  10.240  1.00  0.00    -0.744 OA
ENDBRANCH  90  91
ENDBRANCH  58  83
ENDBRANCH  32  33
ENDBRANCH  25  27
ENDBRANCH  24  25
ENDBRANCH  23  24
ENDBRANCH   1  23
TORSDOF 17
