REMARK SMILES O=C(OCCOC(=O)[C@H]1CC[C@H](CNS(=O)(=O)C[C@H]2CCCO2)O1)c1ccc(-c2c3nc(c(-c4c(F)cc(S(=O)(=O)[O-])cc4F)c4ccc([nH]4)c(-c4c(F)cc(S(=O)(=O)[O-])cc4F)c4nc(c(-c5c(F)cc(S(=O)(=O)[O-])cc5F)c5ccc2[nH]5)C=C4)C=C3)cc1
REMARK SMILES IDX 5 1 4 2 3 3 2 4 1 5 25 6 26 7 90 8 27 9 89 10 28 11 29 12
REMARK SMILES IDX 30 13 83 14 31 15 88 16 82 17 84 18 32 19 87 20 81 21 80 22
REMARK SMILES IDX 33 24 67 25 46 26 66 27 47 28 50 29 65 30 85 31 48 32 49 33
REMARK SMILES IDX 64 35 86 36 51 37 34 38 35 39 44 40 36 41 37 42 43 43 45 44
REMARK SMILES IDX 38 45 39 46 40 47 41 48 42 49 68 50 69 51 78 52 70 53 71 54
REMARK SMILES IDX 77 55 79 56 72 57 73 58 74 59 75 60 76 61 52 62 53 63 62 64
REMARK SMILES IDX 54 65 55 66 61 67 63 68 56 69 57 70 58 71 59 72 60 73 6 74
REMARK SMILES IDX 7 75 8 76 9 77 10 78 24 79 11 80 12 81 13 82 14 83 15 85
REMARK SMILES IDX 16 86 17 87 18 88 19 89 20 90 23 91 21 92 22 93
REMARK H PARENT 84 23 50 34 14 84
REMARK Flexibility Score: inf
ROOT
ATOM      1  C   UNL     1     -11.075  -0.908   8.716  1.00  0.00     0.274 C 
ENDROOT
BRANCH   1   2
ATOM      2  C   UNL     1     -11.025   0.623   8.664  1.00  0.00     0.275 C 
BRANCH   2   3
ATOM      3  O   UNL     1     -10.207   1.151   7.601  1.00  0.00    -0.458 OA
BRANCH   3   4
ATOM      4  C   UNL     1      -8.905   1.531   7.598  1.00  0.00     0.338 C 
ATOM      5  O   UNL     1      -8.505   2.239   6.675  1.00  0.00    -0.246 OA
BRANCH   4   6
ATOM      6  C   UNL     1      -7.886   1.021   8.574  1.00  0.00     0.060 A 
ATOM      7  C   UNL     1      -8.150   0.591   9.876  1.00  0.00     0.016 A 
ATOM      8  C   UNL     1      -6.553   0.939   8.117  1.00  0.00     0.016 A 
ATOM      9  C   UNL     1      -7.154   0.014  10.662  1.00  0.00     0.010 A 
ATOM     10  C   UNL     1      -5.541   0.372   8.908  1.00  0.00     0.010 A 
ATOM     11  C   UNL     1      -5.848  -0.108  10.183  1.00  0.00    -0.014 A 
BRANCH  11  12
ATOM     12  C   UNL     1      -4.829  -0.633  11.117  1.00  0.00     0.031 A 
ATOM     13  C   UNL     1      -4.024   0.352  11.906  1.00  0.00     0.074 A 
ATOM     14  C   UNL     1      -4.760  -1.954  11.371  1.00  0.00     0.049 A 
ATOM     15  N   UNL     1      -3.221   0.139  12.911  1.00  0.00    -0.248 NA
ATOM     16  C   UNL     1      -4.177   1.770  11.539  1.00  0.00     0.031 C 
ATOM     17  C   UNL     1      -5.561  -2.978  10.701  1.00  0.00     0.029 A 
ATOM     18  N   UNL     1      -4.011  -2.662  12.275  1.00  0.00    -0.354 N 
ATOM     19  C   UNL     1      -2.807   1.397  13.328  1.00  0.00     0.074 A 
ATOM     20  C   UNL     1      -3.400   2.364  12.432  1.00  0.00     0.031 C 
ATOM     21  C   UNL     1      -5.252  -4.185  11.205  1.00  0.00     0.029 A 
ATOM     22  C   UNL     1      -4.229  -4.021  12.233  1.00  0.00     0.049 A 
ATOM     23  H   UNL     1      -3.376  -2.238  12.896  1.00  0.00     0.167 HD
ATOM     24  C   UNL     1      -2.023   1.713  14.383  1.00  0.00     0.037 A 
ATOM     25  C   UNL     1      -3.664  -5.014  12.946  1.00  0.00     0.037 A 
ATOM     26  C   UNL     1      -1.403   0.732  15.232  1.00  0.00     0.049 A 
ATOM     27  C   UNL     1      -2.693  -4.639  14.037  1.00  0.00     0.074 A 
ATOM     28  C   UNL     1      -0.531   0.932  16.286  1.00  0.00     0.029 A 
ATOM     29  N   UNL     1      -1.580  -0.640  15.111  1.00  0.00    -0.354 N 
ATOM     30  N   UNL     1      -2.320  -3.442  14.430  1.00  0.00    -0.248 NA
ATOM     31  C   UNL     1      -2.083  -5.738  14.795  1.00  0.00     0.031 C 
ATOM     32  C   UNL     1      -0.143  -0.322  16.770  1.00  0.00     0.029 A 
ATOM     33  C   UNL     1      -0.819  -1.302  16.058  1.00  0.00     0.049 A 
ATOM     34  H   UNL     1      -2.162  -1.078  14.448  1.00  0.00     0.167 HD
ATOM     35  C   UNL     1      -1.450  -3.644  15.496  1.00  0.00     0.074 A 
ATOM     36  C   UNL     1      -1.377  -5.077  15.702  1.00  0.00     0.031 C 
ATOM     37  C   UNL     1      -0.771  -2.733  16.238  1.00  0.00     0.037 A 
BRANCH  24  38
ATOM     38  C   UNL     1      -1.782   3.171  14.642  1.00  0.00     0.058 A 
ATOM     39  C   UNL     1      -2.798   4.005  15.139  1.00  0.00     0.135 A 
ATOM     40  C   UNL     1      -0.529   3.747  14.384  1.00  0.00     0.135 A 
ATOM     41  F   UNL     1      -4.026   3.512  15.371  1.00  0.00    -0.206 F 
ATOM     42  C   UNL     1      -2.585   5.362  15.353  1.00  0.00     0.059 A 
ATOM     43  C   UNL     1      -0.286   5.098  14.614  1.00  0.00     0.059 A 
ATOM     44  F   UNL     1       0.470   2.998  13.892  1.00  0.00    -0.206 F 
ATOM     45  C   UNL     1      -1.324   5.899  15.089  1.00  0.00     0.060 A 
BRANCH  45  46
ATOM     46  S   UNL     1      -1.062   7.661  15.382  1.00  0.00     0.124 S 
ATOM     47  O   UNL     1      -1.858   8.256  14.313  1.00  0.00    -0.237 OA
ATOM     48  O   UNL     1      -1.587   7.831  16.733  1.00  0.00    -0.237 OA
ATOM     49  O   UNL     1       0.383   7.817  15.249  1.00  0.00    -0.744 OA
ENDBRANCH  45  46
ENDBRANCH  24  38
BRANCH  25  50
ATOM     50  C   UNL     1      -3.973  -6.442  12.646  1.00  0.00     0.058 A 
ATOM     51  C   UNL     1      -4.610  -7.278  13.576  1.00  0.00     0.135 A 
ATOM     52  C   UNL     1      -3.592  -7.014  11.420  1.00  0.00     0.135 A 
ATOM     53  F   UNL     1      -4.995  -6.789  14.765  1.00  0.00    -0.206 F 
ATOM     54  C   UNL     1      -4.824  -8.631  13.320  1.00  0.00     0.059 A 
ATOM     55  C   UNL     1      -3.822  -8.355  11.128  1.00  0.00     0.059 A 
ATOM     56  F   UNL     1      -2.995  -6.260  10.484  1.00  0.00    -0.206 F 
ATOM     57  C   UNL     1      -4.422  -9.161  12.092  1.00  0.00     0.060 A 
BRANCH  57  58
ATOM     58  S   UNL     1      -4.713 -10.914  11.764  1.00  0.00     0.124 S 
ATOM     59  O   UNL     1      -3.737 -11.545  12.645  1.00  0.00    -0.237 OA
ATOM     60  O   UNL     1      -6.113 -11.067  12.146  1.00  0.00    -0.237 OA
ATOM     61  O   UNL     1      -4.446 -11.036  10.334  1.00  0.00    -0.744 OA
ENDBRANCH  57  58
ENDBRANCH  25  50
BRANCH  37  62
ATOM     62  C   UNL     1       0.085  -3.263  17.355  1.00  0.00     0.058 A 
ATOM     63  C   UNL     1       1.271  -3.970  17.105  1.00  0.00     0.135 A 
ATOM     64  C   UNL     1      -0.269  -3.025  18.693  1.00  0.00     0.135 A 
ATOM     65  F   UNL     1       1.653  -4.227  15.844  1.00  0.00    -0.206 F 
ATOM     66  C   UNL     1       2.057  -4.456  18.143  1.00  0.00     0.059 A 
ATOM     67  C   UNL     1       0.520  -3.471  19.746  1.00  0.00     0.059 A 
ATOM     68  F   UNL     1      -1.387  -2.340  18.986  1.00  0.00    -0.206 F 
ATOM     69  C   UNL     1       1.673  -4.201  19.461  1.00  0.00     0.060 A 
BRANCH  69  70
ATOM     70  S   UNL     1       2.710  -4.825  20.799  1.00  0.00     0.124 S 
ATOM     71  O   UNL     1       2.413  -6.253  20.758  1.00  0.00    -0.237 OA
ATOM     72  O   UNL     1       4.048  -4.442  20.361  1.00  0.00    -0.237 OA
ATOM     73  O   UNL     1       2.213  -4.114  21.973  1.00  0.00    -0.744 OA
ENDBRANCH  69  70
ENDBRANCH  37  62
ENDBRANCH  11  12
ENDBRANCH   4   6
ENDBRANCH   3   4
ENDBRANCH   2   3
ENDBRANCH   1   2
BRANCH   1  74
ATOM     74  O   UNL     1      -9.776  -1.505   8.606  1.00  0.00    -0.460 OA
BRANCH  74  75
ATOM     75  C   UNL     1      -9.397  -1.878   7.346  1.00  0.00     0.335 C 
ATOM     76  O   UNL     1     -10.137  -1.899   6.370  1.00  0.00    -0.249 OA
BRANCH  75  77
ATOM     77  C   UNL     1      -7.904  -2.227   7.330  1.00  0.00     0.228 C 
ATOM     78  C   UNL     1      -7.657  -3.712   7.464  1.00  0.00     0.047 C 
ATOM     79  O   UNL     1      -7.278  -1.808   6.109  1.00  0.00    -0.362 OA
ATOM     80  C   UNL     1      -7.601  -4.153   6.027  1.00  0.00     0.037 C 
ATOM     81  C   UNL     1      -6.934  -2.970   5.333  1.00  0.00     0.134 C 
BRANCH  81  82
ATOM     82  C   UNL     1      -5.396  -3.057   5.233  1.00  0.00     0.130 C 
BRANCH  82  83
ATOM     83  N   UNL     1      -4.992  -4.234   4.437  1.00  0.00    -0.213 NA
ATOM     84  H   UNL     1      -5.527  -4.210   3.569  1.00  0.00     0.141 HD
BRANCH  83  85
ATOM     85  S   UNL     1      -3.383  -4.395   4.021  1.00  0.00     0.214 S 
ATOM     86  O   UNL     1      -2.604  -4.034   5.180  1.00  0.00    -0.212 OA
ATOM     87  O   UNL     1      -3.267  -5.720   3.443  1.00  0.00    -0.212 OA
BRANCH  85  88
ATOM     88  C   UNL     1      -3.069  -3.207   2.741  1.00  0.00     0.185 C 
BRANCH  88  89
ATOM     89  C   UNL     1      -4.072  -3.046   1.609  1.00  0.00     0.134 C 
ATOM     90  C   UNL     1      -4.997  -4.174   1.173  1.00  0.00     0.035 C 
ATOM     91  O   UNL     1      -4.899  -1.897   1.889  1.00  0.00    -0.377 OA
ATOM     92  C   UNL     1      -6.382  -3.690   1.534  1.00  0.00     0.031 C 
ATOM     93  C   UNL     1      -6.244  -2.187   1.504  1.00  0.00     0.160 C 
ENDBRANCH  88  89
ENDBRANCH  85  88
ENDBRANCH  83  85
ENDBRANCH  82  83
ENDBRANCH  81  82
ENDBRANCH  75  77
ENDBRANCH  74  75
ENDBRANCH   1  74
TORSDOF 19
