REMARK SMILES COC(=O)c1ccccc1N(C)S(=O)(=O)c1c[nH]c(C(=O)OCCOC(=O)c2ccc(-c3c4nc(c(-c5c(F)cc(S(=O)(=O)[O-])cc5F)c5ccc([nH]5)c(-c5c(F)cc(S(=O)(=O)[O-])cc5F)c5nc(c(-c6c(F)cc(S(=O)(=O)[O-])cc6F)c6ccc3[nH]6)C=C5)C=C4)cc2)c1
REMARK SMILES IDX 23 1 22 2 20 3 21 4 19 5 16 6 17 7 94 8 18 9 13 11 14 12
REMARK SMILES IDX 15 13 11 14 12 15 10 16 5 17 6 18 7 19 9 20 8 21 3 22 4 23
REMARK SMILES IDX 2 24 1 25 24 26 25 27 26 28 27 29 28 30 29 31 93 32 30 33
REMARK SMILES IDX 92 34 31 35 32 36 33 37 86 38 34 39 91 40 85 41 87 42 35 43
REMARK SMILES IDX 90 44 84 45 83 46 36 48 70 49 49 50 69 51 50 52 53 53 68 54
REMARK SMILES IDX 88 55 51 56 52 57 67 59 89 60 54 61 37 62 38 63 47 64 39 65
REMARK SMILES IDX 40 66 46 67 48 68 41 69 42 70 43 71 44 72 45 73 71 74 72 75
REMARK SMILES IDX 81 76 73 77 74 78 80 79 82 80 75 81 76 82 77 83 78 84 79 85
REMARK SMILES IDX 55 86 56 87 65 88 57 89 58 90 64 91 66 92 59 93 60 94 61 95
REMARK SMILES IDX 62 96 63 97
REMARK H PARENT 18 10 87 47 53 58
REMARK Flexibility Score: inf
ROOT
ATOM      1  C   UNL     1      -7.999   0.075   2.705  1.00  0.00     0.275 C 
ENDROOT
BRANCH   1   2
ATOM      2  O   UNL     1      -6.820  -0.134   1.915  1.00  0.00    -0.457 OA
BRANCH   2   3
ATOM      3  C   UNL     1      -6.282   0.999   1.368  1.00  0.00     0.354 C 
ATOM      4  O   UNL     1      -6.819   2.082   1.315  1.00  0.00    -0.244 OA
BRANCH   3   5
ATOM      5  C   UNL     1      -4.947   0.725   0.882  1.00  0.00     0.126 A 
ATOM      6  C   UNL     1      -2.956  -0.156   0.236  1.00  0.00     0.106 A 
ATOM      7  C   UNL     1      -2.941   1.209   0.001  1.00  0.00     0.105 A 
ATOM      8  C   UNL     1      -4.188  -0.435   0.879  1.00  0.00     0.057 A 
ATOM      9  N   UNL     1      -4.142   1.728   0.392  1.00  0.00    -0.354 N 
ATOM     10  H   UNL     1      -4.394   2.677   0.332  1.00  0.00     0.166 HD
BRANCH   6  11
ATOM     11  S   UNL     1      -1.613  -1.218  -0.080  1.00  0.00     0.265 S 
ATOM     12  O   UNL     1      -1.103  -1.497   1.245  1.00  0.00    -0.201 OA
ATOM     13  O   UNL     1      -0.880  -0.439  -1.054  1.00  0.00    -0.201 OA
BRANCH  11  14
ATOM     14  N   UNL     1      -2.029  -2.727  -0.824  1.00  0.00    -0.268 N 
ATOM     15  C   UNL     1      -3.319  -3.254  -0.313  1.00  0.00     0.164 C 
BRANCH  14  16
ATOM     16  C   UNL     1      -0.918  -3.722  -1.029  1.00  0.00     0.066 A 
ATOM     17  C   UNL     1       0.429  -3.458  -1.386  1.00  0.00     0.084 A 
ATOM     18  C   UNL     1       1.333  -4.502  -1.714  1.00  0.00     0.018 A 
ATOM     19  C   UNL     1       0.935  -5.830  -1.729  1.00  0.00     0.001 A 
ATOM     20  C   UNL     1      -1.273  -5.097  -1.085  1.00  0.00     0.028 A 
ATOM     21  C   UNL     1      -0.376  -6.126  -1.418  1.00  0.00     0.002 A 
BRANCH  17  22
ATOM     22  C   UNL     1       1.086  -2.151  -1.527  1.00  0.00     0.340 C 
ATOM     23  O   UNL     1       1.405  -1.676  -2.605  1.00  0.00    -0.246 OA
BRANCH  22  24
ATOM     24  O   UNL     1       1.442  -1.727  -0.292  1.00  0.00    -0.465 OA
ATOM     25  C   UNL     1       2.004  -0.412  -0.231  1.00  0.00     0.282 C 
ENDBRANCH  22  24
ENDBRANCH  17  22
ENDBRANCH  14  16
ENDBRANCH  11  14
ENDBRANCH   6  11
ENDBRANCH   3   5
ENDBRANCH   2   3
ENDBRANCH   1   2
BRANCH   1  26
ATOM     26  C   UNL     1      -7.663   0.268   4.183  1.00  0.00     0.275 C 
BRANCH  26  27
ATOM     27  O   UNL     1      -6.934   1.469   4.466  1.00  0.00    -0.458 OA
BRANCH  27  28
ATOM     28  C   UNL     1      -5.590   1.309   4.456  1.00  0.00     0.338 C 
ATOM     29  O   UNL     1      -4.966   0.401   3.931  1.00  0.00    -0.246 OA
BRANCH  28  30
ATOM     30  C   UNL     1      -4.931   2.306   5.303  1.00  0.00     0.060 A 
ATOM     31  C   UNL     1      -3.632   2.703   4.966  1.00  0.00     0.016 A 
ATOM     32  C   UNL     1      -5.510   2.661   6.527  1.00  0.00     0.016 A 
ATOM     33  C   UNL     1      -2.893   3.442   5.877  1.00  0.00     0.010 A 
ATOM     34  C   UNL     1      -4.757   3.366   7.453  1.00  0.00     0.010 A 
ATOM     35  C   UNL     1      -3.451   3.756   7.123  1.00  0.00    -0.014 A 
BRANCH  35  36
ATOM     36  C   UNL     1      -2.709   4.676   8.007  1.00  0.00     0.031 A 
ATOM     37  C   UNL     1      -3.012   6.143   7.653  1.00  0.00     0.074 A 
ATOM     38  C   UNL     1      -1.881   4.108   8.938  1.00  0.00     0.049 A 
ATOM     39  N   UNL     1      -2.286   7.206   7.814  1.00  0.00    -0.248 NA
ATOM     40  C   UNL     1      -4.273   6.473   6.925  1.00  0.00     0.031 C 
ATOM     41  C   UNL     1      -1.719   2.650   9.136  1.00  0.00     0.029 A 
ATOM     42  N   UNL     1      -1.018   4.606   9.898  1.00  0.00    -0.354 N 
ATOM     43  C   UNL     1      -3.088   8.317   7.467  1.00  0.00     0.074 A 
ATOM     44  C   UNL     1      -4.226   7.797   6.779  1.00  0.00     0.031 C 
ATOM     45  C   UNL     1      -0.781   2.388  10.074  1.00  0.00     0.029 A 
ATOM     46  C   UNL     1      -0.262   3.631  10.611  1.00  0.00     0.049 A 
ATOM     47  H   UNL     1      -0.932   5.570  10.076  1.00  0.00     0.167 HD
ATOM     48  C   UNL     1      -2.857   9.578   7.935  1.00  0.00     0.037 A 
ATOM     49  C   UNL     1       0.724   3.812  11.549  1.00  0.00     0.037 A 
ATOM     50  C   UNL     1      -1.689   9.578   8.748  1.00  0.00     0.049 A 
ATOM     51  C   UNL     1       0.699   5.248  11.861  1.00  0.00     0.074 A 
ATOM     52  C   UNL     1      -0.361   9.403   8.466  1.00  0.00     0.029 A 
ATOM     53  N   UNL     1      -1.893   9.424  10.100  1.00  0.00    -0.354 N 
ATOM     54  N   UNL     1      -0.229   5.837  12.553  1.00  0.00    -0.248 NA
ATOM     55  C   UNL     1       1.760   6.108  11.321  1.00  0.00     0.031 C 
ATOM     56  C   UNL     1       0.118   8.693   9.584  1.00  0.00     0.029 A 
ATOM     57  C   UNL     1      -0.871   8.647  10.576  1.00  0.00     0.049 A 
ATOM     58  H   UNL     1      -2.635   9.800  10.626  1.00  0.00     0.167 HD
ATOM     59  C   UNL     1      -0.041   7.156  12.226  1.00  0.00     0.074 A 
ATOM     60  C   UNL     1       1.328   7.282  11.773  1.00  0.00     0.031 C 
ATOM     61  C   UNL     1      -1.102   7.873  11.775  1.00  0.00     0.037 A 
BRANCH  48  62
ATOM     62  C   UNL     1      -3.733  10.803   8.021  1.00  0.00     0.058 A 
ATOM     63  C   UNL     1      -3.099  12.030   8.344  1.00  0.00     0.135 A 
ATOM     64  C   UNL     1      -5.122  10.756   8.212  1.00  0.00     0.135 A 
ATOM     65  F   UNL     1      -1.784  12.203   8.124  1.00  0.00    -0.206 F 
ATOM     66  C   UNL     1      -3.760  13.062   8.999  1.00  0.00     0.059 A 
ATOM     67  C   UNL     1      -5.816  11.805   8.820  1.00  0.00     0.059 A 
ATOM     68  F   UNL     1      -5.832   9.664   7.905  1.00  0.00    -0.206 F 
ATOM     69  C   UNL     1      -5.113  12.918   9.276  1.00  0.00     0.060 A 
BRANCH  69  70
ATOM     70  S   UNL     1      -5.921  14.171  10.289  1.00  0.00     0.124 S 
ATOM     71  O   UNL     1      -5.454  13.815  11.624  1.00  0.00    -0.237 OA
ATOM     72  O   UNL     1      -5.381  15.412   9.741  1.00  0.00    -0.237 OA
ATOM     73  O   UNL     1      -7.339  13.947  10.027  1.00  0.00    -0.744 OA
ENDBRANCH  69  70
ENDBRANCH  48  62
BRANCH  49  74
ATOM     74  C   UNL     1       1.811   3.016  12.258  1.00  0.00     0.058 A 
ATOM     75  C   UNL     1       2.081   1.651  12.104  1.00  0.00     0.135 A 
ATOM     76  C   UNL     1       2.779   3.705  13.052  1.00  0.00     0.135 A 
ATOM     77  F   UNL     1       1.206   0.835  11.506  1.00  0.00    -0.206 F 
ATOM     78  C   UNL     1       3.285   1.063  12.547  1.00  0.00     0.059 A 
ATOM     79  C   UNL     1       3.999   3.165  13.447  1.00  0.00     0.059 A 
ATOM     80  F   UNL     1       2.599   4.972  13.451  1.00  0.00    -0.206 F 
ATOM     81  C   UNL     1       4.264   1.843  13.160  1.00  0.00     0.060 A 
BRANCH  81  82
ATOM     82  S   UNL     1       5.926   1.203  13.463  1.00  0.00     0.124 S 
ATOM     83  O   UNL     1       5.796   0.634  14.799  1.00  0.00    -0.237 OA
ATOM     84  O   UNL     1       6.102   0.244  12.376  1.00  0.00    -0.237 OA
ATOM     85  O   UNL     1       6.762   2.398  13.365  1.00  0.00    -0.744 OA
ENDBRANCH  81  82
ENDBRANCH  49  74
BRANCH  61  86
ATOM     86  C   UNL     1      -2.449   7.427  12.323  1.00  0.00     0.058 A 
ATOM     87  C   UNL     1      -2.700   7.474  13.705  1.00  0.00     0.135 A 
ATOM     88  C   UNL     1      -3.471   6.864  11.539  1.00  0.00     0.135 A 
ATOM     89  F   UNL     1      -1.783   8.002  14.532  1.00  0.00    -0.206 F 
ATOM     90  C   UNL     1      -3.885   6.989  14.270  1.00  0.00     0.059 A 
ATOM     91  C   UNL     1      -4.668   6.377  12.074  1.00  0.00     0.059 A 
ATOM     92  F   UNL     1      -3.329   6.764  10.218  1.00  0.00    -0.206 F 
ATOM     93  C   UNL     1      -4.867   6.440  13.447  1.00  0.00     0.060 A 
BRANCH  93  94
ATOM     94  S   UNL     1      -6.396   5.822  14.189  1.00  0.00     0.124 S 
ATOM     95  O   UNL     1      -5.908   4.808  15.120  1.00  0.00    -0.237 OA
ATOM     96  O   UNL     1      -6.949   7.025  14.802  1.00  0.00    -0.237 OA
ATOM     97  O   UNL     1      -7.150   5.301  13.050  1.00  0.00    -0.744 OA
ENDBRANCH  93  94
ENDBRANCH  61  86
ENDBRANCH  35  36
ENDBRANCH  28  30
ENDBRANCH  27  28
ENDBRANCH  26  27
ENDBRANCH   1  26
TORSDOF 19
