REMARK SMILES O=C(N[C@@H](Cc1c[nH]c2ccccc12)C(=O)N[C@@H](CS)C(=O)N[C@@H](CO)C(=O)OCCOC(=O)c1ccc(-c2c3nc(c(-c4c(F)cc(S(=O)(=O)[O-])cc4F)c4ccc([nH]4)c(-c4c(F)cc(S(=O)(=O)[O-])cc4F)c4nc(c(-c5c(F)cc(S(=O)(=O)[O-])cc5F)c5ccc2[nH]5)C=C4)C=C3)cc1)c1ccc(F)cc1
REMARK SMILES IDX 29 1 27 2 28 3 24 4 23 5 21 6 22 7 18 9 17 10 15 11 16 12
REMARK SMILES IDX 4 14 3 15 1 16 2 17 101 19 102 20 107 21 103 22 106 23
REMARK SMILES IDX 104 24 105 25 5 26 6 27 7 28 14 29 8 30 9 31 13 32 10 34
REMARK SMILES IDX 12 35 11 36 19 37 20 38 25 40 26 41 30 43 31 44 32 45 33 46
REMARK SMILES IDX 34 47 35 48 36 49 100 50 37 51 99 52 38 53 39 54 40 55 93 56
REMARK SMILES IDX 41 57 98 58 92 59 94 60 42 61 97 62 91 63 90 64 43 66 77 67
REMARK SMILES IDX 56 68 76 69 57 70 60 71 75 72 95 73 58 74 59 75 74 77 96 78
REMARK SMILES IDX 61 79 44 80 45 81 54 82 46 83 47 84 53 85 55 86 48 87 49 88
REMARK SMILES IDX 50 89 51 90 52 91 78 92 79 93 88 94 80 95 81 96 87 97 89 98
REMARK SMILES IDX 82 99 83 100 84 101 85 102 86 103 62 104 63 105 72 106
REMARK SMILES IDX 64 107 65 108 71 109 73 110 66 111 67 112 68 113 69 114
REMARK SMILES IDX 70 115
REMARK H PARENT 23 8 17 13 3 18 8 33 20 39 26 42 94 65 60 76
REMARK Flexibility Score: inf
ROOT
ATOM      1  O   UNL     1       4.264  -6.312   6.531  1.00  0.00    -0.460 OA
ENDROOT
BRANCH   1   2
ATOM      2  C   UNL     1       4.739  -6.823   5.359  1.00  0.00     0.331 C 
ATOM      3  O   UNL     1       4.650  -7.997   5.019  1.00  0.00    -0.250 OA
BRANCH   2   4
ATOM      4  C   UNL     1       5.497  -5.774   4.543  1.00  0.00     0.218 C 
BRANCH   4   5
ATOM      5  N   UNL     1       5.263  -4.383   4.990  1.00  0.00    -0.339 N 
ATOM      6  C   UNL     1       5.694  -3.346   4.206  1.00  0.00     0.244 C 
ATOM      7  O   UNL     1       6.873  -3.002   4.324  1.00  0.00    -0.273 OA
ATOM      8  H   UNL     1       4.803  -4.205   5.841  1.00  0.00     0.164 HD
BRANCH   6   9
ATOM      9  C   UNL     1       4.674  -2.606   3.274  1.00  0.00     0.181 C 
BRANCH   9  10
ATOM     10  N   UNL     1       5.379  -2.297   2.024  1.00  0.00    -0.342 N 
ATOM     11  C   UNL     1       5.600  -1.154   1.330  1.00  0.00     0.243 C 
ATOM     12  O   UNL     1       6.495  -1.217   0.475  1.00  0.00    -0.273 OA
ATOM     13  H   UNL     1       5.777  -3.091   1.599  1.00  0.00     0.164 HD
BRANCH  11  14
ATOM     14  C   UNL     1       4.826   0.170   1.519  1.00  0.00     0.176 C 
BRANCH  14  15
ATOM     15  N   UNL     1       3.381  -0.028   1.439  1.00  0.00    -0.340 N 
ATOM     16  O   UNL     1       1.365  -0.113   0.446  1.00  0.00    -0.269 OA
ATOM     17  C   UNL     1       2.560   0.126   0.339  1.00  0.00     0.251 C 
ATOM     18  H   UNL     1       2.937  -0.306   2.272  1.00  0.00     0.164 HD
BRANCH  17  19
ATOM     19  C   UNL     1       3.103   0.656  -0.940  1.00  0.00     0.040 A 
ATOM     20  C   UNL     1       4.065  -0.044  -1.679  1.00  0.00     0.017 A 
ATOM     21  C   UNL     1       2.641   1.900  -1.394  1.00  0.00     0.017 A 
ATOM     22  C   UNL     1       4.621   0.537  -2.824  1.00  0.00     0.040 A 
ATOM     23  C   UNL     1       3.197   2.474  -2.542  1.00  0.00     0.040 A 
ATOM     24  C   UNL     1       4.193   1.795  -3.236  1.00  0.00     0.123 A 
ATOM     25  F   UNL     1       4.753   2.362  -4.314  1.00  0.00    -0.207 F 
ENDBRANCH  17  19
ENDBRANCH  14  15
BRANCH  14  26
ATOM     26  C   UNL     1       5.309   1.145   2.609  1.00  0.00     0.072 C 
BRANCH  26  27
ATOM     27  C   UNL     1       5.098   0.783   4.046  1.00  0.00    -0.020 A 
ATOM     28  C   UNL     1       5.939  -0.007   4.806  1.00  0.00     0.087 A 
ATOM     29  C   UNL     1       4.091   1.270   4.947  1.00  0.00     0.003 A 
ATOM     30  N   UNL     1       5.362  -0.205   6.030  1.00  0.00    -0.361 N 
ATOM     31  C   UNL     1       4.244   0.583   6.155  1.00  0.00     0.046 A 
ATOM     32  C   UNL     1       3.067   2.236   4.862  1.00  0.00     0.010 A 
ATOM     33  H   UNL     1       5.699  -0.821   6.721  1.00  0.00     0.166 HD
ATOM     34  C   UNL     1       3.385   0.753   7.247  1.00  0.00     0.026 A 
ATOM     35  C   UNL     1       2.244   2.472   5.972  1.00  0.00     0.001 A 
ATOM     36  C   UNL     1       2.388   1.724   7.138  1.00  0.00     0.002 A 
ENDBRANCH  26  27
ENDBRANCH  14  26
ENDBRANCH  11  14
ENDBRANCH   9  10
BRANCH   9  37
ATOM     37  C   UNL     1       3.321  -3.287   3.080  1.00  0.00     0.101 C 
BRANCH  37  38
ATOM     38  S   UNL     1       3.390  -4.645   1.873  1.00  0.00    -0.177 SA
ATOM     39  H   UNL     1       3.759  -4.154   0.660  1.00  0.00     0.102 HD
ENDBRANCH  37  38
ENDBRANCH   9  37
ENDBRANCH   6   9
ENDBRANCH   4   5
BRANCH   4  40
ATOM     40  C   UNL     1       6.992  -6.143   4.584  1.00  0.00     0.193 C 
BRANCH  40  41
ATOM     41  O   UNL     1       7.593  -5.693   5.803  1.00  0.00    -0.394 OA
ATOM     42  H   UNL     1       7.516  -4.728   5.864  1.00  0.00     0.210 HD
ENDBRANCH  40  41
ENDBRANCH   4  40
ENDBRANCH   2   4
ENDBRANCH   1   2
BRANCH   1  43
ATOM     43  C   UNL     1       3.581  -7.239   7.397  1.00  0.00     0.274 C 
BRANCH  43  44
ATOM     44  C   UNL     1       2.213  -6.669   7.758  1.00  0.00     0.275 C 
BRANCH  44  45
ATOM     45  O   UNL     1       1.436  -6.557   6.552  1.00  0.00    -0.458 OA
BRANCH  45  46
ATOM     46  C   UNL     1       0.644  -5.466   6.451  1.00  0.00     0.338 C 
ATOM     47  O   UNL     1       0.451  -4.630   7.331  1.00  0.00    -0.246 OA
BRANCH  46  48
ATOM     48  C   UNL     1       0.066  -5.367   5.090  1.00  0.00     0.060 A 
ATOM     49  C   UNL     1       0.700  -5.957   4.002  1.00  0.00     0.016 A 
ATOM     50  C   UNL     1      -1.064  -4.575   4.865  1.00  0.00     0.016 A 
ATOM     51  C   UNL     1       0.270  -5.659   2.704  1.00  0.00     0.010 A 
ATOM     52  C   UNL     1      -1.542  -4.366   3.557  1.00  0.00     0.010 A 
ATOM     53  C   UNL     1      -0.851  -4.856   2.435  1.00  0.00    -0.014 A 
BRANCH  53  54
ATOM     54  C   UNL     1      -1.248  -4.475   1.025  1.00  0.00     0.031 A 
ATOM     55  C   UNL     1      -1.688  -3.054   0.701  1.00  0.00     0.074 A 
ATOM     56  C   UNL     1      -1.183  -5.338  -0.017  1.00  0.00     0.049 A 
ATOM     57  N   UNL     1      -2.393  -2.611  -0.312  1.00  0.00    -0.248 NA
ATOM     58  C   UNL     1      -1.298  -2.002   1.651  1.00  0.00     0.031 C 
ATOM     59  C   UNL     1      -0.702  -6.718   0.031  1.00  0.00     0.029 A 
ATOM     60  N   UNL     1      -1.512  -5.165  -1.347  1.00  0.00    -0.354 N 
ATOM     61  C   UNL     1      -2.617  -1.256  -0.066  1.00  0.00     0.074 A 
ATOM     62  C   UNL     1      -1.951  -0.948   1.182  1.00  0.00     0.031 C 
ATOM     63  C   UNL     1      -0.660  -7.223  -1.209  1.00  0.00     0.029 A 
ATOM     64  C   UNL     1      -1.303  -6.286  -2.118  1.00  0.00     0.049 A 
ATOM     65  H   UNL     1      -1.862  -4.319  -1.710  1.00  0.00     0.167 HD
ATOM     66  C   UNL     1      -3.319  -0.359  -0.804  1.00  0.00     0.037 A 
ATOM     67  C   UNL     1      -1.671  -6.596  -3.378  1.00  0.00     0.037 A 
ATOM     68  C   UNL     1      -3.863  -0.633  -2.112  1.00  0.00     0.049 A 
ATOM     69  C   UNL     1      -2.510  -5.632  -4.161  1.00  0.00     0.074 A 
ATOM     70  C   UNL     1      -4.587   0.208  -2.942  1.00  0.00     0.029 A 
ATOM     71  N   UNL     1      -3.704  -1.825  -2.803  1.00  0.00    -0.354 N 
ATOM     72  N   UNL     1      -2.898  -4.424  -3.833  1.00  0.00    -0.248 NA
ATOM     73  C   UNL     1      -3.013  -6.097  -5.462  1.00  0.00     0.031 C 
ATOM     74  C   UNL     1      -4.893  -0.486  -4.119  1.00  0.00     0.029 A 
ATOM     75  C   UNL     1      -4.324  -1.746  -4.040  1.00  0.00     0.049 A 
ATOM     76  H   UNL     1      -3.220  -2.613  -2.464  1.00  0.00     0.167 HD
ATOM     77  C   UNL     1      -3.690  -3.983  -4.886  1.00  0.00     0.074 A 
ATOM     78  C   UNL     1      -3.712  -5.046  -5.870  1.00  0.00     0.031 C 
ATOM     79  C   UNL     1      -4.346  -2.805  -5.017  1.00  0.00     0.037 A 
BRANCH  66  80
ATOM     80  C   UNL     1      -3.611   0.992  -0.196  1.00  0.00     0.058 A 
ATOM     81  C   UNL     1      -2.645   1.998  -0.056  1.00  0.00     0.135 A 
ATOM     82  C   UNL     1      -4.925   1.295   0.209  1.00  0.00     0.135 A 
ATOM     83  F   UNL     1      -1.375   1.775  -0.430  1.00  0.00    -0.206 F 
ATOM     84  C   UNL     1      -2.958   3.239   0.497  1.00  0.00     0.059 A 
ATOM     85  C   UNL     1      -5.268   2.539   0.735  1.00  0.00     0.059 A 
ATOM     86  F   UNL     1      -5.899   0.379   0.086  1.00  0.00    -0.206 F 
ATOM     87  C   UNL     1      -4.272   3.499   0.894  1.00  0.00     0.060 A 
BRANCH  87  88
ATOM     88  S   UNL     1      -4.666   5.108   1.613  1.00  0.00     0.124 S 
ATOM     89  O   UNL     1      -4.111   4.971   2.957  1.00  0.00    -0.237 OA
ATOM     90  O   UNL     1      -3.961   6.032   0.730  1.00  0.00    -0.237 OA
ATOM     91  O   UNL     1      -6.123   5.168   1.541  1.00  0.00    -0.744 OA
ENDBRANCH  87  88
ENDBRANCH  66  80
BRANCH  67  92
ATOM     92  C   UNL     1      -1.345  -7.943  -3.926  1.00  0.00     0.058 A 
ATOM     93  C   UNL     1      -0.413  -8.100  -4.960  1.00  0.00     0.135 A 
ATOM     94  C   UNL     1      -1.918  -9.104  -3.380  1.00  0.00     0.135 A 
ATOM     95  F   UNL     1       0.140  -7.021  -5.536  1.00  0.00    -0.206 F 
ATOM     96  C   UNL     1      -0.036  -9.361  -5.414  1.00  0.00     0.059 A 
ATOM     97  C   UNL     1      -1.532 -10.374  -3.791  1.00  0.00     0.059 A 
ATOM     98  F   UNL     1      -2.819  -9.009  -2.389  1.00  0.00    -0.206 F 
ATOM     99  C   UNL     1      -0.589 -10.493  -4.809  1.00  0.00     0.060 A 
BRANCH  99 100
ATOM    100  S   UNL     1      -0.007 -12.126  -5.314  1.00  0.00     0.124 S 
ATOM    101  O   UNL     1      -0.707 -12.309  -6.580  1.00  0.00    -0.237 OA
ATOM    102  O   UNL     1       1.436 -11.927  -5.404  1.00  0.00    -0.237 OA
ATOM    103  O   UNL     1      -0.443 -12.988  -4.219  1.00  0.00    -0.744 OA
ENDBRANCH  99 100
ENDBRANCH  67  92
BRANCH  79 104
ATOM    104  C   UNL     1      -5.112  -2.587  -6.290  1.00  0.00     0.058 A 
ATOM    105  C   UNL     1      -6.339  -3.224  -6.529  1.00  0.00     0.135 A 
ATOM    106  C   UNL     1      -4.616  -1.724  -7.279  1.00  0.00     0.135 A 
ATOM    107  F   UNL     1      -6.850  -4.070  -5.620  1.00  0.00    -0.206 F 
ATOM    108  C   UNL     1      -7.037  -3.032  -7.717  1.00  0.00     0.059 A 
ATOM    109  C   UNL     1      -5.308  -1.500  -8.466  1.00  0.00     0.059 A 
ATOM    110  F   UNL     1      -3.448  -1.087  -7.098  1.00  0.00    -0.206 F 
ATOM    111  C   UNL     1      -6.511  -2.170  -8.681  1.00  0.00     0.060 A 
BRANCH 111 112
ATOM    112  S   UNL     1      -7.431  -1.920 -10.215  1.00  0.00     0.124 S 
ATOM    113  O   UNL     1      -7.171  -3.170 -10.921  1.00  0.00    -0.237 OA
ATOM    114  O   UNL     1      -8.797  -1.734  -9.736  1.00  0.00    -0.237 OA
ATOM    115  O   UNL     1      -6.810  -0.732 -10.793  1.00  0.00    -0.744 OA
ENDBRANCH 111 112
ENDBRANCH  79 104
ENDBRANCH  53  54
ENDBRANCH  46  48
ENDBRANCH  45  46
ENDBRANCH  44  45
ENDBRANCH  43  44
ENDBRANCH   1  43
TORSDOF 26
