REMARK SMILES O=C(OCCOC(=O)c1cc(F)c(F)cc1NS(=O)(=O)c1ccc2c(c1)CCC2)c1ccc(-c2c3nc(c(-c4c(F)cc(S(=O)(=O)[O-])cc4F)c4ccc([nH]4)c(-c4c(F)cc(S(=O)(=O)[O-])cc4F)c4nc(c(-c5c(F)cc(S(=O)(=O)[O-])cc5F)c5ccc2[nH]5)C=C4)C=C3)cc1
REMARK SMILES IDX 4 1 3 2 2 3 1 4 30 5 31 6 95 7 32 8 94 9 33 10 34 11 35 12
REMARK SMILES IDX 88 13 36 14 93 15 87 16 89 17 37 18 92 19 86 20 85 21 38 23
REMARK SMILES IDX 72 24 51 25 71 26 52 27 55 28 70 29 90 30 53 31 54 32 69 34
REMARK SMILES IDX 91 35 56 36 39 37 40 38 49 39 41 40 42 41 48 42 50 43 43 44
REMARK SMILES IDX 44 45 45 46 46 47 47 48 73 49 74 50 83 51 75 52 76 53 82 54
REMARK SMILES IDX 84 55 77 56 78 57 79 58 80 59 81 60 57 61 58 62 67 63 59 64
REMARK SMILES IDX 60 65 66 66 68 67 61 68 62 69 63 70 64 71 65 72 5 73 6 74
REMARK SMILES IDX 7 75 8 76 9 77 10 78 16 79 11 80 15 81 12 82 13 83 14 84
REMARK SMILES IDX 17 85 18 87 19 88 20 89 21 90 22 91 26 92 23 93 25 94 24 95
REMARK SMILES IDX 27 96 29 97 28 98
REMARK H PARENT 89 22 55 33 17 86
REMARK Flexibility Score: inf
ROOT
ATOM      1  C   UNL     1       4.208  -0.565  -1.784  1.00  0.00     0.275 C 
ENDROOT
BRANCH   1   2
ATOM      2  O   UNL     1       3.404  -1.214  -0.789  1.00  0.00    -0.458 OA
BRANCH   2   3
ATOM      3  C   UNL     1       3.164  -0.891   0.499  1.00  0.00     0.338 C 
ATOM      4  O   UNL     1       2.223  -1.454   1.056  1.00  0.00    -0.246 OA
BRANCH   3   5
ATOM      5  C   UNL     1       3.936   0.134   1.282  1.00  0.00     0.060 A 
ATOM      6  C   UNL     1       5.167   0.706   0.958  1.00  0.00     0.016 A 
ATOM      7  C   UNL     1       3.348   0.545   2.486  1.00  0.00     0.016 A 
ATOM      8  C   UNL     1       5.758   1.682   1.778  1.00  0.00     0.010 A 
ATOM      9  C   UNL     1       3.895   1.558   3.277  1.00  0.00     0.010 A 
ATOM     10  C   UNL     1       5.127   2.122   2.943  1.00  0.00    -0.014 A 
BRANCH  10  11
ATOM     11  C   UNL     1       5.823   3.035   3.887  1.00  0.00     0.031 A 
ATOM     12  C   UNL     1       6.221   2.504   5.239  1.00  0.00     0.074 A 
ATOM     13  C   UNL     1       6.112   4.306   3.543  1.00  0.00     0.049 A 
ATOM     14  N   UNL     1       6.878   3.100   6.199  1.00  0.00    -0.248 NA
ATOM     15  C   UNL     1       5.830   1.119   5.554  1.00  0.00     0.031 C 
ATOM     16  C   UNL     1       5.793   4.927   2.259  1.00  0.00     0.029 A 
ATOM     17  N   UNL     1       6.731   5.313   4.241  1.00  0.00    -0.354 N 
ATOM     18  C   UNL     1       6.993   2.157   7.213  1.00  0.00     0.074 A 
ATOM     19  C   UNL     1       6.250   0.991   6.801  1.00  0.00     0.031 C 
ATOM     20  C   UNL     1       6.168   6.217   2.276  1.00  0.00     0.029 A 
ATOM     21  C   UNL     1       6.799   6.506   3.556  1.00  0.00     0.049 A 
ATOM     22  H   UNL     1       7.093   5.193   5.149  1.00  0.00     0.167 HD
ATOM     23  C   UNL     1       7.709   2.227   8.358  1.00  0.00     0.037 A 
ATOM     24  C   UNL     1       7.341   7.688   3.910  1.00  0.00     0.037 A 
ATOM     25  C   UNL     1       8.467   3.381   8.748  1.00  0.00     0.049 A 
ATOM     26  C   UNL     1       8.095   7.763   5.210  1.00  0.00     0.074 A 
ATOM     27  C   UNL     1       9.260   3.559   9.866  1.00  0.00     0.029 A 
ATOM     28  N   UNL     1       8.523   4.561   8.019  1.00  0.00    -0.354 N 
ATOM     29  N   UNL     1       8.266   6.829   6.117  1.00  0.00    -0.248 NA
ATOM     30  C   UNL     1       8.773   9.030   5.514  1.00  0.00     0.031 C 
ATOM     31  C   UNL     1       9.775   4.860   9.827  1.00  0.00     0.029 A 
ATOM     32  C   UNL     1       9.332   5.477   8.666  1.00  0.00     0.049 A 
ATOM     33  H   UNL     1       8.056   4.722   7.168  1.00  0.00     0.167 HD
ATOM     34  C   UNL     1       9.123   7.373   7.066  1.00  0.00     0.074 A 
ATOM     35  C   UNL     1       9.421   8.723   6.630  1.00  0.00     0.031 C 
ATOM     36  C   UNL     1       9.631   6.804   8.187  1.00  0.00     0.037 A 
BRANCH  23  37
ATOM     37  C   UNL     1       7.705   1.005   9.233  1.00  0.00     0.058 A 
ATOM     38  C   UNL     1       8.352  -0.178   8.835  1.00  0.00     0.135 A 
ATOM     39  C   UNL     1       7.000   0.991  10.445  1.00  0.00     0.135 A 
ATOM     40  F   UNL     1       9.020  -0.226   7.671  1.00  0.00    -0.206 F 
ATOM     41  C   UNL     1       8.255  -1.347   9.582  1.00  0.00     0.059 A 
ATOM     42  C   UNL     1       6.913  -0.161  11.223  1.00  0.00     0.059 A 
ATOM     43  F   UNL     1       6.360   2.092  10.868  1.00  0.00    -0.206 F 
ATOM     44  C   UNL     1       7.523  -1.331  10.769  1.00  0.00     0.060 A 
BRANCH  44  45
ATOM     45  S   UNL     1       7.369  -2.865  11.708  1.00  0.00     0.124 S 
ATOM     46  O   UNL     1       6.396  -3.599  10.905  1.00  0.00    -0.237 OA
ATOM     47  O   UNL     1       8.732  -3.387  11.683  1.00  0.00    -0.237 OA
ATOM     48  O   UNL     1       6.897  -2.417  13.014  1.00  0.00    -0.744 OA
ENDBRANCH  44  45
ENDBRANCH  23  37
BRANCH  24  49
ATOM     49  C   UNL     1       7.275   8.859   2.991  1.00  0.00     0.058 A 
ATOM     50  C   UNL     1       8.412   9.302   2.297  1.00  0.00     0.135 A 
ATOM     51  C   UNL     1       6.079   9.567   2.795  1.00  0.00     0.135 A 
ATOM     52  F   UNL     1       9.581   8.660   2.449  1.00  0.00    -0.206 F 
ATOM     53  C   UNL     1       8.375  10.418   1.466  1.00  0.00     0.059 A 
ATOM     54  C   UNL     1       6.011  10.675   1.952  1.00  0.00     0.059 A 
ATOM     55  F   UNL     1       4.958   9.180   3.423  1.00  0.00    -0.206 F 
ATOM     56  C   UNL     1       7.169  11.101   1.301  1.00  0.00     0.060 A 
BRANCH  56  57
ATOM     57  S   UNL     1       7.131  12.535   0.201  1.00  0.00     0.124 S 
ATOM     58  O   UNL     1       7.877  13.520   0.975  1.00  0.00    -0.237 OA
ATOM     59  O   UNL     1       7.797  12.022  -0.992  1.00  0.00    -0.237 OA
ATOM     60  O   UNL     1       5.704  12.803   0.046  1.00  0.00    -0.744 OA
ENDBRANCH  56  57
ENDBRANCH  24  49
BRANCH  36  61
ATOM     61  C   UNL     1      10.612   7.613   8.983  1.00  0.00     0.058 A 
ATOM     62  C   UNL     1      10.204   8.687   9.786  1.00  0.00     0.135 A 
ATOM     63  C   UNL     1      11.972   7.262   8.985  1.00  0.00     0.135 A 
ATOM     64  F   UNL     1       8.915   9.062   9.811  1.00  0.00    -0.206 F 
ATOM     65  C   UNL     1      11.116   9.402  10.553  1.00  0.00     0.059 A 
ATOM     66  C   UNL     1      12.896   7.946   9.765  1.00  0.00     0.059 A 
ATOM     67  F   UNL     1      12.407   6.234   8.240  1.00  0.00    -0.206 F 
ATOM     68  C   UNL     1      12.460   9.022  10.537  1.00  0.00     0.060 A 
BRANCH  68  69
ATOM     69  S   UNL     1      13.630   9.928  11.570  1.00  0.00     0.124 S 
ATOM     70  O   UNL     1      13.830  11.143  10.788  1.00  0.00    -0.237 OA
ATOM     71  O   UNL     1      12.888  10.090  12.817  1.00  0.00    -0.237 OA
ATOM     72  O   UNL     1      14.779   9.031  11.645  1.00  0.00    -0.744 OA
ENDBRANCH  68  69
ENDBRANCH  36  61
ENDBRANCH  10  11
ENDBRANCH   3   5
ENDBRANCH   2   3
ENDBRANCH   1   2
BRANCH   1  73
ATOM     73  C   UNL     1       3.593   0.717  -2.345  1.00  0.00     0.275 C 
BRANCH  73  74
ATOM     74  O   UNL     1       3.308   1.709  -1.346  1.00  0.00    -0.458 OA
BRANCH  74  75
ATOM     75  C   UNL     1       2.007   1.890  -0.985  1.00  0.00     0.340 C 
ATOM     76  O   UNL     1       1.037   1.252  -1.352  1.00  0.00    -0.246 OA
BRANCH  75  77
ATOM     77  C   UNL     1       1.965   2.967   0.029  1.00  0.00     0.087 A 
ATOM     78  C   UNL     1       2.690   4.138  -0.242  1.00  0.00     0.060 A 
ATOM     79  C   UNL     1       1.290   2.795   1.260  1.00  0.00     0.066 A 
ATOM     80  C   UNL     1       2.791   5.111   0.735  1.00  0.00     0.159 A 
ATOM     81  C   UNL     1       1.587   3.702   2.278  1.00  0.00     0.070 A 
ATOM     82  F   UNL     1       3.424   6.256   0.455  1.00  0.00    -0.204 F 
ATOM     83  C   UNL     1       2.298   4.868   2.006  1.00  0.00     0.160 A 
ATOM     84  F   UNL     1       2.463   5.771   2.980  1.00  0.00    -0.204 F 
BRANCH  79  85
ATOM     85  N   UNL     1       0.129   1.948   1.326  1.00  0.00    -0.279 N 
ATOM     86  H   UNL     1      -0.268   1.706   0.458  1.00  0.00     0.180 HD
BRANCH  85  87
ATOM     87  S   UNL     1      -0.645   1.312   2.675  1.00  0.00     0.261 S 
ATOM     88  O   UNL     1      -1.860   0.697   2.180  1.00  0.00    -0.201 OA
ATOM     89  O   UNL     1       0.322   0.544   3.425  1.00  0.00    -0.201 OA
BRANCH  87  90
ATOM     90  C   UNL     1      -1.169   2.625   3.762  1.00  0.00     0.088 A 
ATOM     91  C   UNL     1      -1.240   3.962   3.341  1.00  0.00     0.022 A 
ATOM     92  C   UNL     1      -1.271   2.292   5.124  1.00  0.00     0.026 A 
ATOM     93  C   UNL     1      -1.219   4.988   4.296  1.00  0.00     0.005 A 
ATOM     94  C   UNL     1      -1.340   3.316   6.049  1.00  0.00    -0.043 A 
ATOM     95  C   UNL     1      -1.245   4.649   5.640  1.00  0.00    -0.045 A 
ATOM     96  C   UNL     1      -1.398   3.210   7.542  1.00  0.00     0.036 C 
ATOM     97  C   UNL     1      -1.079   5.541   6.833  1.00  0.00     0.036 C 
ATOM     98  C   UNL     1      -1.698   4.667   7.931  1.00  0.00     0.010 C 
ENDBRANCH  87  90
ENDBRANCH  85  87
ENDBRANCH  79  85
ENDBRANCH  75  77
ENDBRANCH  74  75
ENDBRANCH  73  74
ENDBRANCH   1  73
TORSDOF 17
