REMARK SMILES C[C@@H]1OCC[C@@H]1C#CC(=O)OCCOC(=O)c1ccc(-c2c3nc(c(-c4c(F)cc(S(=O)(=O)[O-])cc4F)c4ccc([nH]4)c(-c4c(F)cc(S(=O)(=O)[O-])cc4F)c4nc(c(-c5c(F)cc(S(=O)(=O)[O-])cc5F)c5ccc2[nH]5)C=C4)C=C3)cc1
REMARK SMILES IDX 13 1 12 2 11 3 9 4 10 5 8 6 7 7 6 8 1 9 2 10 3 11 4 12 5 13
REMARK SMILES IDX 14 14 15 15 16 16 17 17 18 18 82 19 19 20 81 21 20 22 21 23
REMARK SMILES IDX 22 24 75 25 23 26 80 27 74 28 76 29 24 30 79 31 73 32 72 33
REMARK SMILES IDX 25 35 59 36 38 37 58 38 39 39 42 40 57 41 77 42 40 43 41 44
REMARK SMILES IDX 56 46 78 47 43 48 26 49 27 50 36 51 28 52 29 53 35 54 37 55
REMARK SMILES IDX 30 56 31 57 32 58 33 59 34 60 60 61 61 62 70 63 62 64 63 65
REMARK SMILES IDX 69 66 71 67 64 68 65 69 66 70 67 71 68 72 44 73 45 74 54 75
REMARK SMILES IDX 46 76 47 77 53 78 55 79 48 80 49 81 50 82 51 83 52 84
REMARK H PARENT 76 34 42 45
REMARK Flexibility Score: inf
ROOT
ATOM      1  C   UNL     1       3.966  -3.160   6.319  1.00  0.00     0.275 C 
ENDROOT
BRANCH   1   2
ATOM      2  C   UNL     1       2.678  -2.331   6.303  1.00  0.00     0.275 C 
BRANCH   2   3
ATOM      3  O   UNL     1       1.943  -2.562   5.091  1.00  0.00    -0.452 OA
BRANCH   3   4
ATOM      4  C   UNL     1       2.126  -1.628   4.126  1.00  0.00     0.384 C 
ATOM      5  O   UNL     1       2.700  -0.557   4.248  1.00  0.00    -0.236 OA
BRANCH   4   6
ATOM      6  C   UNL     1       1.666  -2.061   2.832  1.00  0.00     0.017 C 
ATOM      7  C   UNL     1       1.412  -2.348   1.693  1.00  0.00    -0.085 C 
BRANCH   7   8
ATOM      8  C   UNL     1       1.165  -2.585   0.257  1.00  0.00     0.096 C 
ATOM      9  C   UNL     1       0.800  -0.031   0.002  1.00  0.00     0.040 C 
ATOM     10  C   UNL     1       0.396  -1.439  -0.406  1.00  0.00     0.130 C 
ATOM     11  O   UNL     1      -1.001  -1.671  -0.121  1.00  0.00    -0.377 OA
ATOM     12  C   UNL     1      -1.146  -3.039   0.297  1.00  0.00     0.162 C 
ATOM     13  C   UNL     1       0.187  -3.722   0.056  1.00  0.00     0.048 C 
ENDBRANCH   7   8
ENDBRANCH   4   6
ENDBRANCH   3   4
ENDBRANCH   2   3
ENDBRANCH   1   2
BRANCH   1  14
ATOM     14  O   UNL     1       4.915  -2.710   5.331  1.00  0.00    -0.458 OA
BRANCH  14  15
ATOM     15  C   UNL     1       4.850  -3.333   4.129  1.00  0.00     0.338 C 
ATOM     16  O   UNL     1       4.083  -4.224   3.804  1.00  0.00    -0.246 OA
BRANCH  15  17
ATOM     17  C   UNL     1       5.790  -2.701   3.189  1.00  0.00     0.060 A 
ATOM     18  C   UNL     1       5.277  -2.058   2.059  1.00  0.00     0.016 A 
ATOM     19  C   UNL     1       7.169  -2.799   3.379  1.00  0.00     0.016 A 
ATOM     20  C   UNL     1       6.139  -1.509   1.114  1.00  0.00     0.010 A 
ATOM     21  C   UNL     1       8.034  -2.233   2.436  1.00  0.00     0.010 A 
ATOM     22  C   UNL     1       7.526  -1.585   1.296  1.00  0.00    -0.014 A 
BRANCH  22  23
ATOM     23  C   UNL     1       8.439  -0.966   0.303  1.00  0.00     0.031 A 
ATOM     24  C   UNL     1       9.286  -1.822  -0.594  1.00  0.00     0.074 A 
ATOM     25  C   UNL     1       8.506   0.378   0.220  1.00  0.00     0.049 A 
ATOM     26  N   UNL     1      10.186  -1.460  -1.471  1.00  0.00    -0.248 NA
ATOM     27  C   UNL     1       9.099  -3.278  -0.490  1.00  0.00     0.031 C 
ATOM     28  C   UNL     1       7.716   1.310   1.027  1.00  0.00     0.029 A 
ATOM     29  N   UNL     1       9.279   1.192  -0.569  1.00  0.00    -0.354 N 
ATOM     30  C   UNL     1      10.685  -2.638  -2.015  1.00  0.00     0.074 A 
ATOM     31  C   UNL     1      10.003  -3.728  -1.350  1.00  0.00     0.031 C 
ATOM     32  C   UNL     1       8.047   2.567   0.694  1.00  0.00     0.029 A 
ATOM     33  C   UNL     1       9.108   2.531  -0.308  1.00  0.00     0.049 A 
ATOM     34  H   UNL     1       9.896   0.850  -1.255  1.00  0.00     0.167 HD
ATOM     35  C   UNL     1      11.622  -2.789  -2.982  1.00  0.00     0.037 A 
ATOM     36  C   UNL     1       9.757   3.608  -0.794  1.00  0.00     0.037 A 
ATOM     37  C   UNL     1      12.292  -1.692  -3.636  1.00  0.00     0.049 A 
ATOM     38  C   UNL     1      10.842   3.408  -1.817  1.00  0.00     0.074 A 
ATOM     39  C   UNL     1      13.227  -1.742  -4.656  1.00  0.00     0.029 A 
ATOM     40  N   UNL     1      12.114  -0.351  -3.326  1.00  0.00    -0.354 N 
ATOM     41  N   UNL     1      11.271   2.291  -2.356  1.00  0.00    -0.248 NA
ATOM     42  C   UNL     1      11.536   4.611  -2.296  1.00  0.00     0.031 C 
ATOM     43  C   UNL     1      13.665  -0.439  -4.914  1.00  0.00     0.029 A 
ATOM     44  C   UNL     1      12.953   0.432  -4.104  1.00  0.00     0.049 A 
ATOM     45  H   UNL     1      11.484  -0.006  -2.653  1.00  0.00     0.167 HD
ATOM     46  C   UNL     1      12.271   2.659  -3.249  1.00  0.00     0.074 A 
ATOM     47  C   UNL     1      12.367   4.103  -3.196  1.00  0.00     0.031 C 
ATOM     48  C   UNL     1      13.043   1.871  -4.039  1.00  0.00     0.037 A 
BRANCH  35  49
ATOM     49  C   UNL     1      12.007  -4.191  -3.378  1.00  0.00     0.058 A 
ATOM     50  C   UNL     1      11.134  -5.030  -4.088  1.00  0.00     0.135 A 
ATOM     51  C   UNL     1      13.293  -4.680  -3.092  1.00  0.00     0.135 A 
ATOM     52  F   UNL     1       9.889  -4.621  -4.380  1.00  0.00    -0.206 F 
ATOM     53  C   UNL     1      11.513  -6.312  -4.478  1.00  0.00     0.059 A 
ATOM     54  C   UNL     1      13.704  -5.947  -3.498  1.00  0.00     0.059 A 
ATOM     55  F   UNL     1      14.170  -3.921  -2.416  1.00  0.00    -0.206 F 
ATOM     56  C   UNL     1      12.801  -6.760  -4.181  1.00  0.00     0.060 A 
BRANCH  56  57
ATOM     57  S   UNL     1      13.277  -8.421  -4.704  1.00  0.00     0.124 S 
ATOM     58  O   UNL     1      12.464  -9.250  -3.819  1.00  0.00    -0.237 OA
ATOM     59  O   UNL     1      12.889  -8.427  -6.110  1.00  0.00    -0.237 OA
ATOM     60  O   UNL     1      14.715  -8.460  -4.452  1.00  0.00    -0.744 OA
ENDBRANCH  56  57
ENDBRANCH  35  49
BRANCH  36  61
ATOM     61  C   UNL     1       9.416   4.968  -0.294  1.00  0.00     0.058 A 
ATOM     62  C   UNL     1       8.815   5.920  -1.129  1.00  0.00     0.135 A 
ATOM     63  C   UNL     1       9.678   5.339   1.036  1.00  0.00     0.135 A 
ATOM     64  F   UNL     1       8.554   5.619  -2.410  1.00  0.00    -0.206 F 
ATOM     65  C   UNL     1       8.501   7.196  -0.671  1.00  0.00     0.059 A 
ATOM     66  C   UNL     1       9.343   6.596   1.525  1.00  0.00     0.059 A 
ATOM     67  F   UNL     1      10.243   4.462   1.881  1.00  0.00    -0.206 F 
ATOM     68  C   UNL     1       8.764   7.523   0.660  1.00  0.00     0.060 A 
BRANCH  68  69
ATOM     69  S   UNL     1       8.311   9.166   1.254  1.00  0.00     0.124 S 
ATOM     70  O   UNL     1       9.289  10.005   0.571  1.00  0.00    -0.237 OA
ATOM     71  O   UNL     1       6.932   9.288   0.791  1.00  0.00    -0.237 OA
ATOM     72  O   UNL     1       8.473   9.059   2.701  1.00  0.00    -0.744 OA
ENDBRANCH  68  69
ENDBRANCH  36  61
BRANCH  48  73
ATOM     73  C   UNL     1      14.054   2.552  -4.923  1.00  0.00     0.058 A 
ATOM     74  C   UNL     1      15.206   3.158  -4.396  1.00  0.00     0.135 A 
ATOM     75  C   UNL     1      13.898   2.550  -6.319  1.00  0.00     0.135 A 
ATOM     76  F   UNL     1      15.401   3.199  -3.068  1.00  0.00    -0.206 F 
ATOM     77  C   UNL     1      16.157   3.752  -5.219  1.00  0.00     0.059 A 
ATOM     78  C   UNL     1      14.853   3.109  -7.163  1.00  0.00     0.059 A 
ATOM     79  F   UNL     1      12.820   1.979  -6.879  1.00  0.00    -0.206 F 
ATOM     80  C   UNL     1      15.975   3.717  -6.603  1.00  0.00     0.060 A 
BRANCH  80  81
ATOM     81  S   UNL     1      17.243   4.451  -7.658  1.00  0.00     0.124 S 
ATOM     82  O   UNL     1      17.058   5.874  -7.396  1.00  0.00    -0.237 OA
ATOM     83  O   UNL     1      18.468   3.862  -7.127  1.00  0.00    -0.237 OA
ATOM     84  O   UNL     1      16.870   4.006  -8.998  1.00  0.00    -0.744 OA
ENDBRANCH  80  81
ENDBRANCH  48  73
ENDBRANCH  22  23
ENDBRANCH  15  17
ENDBRANCH  14  15
ENDBRANCH   1  14
TORSDOF 15
