REMARK SMILES O=C(OCCOC(=O)c1nccnc1C(=O)Nc1ccc(-n2cncn2)c(Cl)c1)c1ccc(-c2c3nc(c(-c4c(F)cc(S(=O)(=O)[O-])cc4F)c4ccc([nH]4)c(-c4c(F)cc(S(=O)(=O)[O-])cc4F)c4nc(c(-c5c(F)cc(S(=O)(=O)[O-])cc5F)c5ccc2[nH]5)C=C4)C=C3)cc1
REMARK SMILES IDX 4 1 3 2 2 3 1 4 30 5 31 6 95 7 32 8 94 9 33 10 34 11 35 12
REMARK SMILES IDX 88 13 36 14 93 15 87 16 89 17 37 18 92 19 86 20 85 21 38 23
REMARK SMILES IDX 72 24 51 25 71 26 52 27 55 28 70 29 90 30 53 31 54 32 69 34
REMARK SMILES IDX 91 35 56 36 39 37 40 38 49 39 41 40 42 41 48 42 50 43 43 44
REMARK SMILES IDX 44 45 45 46 46 47 47 48 73 49 74 50 83 51 75 52 76 53 82 54
REMARK SMILES IDX 84 55 77 56 78 57 79 58 80 59 81 60 57 61 58 62 67 63 59 64
REMARK SMILES IDX 60 65 66 66 68 67 61 68 62 69 63 70 64 71 65 72 5 73 6 74
REMARK SMILES IDX 7 75 8 76 9 77 10 78 14 79 11 80 13 81 12 82 15 83 16 84
REMARK SMILES IDX 17 85 18 87 19 88 29 89 20 90 27 91 21 92 28 93 22 94 23 95
REMARK SMILES IDX 26 96 24 97 25 98
REMARK H PARENT 89 22 55 33 17 86
REMARK Flexibility Score: inf
ROOT
ATOM      1  C   UNL     1       5.442   0.057  -0.855  1.00  0.00     0.275 C 
ENDROOT
BRANCH   1   2
ATOM      2  O   UNL     1       4.147   0.679  -0.905  1.00  0.00    -0.458 OA
BRANCH   2   3
ATOM      3  C   UNL     1       3.027   0.251  -1.533  1.00  0.00     0.338 C 
ATOM      4  O   UNL     1       2.122   1.061  -1.732  1.00  0.00    -0.246 OA
BRANCH   3   5
ATOM      5  C   UNL     1       2.761  -1.186  -1.828  1.00  0.00     0.060 A 
ATOM      6  C   UNL     1       3.714  -2.164  -2.105  1.00  0.00     0.016 A 
ATOM      7  C   UNL     1       1.406  -1.560  -1.832  1.00  0.00     0.016 A 
ATOM      8  C   UNL     1       3.326  -3.462  -2.401  1.00  0.00     0.010 A 
ATOM      9  C   UNL     1       1.013  -2.869  -2.074  1.00  0.00     0.010 A 
ATOM     10  C   UNL     1       1.973  -3.802  -2.425  1.00  0.00    -0.014 A 
BRANCH  10  11
ATOM     11  C   UNL     1       1.636  -5.135  -2.901  1.00  0.00     0.031 A 
ATOM     12  C   UNL     1       2.334  -6.255  -2.211  1.00  0.00     0.074 A 
ATOM     13  C   UNL     1       0.813  -5.328  -3.950  1.00  0.00     0.049 A 
ATOM     14  N   UNL     1       3.331  -6.953  -2.650  1.00  0.00    -0.248 NA
ATOM     15  C   UNL     1       2.002  -6.514  -0.803  1.00  0.00     0.031 C 
ATOM     16  C   UNL     1      -0.101  -4.385  -4.603  1.00  0.00     0.029 A 
ATOM     17  N   UNL     1       0.603  -6.477  -4.644  1.00  0.00    -0.354 N 
ATOM     18  C   UNL     1       3.621  -7.886  -1.658  1.00  0.00     0.074 A 
ATOM     19  C   UNL     1       2.885  -7.467  -0.493  1.00  0.00     0.031 C 
ATOM     20  C   UNL     1      -0.924  -5.059  -5.437  1.00  0.00     0.029 A 
ATOM     21  C   UNL     1      -0.485  -6.439  -5.505  1.00  0.00     0.049 A 
ATOM     22  H   UNL     1       1.175  -7.272  -4.545  1.00  0.00     0.167 HD
ATOM     23  C   UNL     1       4.291  -9.040  -1.940  1.00  0.00     0.037 A 
ATOM     24  C   UNL     1      -1.008  -7.489  -6.184  1.00  0.00     0.037 A 
ATOM     25  C   UNL     1       4.991  -8.941  -3.196  1.00  0.00     0.049 A 
ATOM     26  C   UNL     1       0.080  -8.500  -6.305  1.00  0.00     0.074 A 
ATOM     27  C   UNL     1       6.012  -8.143  -3.674  1.00  0.00     0.029 A 
ATOM     28  N   UNL     1       4.405  -9.499  -4.307  1.00  0.00    -0.354 N 
ATOM     29  N   UNL     1       1.168  -8.302  -7.003  1.00  0.00    -0.248 NA
ATOM     30  C   UNL     1       0.188  -9.508  -5.260  1.00  0.00     0.031 C 
ATOM     31  C   UNL     1       5.659  -7.868  -5.027  1.00  0.00     0.029 A 
ATOM     32  C   UNL     1       4.487  -8.572  -5.314  1.00  0.00     0.049 A 
ATOM     33  H   UNL     1       4.003 -10.396  -4.369  1.00  0.00     0.167 HD
ATOM     34  C   UNL     1       2.192  -8.846  -6.239  1.00  0.00     0.074 A 
ATOM     35  C   UNL     1       1.517  -9.629  -5.205  1.00  0.00     0.031 C 
ATOM     36  C   UNL     1       3.479  -8.396  -6.337  1.00  0.00     0.037 A 
BRANCH  23  37
ATOM     37  C   UNL     1       4.031 -10.372  -1.270  1.00  0.00     0.058 A 
ATOM     38  C   UNL     1       4.842 -11.482  -1.592  1.00  0.00     0.135 A 
ATOM     39  C   UNL     1       2.845 -10.673  -0.565  1.00  0.00     0.135 A 
ATOM     40  F   UNL     1       6.002 -11.317  -2.249  1.00  0.00    -0.206 F 
ATOM     41  C   UNL     1       4.454 -12.796  -1.324  1.00  0.00     0.059 A 
ATOM     42  C   UNL     1       2.462 -11.971  -0.248  1.00  0.00     0.059 A 
ATOM     43  F   UNL     1       1.951  -9.737  -0.231  1.00  0.00    -0.206 F 
ATOM     44  C   UNL     1       3.248 -13.030  -0.672  1.00  0.00     0.060 A 
BRANCH  44  45
ATOM     45  S   UNL     1       2.676 -14.721  -0.440  1.00  0.00     0.124 S 
ATOM     46  O   UNL     1       2.400 -15.126  -1.813  1.00  0.00    -0.237 OA
ATOM     47  O   UNL     1       3.833 -15.346   0.193  1.00  0.00    -0.237 OA
ATOM     48  O   UNL     1       1.507 -14.564   0.420  1.00  0.00    -0.744 OA
ENDBRANCH  44  45
ENDBRANCH  23  37
BRANCH  24  49
ATOM     49  C   UNL     1      -2.457  -7.816  -6.285  1.00  0.00     0.058 A 
ATOM     50  C   UNL     1      -2.931  -8.793  -7.176  1.00  0.00     0.135 A 
ATOM     51  C   UNL     1      -3.379  -7.358  -5.319  1.00  0.00     0.135 A 
ATOM     52  F   UNL     1      -2.115  -9.303  -8.111  1.00  0.00    -0.206 F 
ATOM     53  C   UNL     1      -4.230  -9.312  -7.091  1.00  0.00     0.059 A 
ATOM     54  C   UNL     1      -4.677  -7.854  -5.220  1.00  0.00     0.059 A 
ATOM     55  F   UNL     1      -3.017  -6.473  -4.378  1.00  0.00    -0.206 F 
ATOM     56  C   UNL     1      -5.091  -8.848  -6.095  1.00  0.00     0.060 A 
BRANCH  56  57
ATOM     57  S   UNL     1      -6.709  -9.627  -5.874  1.00  0.00     0.124 S 
ATOM     58  O   UNL     1      -7.421  -9.187  -7.069  1.00  0.00    -0.237 OA
ATOM     59  O   UNL     1      -6.365 -11.044  -5.822  1.00  0.00    -0.237 OA
ATOM     60  O   UNL     1      -7.191  -9.059  -4.617  1.00  0.00    -0.744 OA
ENDBRANCH  56  57
ENDBRANCH  24  49
BRANCH  36  61
ATOM     61  C   UNL     1       3.837  -7.461  -7.464  1.00  0.00     0.058 A 
ATOM     62  C   UNL     1       3.367  -6.140  -7.575  1.00  0.00     0.135 A 
ATOM     63  C   UNL     1       4.860  -7.852  -8.341  1.00  0.00     0.135 A 
ATOM     64  F   UNL     1       2.461  -5.659  -6.713  1.00  0.00    -0.206 F 
ATOM     65  C   UNL     1       3.882  -5.254  -8.526  1.00  0.00     0.059 A 
ATOM     66  C   UNL     1       5.407  -6.978  -9.277  1.00  0.00     0.059 A 
ATOM     67  F   UNL     1       5.395  -9.080  -8.243  1.00  0.00    -0.206 F 
ATOM     68  C   UNL     1       4.910  -5.680  -9.367  1.00  0.00     0.060 A 
BRANCH  68  69
ATOM     69  S   UNL     1       5.659  -4.502 -10.515  1.00  0.00     0.124 S 
ATOM     70  O   UNL     1       4.606  -4.331 -11.510  1.00  0.00    -0.237 OA
ATOM     71  O   UNL     1       5.919  -3.347  -9.661  1.00  0.00    -0.237 OA
ATOM     72  O   UNL     1       6.855  -5.197 -10.986  1.00  0.00    -0.744 OA
ENDBRANCH  68  69
ENDBRANCH  36  61
ENDBRANCH  10  11
ENDBRANCH   3   5
ENDBRANCH   2   3
ENDBRANCH   1   2
BRANCH   1  73
ATOM     73  C   UNL     1       5.647  -0.831   0.379  1.00  0.00     0.275 C 
BRANCH  73  74
ATOM     74  O   UNL     1       4.502  -1.672   0.670  1.00  0.00    -0.457 OA
BRANCH  74  75
ATOM     75  C   UNL     1       4.248  -1.869   1.994  1.00  0.00     0.359 C 
ATOM     76  O   UNL     1       4.983  -1.504   2.910  1.00  0.00    -0.244 OA
BRANCH  75  77
ATOM     77  C   UNL     1       2.991  -2.618   2.253  1.00  0.00     0.179 A 
ATOM     78  N   UNL     1       3.363  -3.787   2.898  1.00  0.00    -0.245 NA
ATOM     79  C   UNL     1       1.648  -2.320   1.962  1.00  0.00     0.161 A 
ATOM     80  C   UNL     1       2.415  -4.697   3.160  1.00  0.00     0.132 A 
ATOM     81  N   UNL     1       0.720  -3.305   2.263  1.00  0.00    -0.247 NA
ATOM     82  C   UNL     1       1.113  -4.471   2.817  1.00  0.00     0.132 A 
BRANCH  79  83
ATOM     83  C   UNL     1       0.837  -1.173   1.312  1.00  0.00     0.276 C 
ATOM     84  O   UNL     1      -0.149  -1.533   0.642  1.00  0.00    -0.267 OA
ATOM     85  N   UNL     1       0.837   0.211   1.501  1.00  0.00    -0.321 N 
ATOM     86  H   UNL     1       0.001   0.634   1.199  1.00  0.00     0.170 HD
BRANCH  85  87
ATOM     87  C   UNL     1       1.746   1.128   2.016  1.00  0.00     0.043 A 
ATOM     88  C   UNL     1       3.057   0.779   2.004  1.00  0.00     0.028 A 
ATOM     89  C   UNL     1       1.432   2.426   2.419  1.00  0.00     0.049 A 
ATOM     90  C   UNL     1       4.049   1.515   2.596  1.00  0.00     0.032 A 
ATOM     91  C   UNL     1       2.433   3.240   3.003  1.00  0.00     0.068 A 
ATOM     92  C   UNL     1       3.733   2.748   3.128  1.00  0.00     0.085 A 
ATOM     93  Cl  UNL     1       2.031   4.848   3.476  1.00  0.00    -0.082 Cl
BRANCH  92  94
ATOM     94  N   UNL     1       4.790   3.361   3.824  1.00  0.00    -0.220 N 
ATOM     95  C   UNL     1       4.898   3.334   5.199  1.00  0.00     0.226 A 
ATOM     96  N   UNL     1       6.045   3.339   3.290  1.00  0.00    -0.155 NA
ATOM     97  N   UNL     1       6.160   3.257   5.562  1.00  0.00    -0.223 NA
ATOM     98  C   UNL     1       6.816   3.226   4.369  1.00  0.00     0.246 A 
ENDBRANCH  92  94
ENDBRANCH  85  87
ENDBRANCH  79  83
ENDBRANCH  75  77
ENDBRANCH  74  75
ENDBRANCH  73  74
ENDBRANCH   1  73
TORSDOF 17
