REMARK SMILES O=C(N[C@H](C(=O)OCCOC(=O)c1ccc(-c2c3nc(c(-c4c(F)cc(S(=O)(=O)[O-])cc4F)c4ccc([nH]4)c(-c4c(F)cc(S(=O)(=O)[O-])cc4F)c4nc(c(-c5c(F)cc(S(=O)(=O)[O-])cc5F)c5ccc2[nH]5)C=C4)C=C3)cc1)c1ccccc1F)c1ccc(C[NH+]2CCCCC2)cc1
REMARK SMILES IDX 8 1 7 2 5 3 6 4 4 5 3 6 1 7 2 8 86 10 87 11 98 12 88 13
REMARK SMILES IDX 97 14 89 15 90 16 91 17 92 18 96 19 93 21 95 22 94 23 79 24
REMARK SMILES IDX 80 25 84 26 81 27 83 28 85 29 82 30 9 31 10 32 11 33 12 34
REMARK SMILES IDX 13 35 14 36 78 37 15 38 77 39 16 40 17 41 18 42 71 43 19 44
REMARK SMILES IDX 76 45 70 46 72 47 20 48 75 49 69 50 68 51 21 53 55 54 34 55
REMARK SMILES IDX 54 56 35 57 38 58 53 59 73 60 36 61 37 62 52 64 74 65 39 66
REMARK SMILES IDX 22 67 23 68 32 69 24 70 25 71 31 72 33 73 26 74 27 75 28 76
REMARK SMILES IDX 29 77 30 78 56 79 57 80 66 81 58 82 59 83 65 84 67 85 60 86
REMARK SMILES IDX 61 87 62 88 63 89 64 90 40 91 41 92 50 93 42 94 43 95 49 96
REMARK SMILES IDX 51 97 44 98 45 99 46 100 47 101 48 102
REMARK H PARENT 3 9 91 20 72 52 38 63
REMARK Flexibility Score: inf
ROOT
ATOM      1  C   UNL     1       1.061  -1.164  -0.066  1.00  0.00     0.274 C 
ENDROOT
BRANCH   1   2
ATOM      2  O   UNL     1       2.357  -1.795   0.038  1.00  0.00    -0.460 OA
BRANCH   2   3
ATOM      3  C   UNL     1       3.422  -0.980   0.258  1.00  0.00     0.333 C 
ATOM      4  O   UNL     1       3.351   0.246   0.184  1.00  0.00    -0.249 OA
BRANCH   3   5
ATOM      5  C   UNL     1       4.715  -1.709   0.698  1.00  0.00     0.226 C 
BRANCH   5   6
ATOM      6  N   UNL     1       5.095  -1.113   1.988  1.00  0.00    -0.335 N 
ATOM      7  O   UNL     1       6.359  -0.127   3.568  1.00  0.00    -0.269 OA
ATOM      8  C   UNL     1       6.300  -0.719   2.496  1.00  0.00     0.252 C 
ATOM      9  H   UNL     1       4.338  -0.973   2.602  1.00  0.00     0.165 HD
BRANCH   8  10
ATOM     10  C   UNL     1       7.545  -1.130   1.838  1.00  0.00     0.039 A 
ATOM     11  C   UNL     1       8.005  -0.532   0.667  1.00  0.00     0.014 A 
ATOM     12  C   UNL     1       8.261  -2.167   2.444  1.00  0.00     0.014 A 
ATOM     13  C   UNL     1       9.138  -1.059   0.040  1.00  0.00     0.010 A 
ATOM     14  C   UNL     1       9.381  -2.695   1.808  1.00  0.00     0.010 A 
ATOM     15  C   UNL     1       9.795  -2.187   0.568  1.00  0.00     0.006 A 
BRANCH  15  16
ATOM     16  C   UNL     1      10.866  -2.911  -0.231  1.00  0.00     0.299 C 
BRANCH  16  17
ATOM     17  N   UNL     1      10.379  -3.925  -1.199  1.00  0.00    -0.331 N 
ATOM     18  C   UNL     1       9.707  -5.050  -0.536  1.00  0.00     0.262 C 
ATOM     19  C   UNL     1       9.552  -3.330  -2.257  1.00  0.00     0.262 C 
ATOM     20  H   UNL     1      11.205  -4.309  -1.657  1.00  0.00     0.348 HD
ATOM     21  C   UNL     1       9.214  -6.113  -1.522  1.00  0.00     0.062 C 
ATOM     22  C   UNL     1       9.100  -4.363  -3.289  1.00  0.00     0.062 C 
ATOM     23  C   UNL     1       8.348  -5.502  -2.616  1.00  0.00     0.012 C 
ENDBRANCH  16  17
ENDBRANCH  15  16
ENDBRANCH   8  10
ENDBRANCH   5   6
BRANCH   5  24
ATOM     24  C   UNL     1       4.693  -3.220   0.825  1.00  0.00     0.021 A 
ATOM     25  C   UNL     1       3.668  -3.936   1.458  1.00  0.00     0.009 A 
ATOM     26  C   UNL     1       5.816  -3.946   0.423  1.00  0.00     0.129 A 
ATOM     27  C   UNL     1       3.778  -5.308   1.701  1.00  0.00     0.001 A 
ATOM     28  C   UNL     1       5.957  -5.304   0.701  1.00  0.00     0.039 A 
ATOM     29  F   UNL     1       6.801  -3.330  -0.241  1.00  0.00    -0.207 F 
ATOM     30  C   UNL     1       4.936  -5.989   1.347  1.00  0.00     0.003 A 
ENDBRANCH   5  24
ENDBRANCH   3   5
ENDBRANCH   2   3
ENDBRANCH   1   2
BRANCH   1  31
ATOM     31  C   UNL     1       0.302  -1.277   1.260  1.00  0.00     0.275 C 
BRANCH  31  32
ATOM     32  O   UNL     1       0.775  -0.296   2.204  1.00  0.00    -0.458 OA
BRANCH  32  33
ATOM     33  C   UNL     1       1.594  -0.761   3.170  1.00  0.00     0.338 C 
ATOM     34  O   UNL     1       1.976  -1.908   3.327  1.00  0.00    -0.246 OA
BRANCH  33  35
ATOM     35  C   UNL     1       2.067   0.330   4.024  1.00  0.00     0.060 A 
ATOM     36  C   UNL     1       3.140   1.105   3.589  1.00  0.00     0.016 A 
ATOM     37  C   UNL     1       1.577   0.451   5.325  1.00  0.00     0.016 A 
ATOM     38  C   UNL     1       3.781   1.950   4.487  1.00  0.00     0.010 A 
ATOM     39  C   UNL     1       2.162   1.378   6.192  1.00  0.00     0.010 A 
ATOM     40  C   UNL     1       3.283   2.120   5.787  1.00  0.00    -0.014 A 
BRANCH  40  41
ATOM     41  C   UNL     1       3.925   3.101   6.699  1.00  0.00     0.031 A 
ATOM     42  C   UNL     1       4.562   2.658   7.986  1.00  0.00     0.074 A 
ATOM     43  C   UNL     1       3.932   4.404   6.353  1.00  0.00     0.049 A 
ATOM     44  N   UNL     1       5.031   3.387   8.966  1.00  0.00    -0.248 NA
ATOM     45  C   UNL     1       4.672   1.208   8.211  1.00  0.00     0.031 C 
ATOM     46  C   UNL     1       3.366   4.951   5.116  1.00  0.00     0.029 A 
ATOM     47  N   UNL     1       4.438   5.502   6.998  1.00  0.00    -0.354 N 
ATOM     48  C   UNL     1       5.447   2.491   9.944  1.00  0.00     0.074 A 
ATOM     49  C   UNL     1       5.176   1.161   9.438  1.00  0.00     0.031 C 
ATOM     50  C   UNL     1       3.595   6.271   5.073  1.00  0.00     0.029 A 
ATOM     51  C   UNL     1       4.250   6.677   6.310  1.00  0.00     0.049 A 
ATOM     52  H   UNL     1       4.893   5.454   7.870  1.00  0.00     0.167 HD
ATOM     53  C   UNL     1       6.002   2.759  11.151  1.00  0.00     0.037 A 
ATOM     54  C   UNL     1       4.540   7.947   6.648  1.00  0.00     0.037 A 
ATOM     55  C   UNL     1       6.318   4.086  11.617  1.00  0.00     0.049 A 
ATOM     56  C   UNL     1       5.168   8.216   7.982  1.00  0.00     0.074 A 
ATOM     57  C   UNL     1       6.887   4.466  12.820  1.00  0.00     0.029 A 
ATOM     58  N   UNL     1       6.111   5.250  10.889  1.00  0.00    -0.354 N 
ATOM     59  N   UNL     1       5.500   7.362   8.921  1.00  0.00    -0.248 NA
ATOM     60  C   UNL     1       5.444   9.619   8.315  1.00  0.00     0.031 C 
ATOM     61  C   UNL     1       7.004   5.861  12.829  1.00  0.00     0.029 A 
ATOM     62  C   UNL     1       6.535   6.348  11.619  1.00  0.00     0.049 A 
ATOM     63  H   UNL     1       5.719   5.289   9.987  1.00  0.00     0.167 HD
ATOM     64  C   UNL     1       6.023   8.123   9.957  1.00  0.00     0.074 A 
ATOM     65  C   UNL     1       5.984   9.505   9.521  1.00  0.00     0.031 C 
ATOM     66  C   UNL     1       6.484   7.715  11.165  1.00  0.00     0.037 A 
BRANCH  53  67
ATOM     67  C   UNL     1       6.271   1.599  12.069  1.00  0.00     0.058 A 
ATOM     68  C   UNL     1       7.347   0.722  11.866  1.00  0.00     0.135 A 
ATOM     69  C   UNL     1       5.453   1.382  13.190  1.00  0.00     0.135 A 
ATOM     70  F   UNL     1       8.152   0.875  10.804  1.00  0.00    -0.206 F 
ATOM     71  C   UNL     1       7.589  -0.344  12.729  1.00  0.00     0.059 A 
ATOM     72  C   UNL     1       5.688   0.335  14.077  1.00  0.00     0.059 A 
ATOM     73  F   UNL     1       4.410   2.192  13.433  1.00  0.00    -0.206 F 
ATOM     74  C   UNL     1       6.750  -0.533  13.829  1.00  0.00     0.060 A 
BRANCH  74  75
ATOM     75  S   UNL     1       7.068  -1.920  14.942  1.00  0.00     0.124 S 
ATOM     76  O   UNL     1       6.522  -3.037  14.178  1.00  0.00    -0.237 OA
ATOM     77  O   UNL     1       8.521  -1.895  15.074  1.00  0.00    -0.237 OA
ATOM     78  O   UNL     1       6.328  -1.563  16.148  1.00  0.00    -0.744 OA
ENDBRANCH  74  75
ENDBRANCH  53  67
BRANCH  54  79
ATOM     79  C   UNL     1       4.206   9.047   5.709  1.00  0.00     0.058 A 
ATOM     80  C   UNL     1       5.209   9.717   4.995  1.00  0.00     0.135 A 
ATOM     81  C   UNL     1       2.872   9.408   5.463  1.00  0.00     0.135 A 
ATOM     82  F   UNL     1       6.499   9.410   5.202  1.00  0.00    -0.206 F 
ATOM     83  C   UNL     1       4.902  10.706   4.066  1.00  0.00     0.059 A 
ATOM     84  C   UNL     1       2.539  10.377   4.523  1.00  0.00     0.059 A 
ATOM     85  F   UNL     1       1.876   8.783   6.109  1.00  0.00    -0.206 F 
ATOM     86  C   UNL     1       3.563  11.025   3.833  1.00  0.00     0.060 A 
BRANCH  86  87
ATOM     87  S   UNL     1       3.162  12.251   2.568  1.00  0.00     0.124 S 
ATOM     88  O   UNL     1       3.398  13.498   3.284  1.00  0.00    -0.237 OA
ATOM     89  O   UNL     1       4.115  11.932   1.509  1.00  0.00    -0.237 OA
ATOM     90  O   UNL     1       1.767  11.956   2.251  1.00  0.00    -0.744 OA
ENDBRANCH  86  87
ENDBRANCH  54  79
BRANCH  66  91
ATOM     91  C   UNL     1       6.991   8.781  12.090  1.00  0.00     0.058 A 
ATOM     92  C   UNL     1       6.110   9.602  12.809  1.00  0.00     0.135 A 
ATOM     93  C   UNL     1       8.369   8.964  12.281  1.00  0.00     0.135 A 
ATOM     94  F   UNL     1       4.783   9.470  12.652  1.00  0.00    -0.206 F 
ATOM     95  C   UNL     1       6.578  10.583  13.675  1.00  0.00     0.059 A 
ATOM     96  C   UNL     1       8.860   9.927  13.155  1.00  0.00     0.059 A 
ATOM     97  F   UNL     1       9.251   8.199  11.618  1.00  0.00    -0.206 F 
ATOM     98  C   UNL     1       7.956  10.741  13.839  1.00  0.00     0.060 A 
BRANCH  98  99
ATOM     99  S   UNL     1       8.557  12.000  14.984  1.00  0.00     0.124 S 
ATOM    100  O   UNL     1       8.411  13.214  14.188  1.00  0.00    -0.237 OA
ATOM    101  O   UNL     1       7.639  11.868  16.112  1.00  0.00    -0.237 OA
ATOM    102  O   UNL     1       9.931  11.585  15.252  1.00  0.00    -0.744 OA
ENDBRANCH  98  99
ENDBRANCH  66  91
ENDBRANCH  40  41
ENDBRANCH  33  35
ENDBRANCH  32  33
ENDBRANCH  31  32
ENDBRANCH   1  31
TORSDOF 19
