REMARK SMILES CC(C)OCCS(=O)(=O)N1CCC[C@H](C(=O)OCCOC(=O)c2ccc(-c3c4nc(c(-c5c(F)cc(S(=O)(=O)[O-])cc5F)c5ccc([nH]5)c(-c5c(F)cc(S(=O)(=O)[O-])cc5F)c5nc(c(-c6c(F)cc(S(=O)(=O)[O-])cc6F)c6ccc3[nH]6)C=C5)C=C4)cc2)C1
REMARK SMILES IDX 18 1 17 2 15 3 16 4 14 5 10 6 11 7 89 8 12 9 13 10 7 11 8 12
REMARK SMILES IDX 9 13 6 14 5 15 4 16 2 17 1 18 3 19 19 20 20 21 21 22 22 23
REMARK SMILES IDX 23 24 24 25 88 26 25 27 87 28 26 29 27 30 28 31 81 32 29 33
REMARK SMILES IDX 86 34 80 35 82 36 30 37 85 38 79 39 78 40 31 42 65 43 44 44
REMARK SMILES IDX 64 45 45 46 48 47 63 48 83 49 46 50 47 51 62 53 84 54 49 55
REMARK SMILES IDX 32 56 33 57 42 58 34 59 35 60 41 61 43 62 36 63 37 64 38 65
REMARK SMILES IDX 39 66 40 67 66 68 67 69 76 70 68 71 69 72 75 73 77 74 70 75
REMARK SMILES IDX 71 76 72 77 73 78 74 79 50 80 51 81 60 82 52 83 53 84 59 85
REMARK SMILES IDX 61 86 54 87 55 88 56 89 57 90 58 91
REMARK H PARENT 82 41 48 52
REMARK Flexibility Score: inf
ROOT
ATOM      1  C   UNL     1       2.986   2.784   0.425  1.00  0.00     0.274 C 
ENDROOT
BRANCH   1   2
ATOM      2  O   UNL     1       2.891   2.810  -1.014  1.00  0.00    -0.462 OA
BRANCH   2   3
ATOM      3  C   UNL     1       1.649   2.890  -1.559  1.00  0.00     0.310 C 
ATOM      4  O   UNL     1       0.615   2.952  -0.904  1.00  0.00    -0.252 OA
BRANCH   3   5
ATOM      5  C   UNL     1       1.644   2.902  -3.084  1.00  0.00     0.114 C 
ATOM      6  N   UNL     1       1.539   0.441  -3.488  1.00  0.00    -0.201 NA
ATOM      7  C   UNL     1       2.846   0.490  -4.229  1.00  0.00     0.102 C 
ATOM      8  C   UNL     1       0.808   1.736  -3.626  1.00  0.00     0.117 C 
ATOM      9  C   UNL     1       3.730   1.622  -3.716  1.00  0.00     0.018 C 
ATOM     10  C   UNL     1       3.016   2.967  -3.750  1.00  0.00     0.018 C 
BRANCH   6  11
ATOM     11  S   UNL     1       0.672  -0.985  -3.854  1.00  0.00     0.216 S 
ATOM     12  O   UNL     1       1.464  -2.099  -3.370  1.00  0.00    -0.212 OA
ATOM     13  O   UNL     1       0.357  -0.899  -5.267  1.00  0.00    -0.212 OA
BRANCH  11  14
ATOM     14  C   UNL     1      -0.887  -0.951  -2.963  1.00  0.00     0.182 C 
BRANCH  14  15
ATOM     15  C   UNL     1      -0.859  -1.506  -1.549  1.00  0.00     0.178 C 
BRANCH  15  16
ATOM     16  O   UNL     1      -1.019  -0.445  -0.609  1.00  0.00    -0.378 OA
BRANCH  16  17
ATOM     17  C   UNL     1       0.025  -0.214   0.336  1.00  0.00     0.112 C 
ATOM     18  C   UNL     1      -0.043  -1.162   1.524  1.00  0.00     0.038 C 
ATOM     19  C   UNL     1       1.415  -0.230  -0.272  1.00  0.00     0.038 C 
ENDBRANCH  16  17
ENDBRANCH  15  16
ENDBRANCH  14  15
ENDBRANCH  11  14
ENDBRANCH   6  11
ENDBRANCH   3   5
ENDBRANCH   2   3
ENDBRANCH   1   2
BRANCH   1  20
ATOM     20  C   UNL     1       3.501   4.110   0.985  1.00  0.00     0.275 C 
BRANCH  20  21
ATOM     21  O   UNL     1       2.510   5.141   0.854  1.00  0.00    -0.458 OA
BRANCH  21  22
ATOM     22  C   UNL     1       2.533   5.792  -0.332  1.00  0.00     0.338 C 
ATOM     23  O   UNL     1       3.337   5.663  -1.237  1.00  0.00    -0.246 OA
BRANCH  22  24
ATOM     24  C   UNL     1       1.313   6.594  -0.454  1.00  0.00     0.060 A 
ATOM     25  C   UNL     1       0.347   6.175  -1.369  1.00  0.00     0.016 A 
ATOM     26  C   UNL     1       1.163   7.784   0.254  1.00  0.00     0.016 A 
ATOM     27  C   UNL     1      -0.770   6.956  -1.613  1.00  0.00     0.010 A 
ATOM     28  C   UNL     1       0.033   8.568   0.017  1.00  0.00     0.010 A 
ATOM     29  C   UNL     1      -0.923   8.165  -0.932  1.00  0.00    -0.014 A 
BRANCH  29  30
ATOM     30  C   UNL     1      -2.055   9.042  -1.286  1.00  0.00     0.031 A 
ATOM     31  C   UNL     1      -1.791  10.280  -2.088  1.00  0.00     0.074 A 
ATOM     32  C   UNL     1      -3.300   8.701  -0.911  1.00  0.00     0.049 A 
ATOM     33  N   UNL     1      -2.610  11.244  -2.408  1.00  0.00    -0.248 NA
ATOM     34  C   UNL     1      -0.419  10.459  -2.595  1.00  0.00     0.031 C 
ATOM     35  C   UNL     1      -3.659   7.482  -0.182  1.00  0.00     0.029 A 
ATOM     36  N   UNL     1      -4.492   9.352  -1.082  1.00  0.00    -0.354 N 
ATOM     37  C   UNL     1      -1.849  12.162  -3.121  1.00  0.00     0.074 A 
ATOM     38  C   UNL     1      -0.501  11.643  -3.186  1.00  0.00     0.031 C 
ATOM     39  C   UNL     1      -4.981   7.484   0.048  1.00  0.00     0.029 A 
ATOM     40  C   UNL     1      -5.550   8.724  -0.469  1.00  0.00     0.049 A 
ATOM     41  H   UNL     1      -4.583  10.188  -1.594  1.00  0.00     0.167 HD
ATOM     42  C   UNL     1      -2.250  13.335  -3.663  1.00  0.00     0.037 A 
ATOM     43  C   UNL     1      -6.822   9.133  -0.305  1.00  0.00     0.037 A 
ATOM     44  C   UNL     1      -3.606  13.816  -3.604  1.00  0.00     0.049 A 
ATOM     45  C   UNL     1      -7.231  10.460  -0.883  1.00  0.00     0.074 A 
ATOM     46  C   UNL     1      -4.130  14.978  -4.141  1.00  0.00     0.029 A 
ATOM     47  N   UNL     1      -4.651  13.159  -2.969  1.00  0.00    -0.354 N 
ATOM     48  N   UNL     1      -6.505  11.326  -1.552  1.00  0.00    -0.248 NA
ATOM     49  C   UNL     1      -8.626  10.870  -0.684  1.00  0.00     0.031 C 
ATOM     50  C   UNL     1      -5.483  15.045  -3.790  1.00  0.00     0.029 A 
ATOM     51  C   UNL     1      -5.813  13.901  -3.080  1.00  0.00     0.049 A 
ATOM     52  H   UNL     1      -4.576  12.292  -2.508  1.00  0.00     0.167 HD
ATOM     53  C   UNL     1      -7.360  12.374  -1.869  1.00  0.00     0.074 A 
ATOM     54  C   UNL     1      -8.661  12.026  -1.333  1.00  0.00     0.031 C 
ATOM     55  C   UNL     1      -7.096  13.523  -2.541  1.00  0.00     0.037 A 
BRANCH  42  56
ATOM     56  C   UNL     1      -1.212  14.195  -4.325  1.00  0.00     0.058 A 
ATOM     57  C   UNL     1      -0.658  13.869  -5.572  1.00  0.00     0.135 A 
ATOM     58  C   UNL     1      -0.800  15.393  -3.718  1.00  0.00     0.135 A 
ATOM     59  F   UNL     1      -0.998  12.724  -6.185  1.00  0.00    -0.206 F 
ATOM     60  C   UNL     1       0.277  14.695  -6.189  1.00  0.00     0.059 A 
ATOM     61  C   UNL     1       0.115  16.245  -4.327  1.00  0.00     0.059 A 
ATOM     62  F   UNL     1      -1.291  15.746  -2.520  1.00  0.00    -0.206 F 
ATOM     63  C   UNL     1       0.654  15.883  -5.560  1.00  0.00     0.060 A 
BRANCH  63  64
ATOM     64  S   UNL     1       1.847  16.958  -6.387  1.00  0.00     0.124 S 
ATOM     65  O   UNL     1       3.085  16.204  -6.219  1.00  0.00    -0.237 OA
ATOM     66  O   UNL     1       1.321  17.019  -7.747  1.00  0.00    -0.237 OA
ATOM     67  O   UNL     1       1.764  18.204  -5.630  1.00  0.00    -0.744 OA
ENDBRANCH  63  64
ENDBRANCH  42  56
BRANCH  43  68
ATOM     68  C   UNL     1      -7.775   8.301   0.475  1.00  0.00     0.058 A 
ATOM     69  C   UNL     1      -8.861   7.665  -0.142  1.00  0.00     0.135 A 
ATOM     70  C   UNL     1      -7.612   8.121   1.858  1.00  0.00     0.135 A 
ATOM     71  F   UNL     1      -9.063   7.809  -1.461  1.00  0.00    -0.206 F 
ATOM     72  C   UNL     1      -9.765   6.896   0.586  1.00  0.00     0.059 A 
ATOM     73  C   UNL     1      -8.486   7.336   2.603  1.00  0.00     0.059 A 
ATOM     74  F   UNL     1      -6.580   8.696   2.495  1.00  0.00    -0.206 F 
ATOM     75  C   UNL     1      -9.568   6.739   1.960  1.00  0.00     0.060 A 
BRANCH  75  76
ATOM     76  S   UNL     1     -10.726   5.714   2.892  1.00  0.00     0.124 S 
ATOM     77  O   UNL     1     -11.892   6.587   2.968  1.00  0.00    -0.237 OA
ATOM     78  O   UNL     1     -10.861   4.542   2.034  1.00  0.00    -0.237 OA
ATOM     79  O   UNL     1     -10.028   5.482   4.153  1.00  0.00    -0.744 OA
ENDBRANCH  75  76
ENDBRANCH  43  68
BRANCH  55  80
ATOM     80  C   UNL     1      -8.243  14.466  -2.761  1.00  0.00     0.058 A 
ATOM     81  C   UNL     1      -8.766  15.246  -1.718  1.00  0.00     0.135 A 
ATOM     82  C   UNL     1      -8.790  14.629  -4.044  1.00  0.00     0.135 A 
ATOM     83  F   UNL     1      -8.281  15.121  -0.472  1.00  0.00    -0.206 F 
ATOM     84  C   UNL     1      -9.808  16.140  -1.935  1.00  0.00     0.059 A 
ATOM     85  C   UNL     1      -9.814  15.537  -4.289  1.00  0.00     0.059 A 
ATOM     86  F   UNL     1      -8.317  13.914  -5.077  1.00  0.00    -0.206 F 
ATOM     87  C   UNL     1     -10.324  16.280  -3.225  1.00  0.00     0.060 A 
BRANCH  87  88
ATOM     88  S   UNL     1     -11.654  17.468  -3.502  1.00  0.00     0.124 S 
ATOM     89  O   UNL     1     -12.796  16.770  -2.922  1.00  0.00    -0.237 OA
ATOM     90  O   UNL     1     -11.186  18.639  -2.766  1.00  0.00    -0.237 OA
ATOM     91  O   UNL     1     -11.679  17.618  -4.954  1.00  0.00    -0.744 OA
ENDBRANCH  87  88
ENDBRANCH  55  80
ENDBRANCH  29  30
ENDBRANCH  22  24
ENDBRANCH  21  22
ENDBRANCH  20  21
ENDBRANCH   1  20
TORSDOF 19
