REMARK SMILES O=C(CCCN1C(=O)c2ccc3c4c(ccc(c24)C1=O)C(=O)NC3=O)OCCOC(=O)c1ccc(-c2c3nc(c(-c4c(F)cc(S(=O)(=O)[O-])cc4F)c4ccc([nH]4)c(-c4c(F)cc(S(=O)(=O)[O-])cc4F)c4nc(c(-c5c(F)cc(S(=O)(=O)[O-])cc5F)c5ccc2[nH]5)C=C4)C=C3)cc1
REMARK SMILES IDX 27 1 26 2 2 3 1 4 3 5 4 6 5 7 6 8 19 9 7 10 20 11 17 12 9 13
REMARK SMILES IDX 8 14 16 15 18 16 10 17 15 18 13 19 11 20 14 21 12 22 21 23
REMARK SMILES IDX 24 24 23 25 22 26 25 27 28 29 29 30 30 31 31 32 32 33 33 34
REMARK SMILES IDX 97 35 34 36 96 37 35 38 36 39 37 40 90 41 38 42 95 43 89 44
REMARK SMILES IDX 91 45 39 46 94 47 88 48 87 49 40 51 74 52 53 53 73 54 54 55
REMARK SMILES IDX 57 56 72 57 92 58 55 59 56 60 71 62 93 63 58 64 41 65 42 66
REMARK SMILES IDX 51 67 43 68 44 69 50 70 52 71 45 72 46 73 47 74 48 75 49 76
REMARK SMILES IDX 75 77 76 78 85 79 77 80 78 81 84 82 86 83 79 84 80 85 81 86
REMARK SMILES IDX 82 87 83 88 59 89 60 90 69 91 61 92 62 93 68 94 70 95 63 96
REMARK SMILES IDX 64 97 65 98 66 99 67 100
REMARK H PARENT 23 28 91 50 57 61
REMARK Flexibility Score: inf
ROOT
ATOM      1  C   UNL     1       3.115  -1.482   0.186  1.00  0.00     0.274 C 
ENDROOT
BRANCH   1   2
ATOM      2  O   UNL     1       2.058  -0.525   0.353  1.00  0.00    -0.462 OA
BRANCH   2   3
ATOM      3  C   UNL     1       2.351   0.783   0.576  1.00  0.00     0.305 C 
ATOM      4  O   UNL     1       1.654   1.455   1.329  1.00  0.00    -0.252 OA
BRANCH   3   5
ATOM      5  C   UNL     1       3.471   1.408  -0.239  1.00  0.00     0.124 C 
BRANCH   5   6
ATOM      6  C   UNL     1       4.548   2.102   0.593  1.00  0.00     0.034 C 
BRANCH   6   7
ATOM      7  C   UNL     1       5.676   1.199   1.130  1.00  0.00     0.130 C 
BRANCH   7   8
ATOM      8  N   UNL     1       6.391   0.387   0.131  1.00  0.00    -0.274 N 
ATOM      9  C   UNL     1       7.109   1.040  -0.873  1.00  0.00     0.261 C 
ATOM     10  C   UNL     1       6.504  -0.983   0.368  1.00  0.00     0.261 C 
ATOM     11  O   UNL     1       7.207   2.258  -0.962  1.00  0.00    -0.269 OA
ATOM     12  C   UNL     1       7.806   0.188  -1.873  1.00  0.00     0.049 A 
ATOM     13  C   UNL     1       7.043  -1.816  -0.727  1.00  0.00     0.049 A 
ATOM     14  O   UNL     1       6.167  -1.543   1.407  1.00  0.00    -0.269 OA
ATOM     15  C   UNL     1       8.541   0.781  -2.909  1.00  0.00     0.015 A 
ATOM     16  C   UNL     1       7.698  -1.204  -1.795  1.00  0.00     0.009 A 
ATOM     17  C   UNL     1       6.889  -3.209  -0.677  1.00  0.00     0.015 A 
ATOM     18  C   UNL     1       9.162  -0.015  -3.874  1.00  0.00     0.015 A 
ATOM     19  C   UNL     1       8.274  -2.015  -2.806  1.00  0.00     0.009 A 
ATOM     20  C   UNL     1       7.389  -4.004  -1.706  1.00  0.00     0.015 A 
ATOM     21  C   UNL     1       9.017  -1.405  -3.827  1.00  0.00     0.048 A 
ATOM     22  C   UNL     1       8.090  -3.407  -2.757  1.00  0.00     0.048 A 
ATOM     23  C   UNL     1       9.668  -2.255  -4.852  1.00  0.00     0.258 C 
ATOM     24  C   UNL     1       8.649  -4.252  -3.837  1.00  0.00     0.258 C 
ATOM     25  N   UNL     1       9.397  -3.602  -4.788  1.00  0.00    -0.288 N 
ATOM     26  O   UNL     1      10.417  -1.784  -5.698  1.00  0.00    -0.269 OA
ATOM     27  O   UNL     1       8.462  -5.462  -3.865  1.00  0.00    -0.269 OA
ATOM     28  H   UNL     1       9.780  -4.161  -5.503  1.00  0.00     0.173 HD
ENDBRANCH   7   8
ENDBRANCH   6   7
ENDBRANCH   5   6
ENDBRANCH   3   5
ENDBRANCH   2   3
ENDBRANCH   1   2
BRANCH   1  29
ATOM     29  C   UNL     1       3.168  -2.104  -1.211  1.00  0.00     0.275 C 
BRANCH  29  30
ATOM     30  O   UNL     1       3.052  -1.100  -2.227  1.00  0.00    -0.458 OA
BRANCH  30  31
ATOM     31  C   UNL     1       1.763  -0.876  -2.609  1.00  0.00     0.338 C 
ATOM     32  O   UNL     1       0.800  -1.558  -2.338  1.00  0.00    -0.246 OA
BRANCH  31  33
ATOM     33  C   UNL     1       1.671   0.450  -3.253  1.00  0.00     0.060 A 
ATOM     34  C   UNL     1       0.593   1.263  -2.885  1.00  0.00     0.016 A 
ATOM     35  C   UNL     1       2.605   0.890  -4.194  1.00  0.00     0.016 A 
ATOM     36  C   UNL     1       0.420   2.505  -3.491  1.00  0.00     0.010 A 
ATOM     37  C   UNL     1       2.430   2.136  -4.801  1.00  0.00     0.010 A 
ATOM     38  C   UNL     1       1.322   2.937  -4.473  1.00  0.00    -0.014 A 
BRANCH  38  39
ATOM     39  C   UNL     1       1.043   4.178  -5.230  1.00  0.00     0.031 A 
ATOM     40  C   UNL     1       0.416   4.075  -6.593  1.00  0.00     0.074 A 
ATOM     41  C   UNL     1       1.340   5.379  -4.700  1.00  0.00     0.049 A 
ATOM     42  N   UNL     1       0.105   5.027  -7.432  1.00  0.00    -0.248 NA
ATOM     43  C   UNL     1       0.101   2.720  -7.077  1.00  0.00     0.031 C 
ATOM     44  C   UNL     1       1.939   5.595  -3.382  1.00  0.00     0.029 A 
ATOM     45  N   UNL     1       1.192   6.644  -5.212  1.00  0.00    -0.354 N 
ATOM     46  C   UNL     1      -0.438   4.390  -8.542  1.00  0.00     0.074 A 
ATOM     47  C   UNL     1      -0.392   2.968  -8.282  1.00  0.00     0.031 C 
ATOM     48  C   UNL     1       2.128   6.914  -3.199  1.00  0.00     0.029 A 
ATOM     49  C   UNL     1       1.687   7.632  -4.393  1.00  0.00     0.049 A 
ATOM     50  H   UNL     1       0.772   6.826  -6.083  1.00  0.00     0.167 HD
ATOM     51  C   UNL     1      -0.935   4.946  -9.671  1.00  0.00     0.037 A 
ATOM     52  C   UNL     1       1.795   8.960  -4.599  1.00  0.00     0.037 A 
ATOM     53  C   UNL     1      -0.989   6.364  -9.913  1.00  0.00     0.049 A 
ATOM     54  C   UNL     1       1.281   9.545  -5.891  1.00  0.00     0.074 A 
ATOM     55  C   UNL     1      -1.534   7.028 -10.997  1.00  0.00     0.029 A 
ATOM     56  N   UNL     1      -0.466   7.332  -9.070  1.00  0.00    -0.354 N 
ATOM     57  N   UNL     1       0.695   8.938  -6.896  1.00  0.00    -0.248 NA
ATOM     58  C   UNL     1       1.440  10.995  -6.079  1.00  0.00     0.031 C 
ATOM     59  C   UNL     1      -1.287   8.395 -10.839  1.00  0.00     0.029 A 
ATOM     60  C   UNL     1      -0.633   8.586  -9.631  1.00  0.00     0.049 A 
ATOM     61  H   UNL     1      -0.038   7.154  -8.201  1.00  0.00     0.167 HD
ATOM     62  C   UNL     1       0.404   9.932  -7.825  1.00  0.00     0.074 A 
ATOM     63  C   UNL     1       0.856  11.183  -7.254  1.00  0.00     0.031 C 
ATOM     64  C   UNL     1      -0.180   9.821  -9.044  1.00  0.00     0.037 A 
BRANCH  51  65
ATOM     65  C   UNL     1      -1.452   4.033 -10.745  1.00  0.00     0.058 A 
ATOM     66  C   UNL     1      -2.681   3.368 -10.622  1.00  0.00     0.135 A 
ATOM     67  C   UNL     1      -0.749   3.896 -11.954  1.00  0.00     0.135 A 
ATOM     68  F   UNL     1      -3.383   3.450  -9.481  1.00  0.00    -0.206 F 
ATOM     69  C   UNL     1      -3.197   2.599 -11.661  1.00  0.00     0.059 A 
ATOM     70  C   UNL     1      -1.256   3.150 -13.013  1.00  0.00     0.059 A 
ATOM     71  F   UNL     1       0.436   4.505 -12.118  1.00  0.00    -0.206 F 
ATOM     72  C   UNL     1      -2.482   2.504 -12.856  1.00  0.00     0.060 A 
BRANCH  72  73
ATOM     73  S   UNL     1      -3.192   1.547 -14.212  1.00  0.00     0.124 S 
ATOM     74  O   UNL     1      -3.046   0.183 -13.714  1.00  0.00    -0.237 OA
ATOM     75  O   UNL     1      -4.558   2.058 -14.270  1.00  0.00    -0.237 OA
ATOM     76  O   UNL     1      -2.348   1.892 -15.352  1.00  0.00    -0.744 OA
ENDBRANCH  72  73
ENDBRANCH  51  65
BRANCH  52  77
ATOM     77  C   UNL     1       2.455   9.829  -3.586  1.00  0.00     0.058 A 
ATOM     78  C   UNL     1       1.737  10.807  -2.882  1.00  0.00     0.135 A 
ATOM     79  C   UNL     1       3.833   9.726  -3.336  1.00  0.00     0.135 A 
ATOM     80  F   UNL     1       0.420  10.953  -3.093  1.00  0.00    -0.206 F 
ATOM     81  C   UNL     1       2.365  11.675  -1.994  1.00  0.00     0.059 A 
ATOM     82  C   UNL     1       4.478  10.562  -2.431  1.00  0.00     0.059 A 
ATOM     83  F   UNL     1       4.566   8.799  -3.973  1.00  0.00    -0.206 F 
ATOM     84  C   UNL     1       3.739  11.548  -1.780  1.00  0.00     0.060 A 
BRANCH  84  85
ATOM     85  S   UNL     1       4.549  12.678  -0.627  1.00  0.00     0.124 S 
ATOM     86  O   UNL     1       4.583  13.912  -1.402  1.00  0.00    -0.237 OA
ATOM     87  O   UNL     1       3.635  12.664   0.511  1.00  0.00    -0.237 OA
ATOM     88  O   UNL     1       5.843  12.045  -0.390  1.00  0.00    -0.744 OA
ENDBRANCH  84  85
ENDBRANCH  52  77
BRANCH  64  89
ATOM     89  C   UNL     1      -0.373  11.080  -9.842  1.00  0.00     0.058 A 
ATOM     90  C   UNL     1       0.708  11.724 -10.464  1.00  0.00     0.135 A 
ATOM     91  C   UNL     1      -1.659  11.604 -10.053  1.00  0.00     0.135 A 
ATOM     92  F   UNL     1       1.958  11.268 -10.288  1.00  0.00    -0.206 F 
ATOM     93  C   UNL     1       0.522  12.852 -11.257  1.00  0.00     0.059 A 
ATOM     94  C   UNL     1      -1.871  12.714 -10.864  1.00  0.00     0.059 A 
ATOM     95  F   UNL     1      -2.728  11.018  -9.490  1.00  0.00    -0.206 F 
ATOM     96  C   UNL     1      -0.772  13.335 -11.457  1.00  0.00     0.060 A 
BRANCH  96  97
ATOM     97  S   UNL     1      -1.003  14.766 -12.533  1.00  0.00     0.124 S 
ATOM     98  O   UNL     1      -0.493  15.848 -11.698  1.00  0.00    -0.237 OA
ATOM     99  O   UNL     1      -0.185  14.420 -13.692  1.00  0.00    -0.237 OA
ATOM    100  O   UNL     1      -2.443  14.783 -12.773  1.00  0.00    -0.744 OA
ENDBRANCH  96  97
ENDBRANCH  64  89
ENDBRANCH  38  39
ENDBRANCH  31  33
ENDBRANCH  30  31
ENDBRANCH  29  30
ENDBRANCH   1  29
TORSDOF 17
