REMARK SMILES COc1cc(OC)nc(Oc2ccccc2C(=O)NCC(=O)OCCOC(=O)c2ccc(-c3c4nc(c(-c5c(F)cc(S(=O)(=O)[O-])cc5F)c5ccc([nH]5)c(-c5c(F)cc(S(=O)(=O)[O-])cc5F)c5nc(c(-c6c(F)cc(S(=O)(=O)[O-])cc6F)c6ccc3[nH]6)C=C5)C=C4)cc2)n1
REMARK SMILES IDX 24 1 23 2 21 3 22 4 20 5 19 6 17 7 18 8 16 10 11 11 12 12
REMARK SMILES IDX 13 13 15 14 14 15 10 16 9 17 3 18 4 19 95 20 5 21 8 22 2 23
REMARK SMILES IDX 1 24 6 25 7 26 25 27 26 28 27 29 28 30 29 31 30 32 94 33
REMARK SMILES IDX 31 34 93 35 32 36 33 37 34 38 87 39 35 40 92 41 86 42 88 43
REMARK SMILES IDX 36 44 91 45 85 46 84 47 37 49 71 50 50 51 70 52 51 53 54 54
REMARK SMILES IDX 69 55 89 56 52 57 53 58 68 60 90 61 55 62 38 63 39 64 48 65
REMARK SMILES IDX 40 66 41 67 47 68 49 69 42 70 43 71 44 72 45 73 46 74 72 75
REMARK SMILES IDX 73 76 82 77 74 78 75 79 81 80 83 81 76 82 77 83 78 84 79 85
REMARK SMILES IDX 80 86 56 87 57 88 66 89 58 90 59 91 65 92 67 93 60 94 61 95
REMARK SMILES IDX 62 96 63 97 64 98
REMARK H PARENT 19 9 88 48 54 59
REMARK Flexibility Score: inf
ROOT
ATOM      1  C   UNL     1      -1.624   5.022  -0.525  1.00  0.00     0.274 C 
ENDROOT
BRANCH   1   2
ATOM      2  O   UNL     1      -0.814   5.163   0.660  1.00  0.00    -0.461 OA
BRANCH   2   3
ATOM      3  C   UNL     1      -1.543   5.025   1.801  1.00  0.00     0.325 C 
ATOM      4  O   UNL     1      -2.755   4.819   1.823  1.00  0.00    -0.250 OA
BRANCH   3   5
ATOM      5  C   UNL     1      -0.722   5.010   3.080  1.00  0.00     0.239 C 
BRANCH   5   6
ATOM      6  N   UNL     1       0.666   5.404   3.161  1.00  0.00    -0.341 N 
ATOM      7  C   UNL     1       1.430   5.542   4.302  1.00  0.00     0.255 C 
ATOM      8  O   UNL     1       2.619   5.841   4.173  1.00  0.00    -0.269 OA
ATOM      9  H   UNL     1       1.117   5.597   2.307  1.00  0.00     0.164 HD
BRANCH   7  10
ATOM     10  C   UNL     1       0.837   5.514   5.682  1.00  0.00     0.082 A 
ATOM     11  C   UNL     1      -0.015   4.560   6.272  1.00  0.00     0.143 A 
ATOM     12  C   UNL     1      -0.568   4.811   7.543  1.00  0.00     0.048 A 
ATOM     13  C   UNL     1      -0.234   5.950   8.268  1.00  0.00     0.004 A 
ATOM     14  C   UNL     1       1.203   6.636   6.460  1.00  0.00     0.018 A 
ATOM     15  C   UNL     1       0.674   6.854   7.736  1.00  0.00     0.001 A 
BRANCH  11  16
ATOM     16  O   UNL     1      -0.490   3.378   5.757  1.00  0.00    -0.423 OA
BRANCH  16  17
ATOM     17  C   UNL     1       0.372   2.532   5.089  1.00  0.00     0.328 A 
ATOM     18  C   UNL     1       0.627   1.553   3.086  1.00  0.00     0.223 A 
ATOM     19  C   UNL     1       1.989   1.628   3.209  1.00  0.00     0.137 A 
ATOM     20  N   UNL     1      -0.214   1.937   4.039  1.00  0.00    -0.159 NA
ATOM     21  C   UNL     1       2.486   2.107   4.392  1.00  0.00     0.223 A 
ATOM     22  N   UNL     1       1.685   2.590   5.349  1.00  0.00    -0.159 NA
BRANCH  18  23
ATOM     23  O   UNL     1       0.143   1.408   1.808  1.00  0.00    -0.481 OA
ATOM     24  C   UNL     1      -1.033   0.625   1.697  1.00  0.00     0.280 C 
ENDBRANCH  18  23
BRANCH  21  25
ATOM     25  O   UNL     1       3.821   2.230   4.667  1.00  0.00    -0.481 OA
ATOM     26  C   UNL     1       4.715   1.737   3.672  1.00  0.00     0.280 C 
ENDBRANCH  21  25
ENDBRANCH  16  17
ENDBRANCH  11  16
ENDBRANCH   7  10
ENDBRANCH   5   6
ENDBRANCH   3   5
ENDBRANCH   2   3
ENDBRANCH   1   2
BRANCH   1  27
ATOM     27  C   UNL     1      -0.786   4.764  -1.778  1.00  0.00     0.275 C 
BRANCH  27  28
ATOM     28  O   UNL     1      -0.275   3.416  -1.812  1.00  0.00    -0.458 OA
BRANCH  28  29
ATOM     29  C   UNL     1       0.978   3.270  -1.323  1.00  0.00     0.338 C 
ATOM     30  O   UNL     1       1.673   4.158  -0.848  1.00  0.00    -0.246 OA
BRANCH  29  31
ATOM     31  C   UNL     1       1.381   1.844  -1.319  1.00  0.00     0.060 A 
ATOM     32  C   UNL     1       2.199   1.445  -0.264  1.00  0.00     0.016 A 
ATOM     33  C   UNL     1       0.991   0.903  -2.277  1.00  0.00     0.016 A 
ATOM     34  C   UNL     1       2.519   0.102  -0.077  1.00  0.00     0.010 A 
ATOM     35  C   UNL     1       1.384  -0.441  -2.137  1.00  0.00     0.010 A 
ATOM     36  C   UNL     1       2.122  -0.852  -1.016  1.00  0.00    -0.014 A 
BRANCH  36  37
ATOM     37  C   UNL     1       2.634  -2.235  -0.850  1.00  0.00     0.031 A 
ATOM     38  C   UNL     1       4.049  -2.518  -1.267  1.00  0.00     0.074 A 
ATOM     39  C   UNL     1       1.911  -3.175  -0.209  1.00  0.00     0.049 A 
ATOM     40  N   UNL     1       4.718  -3.637  -1.220  1.00  0.00    -0.248 NA
ATOM     41  C   UNL     1       4.824  -1.370  -1.768  1.00  0.00     0.031 C 
ATOM     42  C   UNL     1       0.595  -2.958   0.387  1.00  0.00     0.029 A 
ATOM     43  N   UNL     1       2.186  -4.490   0.072  1.00  0.00    -0.354 N 
ATOM     44  C   UNL     1       5.991  -3.331  -1.686  1.00  0.00     0.074 A 
ATOM     45  C   UNL     1       6.008  -1.919  -1.992  1.00  0.00     0.031 C 
ATOM     46  C   UNL     1       0.173  -4.099   0.959  1.00  0.00     0.029 A 
ATOM     47  C   UNL     1       1.160  -5.147   0.717  1.00  0.00     0.049 A 
ATOM     48  H   UNL     1       3.038  -4.925  -0.164  1.00  0.00     0.167 HD
ATOM     49  C   UNL     1       7.041  -4.164  -1.869  1.00  0.00     0.037 A 
ATOM     50  C   UNL     1       1.020  -6.452   1.030  1.00  0.00     0.037 A 
ATOM     51  C   UNL     1       6.982  -5.578  -1.621  1.00  0.00     0.049 A 
ATOM     52  C   UNL     1       2.146  -7.392   0.673  1.00  0.00     0.074 A 
ATOM     53  C   UNL     1       7.935  -6.543  -1.885  1.00  0.00     0.029 A 
ATOM     54  N   UNL     1       5.891  -6.230  -1.062  1.00  0.00    -0.354 N 
ATOM     55  N   UNL     1       3.319  -7.109   0.152  1.00  0.00    -0.248 NA
ATOM     56  C   UNL     1       1.933  -8.824   0.924  1.00  0.00     0.031 C 
ATOM     57  C   UNL     1       7.400  -7.787  -1.531  1.00  0.00     0.029 A 
ATOM     58  C   UNL     1       6.136  -7.589  -0.992  1.00  0.00     0.049 A 
ATOM     59  H   UNL     1       5.064  -5.790  -0.759  1.00  0.00     0.167 HD
ATOM     60  C   UNL     1       3.989  -8.321   0.035  1.00  0.00     0.074 A 
ATOM     61  C   UNL     1       3.096  -9.340   0.551  1.00  0.00     0.031 C 
ATOM     62  C   UNL     1       5.228  -8.573  -0.455  1.00  0.00     0.037 A 
BRANCH  49  63
ATOM     63  C   UNL     1       8.284  -3.566  -2.465  1.00  0.00     0.058 A 
ATOM     64  C   UNL     1       9.136  -2.730  -1.728  1.00  0.00     0.135 A 
ATOM     65  C   UNL     1       8.591  -3.789  -3.817  1.00  0.00     0.135 A 
ATOM     66  F   UNL     1       8.867  -2.455  -0.441  1.00  0.00    -0.206 F 
ATOM     67  C   UNL     1      10.233  -2.108  -2.319  1.00  0.00     0.059 A 
ATOM     68  C   UNL     1       9.694  -3.196  -4.423  1.00  0.00     0.059 A 
ATOM     69  F   UNL     1       7.799  -4.567  -4.570  1.00  0.00    -0.206 F 
ATOM     70  C   UNL     1      10.497  -2.341  -3.671  1.00  0.00     0.060 A 
BRANCH  70  71
ATOM     71  S   UNL     1      11.893  -1.492  -4.440  1.00  0.00     0.124 S 
ATOM     72  O   UNL     1      11.391  -0.123  -4.519  1.00  0.00    -0.237 OA
ATOM     73  O   UNL     1      12.965  -1.719  -3.477  1.00  0.00    -0.237 OA
ATOM     74  O   UNL     1      12.046  -2.179  -5.718  1.00  0.00    -0.744 OA
ENDBRANCH  70  71
ENDBRANCH  49  63
BRANCH  50  75
ATOM     75  C   UNL     1      -0.244  -6.965   1.639  1.00  0.00     0.058 A 
ATOM     76  C   UNL     1      -0.269  -7.557   2.912  1.00  0.00     0.135 A 
ATOM     77  C   UNL     1      -1.459  -6.909   0.933  1.00  0.00     0.135 A 
ATOM     78  F   UNL     1       0.863  -7.655   3.627  1.00  0.00    -0.206 F 
ATOM     79  C   UNL     1      -1.439  -8.088   3.453  1.00  0.00     0.059 A 
ATOM     80  C   UNL     1      -2.647  -7.405   1.465  1.00  0.00     0.059 A 
ATOM     81  F   UNL     1      -1.503  -6.357  -0.289  1.00  0.00    -0.206 F 
ATOM     82  C   UNL     1      -2.625  -8.007   2.721  1.00  0.00     0.060 A 
BRANCH  82  83
ATOM     83  S   UNL     1      -4.143  -8.679   3.435  1.00  0.00     0.124 S 
ATOM     84  O   UNL     1      -3.902 -10.114   3.342  1.00  0.00    -0.237 OA
ATOM     85  O   UNL     1      -4.125  -8.113   4.780  1.00  0.00    -0.237 OA
ATOM     86  O   UNL     1      -5.186  -8.156   2.558  1.00  0.00    -0.744 OA
ENDBRANCH  82  83
ENDBRANCH  50  75
BRANCH  62  87
ATOM     87  C   UNL     1       5.710  -9.996  -0.420  1.00  0.00     0.058 A 
ATOM     88  C   UNL     1       5.229 -10.960  -1.319  1.00  0.00     0.135 A 
ATOM     89  C   UNL     1       6.729 -10.371   0.469  1.00  0.00     0.135 A 
ATOM     90  F   UNL     1       4.251 -10.649  -2.184  1.00  0.00    -0.206 F 
ATOM     91  C   UNL     1       5.736 -12.254  -1.329  1.00  0.00     0.059 A 
ATOM     92  C   UNL     1       7.269 -11.652   0.458  1.00  0.00     0.059 A 
ATOM     93  F   UNL     1       7.228  -9.480   1.341  1.00  0.00    -0.206 F 
ATOM     94  C   UNL     1       6.761 -12.588  -0.441  1.00  0.00     0.060 A 
BRANCH  94  95
ATOM     95  S   UNL     1       7.455 -14.253  -0.508  1.00  0.00     0.124 S 
ATOM     96  O   UNL     1       6.402 -15.036   0.129  1.00  0.00    -0.237 OA
ATOM     97  O   UNL     1       7.624 -14.464  -1.942  1.00  0.00    -0.237 OA
ATOM     98  O   UNL     1       8.696 -14.134   0.252  1.00  0.00    -0.744 OA
ENDBRANCH  94  95
ENDBRANCH  62  87
ENDBRANCH  36  37
ENDBRANCH  29  31
ENDBRANCH  28  29
ENDBRANCH  27  28
ENDBRANCH   1  27
TORSDOF 20
