REMARK SMILES O=C(OCCOC(=O)c1cc(NC(=O)c2cccs2)ccc1N1CCC[C@H](C[NH+]2CCCC2)C1)c1ccc(-c2c3nc(c(-c4c(F)cc(S(=O)(=O)[O-])cc4F)c4ccc([nH]4)c(-c4c(F)cc(S(=O)(=O)[O-])cc4F)c4nc(c(-c5c(F)cc(S(=O)(=O)[O-])cc5F)c5ccc2[nH]5)C=C4)C=C3)cc1
REMARK SMILES IDX 4 1 3 2 2 3 1 4 35 5 36 6 100 7 37 8 99 9 38 10 39 11 40 12
REMARK SMILES IDX 93 13 41 14 98 15 92 16 94 17 42 18 97 19 91 20 90 21 43 23
REMARK SMILES IDX 77 24 56 25 76 26 57 27 60 28 75 29 95 30 58 31 59 32 74 34
REMARK SMILES IDX 96 35 61 36 44 37 45 38 54 39 46 40 47 41 53 42 55 43 48 44
REMARK SMILES IDX 49 45 50 46 51 47 52 48 78 49 79 50 88 51 80 52 81 53 87 54
REMARK SMILES IDX 89 55 82 56 83 57 84 58 85 59 86 60 62 61 63 62 72 63 64 64
REMARK SMILES IDX 65 65 71 66 73 67 66 68 67 69 68 70 69 71 70 72 5 73 6 74
REMARK SMILES IDX 7 75 8 76 9 77 10 78 22 79 11 80 21 81 20 82 23 83 24 84
REMARK SMILES IDX 34 85 25 86 27 87 26 88 28 89 29 90 30 91 33 92 31 94 32 95
REMARK SMILES IDX 12 96 13 97 14 99 15 100 16 101 19 102 17 103 18 104
REMARK H PARENT 94 22 60 33 29 93 12 98
REMARK Flexibility Score: inf
ROOT
ATOM      1  C   UNL     1       5.006   0.325  -1.387  1.00  0.00     0.275 C 
ENDROOT
BRANCH   1   2
ATOM      2  O   UNL     1       4.479  -0.915  -0.861  1.00  0.00    -0.458 OA
BRANCH   2   3
ATOM      3  C   UNL     1       3.513  -0.907   0.084  1.00  0.00     0.338 C 
ATOM      4  O   UNL     1       2.330  -1.071  -0.185  1.00  0.00    -0.246 OA
BRANCH   3   5
ATOM      5  C   UNL     1       4.019  -0.839   1.490  1.00  0.00     0.060 A 
ATOM      6  C   UNL     1       5.308  -0.413   1.808  1.00  0.00     0.016 A 
ATOM      7  C   UNL     1       3.138  -1.152   2.537  1.00  0.00     0.016 A 
ATOM      8  C   UNL     1       5.691  -0.267   3.142  1.00  0.00     0.010 A 
ATOM      9  C   UNL     1       3.514  -1.006   3.878  1.00  0.00     0.010 A 
ATOM     10  C   UNL     1       4.796  -0.550   4.186  1.00  0.00    -0.014 A 
BRANCH  10  11
ATOM     11  C   UNL     1       5.316  -0.480   5.573  1.00  0.00     0.031 A 
ATOM     12  C   UNL     1       6.089  -1.647   6.069  1.00  0.00     0.074 A 
ATOM     13  C   UNL     1       5.201   0.634   6.318  1.00  0.00     0.049 A 
ATOM     14  N   UNL     1       6.849  -1.732   7.121  1.00  0.00    -0.248 NA
ATOM     15  C   UNL     1       5.958  -2.890   5.294  1.00  0.00     0.031 C 
ATOM     16  C   UNL     1       4.338   1.742   5.973  1.00  0.00     0.029 A 
ATOM     17  N   UNL     1       5.822   1.063   7.463  1.00  0.00    -0.354 N 
ATOM     18  C   UNL     1       7.261  -3.052   7.163  1.00  0.00     0.074 A 
ATOM     19  C   UNL     1       6.682  -3.726   6.021  1.00  0.00     0.031 C 
ATOM     20  C   UNL     1       4.592   2.794   6.764  1.00  0.00     0.029 A 
ATOM     21  C   UNL     1       5.601   2.403   7.733  1.00  0.00     0.049 A 
ATOM     22  H   UNL     1       6.369   0.478   8.034  1.00  0.00     0.167 HD
ATOM     23  C   UNL     1       8.024  -3.644   8.107  1.00  0.00     0.037 A 
ATOM     24  C   UNL     1       6.177   3.216   8.643  1.00  0.00     0.037 A 
ATOM     25  C   UNL     1       8.522  -2.947   9.261  1.00  0.00     0.049 A 
ATOM     26  C   UNL     1       7.137   2.567   9.604  1.00  0.00     0.074 A 
ATOM     27  C   UNL     1       9.248  -3.444  10.324  1.00  0.00     0.029 A 
ATOM     28  N   UNL     1       8.323  -1.591   9.506  1.00  0.00    -0.354 N 
ATOM     29  N   UNL     1       7.556   1.322   9.618  1.00  0.00    -0.248 NA
ATOM     30  C   UNL     1       7.661   3.395  10.695  1.00  0.00     0.031 C 
ATOM     31  C   UNL     1       9.461  -2.397  11.228  1.00  0.00     0.029 A 
ATOM     32  C   UNL     1       8.912  -1.234  10.705  1.00  0.00     0.049 A 
ATOM     33  H   UNL     1       7.835  -0.977   8.912  1.00  0.00     0.167 HD
ATOM     34  C   UNL     1       8.355   1.203  10.744  1.00  0.00     0.074 A 
ATOM     35  C   UNL     1       8.423   2.523  11.344  1.00  0.00     0.031 C 
ATOM     36  C   UNL     1       8.945   0.097  11.262  1.00  0.00     0.037 A 
BRANCH  23  37
ATOM     37  C   UNL     1       8.258  -5.113   7.942  1.00  0.00     0.058 A 
ATOM     38  C   UNL     1       9.081  -5.619   6.923  1.00  0.00     0.135 A 
ATOM     39  C   UNL     1       7.576  -6.032   8.754  1.00  0.00     0.135 A 
ATOM     40  F   UNL     1       9.716  -4.780   6.088  1.00  0.00    -0.206 F 
ATOM     41  C   UNL     1       9.194  -6.985   6.693  1.00  0.00     0.059 A 
ATOM     42  C   UNL     1       7.694  -7.404   8.559  1.00  0.00     0.059 A 
ATOM     43  F   UNL     1       6.755  -5.599   9.723  1.00  0.00    -0.206 F 
ATOM     44  C   UNL     1       8.491  -7.869   7.514  1.00  0.00     0.060 A 
BRANCH  44  45
ATOM     45  S   UNL     1       8.624  -9.638   7.186  1.00  0.00     0.124 S 
ATOM     46  O   UNL     1       7.810  -9.773   5.982  1.00  0.00    -0.237 OA
ATOM     47  O   UNL     1      10.062  -9.812   7.002  1.00  0.00    -0.237 OA
ATOM     48  O   UNL     1       8.072 -10.248   8.391  1.00  0.00    -0.744 OA
ENDBRANCH  44  45
ENDBRANCH  23  37
BRANCH  24  49
ATOM     49  C   UNL     1       5.891   4.684   8.696  1.00  0.00     0.058 A 
ATOM     50  C   UNL     1       6.912   5.625   8.474  1.00  0.00     0.135 A 
ATOM     51  C   UNL     1       4.611   5.190   8.975  1.00  0.00     0.135 A 
ATOM     52  F   UNL     1       8.158   5.209   8.200  1.00  0.00    -0.206 F 
ATOM     53  C   UNL     1       6.685   6.999   8.555  1.00  0.00     0.059 A 
ATOM     54  C   UNL     1       4.350   6.560   9.027  1.00  0.00     0.059 A 
ATOM     55  F   UNL     1       3.586   4.350   9.186  1.00  0.00    -0.206 F 
ATOM     56  C   UNL     1       5.399   7.458   8.838  1.00  0.00     0.060 A 
BRANCH  56  57
ATOM     57  S   UNL     1       5.101   9.241   8.917  1.00  0.00     0.124 S 
ATOM     58  O   UNL     1       5.604   9.564  10.246  1.00  0.00    -0.237 OA
ATOM     59  O   UNL     1       5.897   9.738   7.799  1.00  0.00    -0.237 OA
ATOM     60  O   UNL     1       3.656   9.343   8.743  1.00  0.00    -0.744 OA
ENDBRANCH  56  57
ENDBRANCH  24  49
BRANCH  36  61
ATOM     61  C   UNL     1       9.692   0.278  12.548  1.00  0.00     0.058 A 
ATOM     62  C   UNL     1       9.015   0.447  13.766  1.00  0.00     0.135 A 
ATOM     63  C   UNL     1      11.092   0.212  12.569  1.00  0.00     0.135 A 
ATOM     64  F   UNL     1       7.675   0.523  13.791  1.00  0.00    -0.206 F 
ATOM     65  C   UNL     1       9.706   0.562  14.964  1.00  0.00     0.059 A 
ATOM     66  C   UNL     1      11.802   0.299  13.759  1.00  0.00     0.059 A 
ATOM     67  F   UNL     1      11.778   0.042  11.427  1.00  0.00    -0.206 F 
ATOM     68  C   UNL     1      11.100   0.483  14.950  1.00  0.00     0.060 A 
BRANCH  68  69
ATOM     69  S   UNL     1      11.986   0.588  16.518  1.00  0.00     0.124 S 
ATOM     70  O   UNL     1      11.887   2.013  16.814  1.00  0.00    -0.237 OA
ATOM     71  O   UNL     1      11.204  -0.296  17.378  1.00  0.00    -0.237 OA
ATOM     72  O   UNL     1      13.323   0.105  16.184  1.00  0.00    -0.744 OA
ENDBRANCH  68  69
ENDBRANCH  36  61
ENDBRANCH  10  11
ENDBRANCH   3   5
ENDBRANCH   2   3
ENDBRANCH   1   2
BRANCH   1  73
ATOM     73  C   UNL     1       4.187   1.609  -1.241  1.00  0.00     0.275 C 
BRANCH  73  74
ATOM     74  O   UNL     1       3.763   1.815   0.109  1.00  0.00    -0.458 OA
BRANCH  74  75
ATOM     75  C   UNL     1       2.473   2.201   0.258  1.00  0.00     0.340 C 
ATOM     76  O   UNL     1       1.679   2.455  -0.645  1.00  0.00    -0.246 OA
BRANCH  75  77
ATOM     77  C   UNL     1       2.083   2.215   1.676  1.00  0.00     0.085 A 
ATOM     78  C   UNL     1       0.943   1.448   2.032  1.00  0.00     0.044 A 
ATOM     79  C   UNL     1       2.770   2.997   2.614  1.00  0.00     0.051 A 
ATOM     80  C   UNL     1       0.438   1.478   3.327  1.00  0.00     0.042 A 
ATOM     81  C   UNL     1       2.168   3.107   3.870  1.00  0.00     0.029 A 
ATOM     82  C   UNL     1       1.037   2.360   4.229  1.00  0.00     0.028 A 
BRANCH  79  83
ATOM     83  N   UNL     1       3.968   3.640   2.389  1.00  0.00    -0.370 N 
ATOM     84  C   UNL     1       5.215   3.120   2.946  1.00  0.00     0.116 C 
ATOM     85  C   UNL     1       4.088   4.758   1.473  1.00  0.00     0.126 C 
ATOM     86  C   UNL     1       5.973   4.224   3.674  1.00  0.00     0.022 C 
ATOM     87  C   UNL     1       4.756   5.931   2.220  1.00  0.00     0.064 C 
ATOM     88  C   UNL     1       6.112   5.459   2.789  1.00  0.00     0.013 C 
BRANCH  87  89
ATOM     89  C   UNL     1       3.757   6.472   3.275  1.00  0.00     0.267 C 
BRANCH  89  90
ATOM     90  N   UNL     1       3.986   7.765   3.906  1.00  0.00    -0.335 N 
ATOM     91  C   UNL     1       4.277   8.879   3.017  1.00  0.00     0.262 C 
ATOM     92  C   UNL     1       4.965   7.789   4.994  1.00  0.00     0.262 C 
ATOM     93  H   UNL     1       3.055   7.902   4.301  1.00  0.00     0.348 HD
ATOM     94  C   UNL     1       5.777   9.065   3.103  1.00  0.00     0.067 C 
ATOM     95  C   UNL     1       6.105   8.693   4.537  1.00  0.00     0.067 C 
ENDBRANCH  89  90
ENDBRANCH  87  89
ENDBRANCH  79  83
BRANCH  80  96
ATOM     96  N   UNL     1      -0.648   0.738   3.831  1.00  0.00    -0.321 N 
ATOM     97  C   UNL     1      -1.419  -0.316   3.391  1.00  0.00     0.265 C 
ATOM     98  H   UNL     1      -0.926   1.051   4.722  1.00  0.00     0.170 HD
ATOM     99  O   UNL     1      -2.353  -0.656   4.123  1.00  0.00    -0.268 OA
BRANCH  97 100
ATOM    100  C   UNL     1      -1.088  -1.059   2.203  1.00  0.00     0.092 A 
ATOM    101  C   UNL     1      -0.370  -2.236   2.122  1.00  0.00     0.025 A 
ATOM    102  S   UNL     1      -1.800  -0.649   0.703  1.00  0.00    -0.139 S 
ATOM    103  C   UNL     1      -0.259  -2.704   0.782  1.00  0.00     0.012 A 
ATOM    104  C   UNL     1      -0.960  -1.909  -0.098  1.00  0.00     0.065 A 
ENDBRANCH  97 100
ENDBRANCH  80  96
ENDBRANCH  75  77
ENDBRANCH  74  75
ENDBRANCH  73  74
ENDBRANCH   1  73
TORSDOF 19
