REMARK SMILES O=C(OCCOC(=O)c1ccc(-c2c3nc(c(-c4c(F)cc(S(=O)(=O)[O-])cc4F)c4ccc([nH]4)c(-c4c(F)cc(S(=O)(=O)[O-])cc4F)c4nc(c(-c5c(F)cc(S(=O)(=O)[O-])cc5F)c5ccc2[nH]5)C=C4)C=C3)cc1)C1=Cc2cc(Cl)cc(-c3ccc(CO)cc3)c2O[C@@H]1C(F)(F)F
REMARK SMILES IDX 4 1 3 2 2 3 1 4 75 5 76 6 93 7 77 8 92 9 78 10 91 11 79 12
REMARK SMILES IDX 82 13 80 14 81 15 94 16 95 17 96 18 97 19 83 20 84 21 90 22
REMARK SMILES IDX 85 23 89 24 86 25 87 26 88 27 5 29 6 30 7 31 8 32 9 33 10 34
REMARK SMILES IDX 74 35 11 36 73 37 12 38 13 39 14 40 67 41 15 42 72 43 66 44
REMARK SMILES IDX 68 45 16 46 71 47 65 48 64 49 17 51 51 52 30 53 50 54 31 55
REMARK SMILES IDX 34 56 49 57 69 58 32 59 33 60 48 62 70 63 35 64 18 65 19 66
REMARK SMILES IDX 28 67 20 68 21 69 27 70 29 71 22 72 23 73 24 74 25 75 26 76
REMARK SMILES IDX 52 77 53 78 62 79 54 80 55 81 61 82 63 83 56 84 57 85 58 86
REMARK SMILES IDX 59 87 60 88 36 89 37 90 46 91 38 92 39 93 45 94 47 95 40 96
REMARK SMILES IDX 41 97 42 98 43 99 44 100
REMARK H PARENT 88 28 68 50 34 61
REMARK Flexibility Score: inf
ROOT
ATOM      1  C   UNL     1       2.406  -0.547  -1.438  1.00  0.00     0.275 C 
ENDROOT
BRANCH   1   2
ATOM      2  O   UNL     1       1.880  -0.047  -0.180  1.00  0.00    -0.459 OA
BRANCH   2   3
ATOM      3  C   UNL     1       2.423  -0.537   0.976  1.00  0.00     0.338 C 
ATOM      4  O   UNL     1       1.903  -1.424   1.634  1.00  0.00    -0.246 OA
BRANCH   3   5
ATOM      5  C   UNL     1       3.703   0.130   1.338  1.00  0.00     0.087 C 
ATOM      6  C   UNL     1       4.710  -0.571   1.890  1.00  0.00     0.027 C 
ATOM      7  C   UNL     1       4.129   1.303   0.534  1.00  0.00     0.316 C 
ATOM      8  C   UNL     1       5.890  -0.711   1.009  1.00  0.00     0.019 A 
ATOM      9  O   UNL     1       4.962   0.860  -0.575  1.00  0.00    -0.475 OA
ATOM     10  C   UNL     1       6.947  -1.553   1.347  1.00  0.00     0.032 A 
ATOM     11  C   UNL     1       5.796  -0.207  -0.309  1.00  0.00     0.135 A 
ATOM     12  C   UNL     1       7.846  -1.947   0.358  1.00  0.00     0.042 A 
ATOM     13  C   UNL     1       6.514  -0.831  -1.353  1.00  0.00     0.026 A 
ATOM     14  Cl  UNL     1       9.171  -2.968   0.759  1.00  0.00    -0.084 Cl
ATOM     15  C   UNL     1       7.603  -1.639  -0.980  1.00  0.00     0.033 A 
BRANCH   7  16
ATOM     16  C   UNL     1       4.650   2.433   1.454  1.00  0.00     0.430 C 
ATOM     17  F   UNL     1       3.601   3.046   2.065  1.00  0.00    -0.167 F 
ATOM     18  F   UNL     1       5.470   2.005   2.439  1.00  0.00    -0.167 F 
ATOM     19  F   UNL     1       5.312   3.383   0.758  1.00  0.00    -0.167 F 
ENDBRANCH   7  16
BRANCH  13  20
ATOM     20  C   UNL     1       5.989  -1.036  -2.734  1.00  0.00    -0.015 A 
ATOM     21  C   UNL     1       5.408  -2.293  -3.036  1.00  0.00     0.009 A 
ATOM     22  C   UNL     1       6.083  -0.117  -3.782  1.00  0.00     0.009 A 
ATOM     23  C   UNL     1       4.954  -2.623  -4.319  1.00  0.00     0.007 A 
ATOM     24  C   UNL     1       5.611  -0.442  -5.076  1.00  0.00     0.007 A 
ATOM     25  C   UNL     1       5.047  -1.697  -5.358  1.00  0.00    -0.023 A 
BRANCH  25  26
ATOM     26  C   UNL     1       4.546  -2.065  -6.734  1.00  0.00     0.191 C 
BRANCH  26  27
ATOM     27  O   UNL     1       5.367  -3.071  -7.315  1.00  0.00    -0.392 OA
ATOM     28  H   UNL     1       6.274  -2.740  -7.399  1.00  0.00     0.211 HD
ENDBRANCH  26  27
ENDBRANCH  25  26
ENDBRANCH  13  20
ENDBRANCH   3   5
ENDBRANCH   2   3
ENDBRANCH   1   2
BRANCH   1  29
ATOM     29  C   UNL     1       2.688   0.556  -2.494  1.00  0.00     0.275 C 
BRANCH  29  30
ATOM     30  O   UNL     1       2.566   1.890  -1.989  1.00  0.00    -0.458 OA
BRANCH  30  31
ATOM     31  C   UNL     1       1.298   2.345  -1.936  1.00  0.00     0.338 C 
ATOM     32  O   UNL     1       0.338   1.865  -2.526  1.00  0.00    -0.246 OA
BRANCH  31  33
ATOM     33  C   UNL     1       1.198   3.347  -0.854  1.00  0.00     0.060 A 
ATOM     34  C   UNL     1       0.078   3.251  -0.026  1.00  0.00     0.016 A 
ATOM     35  C   UNL     1       2.178   4.317  -0.600  1.00  0.00     0.016 A 
ATOM     36  C   UNL     1      -0.107   4.165   1.005  1.00  0.00     0.010 A 
ATOM     37  C   UNL     1       2.004   5.219   0.461  1.00  0.00     0.010 A 
ATOM     38  C   UNL     1       0.832   5.181   1.237  1.00  0.00    -0.014 A 
BRANCH  38  39
ATOM     39  C   UNL     1       0.445   6.278   2.165  1.00  0.00     0.031 A 
ATOM     40  C   UNL     1       0.005   7.596   1.580  1.00  0.00     0.074 A 
ATOM     41  C   UNL     1       0.327   6.057   3.489  1.00  0.00     0.049 A 
ATOM     42  N   UNL     1      -0.604   8.597   2.161  1.00  0.00    -0.248 NA
ATOM     43  C   UNL     1       0.279   7.812   0.149  1.00  0.00     0.031 C 
ATOM     44  C   UNL     1       0.728   4.833   4.183  1.00  0.00     0.029 A 
ATOM     45  N   UNL     1      -0.197   6.848   4.484  1.00  0.00    -0.354 N 
ATOM     46  C   UNL     1      -0.826   9.535   1.160  1.00  0.00     0.074 A 
ATOM     47  C   UNL     1      -0.208   9.027  -0.043  1.00  0.00     0.031 C 
ATOM     48  C   UNL     1       0.417   4.947   5.487  1.00  0.00     0.029 A 
ATOM     49  C   UNL     1      -0.205   6.249   5.723  1.00  0.00     0.049 A 
ATOM     50  H   UNL     1      -0.535   7.758   4.325  1.00  0.00     0.167 HD
ATOM     51  C   UNL     1      -1.521  10.695   1.218  1.00  0.00     0.037 A 
ATOM     52  C   UNL     1      -0.674   6.695   6.907  1.00  0.00     0.037 A 
ATOM     53  C   UNL     1      -2.119  11.217   2.417  1.00  0.00     0.049 A 
ATOM     54  C   UNL     1      -1.386   8.027   6.961  1.00  0.00     0.074 A 
ATOM     55  C   UNL     1      -2.833  12.390   2.583  1.00  0.00     0.029 A 
ATOM     56  N   UNL     1      -2.065  10.602   3.659  1.00  0.00    -0.354 N 
ATOM     57  N   UNL     1      -1.652   8.866   5.987  1.00  0.00    -0.248 NA
ATOM     58  C   UNL     1      -1.885   8.461   8.275  1.00  0.00     0.031 C 
ATOM     59  C   UNL     1      -3.170  12.508   3.936  1.00  0.00     0.029 A 
ATOM     60  C   UNL     1      -2.715  11.381   4.601  1.00  0.00     0.049 A 
ATOM     61  H   UNL     1      -1.629   9.738   3.843  1.00  0.00     0.167 HD
ATOM     62  C   UNL     1      -2.373   9.908   6.566  1.00  0.00     0.074 A 
ATOM     63  C   UNL     1      -2.524   9.580   7.967  1.00  0.00     0.031 C 
ATOM     64  C   UNL     1      -2.863  11.037   5.993  1.00  0.00     0.037 A 
BRANCH  51  65
ATOM     65  C   UNL     1      -1.675  11.468  -0.062  1.00  0.00     0.058 A 
ATOM     66  C   UNL     1      -2.493  10.998  -1.103  1.00  0.00     0.135 A 
ATOM     67  C   UNL     1      -1.016  12.693  -0.248  1.00  0.00     0.135 A 
ATOM     68  F   UNL     1      -3.127   9.820  -0.987  1.00  0.00    -0.206 F 
ATOM     69  C   UNL     1      -2.630  11.701  -2.295  1.00  0.00     0.059 A 
ATOM     70  C   UNL     1      -1.161  13.427  -1.422  1.00  0.00     0.059 A 
ATOM     71  F   UNL     1      -0.217  13.184   0.711  1.00  0.00    -0.206 F 
ATOM     72  C   UNL     1      -1.961  12.916  -2.444  1.00  0.00     0.060 A 
BRANCH  72  73
ATOM     73  S   UNL     1      -2.158  13.819  -3.994  1.00  0.00     0.124 S 
ATOM     74  O   UNL     1      -1.412  12.972  -4.921  1.00  0.00    -0.237 OA
ATOM     75  O   UNL     1      -3.607  13.825  -4.168  1.00  0.00    -0.237 OA
ATOM     76  O   UNL     1      -1.556  15.118  -3.711  1.00  0.00    -0.744 OA
ENDBRANCH  72  73
ENDBRANCH  51  65
BRANCH  52  77
ATOM     77  C   UNL     1      -0.494   5.888   8.149  1.00  0.00     0.058 A 
ATOM     78  C   UNL     1      -1.588   5.354   8.848  1.00  0.00     0.135 A 
ATOM     79  C   UNL     1       0.783   5.694   8.698  1.00  0.00     0.135 A 
ATOM     80  F   UNL     1      -2.832   5.518   8.374  1.00  0.00    -0.206 F 
ATOM     81  C   UNL     1      -1.427   4.695  10.065  1.00  0.00     0.059 A 
ATOM     82  C   UNL     1       0.973   5.013   9.896  1.00  0.00     0.059 A 
ATOM     83  F   UNL     1       1.867   6.173   8.067  1.00  0.00    -0.206 F 
ATOM     84  C   UNL     1      -0.141   4.535  10.584  1.00  0.00     0.060 A 
BRANCH  84  85
ATOM     85  S   UNL     1       0.060   3.683  12.165  1.00  0.00     0.124 S 
ATOM     86  O   UNL     1      -0.467   4.670  13.100  1.00  0.00    -0.237 OA
ATOM     87  O   UNL     1      -0.754   2.487  11.973  1.00  0.00    -0.237 OA
ATOM     88  O   UNL     1       1.499   3.448  12.239  1.00  0.00    -0.744 OA
ENDBRANCH  84  85
ENDBRANCH  52  77
BRANCH  64  89
ATOM     89  C   UNL     1      -3.635  11.986   6.873  1.00  0.00     0.058 A 
ATOM     90  C   UNL     1      -3.010  12.734   7.884  1.00  0.00     0.135 A 
ATOM     91  C   UNL     1      -5.014  12.175   6.680  1.00  0.00     0.135 A 
ATOM     92  F   UNL     1      -1.694  12.596   8.112  1.00  0.00    -0.206 F 
ATOM     93  C   UNL     1      -3.731  13.600   8.701  1.00  0.00     0.059 A 
ATOM     94  C   UNL     1      -5.748  13.062   7.461  1.00  0.00     0.059 A 
ATOM     95  F   UNL     1      -5.661  11.501   5.716  1.00  0.00    -0.206 F 
ATOM     96  C   UNL     1      -5.101  13.755   8.483  1.00  0.00     0.060 A 
BRANCH  96  97
ATOM     97  S   UNL     1      -6.024  14.885   9.546  1.00  0.00     0.124 S 
ATOM     98  O   UNL     1      -6.085  14.130  10.793  1.00  0.00    -0.237 OA
ATOM     99  O   UNL     1      -5.169  16.068   9.562  1.00  0.00    -0.237 OA
ATOM    100  O   UNL     1      -7.295  15.048   8.848  1.00  0.00    -0.744 OA
ENDBRANCH  96  97
ENDBRANCH  64  89
ENDBRANCH  38  39
ENDBRANCH  31  33
ENDBRANCH  30  31
ENDBRANCH  29  30
ENDBRANCH   1  29
TORSDOF 18
