REMARK SMILES NC(=O)CC[N@@H+]1[C@@H](C(=O)OCCOC(=O)c2ccc(-c3c4nc(c(-c5c(F)cc(S(=O)(=O)[O-])cc5F)c5ccc([nH]5)c(-c5c(F)cc(S(=O)(=O)[O-])cc5F)c5nc(c(-c6c(F)cc(S(=O)(=O)[O-])cc6F)c6ccc3[nH]6)C=C5)C=C4)cc2)CC[C@@H]2CCCC[C@H]21
REMARK SMILES IDX 11 1 10 2 8 3 9 4 7 5 6 6 89 7 82 9 84 10 88 11 83 12 85 13
REMARK SMILES IDX 87 14 86 15 5 16 4 17 2 18 1 19 3 22 12 23 13 24 14 25 15 26
REMARK SMILES IDX 16 27 17 28 81 29 18 30 80 31 19 32 20 33 21 34 74 35 22 36
REMARK SMILES IDX 79 37 73 38 75 39 23 40 78 41 72 42 71 43 24 45 58 46 37 47
REMARK SMILES IDX 57 48 38 49 41 50 56 51 76 52 39 53 40 54 55 56 77 57 42 58
REMARK SMILES IDX 25 59 26 60 35 61 27 62 28 63 34 64 36 65 29 66 30 67 31 68
REMARK SMILES IDX 32 69 33 70 59 71 60 72 69 73 61 74 62 75 68 76 70 77 63 78
REMARK SMILES IDX 64 79 65 80 66 81 67 82 43 83 44 84 53 85 45 86 46 87 52 88
REMARK SMILES IDX 54 89 47 90 48 91 49 92 50 93 51 94
REMARK H PARENT 6 8 1 20 1 21 75 44 41 55
REMARK Flexibility Score: inf
ROOT
ATOM      1  C   UNL     1       2.527  -5.712  -0.266  1.00  0.00     0.274 C 
ENDROOT
BRANCH   1   2
ATOM      2  O   UNL     1       2.955  -4.335  -0.266  1.00  0.00    -0.458 OA
BRANCH   2   3
ATOM      3  C   UNL     1       3.006  -3.736   0.956  1.00  0.00     0.365 C 
ATOM      4  O   UNL     1       2.683  -4.294   2.002  1.00  0.00    -0.245 OA
BRANCH   3   5
ATOM      5  C   UNL     1       3.538  -2.286   0.920  1.00  0.00     0.295 C 
ATOM      6  N   UNL     1       2.474  -1.192   0.957  1.00  0.00    -0.320 N 
ATOM      7  C   UNL     1       3.192   0.132   1.119  1.00  0.00     0.187 C 
ATOM      8  H   UNL     1       1.917  -1.143   0.104  1.00  0.00     0.349 HD
ATOM      9  C   UNL     1       4.505  -2.101  -0.251  1.00  0.00     0.078 C 
ATOM     10  C   UNL     1       4.240   0.352  -0.021  1.00  0.00     0.048 C 
ATOM     11  C   UNL     1       2.269   1.373   1.127  1.00  0.00     0.065 C 
ATOM     12  C   UNL     1       5.246  -0.790  -0.111  1.00  0.00     0.016 C 
ATOM     13  C   UNL     1       5.011   1.672   0.143  1.00  0.00     0.010 C 
ATOM     14  C   UNL     1       3.027   2.695   1.254  1.00  0.00     0.006 C 
ATOM     15  C   UNL     1       4.070   2.864   0.165  1.00  0.00     0.001 C 
BRANCH   6  16
ATOM     16  C   UNL     1       1.535  -1.499   2.088  1.00  0.00     0.273 C 
BRANCH  16  17
ATOM     17  C   UNL     1       0.198  -0.765   2.267  1.00  0.00     0.161 C 
BRANCH  17  18
ATOM     18  C   UNL     1      -0.675  -0.584   1.042  1.00  0.00     0.223 C 
ATOM     19  N   UNL     1      -0.105  -0.798  -0.171  1.00  0.00    -0.369 N 
ATOM     20  H   UNL     1      -0.639  -0.691  -0.991  1.00  0.00     0.159 HD
ATOM     21  H   UNL     1       0.841  -1.061  -0.231  1.00  0.00     0.159 HD
ATOM     22  O   UNL     1      -1.847  -0.224   1.119  1.00  0.00    -0.275 OA
ENDBRANCH  17  18
ENDBRANCH  16  17
ENDBRANCH   6  16
ENDBRANCH   3   5
ENDBRANCH   2   3
ENDBRANCH   1   2
BRANCH   1  23
ATOM     23  C   UNL     1       3.697  -6.701  -0.166  1.00  0.00     0.275 C 
BRANCH  23  24
ATOM     24  O   UNL     1       4.352  -6.654   1.116  1.00  0.00    -0.458 OA
BRANCH  24  25
ATOM     25  C   UNL     1       5.462  -5.880   1.165  1.00  0.00     0.338 C 
ATOM     26  O   UNL     1       5.965  -5.264   0.241  1.00  0.00    -0.246 OA
BRANCH  25  27
ATOM     27  C   UNL     1       5.930  -5.740   2.554  1.00  0.00     0.060 A 
ATOM     28  C   UNL     1       5.917  -4.459   3.114  1.00  0.00     0.016 A 
ATOM     29  C   UNL     1       6.468  -6.814   3.264  1.00  0.00     0.016 A 
ATOM     30  C   UNL     1       6.433  -4.240   4.386  1.00  0.00     0.010 A 
ATOM     31  C   UNL     1       7.002  -6.591   4.540  1.00  0.00     0.010 A 
ATOM     32  C   UNL     1       6.996  -5.302   5.102  1.00  0.00    -0.014 A 
BRANCH  32  33
ATOM     33  C   UNL     1       7.644  -5.029   6.407  1.00  0.00     0.031 A 
ATOM     34  C   UNL     1       9.140  -4.934   6.487  1.00  0.00     0.074 A 
ATOM     35  C   UNL     1       6.890  -4.815   7.500  1.00  0.00     0.049 A 
ATOM     36  N   UNL     1       9.903  -4.762   7.535  1.00  0.00    -0.248 NA
ATOM     37  C   UNL     1       9.876  -5.041   5.216  1.00  0.00     0.031 C 
ATOM     38  C   UNL     1       5.427  -4.819   7.530  1.00  0.00     0.029 A 
ATOM     39  N   UNL     1       7.252  -4.549   8.796  1.00  0.00    -0.354 N 
ATOM     40  C   UNL     1      11.208  -4.761   7.058  1.00  0.00     0.074 A 
ATOM     41  C   UNL     1      11.134  -4.955   5.625  1.00  0.00     0.031 C 
ATOM     42  C   UNL     1       5.015  -4.573   8.785  1.00  0.00     0.029 A 
ATOM     43  C   UNL     1       6.183  -4.433   9.652  1.00  0.00     0.049 A 
ATOM     44  H   UNL     1       8.188  -4.452   9.086  1.00  0.00     0.167 HD
ATOM     45  C   UNL     1      12.360  -4.614   7.753  1.00  0.00     0.037 A 
ATOM     46  C   UNL     1       6.152  -4.261  10.988  1.00  0.00     0.037 A 
ATOM     47  C   UNL     1      12.426  -4.410   9.177  1.00  0.00     0.049 A 
ATOM     48  C   UNL     1       7.446  -4.151  11.746  1.00  0.00     0.074 A 
ATOM     49  C   UNL     1      13.546  -4.256   9.976  1.00  0.00     0.029 A 
ATOM     50  N   UNL     1      11.323  -4.329  10.015  1.00  0.00    -0.354 N 
ATOM     51  N   UNL     1       8.674  -4.180  11.286  1.00  0.00    -0.248 NA
ATOM     52  C   UNL     1       7.352  -3.994  13.204  1.00  0.00     0.031 C 
ATOM     53  C   UNL     1      13.120  -4.111  11.302  1.00  0.00     0.029 A 
ATOM     54  C   UNL     1      11.735  -4.141  11.324  1.00  0.00     0.049 A 
ATOM     55  H   UNL     1      10.386  -4.396   9.723  1.00  0.00     0.167 HD
ATOM     56  C   UNL     1       9.499  -4.033  12.396  1.00  0.00     0.074 A 
ATOM     57  C   UNL     1       8.630  -3.901  13.548  1.00  0.00     0.031 C 
ATOM     58  C   UNL     1      10.853  -4.010  12.456  1.00  0.00     0.037 A 
BRANCH  45  59
ATOM     59  C   UNL     1      13.646  -4.704   6.984  1.00  0.00     0.058 A 
ATOM     60  C   UNL     1      14.094  -3.653   6.169  1.00  0.00     0.135 A 
ATOM     61  C   UNL     1      14.447  -5.853   7.074  1.00  0.00     0.135 A 
ATOM     62  F   UNL     1      13.355  -2.541   6.032  1.00  0.00    -0.206 F 
ATOM     63  C   UNL     1      15.282  -3.748   5.450  1.00  0.00     0.059 A 
ATOM     64  C   UNL     1      15.648  -5.962   6.380  1.00  0.00     0.059 A 
ATOM     65  F   UNL     1      14.060  -6.888   7.837  1.00  0.00    -0.206 F 
ATOM     66  C   UNL     1      16.049  -4.910   5.558  1.00  0.00     0.060 A 
BRANCH  66  67
ATOM     67  S   UNL     1      17.583  -5.028   4.613  1.00  0.00     0.124 S 
ATOM     68  O   UNL     1      17.077  -5.308   3.273  1.00  0.00    -0.237 OA
ATOM     69  O   UNL     1      18.174  -3.707   4.803  1.00  0.00    -0.237 OA
ATOM     70  O   UNL     1      18.295  -6.127   5.258  1.00  0.00    -0.744 OA
ENDBRANCH  66  67
ENDBRANCH  45  59
BRANCH  46  71
ATOM     71  C   UNL     1       4.846  -4.212  11.695  1.00  0.00     0.058 A 
ATOM     72  C   UNL     1       4.357  -3.013  12.232  1.00  0.00     0.135 A 
ATOM     73  C   UNL     1       4.057  -5.364  11.835  1.00  0.00     0.135 A 
ATOM     74  F   UNL     1       5.082  -1.888  12.133  1.00  0.00    -0.206 F 
ATOM     75  C   UNL     1       3.132  -2.957  12.889  1.00  0.00     0.059 A 
ATOM     76  C   UNL     1       2.819  -5.329  12.468  1.00  0.00     0.059 A 
ATOM     77  F   UNL     1       4.479  -6.533  11.329  1.00  0.00    -0.206 F 
ATOM     78  C   UNL     1       2.369  -4.121  13.000  1.00  0.00     0.060 A 
BRANCH  78  79
ATOM     79  S   UNL     1       0.752  -4.032  13.800  1.00  0.00     0.124 S 
ATOM     80  O   UNL     1       1.124  -4.017  15.210  1.00  0.00    -0.237 OA
ATOM     81  O   UNL     1       0.211  -2.784  13.269  1.00  0.00    -0.237 OA
ATOM     82  O   UNL     1       0.083  -5.243  13.334  1.00  0.00    -0.744 OA
ENDBRANCH  78  79
ENDBRANCH  46  71
BRANCH  58  83
ATOM     83  C   UNL     1      11.476  -3.815  13.808  1.00  0.00     0.058 A 
ATOM     84  C   UNL     1      11.543  -4.861  14.742  1.00  0.00     0.135 A 
ATOM     85  C   UNL     1      12.052  -2.583  14.156  1.00  0.00     0.135 A 
ATOM     86  F   UNL     1      11.001  -6.055  14.458  1.00  0.00    -0.206 F 
ATOM     87  C   UNL     1      12.144  -4.686  15.984  1.00  0.00     0.059 A 
ATOM     88  C   UNL     1      12.675  -2.392  15.385  1.00  0.00     0.059 A 
ATOM     89  F   UNL     1      12.021  -1.555  13.293  1.00  0.00    -0.206 F 
ATOM     90  C   UNL     1      12.706  -3.446  16.297  1.00  0.00     0.060 A 
BRANCH  90  91
ATOM     91  S   UNL     1      13.512  -3.236  17.899  1.00  0.00     0.124 S 
ATOM     92  O   UNL     1      12.365  -3.053  18.782  1.00  0.00    -0.237 OA
ATOM     93  O   UNL     1      14.239  -4.492  18.055  1.00  0.00    -0.237 OA
ATOM     94  O   UNL     1      14.349  -2.056  17.703  1.00  0.00    -0.744 OA
ENDBRANCH  90  91
ENDBRANCH  58  83
ENDBRANCH  32  33
ENDBRANCH  25  27
ENDBRANCH  24  25
ENDBRANCH  23  24
ENDBRANCH   1  23
TORSDOF 17
