REMARK SMILES O=C(OCCOC(=O)c1cc2ccccc2cc1OCCO)c1ccc(-c2c3nc(c(-c4c(F)cc(S(=O)(=O)[O-])cc4F)c4ccc([nH]4)c(-c4c(F)cc(S(=O)(=O)[O-])cc4F)c4nc(c(-c5c(F)cc(S(=O)(=O)[O-])cc5F)c5ccc2[nH]5)C=C4)C=C3)cc1
REMARK SMILES IDX 5 1 4 2 3 3 2 4 1 5 23 6 24 7 88 8 25 9 87 10 26 11 27 12
REMARK SMILES IDX 28 13 81 14 29 15 86 16 80 17 82 18 30 19 85 20 79 21 78 22
REMARK SMILES IDX 31 24 65 25 44 26 64 27 45 28 48 29 63 30 83 31 46 32 47 33
REMARK SMILES IDX 62 35 84 36 49 37 32 38 33 39 42 40 34 41 35 42 41 43 43 44
REMARK SMILES IDX 36 45 37 46 38 47 39 48 40 49 66 50 67 51 76 52 68 53 69 54
REMARK SMILES IDX 75 55 77 56 70 57 71 58 72 59 73 60 74 61 50 62 51 63 60 64
REMARK SMILES IDX 52 65 53 66 59 67 61 68 54 69 55 70 56 71 57 72 58 73 6 74
REMARK SMILES IDX 7 75 8 76 9 77 10 78 18 79 11 80 17 81 12 82 16 83 13 84
REMARK SMILES IDX 15 85 14 86 19 87 20 88 21 89 22 90
REMARK H PARENT 82 23 48 34 22 91
REMARK Flexibility Score: inf
ROOT
ATOM      1  C   UNL     1       3.412  -0.636  -1.835  1.00  0.00     0.275 C 
ENDROOT
BRANCH   1   2
ATOM      2  C   UNL     1       3.651  -1.445  -0.562  1.00  0.00     0.275 C 
BRANCH   2   3
ATOM      3  O   UNL     1       2.558  -1.319   0.372  1.00  0.00    -0.458 OA
BRANCH   3   4
ATOM      4  C   UNL     1       2.232  -0.352   1.261  1.00  0.00     0.338 C 
ATOM      5  O   UNL     1       1.140  -0.455   1.825  1.00  0.00    -0.246 OA
BRANCH   4   6
ATOM      6  C   UNL     1       3.075   0.843   1.617  1.00  0.00     0.060 A 
ATOM      7  C   UNL     1       4.345   1.142   1.126  1.00  0.00     0.016 A 
ATOM      8  C   UNL     1       2.511   1.769   2.519  1.00  0.00     0.016 A 
ATOM      9  C   UNL     1       5.022   2.311   1.486  1.00  0.00     0.010 A 
ATOM     10  C   UNL     1       3.174   2.955   2.871  1.00  0.00     0.010 A 
ATOM     11  C   UNL     1       4.448   3.225   2.364  1.00  0.00    -0.014 A 
BRANCH  11  12
ATOM     12  C   UNL     1       5.280   4.330   2.898  1.00  0.00     0.031 A 
ATOM     13  C   UNL     1       5.834   4.171   4.280  1.00  0.00     0.074 A 
ATOM     14  C   UNL     1       5.641   5.387   2.146  1.00  0.00     0.049 A 
ATOM     15  N   UNL     1       6.594   4.982   4.963  1.00  0.00    -0.248 NA
ATOM     16  C   UNL     1       5.524   2.905   4.966  1.00  0.00     0.031 C 
ATOM     17  C   UNL     1       5.319   5.549   0.736  1.00  0.00     0.029 A 
ATOM     18  N   UNL     1       6.362   6.515   2.442  1.00  0.00    -0.354 N 
ATOM     19  C   UNL     1       6.856   4.324   6.156  1.00  0.00     0.074 A 
ATOM     20  C   UNL     1       6.145   3.066   6.122  1.00  0.00     0.031 C 
ATOM     21  C   UNL     1       5.775   6.732   0.296  1.00  0.00     0.029 A 
ATOM     22  C   UNL     1       6.443   7.410   1.398  1.00  0.00     0.049 A 
ATOM     23  H   UNL     1       6.783   6.670   3.319  1.00  0.00     0.167 HD
ATOM     24  C   UNL     1       7.640   4.727   7.180  1.00  0.00     0.037 A 
ATOM     25  C   UNL     1       6.999   8.636   1.339  1.00  0.00     0.037 A 
ATOM     26  C   UNL     1       8.338   5.982   7.200  1.00  0.00     0.049 A 
ATOM     27  C   UNL     1       7.750   9.128   2.545  1.00  0.00     0.074 A 
ATOM     28  C   UNL     1       9.121   6.518   8.204  1.00  0.00     0.029 A 
ATOM     29  N   UNL     1       8.328   6.904   6.160  1.00  0.00    -0.354 N 
ATOM     30  N   UNL     1       7.961   8.511   3.684  1.00  0.00    -0.248 NA
ATOM     31  C   UNL     1       8.363  10.459   2.455  1.00  0.00     0.031 C 
ATOM     32  C   UNL     1       9.550   7.783   7.789  1.00  0.00     0.029 A 
ATOM     33  C   UNL     1       9.077   8.014   6.505  1.00  0.00     0.049 A 
ATOM     34  H   UNL     1       7.857   6.784   5.304  1.00  0.00     0.167 HD
ATOM     35  C   UNL     1       8.778   9.354   4.427  1.00  0.00     0.074 A 
ATOM     36  C   UNL     1       9.011  10.530   3.610  1.00  0.00     0.031 C 
ATOM     37  C   UNL     1       9.303   9.164   5.663  1.00  0.00     0.037 A 
BRANCH  24  38
ATOM     38  C   UNL     1       7.705   3.814   8.368  1.00  0.00     0.058 A 
ATOM     39  C   UNL     1       8.383   2.584   8.325  1.00  0.00     0.135 A 
ATOM     40  C   UNL     1       7.004   4.138   9.539  1.00  0.00     0.135 A 
ATOM     41  F   UNL     1       9.038   2.211   7.213  1.00  0.00    -0.206 F 
ATOM     42  C   UNL     1       8.322   1.686   9.385  1.00  0.00     0.059 A 
ATOM     43  C   UNL     1       6.951   3.267  10.621  1.00  0.00     0.059 A 
ATOM     44  F   UNL     1       6.328   5.295   9.624  1.00  0.00    -0.206 F 
ATOM     45  C   UNL     1       7.593   2.033  10.524  1.00  0.00     0.060 A 
BRANCH  45  46
ATOM     46  S   UNL     1       7.474   0.839  11.872  1.00  0.00     0.124 S 
ATOM     47  O   UNL     1       6.526  -0.125  11.322  1.00  0.00    -0.237 OA
ATOM     48  O   UNL     1       8.850   0.372  12.000  1.00  0.00    -0.237 OA
ATOM     49  O   UNL     1       6.980   1.638  12.989  1.00  0.00    -0.744 OA
ENDBRANCH  45  46
ENDBRANCH  24  38
BRANCH  25  50
ATOM     50  C   UNL     1       6.896   9.458   0.101  1.00  0.00     0.058 A 
ATOM     51  C   UNL     1       8.018   9.721  -0.698  1.00  0.00     0.135 A 
ATOM     52  C   UNL     1       5.667  10.002  -0.308  1.00  0.00     0.135 A 
ATOM     53  F   UNL     1       9.217   9.226  -0.354  1.00  0.00    -0.206 F 
ATOM     54  C   UNL     1       7.933  10.509  -1.844  1.00  0.00     0.059 A 
ATOM     55  C   UNL     1       5.552  10.777  -1.460  1.00  0.00     0.059 A 
ATOM     56  F   UNL     1       4.557   9.770   0.410  1.00  0.00    -0.206 F 
ATOM     57  C   UNL     1       6.694  11.033  -2.217  1.00  0.00     0.060 A 
BRANCH  57  58
ATOM     58  S   UNL     1       6.593  12.026  -3.724  1.00  0.00     0.124 S 
ATOM     59  O   UNL     1       7.299  13.239  -3.325  1.00  0.00    -0.237 OA
ATOM     60  O   UNL     1       7.279  11.177  -4.693  1.00  0.00    -0.237 OA
ATOM     61  O   UNL     1       5.156  12.173  -3.934  1.00  0.00    -0.744 OA
ENDBRANCH  57  58
ENDBRANCH  25  50
BRANCH  37  62
ATOM     62  C   UNL     1      10.228  10.224   6.182  1.00  0.00     0.058 A 
ATOM     63  C   UNL     1       9.756  11.469   6.623  1.00  0.00     0.135 A 
ATOM     64  C   UNL     1      11.604   9.964   6.287  1.00  0.00     0.135 A 
ATOM     65  F   UNL     1       8.450  11.766   6.535  1.00  0.00    -0.206 F 
ATOM     66  C   UNL     1      10.621  12.430   7.132  1.00  0.00     0.059 A 
ATOM     67  C   UNL     1      12.483  10.899   6.818  1.00  0.00     0.059 A 
ATOM     68  F   UNL     1      12.102   8.783   5.887  1.00  0.00    -0.206 F 
ATOM     69  C   UNL     1      11.983  12.135   7.227  1.00  0.00     0.060 A 
BRANCH  69  70
ATOM     70  S   UNL     1      13.092  13.376   7.923  1.00  0.00     0.124 S 
ATOM     71  O   UNL     1      13.213  14.315   6.813  1.00  0.00    -0.237 OA
ATOM     72  O   UNL     1      12.341  13.854   9.080  1.00  0.00    -0.237 OA
ATOM     73  O   UNL     1      14.297  12.614   8.238  1.00  0.00    -0.744 OA
ENDBRANCH  69  70
ENDBRANCH  37  62
ENDBRANCH  11  12
ENDBRANCH   4   6
ENDBRANCH   3   4
ENDBRANCH   2   3
ENDBRANCH   1   2
BRANCH   1  74
ATOM     74  O   UNL     1       3.222   0.746  -1.506  1.00  0.00    -0.458 OA
BRANCH  74  75
ATOM     75  C   UNL     1       2.119   1.358  -1.993  1.00  0.00     0.342 C 
ATOM     76  O   UNL     1       1.262   0.880  -2.703  1.00  0.00    -0.246 OA
BRANCH  75  77
ATOM     77  C   UNL     1       2.020   2.676  -1.344  1.00  0.00     0.102 A 
ATOM     78  C   UNL     1       0.984   2.762  -0.383  1.00  0.00     0.028 A 
ATOM     79  C   UNL     1       2.828   3.780  -1.607  1.00  0.00     0.134 A 
ATOM     80  C   UNL     1       0.790   3.920   0.391  1.00  0.00    -0.017 A 
ATOM     81  C   UNL     1       2.527   4.974  -0.921  1.00  0.00     0.056 A 
ATOM     82  C   UNL     1      -0.127   3.971   1.457  1.00  0.00     0.009 A 
ATOM     83  C   UNL     1       1.581   5.046   0.115  1.00  0.00    -0.015 A 
ATOM     84  C   UNL     1      -0.228   5.111   2.259  1.00  0.00     0.001 A 
ATOM     85  C   UNL     1       1.450   6.197   0.911  1.00  0.00     0.009 A 
ATOM     86  C   UNL     1       0.562   6.223   1.987  1.00  0.00     0.001 A 
BRANCH  79  87
ATOM     87  O   UNL     1       3.887   3.963  -2.442  1.00  0.00    -0.490 OA
BRANCH  87  88
ATOM     88  C   UNL     1       4.699   2.938  -3.011  1.00  0.00     0.257 C 
BRANCH  88  89
ATOM     89  C   UNL     1       6.014   2.737  -2.242  1.00  0.00     0.197 C 
BRANCH  89  90
ATOM     90  O   UNL     1       6.078   1.454  -1.616  1.00  0.00    -0.393 OA
ATOM     91  H   UNL     1       5.355   1.370  -0.975  1.00  0.00     0.210 HD
ENDBRANCH  89  90
ENDBRANCH  88  89
ENDBRANCH  87  88
ENDBRANCH  79  87
ENDBRANCH  75  77
ENDBRANCH  74  75
ENDBRANCH   1  74
TORSDOF 18
