REMARK SMILES CCOc1ccc(-c2ccc(=O)n(CC(=O)OCCOC(=O)c3ccc(-c4c5nc(c(-c6c(F)cc(S(=O)(=O)[O-])cc6F)c6ccc([nH]6)c(-c6c(F)cc(S(=O)(=O)[O-])cc6F)c6nc(c(-c7c(F)cc(S(=O)(=O)[O-])cc7F)c7ccc4[nH]7)C=C6)C=C5)cc3)n2)cc1
REMARK SMILES IDX 18 1 17 2 15 3 16 4 14 5 13 6 8 7 9 8 89 9 10 10 11 11 12 12
REMARK SMILES IDX 7 13 4 14 5 15 91 16 6 17 90 18 3 19 2 20 1 21 19 22 20 23
REMARK SMILES IDX 21 24 22 25 23 26 24 27 88 28 25 29 87 30 26 31 27 32 28 33
REMARK SMILES IDX 81 34 29 35 86 36 80 37 82 38 30 39 85 40 79 41 78 42 31 44
REMARK SMILES IDX 65 45 44 46 64 47 45 48 48 49 63 50 83 51 46 52 47 53 62 55
REMARK SMILES IDX 84 56 49 57 32 58 33 59 42 60 34 61 35 62 41 63 43 64 36 65
REMARK SMILES IDX 37 66 38 67 39 68 40 69 66 70 67 71 76 72 68 73 69 74 75 75
REMARK SMILES IDX 77 76 70 77 71 78 72 79 73 80 74 81 50 82 51 83 60 84 52 85
REMARK SMILES IDX 53 86 59 87 61 88 54 89 55 90 56 91 57 92 58 93
REMARK H PARENT 82 43 48 54
REMARK Flexibility Score: inf
ROOT
ATOM      1  C   UNL     1       9.585   3.753   6.721  1.00  0.00     0.274 C 
ENDROOT
BRANCH   1   2
ATOM      2  O   UNL     1       8.984   3.247   5.514  1.00  0.00    -0.461 OA
BRANCH   2   3
ATOM      3  C   UNL     1       9.140   4.017   4.402  1.00  0.00     0.328 C 
ATOM      4  O   UNL     1       9.650   5.133   4.396  1.00  0.00    -0.250 OA
BRANCH   3   5
ATOM      5  C   UNL     1       8.576   3.385   3.139  1.00  0.00     0.270 C 
BRANCH   5   6
ATOM      6  N   UNL     1       8.115   2.012   3.291  1.00  0.00    -0.218 N 
ATOM      7  C   UNL     1       6.324   0.613   3.342  1.00  0.00     0.091 A 
ATOM      8  C   UNL     1       7.160  -0.587   3.521  1.00  0.00     0.036 A 
ATOM      9  N   UNL     1       6.758   1.831   3.285  1.00  0.00    -0.169 NA
ATOM     10  C   UNL     1       8.477  -0.389   3.445  1.00  0.00     0.075 A 
ATOM     11  C   UNL     1       9.023   0.967   3.230  1.00  0.00     0.267 A 
ATOM     12  O   UNL     1      10.222   1.100   3.013  1.00  0.00    -0.268 OA
BRANCH   7  13
ATOM     13  C   UNL     1       4.894   0.393   3.088  1.00  0.00     0.002 A 
ATOM     14  C   UNL     1       2.208   0.146   2.472  1.00  0.00     0.119 A 
ATOM     15  C   UNL     1       2.680  -0.300   3.710  1.00  0.00     0.047 A 
ATOM     16  C   UNL     1       3.066   0.753   1.559  1.00  0.00     0.047 A 
ATOM     17  C   UNL     1       4.037  -0.187   4.024  1.00  0.00     0.014 A 
ATOM     18  C   UNL     1       4.415   0.865   1.862  1.00  0.00     0.014 A 
BRANCH  14  19
ATOM     19  O   UNL     1       0.867   0.078   2.216  1.00  0.00    -0.494 OA
BRANCH  19  20
ATOM     20  C   UNL     1       0.549  -0.912   1.230  1.00  0.00     0.226 C 
ATOM     21  C   UNL     1       0.509  -0.329  -0.175  1.00  0.00     0.049 C 
ENDBRANCH  19  20
ENDBRANCH  14  19
ENDBRANCH   7  13
ENDBRANCH   5   6
ENDBRANCH   3   5
ENDBRANCH   2   3
ENDBRANCH   1   2
BRANCH   1  22
ATOM     22  C   UNL     1      10.846   2.959   7.038  1.00  0.00     0.275 C 
BRANCH  22  23
ATOM     23  O   UNL     1      11.754   3.060   5.930  1.00  0.00    -0.458 OA
BRANCH  23  24
ATOM     24  C   UNL     1      12.159   1.882   5.397  1.00  0.00     0.338 C 
ATOM     25  O   UNL     1      11.911   0.762   5.810  1.00  0.00    -0.246 OA
BRANCH  24  26
ATOM     26  C   UNL     1      13.047   2.161   4.256  1.00  0.00     0.060 A 
ATOM     27  C   UNL     1      12.573   2.843   3.133  1.00  0.00     0.016 A 
ATOM     28  C   UNL     1      14.348   1.660   4.279  1.00  0.00     0.016 A 
ATOM     29  C   UNL     1      13.370   2.954   1.996  1.00  0.00     0.010 A 
ATOM     30  C   UNL     1      15.175   1.848   3.170  1.00  0.00     0.010 A 
ATOM     31  C   UNL     1      14.684   2.468   2.007  1.00  0.00    -0.014 A 
BRANCH  31  32
ATOM     32  C   UNL     1      15.547   2.581   0.804  1.00  0.00     0.031 A 
ATOM     33  C   UNL     1      16.040   1.338   0.114  1.00  0.00     0.074 A 
ATOM     34  C   UNL     1      15.909   3.795   0.347  1.00  0.00     0.049 A 
ATOM     35  N   UNL     1      16.937   1.218  -0.831  1.00  0.00    -0.248 NA
ATOM     36  C   UNL     1      15.456   0.060   0.553  1.00  0.00     0.031 C 
ATOM     37  C   UNL     1      15.470   5.076   0.905  1.00  0.00     0.029 A 
ATOM     38  N   UNL     1      16.740   4.150  -0.685  1.00  0.00    -0.354 N 
ATOM     39  C   UNL     1      17.058  -0.146  -1.069  1.00  0.00     0.074 A 
ATOM     40  C   UNL     1      16.147  -0.815  -0.164  1.00  0.00     0.031 C 
ATOM     41  C   UNL     1      16.026   6.075   0.202  1.00  0.00     0.029 A 
ATOM     42  C   UNL     1      16.910   5.508  -0.810  1.00  0.00     0.049 A 
ATOM     43  H   UNL     1      17.173   3.495  -1.280  1.00  0.00     0.167 HD
ATOM     44  C   UNL     1      17.857  -0.780  -1.960  1.00  0.00     0.037 A 
ATOM     45  C   UNL     1      17.716   6.218  -1.623  1.00  0.00     0.037 A 
ATOM     46  C   UNL     1      18.730  -0.105  -2.886  1.00  0.00     0.049 A 
ATOM     47  C   UNL     1      18.615   5.492  -2.583  1.00  0.00     0.074 A 
ATOM     48  C   UNL     1      19.559  -0.657  -3.847  1.00  0.00     0.029 A 
ATOM     49  N   UNL     1      18.880   1.271  -2.973  1.00  0.00    -0.354 N 
ATOM     50  N   UNL     1      18.741   4.201  -2.777  1.00  0.00    -0.248 NA
ATOM     51  C   UNL     1      19.491   6.318  -3.425  1.00  0.00     0.031 C 
ATOM     52  C   UNL     1      20.234   0.385  -4.495  1.00  0.00     0.029 A 
ATOM     53  C   UNL     1      19.797   1.587  -3.962  1.00  0.00     0.049 A 
ATOM     54  H   UNL     1      18.404   1.927  -2.414  1.00  0.00     0.167 HD
ATOM     55  C   UNL     1      19.698   4.059  -3.774  1.00  0.00     0.074 A 
ATOM     56  C   UNL     1      20.110   5.396  -4.151  1.00  0.00     0.031 C 
ATOM     57  C   UNL     1      20.192   2.924  -4.327  1.00  0.00     0.037 A 
BRANCH  44  58
ATOM     58  C   UNL     1      17.846  -2.283  -1.961  1.00  0.00     0.058 A 
ATOM     59  C   UNL     1      16.775  -3.017  -2.494  1.00  0.00     0.135 A 
ATOM     60  C   UNL     1      18.941  -2.999  -1.450  1.00  0.00     0.135 A 
ATOM     61  F   UNL     1      15.697  -2.383  -2.980  1.00  0.00    -0.206 F 
ATOM     62  C   UNL     1      16.780  -4.409  -2.499  1.00  0.00     0.059 A 
ATOM     63  C   UNL     1      18.977  -4.391  -1.465  1.00  0.00     0.059 A 
ATOM     64  F   UNL     1      19.992  -2.346  -0.929  1.00  0.00    -0.206 F 
ATOM     65  C   UNL     1      17.884  -5.087  -1.979  1.00  0.00     0.060 A 
BRANCH  65  66
ATOM     66  S   UNL     1      17.880  -6.893  -1.994  1.00  0.00     0.124 S 
ATOM     67  O   UNL     1      16.971  -7.191  -0.891  1.00  0.00    -0.237 OA
ATOM     68  O   UNL     1      17.374  -7.196  -3.329  1.00  0.00    -0.237 OA
ATOM     69  O   UNL     1      19.279  -7.238  -1.765  1.00  0.00    -0.744 OA
ENDBRANCH  65  66
ENDBRANCH  44  58
BRANCH  45  70
ATOM     70  C   UNL     1      17.722   7.702  -1.541  1.00  0.00     0.058 A 
ATOM     71  C   UNL     1      17.155   8.480  -2.561  1.00  0.00     0.135 A 
ATOM     72  C   UNL     1      18.266   8.368  -0.433  1.00  0.00     0.135 A 
ATOM     73  F   UNL     1      16.631   7.886  -3.644  1.00  0.00    -0.206 F 
ATOM     74  C   UNL     1      17.133   9.868  -2.489  1.00  0.00     0.059 A 
ATOM     75  C   UNL     1      18.235   9.755  -0.327  1.00  0.00     0.059 A 
ATOM     76  F   UNL     1      18.809   7.667   0.575  1.00  0.00    -0.206 F 
ATOM     77  C   UNL     1      17.673  10.497  -1.365  1.00  0.00     0.060 A 
BRANCH  77  78
ATOM     78  S   UNL     1      17.587  12.297  -1.250  1.00  0.00     0.124 S 
ATOM     79  O   UNL     1      18.655  12.700  -2.156  1.00  0.00    -0.237 OA
ATOM     80  O   UNL     1      16.227  12.572  -1.704  1.00  0.00    -0.237 OA
ATOM     81  O   UNL     1      17.828  12.553   0.167  1.00  0.00    -0.744 OA
ENDBRANCH  77  78
ENDBRANCH  45  70
BRANCH  57  82
ATOM     82  C   UNL     1      21.212   3.080  -5.418  1.00  0.00     0.058 A 
ATOM     83  C   UNL     1      22.541   3.428  -5.137  1.00  0.00     0.135 A 
ATOM     84  C   UNL     1      20.863   2.838  -6.756  1.00  0.00     0.135 A 
ATOM     85  F   UNL     1      22.922   3.678  -3.874  1.00  0.00    -0.206 F 
ATOM     86  C   UNL     1      23.488   3.548  -6.149  1.00  0.00     0.059 A 
ATOM     87  C   UNL     1      21.798   2.932  -7.781  1.00  0.00     0.059 A 
ATOM     88  F   UNL     1      19.605   2.494  -7.075  1.00  0.00    -0.206 F 
ATOM     89  C   UNL     1      23.107   3.299  -7.469  1.00  0.00     0.060 A 
BRANCH  89  90
ATOM     90  S   UNL     1      24.350   3.426  -8.772  1.00  0.00     0.124 S 
ATOM     91  O   UNL     1      24.453   4.872  -8.938  1.00  0.00    -0.237 OA
ATOM     92  O   UNL     1      25.508   2.773  -8.169  1.00  0.00    -0.237 OA
ATOM     93  O   UNL     1      23.744   2.707  -9.889  1.00  0.00    -0.744 OA
ENDBRANCH  89  90
ENDBRANCH  57  82
ENDBRANCH  31  32
ENDBRANCH  24  26
ENDBRANCH  23  24
ENDBRANCH  22  23
ENDBRANCH   1  22
TORSDOF 18
