REMARK SMILES Cc1cccc(S(=O)(=O)Nc2cc(C(=O)OCCOC(=O)c3ccc(-c4c5nc(c(-c6c(F)cc(S(=O)(=O)[O-])cc6F)c6ccc([nH]6)c(-c6c(F)cc(S(=O)(=O)[O-])cc6F)c6nc(c(-c7c(F)cc(S(=O)(=O)[O-])cc7F)c7ccc4[nH]7)C=C6)C=C5)cc3)ccc2N2CCC[C@H](C[NH+]3CCCC3)C2)c1
REMARK SMILES IDX 17 1 16 2 14 3 15 4 13 5 11 6 12 7 90 8 89 9 88 10 10 11
REMARK SMILES IDX 7 13 8 14 9 15 6 16 1 17 2 18 3 19 103 20 4 21 5 22 91 23
REMARK SMILES IDX 92 24 102 25 93 26 95 27 94 28 96 29 97 30 98 31 101 32
REMARK SMILES IDX 99 34 100 35 18 36 19 37 20 38 21 39 22 40 23 41 87 42 24 43
REMARK SMILES IDX 86 44 25 45 26 46 27 47 80 48 28 49 85 50 79 51 81 52 29 53
REMARK SMILES IDX 84 54 78 55 77 56 30 58 64 59 43 60 63 61 44 62 47 63 62 64
REMARK SMILES IDX 82 65 45 66 46 67 61 69 83 70 48 71 31 72 32 73 41 74 33 75
REMARK SMILES IDX 34 76 40 77 42 78 35 79 36 80 37 81 38 82 39 83 65 84 66 85
REMARK SMILES IDX 75 86 67 87 68 88 74 89 76 90 69 91 70 92 71 93 72 94 73 95
REMARK SMILES IDX 49 96 50 97 59 98 51 99 52 100 58 101 60 102 53 103 54 104
REMARK SMILES IDX 55 105 56 106 57 107
REMARK H PARENT 10 12 97 33 81 57 47 68
REMARK Flexibility Score: inf
ROOT
ATOM      1  C   UNL     1       2.062   1.451  -4.797  1.00  0.00     0.275 C 
ENDROOT
BRANCH   1   2
ATOM      2  O   UNL     1       1.809   2.709  -4.151  1.00  0.00    -0.458 OA
BRANCH   2   3
ATOM      3  C   UNL     1       1.593   2.548  -2.835  1.00  0.00     0.338 C 
ATOM      4  O   UNL     1       1.508   1.473  -2.255  1.00  0.00    -0.246 OA
BRANCH   3   5
ATOM      5  C   UNL     1       1.264   3.750  -2.075  1.00  0.00     0.062 A 
ATOM      6  C   UNL     1      -0.213   4.043  -0.183  1.00  0.00     0.073 A 
ATOM      7  C   UNL     1       0.023   3.596  -1.475  1.00  0.00     0.044 A 
ATOM      8  C   UNL     1       0.729   4.926   0.437  1.00  0.00     0.061 A 
ATOM      9  C   UNL     1       1.949   5.142  -0.264  1.00  0.00     0.029 A 
ATOM     10  C   UNL     1       2.233   4.548  -1.494  1.00  0.00     0.018 A 
BRANCH   6  11
ATOM     11  N   UNL     1      -1.236   3.345   0.551  1.00  0.00    -0.277 N 
ATOM     12  H   UNL     1      -1.189   3.387   1.533  1.00  0.00     0.180 HD
BRANCH  11  13
ATOM     13  S   UNL     1      -2.507   2.462  -0.120  1.00  0.00     0.261 S 
ATOM     14  O   UNL     1      -3.004   3.194  -1.269  1.00  0.00    -0.201 OA
ATOM     15  O   UNL     1      -3.381   2.257   1.022  1.00  0.00    -0.201 OA
BRANCH  13  16
ATOM     16  C   UNL     1      -2.104   0.807  -0.703  1.00  0.00     0.088 A 
ATOM     17  C   UNL     1       0.564  -1.794  -1.685  1.00  0.00     0.044 C 
ATOM     18  C   UNL     1      -0.733  -1.087  -1.427  1.00  0.00    -0.050 A 
ATOM     19  C   UNL     1      -1.877  -1.828  -1.717  1.00  0.00     0.003 A 
ATOM     20  C   UNL     1      -0.844   0.237  -0.902  1.00  0.00     0.025 A 
ATOM     21  C   UNL     1      -3.124  -1.266  -1.526  1.00  0.00     0.002 A 
ATOM     22  C   UNL     1      -3.234   0.036  -1.033  1.00  0.00     0.022 A 
ENDBRANCH  13  16
ENDBRANCH  11  13
ENDBRANCH   6  11
BRANCH   8  23
ATOM     23  N   UNL     1       0.603   5.595   1.667  1.00  0.00    -0.369 N 
ATOM     24  C   UNL     1       0.864   7.050   1.633  1.00  0.00     0.116 C 
ATOM     25  C   UNL     1      -0.212   5.123   2.785  1.00  0.00     0.126 C 
ATOM     26  C   UNL     1       1.472   7.516   2.951  1.00  0.00     0.022 C 
ATOM     27  C   UNL     1       0.320   5.617   4.154  1.00  0.00     0.064 C 
ATOM     28  C   UNL     1       0.553   7.134   4.102  1.00  0.00     0.013 C 
BRANCH  27  29
ATOM     29  C   UNL     1       1.552   4.773   4.580  1.00  0.00     0.267 C 
BRANCH  29  30
ATOM     30  N   UNL     1       2.047   4.845   5.960  1.00  0.00    -0.335 N 
ATOM     31  C   UNL     1       1.077   4.534   7.004  1.00  0.00     0.262 C 
ATOM     32  C   UNL     1       2.757   6.056   6.352  1.00  0.00     0.262 C 
ATOM     33  H   UNL     1       2.731   4.090   5.900  1.00  0.00     0.348 HD
ATOM     34  C   UNL     1       0.660   5.882   7.557  1.00  0.00     0.067 C 
ATOM     35  C   UNL     1       1.915   6.729   7.433  1.00  0.00     0.067 C 
ENDBRANCH  29  30
ENDBRANCH  27  29
ENDBRANCH   8  23
ENDBRANCH   3   5
ENDBRANCH   2   3
ENDBRANCH   1   2
BRANCH   1  36
ATOM     36  C   UNL     1       3.374   1.487  -5.582  1.00  0.00     0.275 C 
BRANCH  36  37
ATOM     37  O   UNL     1       4.615   1.640  -4.848  1.00  0.00    -0.458 OA
BRANCH  37  38
ATOM     38  C   UNL     1       4.651   2.416  -3.721  1.00  0.00     0.338 C 
ATOM     39  O   UNL     1       4.517   3.621  -3.725  1.00  0.00    -0.246 OA
BRANCH  38  40
ATOM     40  C   UNL     1       4.567   1.527  -2.515  1.00  0.00     0.060 A 
ATOM     41  C   UNL     1       4.397   2.032  -1.207  1.00  0.00     0.016 A 
ATOM     42  C   UNL     1       4.353   0.181  -2.753  1.00  0.00     0.016 A 
ATOM     43  C   UNL     1       3.924   1.215  -0.158  1.00  0.00     0.010 A 
ATOM     44  C   UNL     1       3.746  -0.565  -1.781  1.00  0.00     0.010 A 
ATOM     45  C   UNL     1       3.574  -0.095  -0.452  1.00  0.00    -0.014 A 
BRANCH  45  46
ATOM     46  C   UNL     1       3.280  -1.198   0.487  1.00  0.00     0.031 A 
ATOM     47  C   UNL     1       1.964  -1.491   1.133  1.00  0.00     0.074 A 
ATOM     48  C   UNL     1       4.204  -2.174   0.285  1.00  0.00     0.049 A 
ATOM     49  N   UNL     1       1.553  -2.707   1.252  1.00  0.00    -0.248 NA
ATOM     50  C   UNL     1       0.942  -0.547   1.603  1.00  0.00     0.031 C 
ATOM     51  C   UNL     1       4.187  -3.611   0.477  1.00  0.00     0.029 A 
ATOM     52  N   UNL     1       5.534  -1.938  -0.106  1.00  0.00    -0.354 N 
ATOM     53  C   UNL     1       0.250  -2.738   1.708  1.00  0.00     0.074 A 
ATOM     54  C   UNL     1      -0.122  -1.353   1.842  1.00  0.00     0.031 C 
ATOM     55  C   UNL     1       5.459  -4.032   0.632  1.00  0.00     0.029 A 
ATOM     56  C   UNL     1       6.298  -2.839   0.632  1.00  0.00     0.049 A 
ATOM     57  H   UNL     1       5.856  -1.278  -0.762  1.00  0.00     0.167 HD
ATOM     58  C   UNL     1      -0.282  -3.980   1.916  1.00  0.00     0.037 A 
ATOM     59  C   UNL     1       6.931  -2.283   1.710  1.00  0.00     0.037 A 
ATOM     60  C   UNL     1       0.835  -4.829   2.315  1.00  0.00     0.049 A 
ATOM     61  C   UNL     1       6.268  -2.782   2.981  1.00  0.00     0.074 A 
ATOM     62  C   UNL     1       1.614  -5.802   1.724  1.00  0.00     0.029 A 
ATOM     63  N   UNL     1       1.497  -4.425   3.464  1.00  0.00    -0.354 N 
ATOM     64  N   UNL     1       5.001  -3.102   3.094  1.00  0.00    -0.248 NA
ATOM     65  C   UNL     1       7.048  -3.180   4.145  1.00  0.00     0.031 C 
ATOM     66  C   UNL     1       2.841  -5.847   2.463  1.00  0.00     0.029 A 
ATOM     67  C   UNL     1       2.782  -4.908   3.487  1.00  0.00     0.049 A 
ATOM     68  H   UNL     1       1.098  -3.865   4.169  1.00  0.00     0.167 HD
ATOM     69  C   UNL     1       4.819  -3.843   4.234  1.00  0.00     0.074 A 
ATOM     70  C   UNL     1       6.124  -3.832   4.871  1.00  0.00     0.031 C 
ATOM     71  C   UNL     1       3.663  -4.498   4.571  1.00  0.00     0.037 A 
BRANCH  58  72
ATOM     72  C   UNL     1      -1.694  -4.522   1.821  1.00  0.00     0.058 A 
ATOM     73  C   UNL     1      -1.917  -5.916   1.987  1.00  0.00     0.135 A 
ATOM     74  C   UNL     1      -2.818  -3.804   1.375  1.00  0.00     0.135 A 
ATOM     75  F   UNL     1      -0.952  -6.731   2.438  1.00  0.00    -0.206 F 
ATOM     76  C   UNL     1      -3.118  -6.554   1.668  1.00  0.00     0.059 A 
ATOM     77  C   UNL     1      -4.043  -4.427   1.048  1.00  0.00     0.059 A 
ATOM     78  F   UNL     1      -2.758  -2.474   1.228  1.00  0.00    -0.206 F 
ATOM     79  C   UNL     1      -4.175  -5.808   1.177  1.00  0.00     0.060 A 
BRANCH  79  80
ATOM     80  S   UNL     1      -5.681  -6.691   0.699  1.00  0.00     0.124 S 
ATOM     81  O   UNL     1      -5.191  -7.606  -0.328  1.00  0.00    -0.237 OA
ATOM     82  O   UNL     1      -6.087  -7.315   1.955  1.00  0.00    -0.237 OA
ATOM     83  O   UNL     1      -6.562  -5.632   0.215  1.00  0.00    -0.744 OA
ENDBRANCH  79  80
ENDBRANCH  58  72
BRANCH  59  84
ATOM     84  C   UNL     1       7.492  -0.916   1.353  1.00  0.00     0.058 A 
ATOM     85  C   UNL     1       8.373  -0.878   0.236  1.00  0.00     0.135 A 
ATOM     86  C   UNL     1       6.922   0.315   1.717  1.00  0.00     0.135 A 
ATOM     87  F   UNL     1       8.951  -2.014  -0.192  1.00  0.00    -0.206 F 
ATOM     88  C   UNL     1       8.559   0.259  -0.551  1.00  0.00     0.059 A 
ATOM     89  C   UNL     1       7.138   1.490   0.961  1.00  0.00     0.059 A 
ATOM     90  F   UNL     1       6.063   0.385   2.744  1.00  0.00    -0.206 F 
ATOM     91  C   UNL     1       7.916   1.438  -0.200  1.00  0.00     0.060 A 
BRANCH  91  92
ATOM     92  S   UNL     1       8.016   2.830  -1.364  1.00  0.00     0.124 S 
ATOM     93  O   UNL     1       9.418   3.216  -1.255  1.00  0.00    -0.237 OA
ATOM     94  O   UNL     1       7.637   2.199  -2.627  1.00  0.00    -0.237 OA
ATOM     95  O   UNL     1       7.058   3.794  -0.833  1.00  0.00    -0.744 OA
ENDBRANCH  91  92
ENDBRANCH  59  84
BRANCH  71  96
ATOM     96  C   UNL     1       3.264  -4.834   5.997  1.00  0.00     0.058 A 
ATOM     97  C   UNL     1       3.856  -4.237   7.123  1.00  0.00     0.135 A 
ATOM     98  C   UNL     1       2.129  -5.643   6.277  1.00  0.00     0.135 A 
ATOM     99  F   UNL     1       4.824  -3.318   7.012  1.00  0.00    -0.206 F 
ATOM    100  C   UNL     1       3.448  -4.518   8.423  1.00  0.00     0.059 A 
ATOM    101  C   UNL     1       1.646  -5.861   7.563  1.00  0.00     0.059 A 
ATOM    102  F   UNL     1       1.420  -6.238   5.306  1.00  0.00    -0.206 F 
ATOM    103  C   UNL     1       2.346  -5.336   8.634  1.00  0.00     0.060 A 
BRANCH 103 104
ATOM    104  S   UNL     1       1.834  -5.688  10.319  1.00  0.00     0.124 S 
ATOM    105  O   UNL     1       2.760  -6.758  10.678  1.00  0.00    -0.237 OA
ATOM    106  O   UNL     1       2.054  -4.411  10.991  1.00  0.00    -0.237 OA
ATOM    107  O   UNL     1       0.437  -6.080  10.174  1.00  0.00    -0.744 OA
ENDBRANCH 103 104
ENDBRANCH  71  96
ENDBRANCH  45  46
ENDBRANCH  38  40
ENDBRANCH  37  38
ENDBRANCH  36  37
ENDBRANCH   1  36
TORSDOF 20
