REMARK SMILES CC(C)c1cccc2c1N[C@H](c1ccc(C(=O)OCCOC(=O)c3ccc(-c4c5nc(c(-c6c(F)cc(S(=O)(=O)[O-])cc6F)c6ccc([nH]6)c(-c6c(F)cc(S(=O)(=O)[O-])cc6F)c6nc(c(-c7c(F)cc(S(=O)(=O)[O-])cc7F)c7ccc4[nH]7)C=C6)C=C5)cc3)cc1)[C@H]1CC=C[C@H]21
REMARK SMILES IDX 20 1 19 2 18 3 16 4 17 5 15 6 12 7 13 8 91 9 14 10 90 11
REMARK SMILES IDX 11 12 4 13 5 14 9 15 6 16 8 17 10 18 7 19 96 20 92 22 95 23
REMARK SMILES IDX 93 24 94 25 2 26 1 27 3 28 21 29 22 30 23 31 24 32 25 33
REMARK SMILES IDX 89 34 26 35 88 36 27 37 28 38 29 39 82 40 30 41 87 42 81 43
REMARK SMILES IDX 83 44 31 45 86 46 80 47 79 48 32 50 66 51 45 52 65 53 46 54
REMARK SMILES IDX 49 55 64 56 84 57 47 58 48 59 63 61 85 62 50 63 33 64 34 65
REMARK SMILES IDX 43 66 35 67 36 68 42 69 44 70 37 71 38 72 39 73 40 74 41 75
REMARK SMILES IDX 67 76 68 77 77 78 69 79 70 80 76 81 78 82 71 83 72 84 73 85
REMARK SMILES IDX 74 86 75 87 51 88 52 89 61 90 53 91 54 92 60 93 62 94 55 95
REMARK SMILES IDX 56 96 57 97 58 98 59 99
REMARK H PARENT 10 21 83 49 49 60
REMARK Flexibility Score: inf
ROOT
ATOM      1  C   UNL     1       1.814   8.287   4.157  1.00  0.00     0.275 C 
ENDROOT
BRANCH   1   2
ATOM      2  C   UNL     1       0.812   9.115   3.348  1.00  0.00     0.275 C 
BRANCH   2   3
ATOM      3  O   UNL     1       0.058   8.259   2.471  1.00  0.00    -0.458 OA
BRANCH   3   4
ATOM      4  C   UNL     1       0.366   8.297   1.151  1.00  0.00     0.338 C 
ATOM      5  O   UNL     1       1.118   9.090   0.609  1.00  0.00    -0.246 OA
BRANCH   4   6
ATOM      6  C   UNL     1      -0.286   7.163   0.437  1.00  0.00     0.060 A 
ATOM      7  C   UNL     1      -1.387   4.947  -0.941  1.00  0.00    -0.025 A 
ATOM      8  C   UNL     1      -0.529   5.845  -1.596  1.00  0.00     0.007 A 
ATOM      9  C   UNL     1      -1.643   5.158   0.424  1.00  0.00     0.007 A 
ATOM     10  C   UNL     1       0.008   6.948  -0.917  1.00  0.00     0.016 A 
ATOM     11  C   UNL     1      -1.117   6.259   1.102  1.00  0.00     0.016 A 
BRANCH   7  12
ATOM     12  C   UNL     1      -2.038   3.805  -1.714  1.00  0.00     0.114 C 
ATOM     13  C   UNL     1      -1.048   0.126  -1.440  1.00  0.00    -0.022 A 
ATOM     14  C   UNL     1      -1.702  -1.120  -1.323  1.00  0.00     0.006 A 
ATOM     15  C   UNL     1      -1.832   1.297  -1.579  1.00  0.00     0.042 A 
ATOM     16  C   UNL     1      -3.086  -1.234  -1.422  1.00  0.00     0.001 A 
ATOM     17  C   UNL     1      -3.244   1.153  -1.735  1.00  0.00    -0.017 A 
ATOM     18  N   UNL     1      -1.260   2.573  -1.561  1.00  0.00    -0.377 N 
ATOM     19  C   UNL     1      -3.853  -0.105  -1.661  1.00  0.00     0.006 A 
ATOM     20  C   UNL     1      -4.031   2.386  -2.090  1.00  0.00     0.049 C 
ATOM     21  H   UNL     1      -0.285   2.647  -1.439  1.00  0.00     0.161 HD
ATOM     22  C   UNL     1      -3.471   3.541  -1.269  1.00  0.00     0.031 C 
ATOM     23  C   UNL     1      -5.488   2.536  -1.755  1.00  0.00    -0.023 C 
ATOM     24  C   UNL     1      -4.510   4.646  -1.418  1.00  0.00     0.034 C 
ATOM     25  C   UNL     1      -5.759   3.809  -1.422  1.00  0.00    -0.030 C 
BRANCH  13  26
ATOM     26  C   UNL     1       0.480   0.151  -1.421  1.00  0.00     0.015 C 
ATOM     27  C   UNL     1       1.011   0.009   0.005  1.00  0.00     0.012 C 
ATOM     28  C   UNL     1       1.107  -0.916  -2.334  1.00  0.00     0.012 C 
ENDBRANCH  13  26
ENDBRANCH   7  12
ENDBRANCH   4   6
ENDBRANCH   3   4
ENDBRANCH   2   3
ENDBRANCH   1   2
BRANCH   1  29
ATOM     29  O   UNL     1       2.924   7.881   3.334  1.00  0.00    -0.458 OA
BRANCH  29  30
ATOM     30  C   UNL     1       2.797   6.670   2.738  1.00  0.00     0.338 C 
ATOM     31  O   UNL     1       1.905   5.857   2.910  1.00  0.00    -0.246 OA
BRANCH  30  32
ATOM     32  C   UNL     1       3.827   6.545   1.690  1.00  0.00     0.060 A 
ATOM     33  C   UNL     1       5.183   6.731   1.961  1.00  0.00     0.016 A 
ATOM     34  C   UNL     1       3.404   6.215   0.400  1.00  0.00     0.016 A 
ATOM     35  C   UNL     1       6.112   6.605   0.922  1.00  0.00     0.010 A 
ATOM     36  C   UNL     1       4.327   6.099  -0.637  1.00  0.00     0.010 A 
ATOM     37  C   UNL     1       5.690   6.295  -0.385  1.00  0.00    -0.014 A 
BRANCH  37  38
ATOM     38  C   UNL     1       6.681   6.081  -1.468  1.00  0.00     0.031 A 
ATOM     39  C   UNL     1       6.856   7.079  -2.575  1.00  0.00     0.074 A 
ATOM     40  C   UNL     1       7.405   4.947  -1.460  1.00  0.00     0.049 A 
ATOM     41  N   UNL     1       7.752   7.097  -3.528  1.00  0.00    -0.248 NA
ATOM     42  C   UNL     1       5.889   8.186  -2.638  1.00  0.00     0.031 C 
ATOM     43  C   UNL     1       7.254   3.863  -0.486  1.00  0.00     0.029 A 
ATOM     44  N   UNL     1       8.418   4.521  -2.280  1.00  0.00    -0.354 N 
ATOM     45  C   UNL     1       7.473   8.223  -4.293  1.00  0.00     0.074 A 
ATOM     46  C   UNL     1       6.284   8.828  -3.731  1.00  0.00     0.031 C 
ATOM     47  C   UNL     1       8.179   2.923  -0.731  1.00  0.00     0.029 A 
ATOM     48  C   UNL     1       8.982   3.333  -1.880  1.00  0.00     0.049 A 
ATOM     49  H   UNL     1       8.713   5.018  -3.077  1.00  0.00     0.167 HD
ATOM     50  C   UNL     1       8.165   8.719  -5.348  1.00  0.00     0.037 A 
ATOM     51  C   UNL     1      10.050   2.668  -2.360  1.00  0.00     0.037 A 
ATOM     52  C   UNL     1       9.349   8.107  -5.896  1.00  0.00     0.049 A 
ATOM     53  C   UNL     1      10.826   3.253  -3.507  1.00  0.00     0.074 A 
ATOM     54  C   UNL     1      10.153   8.557  -6.929  1.00  0.00     0.029 A 
ATOM     55  N   UNL     1       9.898   6.910  -5.457  1.00  0.00    -0.354 N 
ATOM     56  N   UNL     1      10.610   4.369  -4.159  1.00  0.00    -0.248 NA
ATOM     57  C   UNL     1      11.996   2.498  -3.975  1.00  0.00     0.031 C 
ATOM     58  C   UNL     1      11.169   7.618  -7.135  1.00  0.00     0.029 A 
ATOM     59  C   UNL     1      11.022   6.601  -6.205  1.00  0.00     0.049 A 
ATOM     60  H   UNL     1       9.540   6.361  -4.723  1.00  0.00     0.167 HD
ATOM     61  C   UNL     1      11.630   4.464  -5.098  1.00  0.00     0.074 A 
ATOM     62  C   UNL     1      12.467   3.294  -4.927  1.00  0.00     0.031 C 
ATOM     63  C   UNL     1      11.851   5.436  -6.016  1.00  0.00     0.037 A 
BRANCH  50  64
ATOM     64  C   UNL     1       7.683  10.007  -5.960  1.00  0.00     0.058 A 
ATOM     65  C   UNL     1       7.818  11.228  -5.278  1.00  0.00     0.135 A 
ATOM     66  C   UNL     1       7.143  10.039  -7.255  1.00  0.00     0.135 A 
ATOM     67  F   UNL     1       8.324  11.255  -4.035  1.00  0.00    -0.206 F 
ATOM     68  C   UNL     1       7.409  12.429  -5.847  1.00  0.00     0.059 A 
ATOM     69  C   UNL     1       6.749  11.234  -7.854  1.00  0.00     0.059 A 
ATOM     70  F   UNL     1       6.997   8.903  -7.956  1.00  0.00    -0.206 F 
ATOM     71  C   UNL     1       6.874  12.422  -7.136  1.00  0.00     0.060 A 
BRANCH  71  72
ATOM     72  S   UNL     1       6.357  13.993  -7.860  1.00  0.00     0.124 S 
ATOM     73  O   UNL     1       5.141  14.276  -7.103  1.00  0.00    -0.237 OA
ATOM     74  O   UNL     1       7.495  14.860  -7.573  1.00  0.00    -0.237 OA
ATOM     75  O   UNL     1       6.157  13.671  -9.269  1.00  0.00    -0.744 OA
ENDBRANCH  71  72
ENDBRANCH  50  64
BRANCH  51  76
ATOM     76  C   UNL     1      10.500   1.429  -1.677  1.00  0.00     0.058 A 
ATOM     77  C   UNL     1      11.631   1.448  -0.848  1.00  0.00     0.135 A 
ATOM     78  C   UNL     1       9.777   0.231  -1.775  1.00  0.00     0.135 A 
ATOM     79  F   UNL     1      12.352   2.572  -0.723  1.00  0.00    -0.206 F 
ATOM     80  C   UNL     1      12.032   0.322  -0.138  1.00  0.00     0.059 A 
ATOM     81  C   UNL     1      10.147  -0.904  -1.060  1.00  0.00     0.059 A 
ATOM     82  F   UNL     1       8.675   0.171  -2.539  1.00  0.00    -0.206 F 
ATOM     83  C   UNL     1      11.278  -0.848  -0.245  1.00  0.00     0.060 A 
BRANCH  83  84
ATOM     84  S   UNL     1      11.765  -2.279   0.744  1.00  0.00     0.124 S 
ATOM     85  O   UNL     1      12.973  -2.716   0.054  1.00  0.00    -0.237 OA
ATOM     86  O   UNL     1      11.962  -1.686   2.063  1.00  0.00    -0.237 OA
ATOM     87  O   UNL     1      10.615  -3.171   0.632  1.00  0.00    -0.744 OA
ENDBRANCH  83  84
ENDBRANCH  51  76
BRANCH  63  88
ATOM     88  C   UNL     1      13.053   5.298  -6.907  1.00  0.00     0.058 A 
ATOM     89  C   UNL     1      13.057   4.414  -7.996  1.00  0.00     0.135 A 
ATOM     90  C   UNL     1      14.165   6.137  -6.736  1.00  0.00     0.135 A 
ATOM     91  F   UNL     1      12.020   3.585  -8.198  1.00  0.00    -0.206 F 
ATOM     92  C   UNL     1      14.121   4.370  -8.890  1.00  0.00     0.059 A 
ATOM     93  C   UNL     1      15.233   6.124  -7.628  1.00  0.00     0.059 A 
ATOM     94  F   UNL     1      14.206   7.004  -5.711  1.00  0.00    -0.206 F 
ATOM     95  C   UNL     1      15.200   5.238  -8.704  1.00  0.00     0.060 A 
BRANCH  95  96
ATOM     96  S   UNL     1      16.534   5.228  -9.921  1.00  0.00     0.124 S 
ATOM     97  O   UNL     1      17.200   3.965  -9.620  1.00  0.00    -0.237 OA
ATOM     98  O   UNL     1      15.803   5.273 -11.184  1.00  0.00    -0.237 OA
ATOM     99  O   UNL     1      17.296   6.432  -9.602  1.00  0.00    -0.744 OA
ENDBRANCH  95  96
ENDBRANCH  63  88
ENDBRANCH  37  38
ENDBRANCH  30  32
ENDBRANCH  29  30
ENDBRANCH   1  29
TORSDOF 16
