REMARK SMILES Cc1cc(Cl)cc2c1O[C@H](C(F)(F)F)C(C(=O)OCCOC(=O)c1ccc(-c3c4nc(c(-c5c(F)cc(S(=O)(=O)[O-])cc5F)c5ccc([nH]5)c(-c5c(F)cc(S(=O)(=O)[O-])cc5F)c5nc(c(-c6c(F)cc(S(=O)(=O)[O-])cc6F)c6ccc3[nH]6)C=C5)C=C4)cc1)=C2
REMARK SMILES IDX 20 1 19 2 18 3 16 4 17 5 15 6 1 7 2 8 3 9 8 10 4 11 7 12
REMARK SMILES IDX 9 13 5 14 6 15 90 16 10 17 11 18 12 19 13 20 14 21 21 22
REMARK SMILES IDX 22 23 23 24 24 25 25 26 89 27 26 28 88 29 27 30 28 31 29 32
REMARK SMILES IDX 82 33 30 34 87 35 81 36 83 37 31 38 86 39 80 40 79 41 32 43
REMARK SMILES IDX 66 44 45 45 65 46 46 47 49 48 64 49 84 50 47 51 48 52 63 54
REMARK SMILES IDX 85 55 50 56 33 57 34 58 43 59 35 60 36 61 42 62 44 63 37 64
REMARK SMILES IDX 38 65 39 66 40 67 41 68 67 69 68 70 77 71 69 72 70 73 76 74
REMARK SMILES IDX 78 75 71 76 72 77 73 78 74 79 75 80 51 81 52 82 61 83 53 84
REMARK SMILES IDX 54 85 60 86 62 87 55 88 56 89 57 90 58 91 59 92
REMARK H PARENT 83 42 49 53
REMARK Flexibility Score: inf
ROOT
ATOM      1  C   UNL     1      -4.380  -0.843  -7.402  1.00  0.00     0.275 C 
ENDROOT
BRANCH   1   2
ATOM      2  C   UNL     1      -3.115  -1.640  -7.078  1.00  0.00     0.275 C 
BRANCH   2   3
ATOM      3  O   UNL     1      -2.595  -1.302  -5.773  1.00  0.00    -0.459 OA
BRANCH   3   4
ATOM      4  C   UNL     1      -1.516  -0.486  -5.774  1.00  0.00     0.338 C 
ATOM      5  O   UNL     1      -0.937  -0.049  -6.758  1.00  0.00    -0.246 OA
BRANCH   4   6
ATOM      6  C   UNL     1      -1.094  -0.168  -4.399  1.00  0.00     0.087 C 
ATOM      7  C   UNL     1       1.083  -0.308   0.281  1.00  0.00     0.048 C 
ATOM      8  C   UNL     1       0.657   0.741  -0.704  1.00  0.00    -0.007 A 
ATOM      9  C   UNL     1       0.969   2.084  -0.422  1.00  0.00     0.027 A 
ATOM     10  C   UNL     1       0.013   0.426  -1.910  1.00  0.00     0.131 A 
ATOM     11  C   UNL     1       0.624   3.095  -1.316  1.00  0.00     0.042 A 
ATOM     12  C   UNL     1      -0.313   1.447  -2.806  1.00  0.00     0.019 A 
ATOM     13  O   UNL     1      -0.283  -0.889  -2.151  1.00  0.00    -0.475 OA
ATOM     14  Cl  UNL     1       1.020   4.729  -0.958  1.00  0.00    -0.084 Cl
ATOM     15  C   UNL     1      -0.020   2.784  -2.506  1.00  0.00     0.032 A 
ATOM     16  C   UNL     1      -0.907   1.117  -4.085  1.00  0.00     0.027 C 
ATOM     17  C   UNL     1      -0.742  -1.292  -3.473  1.00  0.00     0.316 C 
BRANCH  17  18
ATOM     18  C   UNL     1       0.309  -2.228  -4.091  1.00  0.00     0.430 C 
ATOM     19  F   UNL     1       0.628  -3.236  -3.242  1.00  0.00    -0.167 F 
ATOM     20  F   UNL     1      -0.150  -2.816  -5.223  1.00  0.00    -0.167 F 
ATOM     21  F   UNL     1       1.454  -1.583  -4.403  1.00  0.00    -0.167 F 
ENDBRANCH  17  18
ENDBRANCH   4   6
ENDBRANCH   3   4
ENDBRANCH   2   3
ENDBRANCH   1   2
BRANCH   1  22
ATOM     22  O   UNL     1      -4.073   0.553  -7.566  1.00  0.00    -0.458 OA
BRANCH  22  23
ATOM     23  C   UNL     1      -4.387   1.330  -6.505  1.00  0.00     0.338 C 
ATOM     24  O   UNL     1      -4.919   0.979  -5.465  1.00  0.00    -0.246 OA
BRANCH  23  25
ATOM     25  C   UNL     1      -3.903   2.703  -6.711  1.00  0.00     0.060 A 
ATOM     26  C   UNL     1      -2.538   2.935  -6.625  1.00  0.00     0.016 A 
ATOM     27  C   UNL     1      -4.791   3.774  -6.748  1.00  0.00     0.016 A 
ATOM     28  C   UNL     1      -2.067   4.218  -6.374  1.00  0.00     0.010 A 
ATOM     29  C   UNL     1      -4.294   5.082  -6.673  1.00  0.00     0.010 A 
ATOM     30  C   UNL     1      -2.930   5.321  -6.421  1.00  0.00    -0.014 A 
BRANCH  30  31
ATOM     31  C   UNL     1      -2.406   6.701  -6.184  1.00  0.00     0.031 A 
ATOM     32  C   UNL     1      -3.047   7.596  -5.149  1.00  0.00     0.074 A 
ATOM     33  C   UNL     1      -1.336   7.150  -6.875  1.00  0.00     0.049 A 
ATOM     34  N   UNL     1      -2.864   8.875  -4.934  1.00  0.00    -0.248 NA
ATOM     35  C   UNL     1      -4.035   6.980  -4.247  1.00  0.00     0.031 C 
ATOM     36  C   UNL     1      -0.577   6.380  -7.866  1.00  0.00     0.029 A 
ATOM     37  N   UNL     1      -0.684   8.360  -6.843  1.00  0.00    -0.354 N 
ATOM     38  C   UNL     1      -3.748   9.225  -3.917  1.00  0.00     0.074 A 
ATOM     39  C   UNL     1      -4.481   8.028  -3.568  1.00  0.00     0.031 C 
ATOM     40  C   UNL     1       0.465   7.104  -8.293  1.00  0.00     0.029 A 
ATOM     41  C   UNL     1       0.383   8.435  -7.710  1.00  0.00     0.049 A 
ATOM     42  H   UNL     1      -0.955   9.102  -6.256  1.00  0.00     0.167 HD
ATOM     43  C   UNL     1      -3.925  10.432  -3.326  1.00  0.00     0.037 A 
ATOM     44  C   UNL     1       1.177   9.469  -8.049  1.00  0.00     0.037 A 
ATOM     45  C   UNL     1      -3.146  11.603  -3.643  1.00  0.00     0.049 A 
ATOM     46  C   UNL     1       0.918  10.813  -7.433  1.00  0.00     0.074 A 
ATOM     47  C   UNL     1      -3.243  12.873  -3.101  1.00  0.00     0.029 A 
ATOM     48  N   UNL     1      -2.114  11.644  -4.571  1.00  0.00    -0.354 N 
ATOM     49  N   UNL     1       0.029  11.143  -6.527  1.00  0.00    -0.248 NA
ATOM     50  C   UNL     1       1.747  11.930  -7.902  1.00  0.00     0.031 C 
ATOM     51  C   UNL     1      -2.303  13.692  -3.733  1.00  0.00     0.029 A 
ATOM     52  C   UNL     1      -1.582  12.921  -4.631  1.00  0.00     0.049 A 
ATOM     53  H   UNL     1      -1.806  10.878  -5.107  1.00  0.00     0.167 HD
ATOM     54  C   UNL     1       0.199  12.505  -6.309  1.00  0.00     0.074 A 
ATOM     55  C   UNL     1       1.290  12.931  -7.161  1.00  0.00     0.031 C 
ATOM     56  C   UNL     1      -0.492  13.328  -5.483  1.00  0.00     0.037 A 
BRANCH  43  57
ATOM     57  C   UNL     1      -5.012  10.566  -2.291  1.00  0.00     0.058 A 
ATOM     58  C   UNL     1      -4.903   9.990  -1.016  1.00  0.00     0.135 A 
ATOM     59  C   UNL     1      -6.154  11.340  -2.560  1.00  0.00     0.135 A 
ATOM     60  F   UNL     1      -3.843   9.227  -0.707  1.00  0.00    -0.206 F 
ATOM     61  C   UNL     1      -5.894  10.160  -0.053  1.00  0.00     0.059 A 
ATOM     62  C   UNL     1      -7.144  11.548  -1.603  1.00  0.00     0.059 A 
ATOM     63  F   UNL     1      -6.313  11.915  -3.763  1.00  0.00    -0.206 F 
ATOM     64  C   UNL     1      -7.009  10.945  -0.354  1.00  0.00     0.060 A 
BRANCH  64  65
ATOM     65  S   UNL     1      -8.274  11.168   0.915  1.00  0.00     0.124 S 
ATOM     66  O   UNL     1      -8.843   9.826   1.000  1.00  0.00    -0.237 OA
ATOM     67  O   UNL     1      -7.487  11.596   2.067  1.00  0.00    -0.237 OA
ATOM     68  O   UNL     1      -9.154  12.184   0.347  1.00  0.00    -0.744 OA
ENDBRANCH  64  65
ENDBRANCH  43  57
BRANCH  44  69
ATOM     69  C   UNL     1       2.259   9.276  -9.055  1.00  0.00     0.058 A 
ATOM     70  C   UNL     1       3.609   9.358  -8.687  1.00  0.00     0.135 A 
ATOM     71  C   UNL     1       1.966   8.970 -10.395  1.00  0.00     0.135 A 
ATOM     72  F   UNL     1       3.942   9.661  -7.423  1.00  0.00    -0.206 F 
ATOM     73  C   UNL     1       4.630   9.146  -9.608  1.00  0.00     0.059 A 
ATOM     74  C   UNL     1       2.969   8.720 -11.326  1.00  0.00     0.059 A 
ATOM     75  F   UNL     1       0.690   8.868 -10.800  1.00  0.00    -0.206 F 
ATOM     76  C   UNL     1       4.299   8.818 -10.924  1.00  0.00     0.060 A 
BRANCH  76  77
ATOM     77  S   UNL     1       5.633   8.487 -12.095  1.00  0.00     0.124 S 
ATOM     78  O   UNL     1       6.213   9.815 -12.264  1.00  0.00    -0.237 OA
ATOM     79  O   UNL     1       6.448   7.523 -11.363  1.00  0.00    -0.237 OA
ATOM     80  O   UNL     1       4.935   7.951 -13.260  1.00  0.00    -0.744 OA
ENDBRANCH  76  77
ENDBRANCH  44  69
BRANCH  56  81
ATOM     81  C   UNL     1      -0.079  14.772  -5.443  1.00  0.00     0.058 A 
ATOM     82  C   UNL     1      -0.363  15.646  -6.503  1.00  0.00     0.135 A 
ATOM     83  C   UNL     1       0.550  15.302  -4.304  1.00  0.00     0.135 A 
ATOM     84  F   UNL     1      -0.954  15.187  -7.618  1.00  0.00    -0.206 F 
ATOM     85  C   UNL     1      -0.027  16.994  -6.441  1.00  0.00     0.059 A 
ATOM     86  C   UNL     1       0.869  16.652  -4.209  1.00  0.00     0.059 A 
ATOM     87  F   UNL     1       0.837  14.509  -3.260  1.00  0.00    -0.206 F 
ATOM     88  C   UNL     1       0.583  17.489  -5.287  1.00  0.00     0.060 A 
BRANCH  88  89
ATOM     89  S   UNL     1       0.970  19.250  -5.207  1.00  0.00     0.124 S 
ATOM     90  O   UNL     1       2.054  19.358  -6.177  1.00  0.00    -0.237 OA
ATOM     91  O   UNL     1      -0.296  19.863  -5.598  1.00  0.00    -0.237 OA
ATOM     92  O   UNL     1       1.354  19.452  -3.813  1.00  0.00    -0.744 OA
ENDBRANCH  88  89
ENDBRANCH  56  81
ENDBRANCH  30  31
ENDBRANCH  23  25
ENDBRANCH  22  23
ENDBRANCH   1  22
TORSDOF 15
