REMARK SMILES CCOC(=O)c1c(NC(=O)[C@@H]2[C@@H]3CC[C@@H](C3)[C@@H]2C(=O)OCCOC(=O)c2ccc(-c3c4nc(c(-c5c(F)cc(S(=O)(=O)[O-])cc5F)c5ccc([nH]5)c(-c5c(F)cc(S(=O)(=O)[O-])cc5F)c5nc(c(-c6c(F)cc(S(=O)(=O)[O-])cc6F)c6ccc3[nH]6)C=C5)C=C4)cc2)sc2c1CCCC2
REMARK SMILES IDX 21 1 20 2 18 3 19 4 17 5 11 6 12 7 13 8 16 9 15 10 14 11
REMARK SMILES IDX 9 12 8 13 10 15 7 16 6 17 94 18 92 19 93 20 95 21 98 22
REMARK SMILES IDX 96 23 97 24 4 25 5 26 3 27 2 28 1 29 22 30 23 31 24 32 25 33
REMARK SMILES IDX 26 34 27 35 91 36 28 37 90 38 29 39 30 40 31 41 84 42 32 43
REMARK SMILES IDX 89 44 83 45 85 46 33 47 88 48 82 49 81 50 34 52 68 53 47 54
REMARK SMILES IDX 67 55 48 56 51 57 66 58 86 59 49 60 50 61 65 63 87 64 52 65
REMARK SMILES IDX 35 66 36 67 45 68 37 69 38 70 44 71 46 72 39 73 40 74 41 75
REMARK SMILES IDX 42 76 43 77 69 78 70 79 79 80 71 81 72 82 78 83 80 84 73 85
REMARK SMILES IDX 74 86 75 87 76 88 77 89 53 90 54 91 63 92 55 93 56 94 62 95
REMARK SMILES IDX 64 96 57 97 58 98 59 99 60 100 61 101
REMARK H PARENT 8 14 85 51 51 62
REMARK Flexibility Score: inf
ROOT
ATOM      1  C   UNL     1      -1.000  -4.406  -0.392  1.00  0.00     0.274 C 
ENDROOT
BRANCH   1   2
ATOM      2  O   UNL     1       0.393  -4.065  -0.568  1.00  0.00    -0.462 OA
BRANCH   2   3
ATOM      3  C   UNL     1       0.618  -2.820  -1.085  1.00  0.00     0.310 C 
ATOM      4  O   UNL     1      -0.284  -2.034  -1.332  1.00  0.00    -0.252 OA
BRANCH   3   5
ATOM      5  C   UNL     1       2.041  -2.676  -1.586  1.00  0.00     0.115 C 
ATOM      6  C   UNL     1       3.094  -1.571  -1.189  1.00  0.00     0.096 C 
ATOM      7  C   UNL     1       3.351  -0.941  -2.548  1.00  0.00     0.003 C 
ATOM      8  C   UNL     1       2.128  -0.132  -2.982  1.00  0.00     0.005 C 
ATOM      9  C   UNL     1       3.380  -2.153  -3.472  1.00  0.00     0.009 C 
ATOM     10  C   UNL     1       1.950  -2.520  -3.147  1.00  0.00     0.004 C 
ATOM     11  C   UNL     1       1.252  -1.214  -3.597  1.00  0.00     0.005 C 
BRANCH   6  12
ATOM     12  C   UNL     1       2.975  -0.689   0.052  1.00  0.00     0.229 C 
ATOM     13  N   UNL     1       3.417   0.601   0.198  1.00  0.00    -0.317 N 
ATOM     14  H   UNL     1       3.386   0.919   1.129  1.00  0.00     0.170 HD
ATOM     15  O   UNL     1       2.507  -1.220   1.070  1.00  0.00    -0.274 OA
BRANCH  13  16
ATOM     16  C   UNL     1       3.896   1.548  -0.686  1.00  0.00     0.110 A 
ATOM     17  C   UNL     1       4.829   1.677  -1.710  1.00  0.00     0.098 A 
ATOM     18  C   UNL     1       4.394   2.760  -2.591  1.00  0.00    -0.017 A 
ATOM     19  S   UNL     1       3.158   3.068  -0.390  1.00  0.00    -0.122 S 
ATOM     20  C   UNL     1       3.442   3.558  -1.986  1.00  0.00     0.011 A 
ATOM     21  C   UNL     1       4.809   3.017  -4.015  1.00  0.00     0.038 C 
ATOM     22  C   UNL     1       2.767   4.754  -2.589  1.00  0.00     0.047 C 
ATOM     23  C   UNL     1       4.470   4.447  -4.465  1.00  0.00     0.005 C 
ATOM     24  C   UNL     1       3.031   4.835  -4.101  1.00  0.00     0.006 C 
BRANCH  17  25
ATOM     25  C   UNL     1       5.969   0.794  -1.972  1.00  0.00     0.341 C 
ATOM     26  O   UNL     1       6.661   0.869  -2.992  1.00  0.00    -0.246 OA
BRANCH  25  27
ATOM     27  O   UNL     1       6.123  -0.193  -1.044  1.00  0.00    -0.462 OA
BRANCH  27  28
ATOM     28  C   UNL     1       7.014  -1.242  -1.442  1.00  0.00     0.230 C 
ATOM     29  C   UNL     1       6.768  -2.443  -0.549  1.00  0.00     0.049 C 
ENDBRANCH  27  28
ENDBRANCH  25  27
ENDBRANCH  17  25
ENDBRANCH  13  16
ENDBRANCH   6  12
ENDBRANCH   3   5
ENDBRANCH   2   3
ENDBRANCH   1   2
BRANCH   1  30
ATOM     30  C   UNL     1      -1.499  -4.035   1.002  1.00  0.00     0.275 C 
BRANCH  30  31
ATOM     31  O   UNL     1      -1.462  -2.607   1.193  1.00  0.00    -0.458 OA
BRANCH  31  32
ATOM     32  C   UNL     1      -0.467  -2.163   2.002  1.00  0.00     0.338 C 
ATOM     33  O   UNL     1       0.296  -2.863   2.648  1.00  0.00    -0.246 OA
BRANCH  32  34
ATOM     34  C   UNL     1      -0.426  -0.683   2.044  1.00  0.00     0.060 A 
ATOM     35  C   UNL     1      -0.210   0.062   0.892  1.00  0.00     0.016 A 
ATOM     36  C   UNL     1      -0.396  -0.035   3.276  1.00  0.00     0.016 A 
ATOM     37  C   UNL     1       0.178   1.397   0.976  1.00  0.00     0.010 A 
ATOM     38  C   UNL     1      -0.137   1.346   3.343  1.00  0.00     0.010 A 
ATOM     39  C   UNL     1       0.214   2.081   2.197  1.00  0.00    -0.014 A 
BRANCH  39  40
ATOM     40  C   UNL     1       0.689   3.508   2.263  1.00  0.00     0.031 A 
ATOM     41  C   UNL     1       1.730   3.933   3.279  1.00  0.00     0.074 A 
ATOM     42  C   UNL     1       0.282   4.434   1.364  1.00  0.00     0.049 A 
ATOM     43  N   UNL     1       2.103   5.142   3.625  1.00  0.00    -0.248 NA
ATOM     44  C   UNL     1       2.439   2.868   4.005  1.00  0.00     0.031 C 
ATOM     45  C   UNL     1      -0.632   4.195   0.247  1.00  0.00     0.029 A 
ATOM     46  N   UNL     1       0.635   5.757   1.208  1.00  0.00    -0.354 N 
ATOM     47  C   UNL     1       2.997   4.985   4.680  1.00  0.00     0.074 A 
ATOM     48  C   UNL     1       3.144   3.561   4.890  1.00  0.00     0.031 C 
ATOM     49  C   UNL     1      -0.664   5.276  -0.542  1.00  0.00     0.029 A 
ATOM     50  C   UNL     1       0.078   6.354   0.101  1.00  0.00     0.049 A 
ATOM     51  H   UNL     1       1.232   6.231   1.832  1.00  0.00     0.167 HD
ATOM     52  C   UNL     1       3.613   5.941   5.421  1.00  0.00     0.037 A 
ATOM     53  C   UNL     1       0.088   7.633  -0.330  1.00  0.00     0.037 A 
ATOM     54  C   UNL     1       3.533   7.357   5.151  1.00  0.00     0.049 A 
ATOM     55  C   UNL     1       0.747   8.685   0.515  1.00  0.00     0.074 A 
ATOM     56  C   UNL     1       4.096   8.402   5.865  1.00  0.00     0.029 A 
ATOM     57  N   UNL     1       2.875   7.928   4.072  1.00  0.00    -0.354 N 
ATOM     58  N   UNL     1       1.450   8.540   1.612  1.00  0.00    -0.248 NA
ATOM     59  C   UNL     1       0.564  10.082   0.097  1.00  0.00     0.031 C 
ATOM     60  C   UNL     1       3.734   9.605   5.249  1.00  0.00     0.029 A 
ATOM     61  C   UNL     1       2.999   9.309   4.114  1.00  0.00     0.049 A 
ATOM     62  H   UNL     1       2.389   7.426   3.378  1.00  0.00     0.167 HD
ATOM     63  C   UNL     1       1.777   9.827   2.025  1.00  0.00     0.074 A 
ATOM     64  C   UNL     1       1.233  10.736   1.037  1.00  0.00     0.031 C 
ATOM     65  C   UNL     1       2.451  10.217   3.136  1.00  0.00     0.037 A 
BRANCH  52  66
ATOM     66  C   UNL     1       4.351   5.500   6.660  1.00  0.00     0.058 A 
ATOM     67  C   UNL     1       5.571   4.810   6.624  1.00  0.00     0.135 A 
ATOM     68  C   UNL     1       3.816   5.807   7.925  1.00  0.00     0.135 A 
ATOM     69  F   UNL     1       6.126   4.479   5.447  1.00  0.00    -0.206 F 
ATOM     70  C   UNL     1       6.214   4.405   7.793  1.00  0.00     0.059 A 
ATOM     71  C   UNL     1       4.456   5.443   9.105  1.00  0.00     0.059 A 
ATOM     72  F   UNL     1       2.654   6.473   8.024  1.00  0.00    -0.206 F 
ATOM     73  C   UNL     1       5.645   4.722   9.029  1.00  0.00     0.060 A 
BRANCH  73  74
ATOM     74  S   UNL     1       6.472   4.169  10.536  1.00  0.00     0.124 S 
ATOM     75  O   UNL     1       6.211   2.734  10.501  1.00  0.00    -0.237 OA
ATOM     76  O   UNL     1       7.856   4.567  10.298  1.00  0.00    -0.237 OA
ATOM     77  O   UNL     1       5.785   4.905  11.593  1.00  0.00    -0.744 OA
ENDBRANCH  73  74
ENDBRANCH  52  66
BRANCH  53  78
ATOM     78  C   UNL     1      -0.640   8.002  -1.578  1.00  0.00     0.058 A 
ATOM     79  C   UNL     1       0.044   8.477  -2.706  1.00  0.00     0.135 A 
ATOM     80  C   UNL     1      -2.034   7.852  -1.678  1.00  0.00     0.135 A 
ATOM     81  F   UNL     1       1.372   8.664  -2.658  1.00  0.00    -0.206 F 
ATOM     82  C   UNL     1      -0.624   8.775  -3.891  1.00  0.00     0.059 A 
ATOM     83  C   UNL     1      -2.716   8.098  -2.864  1.00  0.00     0.059 A 
ATOM     84  F   UNL     1      -2.741   7.407  -0.628  1.00  0.00    -0.206 F 
ATOM     85  C   UNL     1      -2.002   8.565  -3.965  1.00  0.00     0.060 A 
BRANCH  85  86
ATOM     86  S   UNL     1      -2.848   8.844  -5.536  1.00  0.00     0.124 S 
ATOM     87  O   UNL     1      -2.924  10.299  -5.573  1.00  0.00    -0.237 OA
ATOM     88  O   UNL     1      -1.933   8.226  -6.491  1.00  0.00    -0.237 OA
ATOM     89  O   UNL     1      -4.119   8.147  -5.359  1.00  0.00    -0.744 OA
ENDBRANCH  85  86
ENDBRANCH  53  78
BRANCH  65  90
ATOM     90  C   UNL     1       2.654  11.694   3.343  1.00  0.00     0.058 A 
ATOM     91  C   UNL     1       1.593  12.542   3.700  1.00  0.00     0.135 A 
ATOM     92  C   UNL     1       3.931  12.264   3.222  1.00  0.00     0.135 A 
ATOM     93  F   UNL     1       0.348  12.054   3.822  1.00  0.00    -0.206 F 
ATOM     94  C   UNL     1       1.787  13.906   3.904  1.00  0.00     0.059 A 
ATOM     95  C   UNL     1       4.154  13.619   3.449  1.00  0.00     0.059 A 
ATOM     96  F   UNL     1       4.984  11.499   2.890  1.00  0.00    -0.206 F 
ATOM     97  C   UNL     1       3.072  14.435   3.777  1.00  0.00     0.060 A 
BRANCH  97  98
ATOM     98  S   UNL     1       3.314  16.201   4.067  1.00  0.00     0.124 S 
ATOM     99  O   UNL     1       2.690  16.782   2.883  1.00  0.00    -0.237 OA
ATOM    100  O   UNL     1       2.604  16.410   5.325  1.00  0.00    -0.237 OA
ATOM    101  O   UNL     1       4.765  16.339   4.143  1.00  0.00    -0.744 OA
ENDBRANCH  97  98
ENDBRANCH  65  90
ENDBRANCH  39  40
ENDBRANCH  32  34
ENDBRANCH  31  32
ENDBRANCH  30  31
ENDBRANCH   1  30
TORSDOF 19
