REMARK SMILES COc1ccc(-c2ccc3n(c2=O)C[C@H]2C[C@@H]3CN(C(=O)CCCC(=O)OCCOC(=O)c3ccc(-c4c5nc(c(-c6c(F)cc(S(=O)(=O)[O-])cc6F)c6ccc([nH]6)c(-c6c(F)cc(S(=O)(=O)[O-])cc6F)c6nc(c(-c7c(F)cc(S(=O)(=O)[O-])cc7F)c7ccc4[nH]7)C=C6)C=C5)cc3)C2)cc1
REMARK SMILES IDX 27 1 25 2 26 3 24 4 23 5 22 6 20 7 21 8 19 9 7 10 8 11 12 12
REMARK SMILES IDX 9 13 11 14 13 15 10 16 14 17 17 18 15 19 16 20 18 21 99 22
REMARK SMILES IDX 6 23 3 24 4 25 101 26 5 27 100 28 2 29 1 30 28 31 29 32
REMARK SMILES IDX 30 33 31 34 32 35 33 36 34 37 98 38 35 39 97 40 36 41 37 42
REMARK SMILES IDX 38 43 91 44 39 45 96 46 90 47 92 48 40 49 95 50 89 51 88 52
REMARK SMILES IDX 41 54 75 55 54 56 74 57 55 58 58 59 73 60 93 61 56 62 57 63
REMARK SMILES IDX 72 65 94 66 59 67 42 68 43 69 52 70 44 71 45 72 51 73 53 74
REMARK SMILES IDX 46 75 47 76 48 77 49 78 50 79 76 80 77 81 86 82 78 83 79 84
REMARK SMILES IDX 85 85 87 86 80 87 81 88 82 89 83 90 84 91 60 92 61 93 70 94
REMARK SMILES IDX 62 95 63 96 69 97 71 98 64 99 65 100 66 101 67 102 68 103
REMARK H PARENT 92 53 58 64
REMARK Flexibility Score: inf
ROOT
ATOM      1  O   UNL     1      -3.292  -8.874  -7.973  1.00  0.00    -0.462 OA
ENDROOT
BRANCH   1   2
ATOM      2  C   UNL     1      -2.677  -7.888  -7.271  1.00  0.00     0.305 C 
ATOM      3  O   UNL     1      -2.300  -6.834  -7.769  1.00  0.00    -0.252 OA
BRANCH   2   4
ATOM      4  C   UNL     1      -2.460  -8.218  -5.806  1.00  0.00     0.123 C 
BRANCH   4   5
ATOM      5  C   UNL     1      -2.540  -9.685  -5.412  1.00  0.00     0.022 C 
BRANCH   5   6
ATOM      6  C   UNL     1      -1.533 -10.600  -6.103  1.00  0.00     0.101 C 
BRANCH   6   7
ATOM      7  C   UNL     1      -0.108 -10.436  -5.599  1.00  0.00     0.222 C 
ATOM      8  O   UNL     1       0.210 -10.978  -4.537  1.00  0.00    -0.275 OA
BRANCH   7   9
ATOM      9  N   UNL     1       0.810  -9.728  -6.367  1.00  0.00    -0.342 N 
ATOM     10  C   UNL     1       1.787  -5.488  -3.407  1.00  0.00     0.047 A 
ATOM     11  C   UNL     1       2.747  -6.381  -3.110  1.00  0.00     0.016 A 
ATOM     12  C   UNL     1       1.086  -5.604  -4.735  1.00  0.00     0.258 A 
ATOM     13  C   UNL     1       3.147  -7.394  -4.045  1.00  0.00     0.023 A 
ATOM     14  N   UNL     1       1.559  -6.601  -5.610  1.00  0.00    -0.311 N 
ATOM     15  O   UNL     1       0.162  -4.847  -5.027  1.00  0.00    -0.269 OA
ATOM     16  C   UNL     1       2.578  -7.482  -5.257  1.00  0.00     0.026 A 
ATOM     17  C   UNL     1       0.978  -6.605  -6.953  1.00  0.00     0.131 C 
ATOM     18  C   UNL     1       3.021  -8.545  -6.242  1.00  0.00     0.056 C 
ATOM     19  C   UNL     1       1.358  -7.777  -7.872  1.00  0.00     0.029 C 
ATOM     20  C   UNL     1       2.837  -8.078  -7.685  1.00  0.00     0.019 C 
ATOM     21  C   UNL     1       2.225  -9.841  -6.007  1.00  0.00     0.129 C 
ATOM     22  C   UNL     1       0.533  -9.056  -7.635  1.00  0.00     0.125 C 
BRANCH  10  23
ATOM     23  C   UNL     1       1.478  -4.412  -2.447  1.00  0.00    -0.013 A 
ATOM     24  C   UNL     1       0.932  -2.345  -0.626  1.00  0.00     0.118 A 
ATOM     25  C   UNL     1      -0.080  -3.220  -1.016  1.00  0.00     0.047 A 
ATOM     26  C   UNL     1       2.224  -2.510  -1.117  1.00  0.00     0.047 A 
ATOM     27  C   UNL     1       0.187  -4.242  -1.934  1.00  0.00     0.013 A 
ATOM     28  C   UNL     1       2.493  -3.534  -2.028  1.00  0.00     0.013 A 
BRANCH  24  29
ATOM     29  O   UNL     1       0.601  -1.381   0.287  1.00  0.00    -0.497 OA
ATOM     30  C   UNL     1       1.015  -0.075  -0.116  1.00  0.00     0.278 C 
ENDBRANCH  24  29
ENDBRANCH  10  23
ENDBRANCH   7   9
ENDBRANCH   6   7
ENDBRANCH   5   6
ENDBRANCH   4   5
ENDBRANCH   2   4
ENDBRANCH   1   2
BRANCH   1  31
ATOM     31  C   UNL     1      -3.422  -8.634  -9.388  1.00  0.00     0.274 C 
BRANCH  31  32
ATOM     32  C   UNL     1      -4.806  -8.103  -9.765  1.00  0.00     0.275 C 
BRANCH  32  33
ATOM     33  O   UNL     1      -5.063  -6.811  -9.188  1.00  0.00    -0.458 OA
BRANCH  33  34
ATOM     34  C   UNL     1      -5.646  -6.847  -7.971  1.00  0.00     0.338 C 
ATOM     35  O   UNL     1      -6.019  -7.843  -7.359  1.00  0.00    -0.246 OA
BRANCH  34  36
ATOM     36  C   UNL     1      -5.661  -5.508  -7.377  1.00  0.00     0.060 A 
ATOM     37  C   UNL     1      -4.756  -5.241  -6.350  1.00  0.00     0.016 A 
ATOM     38  C   UNL     1      -6.634  -4.571  -7.724  1.00  0.00     0.016 A 
ATOM     39  C   UNL     1      -4.835  -4.064  -5.629  1.00  0.00     0.010 A 
ATOM     40  C   UNL     1      -6.704  -3.370  -7.011  1.00  0.00     0.010 A 
ATOM     41  C   UNL     1      -5.822  -3.127  -5.943  1.00  0.00    -0.014 A 
BRANCH  41  42
ATOM     42  C   UNL     1      -5.967  -1.947  -5.064  1.00  0.00     0.031 A 
ATOM     43  C   UNL     1      -7.125  -1.882  -4.112  1.00  0.00     0.074 A 
ATOM     44  C   UNL     1      -5.009  -1.002  -5.059  1.00  0.00     0.049 A 
ATOM     45  N   UNL     1      -7.474  -0.920  -3.300  1.00  0.00    -0.248 NA
ATOM     46  C   UNL     1      -8.009  -3.059  -4.067  1.00  0.00     0.031 C 
ATOM     47  C   UNL     1      -3.799  -1.024  -5.884  1.00  0.00     0.029 A 
ATOM     48  N   UNL     1      -4.890   0.144  -4.320  1.00  0.00    -0.354 N 
ATOM     49  C   UNL     1      -8.637  -1.356  -2.677  1.00  0.00     0.074 A 
ATOM     50  C   UNL     1      -8.936  -2.669  -3.205  1.00  0.00     0.031 C 
ATOM     51  C   UNL     1      -3.051   0.051  -5.592  1.00  0.00     0.029 A 
ATOM     52  C   UNL     1      -3.752   0.861  -4.602  1.00  0.00     0.049 A 
ATOM     53  H   UNL     1      -5.555   0.428  -3.652  1.00  0.00     0.167 HD
ATOM     54  C   UNL     1      -9.385  -0.710  -1.752  1.00  0.00     0.037 A 
ATOM     55  C   UNL     1      -3.339   2.051  -4.128  1.00  0.00     0.037 A 
ATOM     56  C   UNL     1      -9.048   0.584  -1.218  1.00  0.00     0.049 A 
ATOM     57  C   UNL     1      -4.195   2.757  -3.115  1.00  0.00     0.074 A 
ATOM     58  C   UNL     1      -9.745   1.351  -0.302  1.00  0.00     0.029 A 
ATOM     59  N   UNL     1      -7.901   1.296  -1.546  1.00  0.00    -0.354 N 
ATOM     60  N   UNL     1      -5.334   2.371  -2.589  1.00  0.00    -0.248 NA
ATOM     61  C   UNL     1      -3.718   4.059  -2.636  1.00  0.00     0.031 C 
ATOM     62  C   UNL     1      -9.030   2.537  -0.093  1.00  0.00     0.029 A 
ATOM     63  C   UNL     1      -7.871   2.493  -0.852  1.00  0.00     0.049 A 
ATOM     64  H   UNL     1      -7.211   0.993  -2.179  1.00  0.00     0.167 HD
ATOM     65  C   UNL     1      -5.706   3.377  -1.707  1.00  0.00     0.074 A 
ATOM     66  C   UNL     1      -4.660   4.381  -1.759  1.00  0.00     0.031 C 
ATOM     67  C   UNL     1      -6.812   3.469  -0.927  1.00  0.00     0.037 A 
BRANCH  54  68
ATOM     68  C   UNL     1     -10.658  -1.373  -1.309  1.00  0.00     0.058 A 
ATOM     69  C   UNL     1     -10.662  -2.485  -0.453  1.00  0.00     0.135 A 
ATOM     70  C   UNL     1     -11.898  -0.890  -1.760  1.00  0.00     0.135 A 
ATOM     71  F   UNL     1      -9.505  -3.003  -0.012  1.00  0.00    -0.206 F 
ATOM     72  C   UNL     1     -11.849  -3.112  -0.080  1.00  0.00     0.059 A 
ATOM     73  C   UNL     1     -13.097  -1.487  -1.383  1.00  0.00     0.059 A 
ATOM     74  F   UNL     1     -11.951   0.166  -2.587  1.00  0.00    -0.206 F 
ATOM     75  C   UNL     1     -13.061  -2.609  -0.556  1.00  0.00     0.060 A 
BRANCH  75  76
ATOM     76  S   UNL     1     -14.594  -3.436  -0.080  1.00  0.00     0.124 S 
ATOM     77  O   UNL     1     -14.569  -4.614  -0.942  1.00  0.00    -0.237 OA
ATOM     78  O   UNL     1     -14.389  -3.688   1.343  1.00  0.00    -0.237 OA
ATOM     79  O   UNL     1     -15.623  -2.450  -0.396  1.00  0.00    -0.744 OA
ENDBRANCH  75  76
ENDBRANCH  54  68
BRANCH  55  80
ATOM     80  C   UNL     1      -2.075   2.648  -4.632  1.00  0.00     0.058 A 
ATOM     81  C   UNL     1      -0.935   2.739  -3.820  1.00  0.00     0.135 A 
ATOM     82  C   UNL     1      -1.974   3.113  -5.954  1.00  0.00     0.135 A 
ATOM     83  F   UNL     1      -0.981   2.316  -2.547  1.00  0.00    -0.206 F 
ATOM     84  C   UNL     1       0.258   3.275  -4.297  1.00  0.00     0.059 A 
ATOM     85  C   UNL     1      -0.786   3.629  -6.461  1.00  0.00     0.059 A 
ATOM     86  F   UNL     1      -3.033   3.038  -6.776  1.00  0.00    -0.206 F 
ATOM     87  C   UNL     1       0.323   3.715  -5.621  1.00  0.00     0.060 A 
BRANCH  87  88
ATOM     88  S   UNL     1       1.890   4.354  -6.253  1.00  0.00     0.124 S 
ATOM     89  O   UNL     1       1.901   5.702  -5.699  1.00  0.00    -0.237 OA
ATOM     90  O   UNL     1       2.860   3.423  -5.684  1.00  0.00    -0.237 OA
ATOM     91  O   UNL     1       1.726   4.266  -7.701  1.00  0.00    -0.744 OA
ENDBRANCH  87  88
ENDBRANCH  55  80
BRANCH  67  92
ATOM     92  C   UNL     1      -6.921   4.684  -0.054  1.00  0.00     0.058 A 
ATOM     93  C   UNL     1      -7.263   5.939  -0.581  1.00  0.00     0.135 A 
ATOM     94  C   UNL     1      -6.698   4.587   1.328  1.00  0.00     0.135 A 
ATOM     95  F   UNL     1      -7.482   6.082  -1.898  1.00  0.00    -0.206 F 
ATOM     96  C   UNL     1      -7.347   7.065   0.229  1.00  0.00     0.059 A 
ATOM     97  C   UNL     1      -6.797   5.696   2.160  1.00  0.00     0.059 A 
ATOM     98  F   UNL     1      -6.379   3.405   1.880  1.00  0.00    -0.206 F 
ATOM     99  C   UNL     1      -7.105   6.935   1.598  1.00  0.00     0.060 A 
BRANCH  99 100
ATOM    100  S   UNL     1      -7.217   8.400   2.646  1.00  0.00     0.124 S 
ATOM    101  O   UNL     1      -5.934   9.044   2.384  1.00  0.00    -0.237 OA
ATOM    102  O   UNL     1      -8.390   9.085   2.110  1.00  0.00    -0.237 OA
ATOM    103  O   UNL     1      -7.382   7.845   3.986  1.00  0.00    -0.744 OA
ENDBRANCH  99 100
ENDBRANCH  67  92
ENDBRANCH  41  42
ENDBRANCH  34  36
ENDBRANCH  33  34
ENDBRANCH  32  33
ENDBRANCH  31  32
ENDBRANCH   1  31
TORSDOF 20
