REMARK SMILES O=C(/C=C/c1cc(C(=O)Nc2ccc(F)cc2Cl)cs1)OCCOC(=O)c1ccc(-c2c3nc(c(-c4c(F)cc(S(=O)(=O)[O-])cc4F)c4ccc([nH]4)c(-c4c(F)cc(S(=O)(=O)[O-])cc4F)c4nc(c(-c5c(F)cc(S(=O)(=O)[O-])cc5F)c5ccc2[nH]5)C=C4)C=C3)cc1
REMARK SMILES IDX 22 1 21 2 2 3 1 4 3 5 4 6 5 7 6 8 20 9 7 10 19 11 8 12 9 13
REMARK SMILES IDX 10 14 11 16 12 17 17 18 13 19 16 20 18 21 14 22 15 23 23 24
REMARK SMILES IDX 24 25 25 26 26 27 27 28 28 29 92 30 29 31 91 32 30 33 31 34
REMARK SMILES IDX 32 35 85 36 33 37 90 38 84 39 86 40 34 41 89 42 83 43 82 44
REMARK SMILES IDX 35 46 69 47 48 48 68 49 49 50 52 51 67 52 87 53 50 54 51 55
REMARK SMILES IDX 66 57 88 58 53 59 36 60 37 61 46 62 38 63 39 64 45 65 47 66
REMARK SMILES IDX 40 67 41 68 42 69 43 70 44 71 70 72 71 73 80 74 72 75 73 76
REMARK SMILES IDX 79 77 81 78 74 79 75 80 76 81 77 82 78 83 54 84 55 85 64 86
REMARK SMILES IDX 56 87 57 88 63 89 65 90 58 91 59 92 60 93 61 94 62 95
REMARK H PARENT 10 15 86 45 52 56
REMARK Flexibility Score: inf
ROOT
ATOM      1  C   UNL     1       4.404  -1.673  -0.370  1.00  0.00     0.275 C 
ENDROOT
BRANCH   1   2
ATOM      2  O   UNL     1       3.280  -1.237   0.412  1.00  0.00    -0.459 OA
BRANCH   2   3
ATOM      3  C   UNL     1       2.953   0.015   0.785  1.00  0.00     0.330 C 
ATOM      4  O   UNL     1       2.026   0.200   1.571  1.00  0.00    -0.247 OA
BRANCH   3   5
ATOM      5  C   UNL     1       3.587   1.205   0.193  1.00  0.00     0.095 C 
ATOM      6  C   UNL     1       4.854   1.417  -0.193  1.00  0.00     0.026 C 
BRANCH   6   7
ATOM      7  C   UNL     1       5.284   2.666  -0.727  1.00  0.00     0.028 A 
ATOM      8  C   UNL     1       4.658   3.897  -0.730  1.00  0.00     0.033 A 
ATOM      9  S   UNL     1       6.823   2.816  -1.481  1.00  0.00    -0.144 S 
ATOM     10  C   UNL     1       5.603   4.973  -0.789  1.00  0.00     0.051 A 
ATOM     11  C   UNL     1       6.753   4.526  -1.415  1.00  0.00     0.079 A 
BRANCH  10  12
ATOM     12  C   UNL     1       5.433   6.357  -0.325  1.00  0.00     0.256 C 
ATOM     13  O   UNL     1       6.016   7.278  -0.893  1.00  0.00    -0.269 OA
ATOM     14  N   UNL     1       4.601   6.639   0.754  1.00  0.00    -0.321 N 
ATOM     15  H   UNL     1       4.423   7.597   0.895  1.00  0.00     0.170 HD
BRANCH  14  16
ATOM     16  C   UNL     1       3.966   5.780   1.686  1.00  0.00     0.060 A 
ATOM     17  C   UNL     1       4.560   4.580   2.096  1.00  0.00     0.031 A 
ATOM     18  C   UNL     1       2.687   6.084   2.187  1.00  0.00     0.067 A 
ATOM     19  C   UNL     1       3.816   3.614   2.775  1.00  0.00     0.041 A 
ATOM     20  C   UNL     1       1.923   5.103   2.821  1.00  0.00     0.062 A 
ATOM     21  Cl  UNL     1       1.982   7.649   2.053  1.00  0.00    -0.082 Cl
ATOM     22  C   UNL     1       2.486   3.864   3.079  1.00  0.00     0.124 A 
ATOM     23  F   UNL     1       1.749   2.908   3.655  1.00  0.00    -0.207 F 
ENDBRANCH  14  16
ENDBRANCH  10  12
ENDBRANCH   6   7
ENDBRANCH   3   5
ENDBRANCH   2   3
ENDBRANCH   1   2
BRANCH   1  24
ATOM     24  C   UNL     1       4.219  -1.590  -1.889  1.00  0.00     0.275 C 
BRANCH  24  25
ATOM     25  O   UNL     1       3.843  -0.288  -2.377  1.00  0.00    -0.458 OA
BRANCH  25  26
ATOM     26  C   UNL     1       2.506  -0.103  -2.570  1.00  0.00     0.338 C 
ATOM     27  O   UNL     1       1.642  -0.934  -2.378  1.00  0.00    -0.246 OA
BRANCH  26  28
ATOM     28  C   UNL     1       2.203   1.312  -2.927  1.00  0.00     0.060 A 
ATOM     29  C   UNL     1       1.026   1.876  -2.415  1.00  0.00     0.016 A 
ATOM     30  C   UNL     1       3.027   2.082  -3.755  1.00  0.00     0.016 A 
ATOM     31  C   UNL     1       0.663   3.190  -2.742  1.00  0.00     0.010 A 
ATOM     32  C   UNL     1       2.656   3.398  -4.088  1.00  0.00     0.010 A 
ATOM     33  C   UNL     1       1.463   3.960  -3.599  1.00  0.00    -0.014 A 
BRANCH  33  34
ATOM     34  C   UNL     1       1.040   5.338  -3.986  1.00  0.00     0.031 A 
ATOM     35  C   UNL     1       0.375   5.602  -5.302  1.00  0.00     0.074 A 
ATOM     36  C   UNL     1       1.267   6.388  -3.173  1.00  0.00     0.049 A 
ATOM     37  N   UNL     1      -0.063   6.739  -5.781  1.00  0.00    -0.248 NA
ATOM     38  C   UNL     1       0.193   4.454  -6.197  1.00  0.00     0.031 C 
ATOM     39  C   UNL     1       1.951   6.295  -1.896  1.00  0.00     0.029 A 
ATOM     40  N   UNL     1       0.979   7.729  -3.302  1.00  0.00    -0.354 N 
ATOM     41  C   UNL     1      -0.558   6.453  -7.042  1.00  0.00     0.074 A 
ATOM     42  C   UNL     1      -0.358   5.032  -7.257  1.00  0.00     0.031 C 
ATOM     43  C   UNL     1       2.055   7.524  -1.376  1.00  0.00     0.029 A 
ATOM     44  C   UNL     1       1.409   8.492  -2.241  1.00  0.00     0.049 A 
ATOM     45  H   UNL     1       0.509   8.107  -4.080  1.00  0.00     0.167 HD
ATOM     46  C   UNL     1      -1.124   7.296  -7.938  1.00  0.00     0.037 A 
ATOM     47  C   UNL     1       1.304   9.808  -1.961  1.00  0.00     0.037 A 
ATOM     48  C   UNL     1      -1.328   8.710  -7.740  1.00  0.00     0.049 A 
ATOM     49  C   UNL     1       0.632  10.711  -2.950  1.00  0.00     0.074 A 
ATOM     50  C   UNL     1      -1.945   9.612  -8.592  1.00  0.00     0.029 A 
ATOM     51  N   UNL     1      -0.914   9.435  -6.633  1.00  0.00    -0.354 N 
ATOM     52  N   UNL     1       0.093  10.400  -4.102  1.00  0.00    -0.248 NA
ATOM     53  C   UNL     1       0.562  12.141  -2.615  1.00  0.00     0.031 C 
ATOM     54  C   UNL     1      -1.863  10.887  -8.024  1.00  0.00     0.029 A 
ATOM     55  C   UNL     1      -1.235  10.776  -6.796  1.00  0.00     0.049 A 
ATOM     56  H   UNL     1      -0.458   9.055  -5.848  1.00  0.00     0.167 HD
ATOM     57  C   UNL     1      -0.366  11.596  -4.635  1.00  0.00     0.074 A 
ATOM     58  C   UNL     1      -0.090  12.630  -3.660  1.00  0.00     0.031 C 
ATOM     59  C   UNL     1      -0.944  11.813  -5.840  1.00  0.00     0.037 A 
BRANCH  46  60
ATOM     60  C   UNL     1      -1.554   6.711  -9.250  1.00  0.00     0.058 A 
ATOM     61  C   UNL     1      -2.711   5.925  -9.358  1.00  0.00     0.135 A 
ATOM     62  C   UNL     1      -0.834   6.994 -10.420  1.00  0.00     0.135 A 
ATOM     63  F   UNL     1      -3.421   5.612  -8.262  1.00  0.00    -0.206 F 
ATOM     64  C   UNL     1      -3.136   5.431 -10.585  1.00  0.00     0.059 A 
ATOM     65  C   UNL     1      -1.252   6.528 -11.661  1.00  0.00     0.059 A 
ATOM     66  F   UNL     1       0.283   7.737 -10.364  1.00  0.00    -0.206 F 
ATOM     67  C   UNL     1      -2.401   5.742 -11.732  1.00  0.00     0.060 A 
BRANCH  67  68
ATOM     68  S   UNL     1      -2.984   5.118 -13.321  1.00  0.00     0.124 S 
ATOM     69  O   UNL     1      -2.648   3.701 -13.218  1.00  0.00    -0.237 OA
ATOM     70  O   UNL     1      -4.408   5.436 -13.278  1.00  0.00    -0.237 OA
ATOM     71  O   UNL     1      -2.204   5.879 -14.292  1.00  0.00    -0.744 OA
ENDBRANCH  67  68
ENDBRANCH  46  60
BRANCH  47  72
ATOM     72  C   UNL     1       1.824  10.366  -0.677  1.00  0.00     0.058 A 
ATOM     73  C   UNL     1       0.944  10.845   0.307  1.00  0.00     0.135 A 
ATOM     74  C   UNL     1       3.199  10.449  -0.412  1.00  0.00     0.135 A 
ATOM     75  F   UNL     1      -0.381  10.798   0.101  1.00  0.00    -0.206 F 
ATOM     76  C   UNL     1       1.407  11.405   1.495  1.00  0.00     0.059 A 
ATOM     77  C   UNL     1       3.686  10.979   0.780  1.00  0.00     0.059 A 
ATOM     78  F   UNL     1       4.084   9.985  -1.306  1.00  0.00    -0.206 F 
ATOM     79  C   UNL     1       2.782  11.468   1.722  1.00  0.00     0.060 A 
BRANCH  79  80
ATOM     80  S   UNL     1       3.382  12.145   3.286  1.00  0.00     0.124 S 
ATOM     81  O   UNL     1       3.311  13.579   3.032  1.00  0.00    -0.237 OA
ATOM     82  O   UNL     1       2.419  11.619   4.249  1.00  0.00    -0.237 OA
ATOM     83  O   UNL     1       4.726  11.585   3.392  1.00  0.00    -0.744 OA
ENDBRANCH  79  80
ENDBRANCH  47  72
BRANCH  59  84
ATOM     84  C   UNL     1      -1.296  13.233  -6.183  1.00  0.00     0.058 A 
ATOM     85  C   UNL     1      -0.302  14.175  -6.493  1.00  0.00     0.135 A 
ATOM     86  C   UNL     1      -2.634  13.654  -6.223  1.00  0.00     0.135 A 
ATOM     87  F   UNL     1       0.994  13.826  -6.455  1.00  0.00    -0.206 F 
ATOM     88  C   UNL     1      -0.620  15.491  -6.810  1.00  0.00     0.059 A 
ATOM     89  C   UNL     1      -2.977  14.960  -6.561  1.00  0.00     0.059 A 
ATOM     90  F   UNL     1      -3.623  12.793  -5.936  1.00  0.00    -0.206 F 
ATOM     91  C   UNL     1      -1.962  15.874  -6.842  1.00  0.00     0.060 A 
BRANCH  91  92
ATOM     92  S   UNL     1      -2.363  17.578  -7.285  1.00  0.00     0.124 S 
ATOM     93  O   UNL     1      -1.994  18.294  -6.068  1.00  0.00    -0.237 OA
ATOM     94  O   UNL     1      -1.506  17.811  -8.443  1.00  0.00    -0.237 OA
ATOM     95  O   UNL     1      -3.794  17.525  -7.573  1.00  0.00    -0.744 OA
ENDBRANCH  91  92
ENDBRANCH  59  84
ENDBRANCH  33  34
ENDBRANCH  26  28
ENDBRANCH  25  26
ENDBRANCH  24  25
ENDBRANCH   1  24
TORSDOF 17
