REMARK SMILES O=C(OCCOC(=O)c1ccc2c(=O)n(Cc3cccnc3)c(=O)[nH]c2c1)c1ccc(-c2c3nc(c(-c4c(F)cc(S(=O)(=O)[O-])cc4F)c4ccc([nH]4)c(-c4c(F)cc(S(=O)(=O)[O-])cc4F)c4nc(c(-c5c(F)cc(S(=O)(=O)[O-])cc5F)c5ccc2[nH]5)C=C4)C=C3)cc1
REMARK SMILES IDX 4 1 3 2 2 3 1 4 28 5 29 6 93 7 30 8 92 9 31 10 32 11 33 12
REMARK SMILES IDX 86 13 34 14 91 15 85 16 87 17 35 18 90 19 84 20 83 21 36 23
REMARK SMILES IDX 70 24 49 25 69 26 50 27 53 28 68 29 88 30 51 31 52 32 67 34
REMARK SMILES IDX 89 35 54 36 37 37 38 38 47 39 39 40 40 41 46 42 48 43 41 44
REMARK SMILES IDX 42 45 43 46 44 47 45 48 71 49 72 50 81 51 73 52 74 53 80 54
REMARK SMILES IDX 82 55 75 56 76 57 77 58 78 59 79 60 55 61 56 62 65 63 57 64
REMARK SMILES IDX 58 65 64 66 66 67 59 68 60 69 61 70 62 71 63 72 5 73 6 74
REMARK SMILES IDX 7 75 8 76 9 77 10 78 27 79 11 80 26 81 12 82 25 83 13 84
REMARK SMILES IDX 23 85 14 87 15 88 24 89 16 90 17 91 18 92 22 93 19 94 21 95
REMARK SMILES IDX 20 96
REMARK H PARENT 87 22 53 33 25 86
REMARK Flexibility Score: inf
ROOT
ATOM      1  C   UNL     1       4.139  -1.349   0.252  1.00  0.00     0.275 C 
ENDROOT
BRANCH   1   2
ATOM      2  O   UNL     1       3.248  -0.531   1.027  1.00  0.00    -0.458 OA
BRANCH   2   3
ATOM      3  C   UNL     1       3.224   0.818   1.152  1.00  0.00     0.338 C 
ATOM      4  O   UNL     1       2.596   1.321   2.082  1.00  0.00    -0.246 OA
BRANCH   3   5
ATOM      5  C   UNL     1       3.751   1.730   0.092  1.00  0.00     0.060 A 
ATOM      6  C   UNL     1       2.990   2.882  -0.159  1.00  0.00     0.016 A 
ATOM      7  C   UNL     1       4.924   1.550  -0.641  1.00  0.00     0.016 A 
ATOM      8  C   UNL     1       3.312   3.743  -1.211  1.00  0.00     0.010 A 
ATOM      9  C   UNL     1       5.259   2.418  -1.688  1.00  0.00     0.010 A 
ATOM     10  C   UNL     1       4.437   3.502  -2.005  1.00  0.00    -0.014 A 
BRANCH  10  11
ATOM     11  C   UNL     1       4.841   4.469  -3.051  1.00  0.00     0.031 A 
ATOM     12  C   UNL     1       4.785   4.138  -4.514  1.00  0.00     0.074 A 
ATOM     13  C   UNL     1       5.290   5.670  -2.647  1.00  0.00     0.049 A 
ATOM     14  N   UNL     1       4.993   4.920  -5.543  1.00  0.00    -0.248 NA
ATOM     15  C   UNL     1       4.432   2.760  -4.875  1.00  0.00     0.031 C 
ATOM     16  C   UNL     1       5.396   6.100  -1.251  1.00  0.00     0.029 A 
ATOM     17  N   UNL     1       5.749   6.738  -3.365  1.00  0.00    -0.354 N 
ATOM     18  C   UNL     1       4.687   4.162  -6.666  1.00  0.00     0.074 A 
ATOM     19  C   UNL     1       4.365   2.831  -6.199  1.00  0.00     0.031 C 
ATOM     20  C   UNL     1       5.887   7.345  -1.215  1.00  0.00     0.029 A 
ATOM     21  C   UNL     1       6.174   7.777  -2.577  1.00  0.00     0.049 A 
ATOM     22  H   UNL     1       5.773   6.760  -4.349  1.00  0.00     0.167 HD
ATOM     23  C   UNL     1       4.663   4.551  -7.964  1.00  0.00     0.037 A 
ATOM     24  C   UNL     1       6.761   8.940  -2.910  1.00  0.00     0.037 A 
ATOM     25  C   UNL     1       5.155   5.825  -8.422  1.00  0.00     0.049 A 
ATOM     26  C   UNL     1       6.976   9.249  -4.358  1.00  0.00     0.074 A 
ATOM     27  C   UNL     1       5.189   6.334  -9.708  1.00  0.00     0.029 A 
ATOM     28  N   UNL     1       5.772   6.764  -7.607  1.00  0.00    -0.354 N 
ATOM     29  N   UNL     1       6.612   8.554  -5.410  1.00  0.00    -0.248 NA
ATOM     30  C   UNL     1       7.681  10.496  -4.666  1.00  0.00     0.031 C 
ATOM     31  C   UNL     1       5.875   7.557  -9.675  1.00  0.00     0.029 A 
ATOM     32  C   UNL     1       6.215   7.838  -8.361  1.00  0.00     0.049 A 
ATOM     33  H   UNL     1       5.879   6.679  -6.632  1.00  0.00     0.167 HD
ATOM     34  C   UNL     1       7.042   9.280  -6.511  1.00  0.00     0.074 A 
ATOM     35  C   UNL     1       7.677  10.478  -5.993  1.00  0.00     0.031 C 
ATOM     36  C   UNL     1       6.908   8.988  -7.830  1.00  0.00     0.037 A 
BRANCH  23  37
ATOM     37  C   UNL     1       4.097   3.580  -8.965  1.00  0.00     0.058 A 
ATOM     38  C   UNL     1       2.716   3.324  -9.020  1.00  0.00     0.135 A 
ATOM     39  C   UNL     1       4.918   2.910  -9.884  1.00  0.00     0.135 A 
ATOM     40  F   UNL     1       1.884   3.932  -8.160  1.00  0.00    -0.206 F 
ATOM     41  C   UNL     1       2.173   2.416  -9.925  1.00  0.00     0.059 A 
ATOM     42  C   UNL     1       4.396   2.008 -10.810  1.00  0.00     0.059 A 
ATOM     43  F   UNL     1       6.244   3.113  -9.876  1.00  0.00    -0.206 F 
ATOM     44  C   UNL     1       3.024   1.756 -10.812  1.00  0.00     0.060 A 
BRANCH  44  45
ATOM     45  S   UNL     1       2.312   0.538 -11.941  1.00  0.00     0.124 S 
ATOM     46  O   UNL     1       1.881  -0.503 -11.012  1.00  0.00    -0.237 OA
ATOM     47  O   UNL     1       1.244   1.296 -12.584  1.00  0.00    -0.237 OA
ATOM     48  O   UNL     1       3.432   0.178 -12.805  1.00  0.00    -0.744 OA
ENDBRANCH  44  45
ENDBRANCH  23  37
BRANCH  24  49
ATOM     49  C   UNL     1       7.181   9.856  -1.823  1.00  0.00     0.058 A 
ATOM     50  C   UNL     1       6.454  11.018  -1.542  1.00  0.00     0.135 A 
ATOM     51  C   UNL     1       8.231   9.507  -0.956  1.00  0.00     0.135 A 
ATOM     52  F   UNL     1       5.457  11.399  -2.355  1.00  0.00    -0.206 F 
ATOM     53  C   UNL     1       6.727  11.787  -0.415  1.00  0.00     0.059 A 
ATOM     54  C   UNL     1       8.511  10.249   0.185  1.00  0.00     0.059 A 
ATOM     55  F   UNL     1       8.947   8.394  -1.181  1.00  0.00    -0.206 F 
ATOM     56  C   UNL     1       7.745  11.382   0.453  1.00  0.00     0.060 A 
BRANCH  56  57
ATOM     57  S   UNL     1       8.005  12.315   1.977  1.00  0.00     0.124 S 
ATOM     58  O   UNL     1       8.562  13.563   1.469  1.00  0.00    -0.237 OA
ATOM     59  O   UNL     1       6.653  12.393   2.522  1.00  0.00    -0.237 OA
ATOM     60  O   UNL     1       8.929  11.475   2.733  1.00  0.00    -0.744 OA
ENDBRANCH  56  57
ENDBRANCH  24  49
BRANCH  36  61
ATOM     61  C   UNL     1       7.488   9.984  -8.793  1.00  0.00     0.058 A 
ATOM     62  C   UNL     1       8.876  10.114  -8.959  1.00  0.00     0.135 A 
ATOM     63  C   UNL     1       6.653  10.832  -9.536  1.00  0.00     0.135 A 
ATOM     64  F   UNL     1       9.716   9.334  -8.260  1.00  0.00    -0.206 F 
ATOM     65  C   UNL     1       9.417  11.081  -9.798  1.00  0.00     0.059 A 
ATOM     66  C   UNL     1       7.172  11.787 -10.403  1.00  0.00     0.059 A 
ATOM     67  F   UNL     1       5.319  10.742  -9.418  1.00  0.00    -0.206 F 
ATOM     68  C   UNL     1       8.557  11.918 -10.510  1.00  0.00     0.060 A 
BRANCH  68  69
ATOM     69  S   UNL     1       9.271  13.182 -11.582  1.00  0.00     0.124 S 
ATOM     70  O   UNL     1       9.716  14.173 -10.608  1.00  0.00    -0.237 OA
ATOM     71  O   UNL     1      10.329  12.449 -12.270  1.00  0.00    -0.237 OA
ATOM     72  O   UNL     1       8.148  13.586 -12.423  1.00  0.00    -0.744 OA
ENDBRANCH  68  69
ENDBRANCH  36  61
ENDBRANCH  10  11
ENDBRANCH   3   5
ENDBRANCH   2   3
ENDBRANCH   1   2
BRANCH   1  73
ATOM     73  C   UNL     1       3.622  -1.732  -1.137  1.00  0.00     0.275 C 
BRANCH  73  74
ATOM     74  O   UNL     1       3.038  -0.642  -1.865  1.00  0.00    -0.458 OA
BRANCH  74  75
ATOM     75  C   UNL     1       1.683  -0.559  -1.796  1.00  0.00     0.338 C 
ATOM     76  O   UNL     1       0.931  -1.280  -1.164  1.00  0.00    -0.246 OA
BRANCH  75  77
ATOM     77  C   UNL     1       1.240   0.650  -2.515  1.00  0.00     0.062 A 
ATOM     78  C   UNL     1       1.537   0.839  -3.868  1.00  0.00     0.016 A 
ATOM     79  C   UNL     1       0.560   1.636  -1.789  1.00  0.00     0.042 A 
ATOM     80  C   UNL     1       1.181   2.041  -4.489  1.00  0.00     0.017 A 
ATOM     81  C   UNL     1       0.300   2.867  -2.394  1.00  0.00     0.056 A 
ATOM     82  C   UNL     1       0.599   3.066  -3.735  1.00  0.00     0.064 A 
ATOM     83  N   UNL     1      -0.175   3.934  -1.635  1.00  0.00    -0.307 N 
ATOM     84  C   UNL     1       0.306   4.385  -4.327  1.00  0.00     0.264 A 
ATOM     85  C   UNL     1      -0.291   5.215  -2.107  1.00  0.00     0.329 A 
ATOM     86  H   UNL     1      -0.443   3.757  -0.704  1.00  0.00     0.171 HD
ATOM     87  O   UNL     1       0.302   4.490  -5.549  1.00  0.00    -0.268 OA
ATOM     88  N   UNL     1       0.000   5.417  -3.444  1.00  0.00    -0.255 N 
ATOM     89  O   UNL     1      -0.668   6.093  -1.333  1.00  0.00    -0.248 OA
BRANCH  88  90
ATOM     90  C   UNL     1      -0.214   6.748  -4.003  1.00  0.00     0.168 C 
BRANCH  90  91
ATOM     91  C   UNL     1       1.035   7.567  -4.214  1.00  0.00    -0.010 A 
ATOM     92  C   UNL     1       1.901   7.335  -5.288  1.00  0.00     0.009 A 
ATOM     93  C   UNL     1       1.319   8.663  -3.403  1.00  0.00     0.116 A 
ATOM     94  C   UNL     1       2.965   8.201  -5.521  1.00  0.00     0.020 A 
ATOM     95  N   UNL     1       2.342   9.524  -3.608  1.00  0.00    -0.264 NA
ATOM     96  C   UNL     1       3.143   9.274  -4.667  1.00  0.00     0.111 A 
ENDBRANCH  90  91
ENDBRANCH  88  90
ENDBRANCH  75  77
ENDBRANCH  74  75
ENDBRANCH  73  74
ENDBRANCH   1  73
TORSDOF 16
