REMARK SMILES C[C@H]1C[NH+](CC[C@@H]2CCC[C@]2([NH3+])C(=O)OCCOC(=O)c2ccc(-c3c4nc(c(-c5c(F)cc(S(=O)(=O)[O-])cc5F)c5ccc([nH]5)c(-c5c(F)cc(S(=O)(=O)[O-])cc5F)c5nc(c(-c6c(F)cc(S(=O)(=O)[O-])cc6F)c6ccc3[nH]6)C=C5)C=C4)cc2)C[C@H](C)O1
REMARK SMILES IDX 16 1 15 2 13 3 14 4 11 5 7 6 8 7 9 8 10 9 6 10 5 11 4 12
REMARK SMILES IDX 1 13 2 14 3 15 90 16 88 17 87 18 89 20 12 21 17 25 18 26
REMARK SMILES IDX 19 27 20 28 21 29 22 30 86 31 23 32 85 33 24 34 25 35 26 36
REMARK SMILES IDX 79 37 27 38 84 39 78 40 80 41 28 42 83 43 77 44 76 45 29 47
REMARK SMILES IDX 63 48 42 49 62 50 43 51 46 52 61 53 81 54 44 55 45 56 60 58
REMARK SMILES IDX 82 59 47 60 30 61 31 62 40 63 32 64 33 65 39 66 41 67 34 68
REMARK SMILES IDX 35 69 36 70 37 71 38 72 64 73 65 74 74 75 66 76 67 77 73 78
REMARK SMILES IDX 75 79 68 80 69 81 70 82 71 83 72 84 48 85 49 86 58 87 50 88
REMARK SMILES IDX 51 89 57 90 59 91 52 92 53 93 54 94 55 95 56 96
REMARK H PARENT 4 19 12 22 12 23 12 24 80 46 46 57
REMARK Flexibility Score: inf
ROOT
ATOM      1  C   UNL     1      -0.059  -0.147   0.132  1.00  0.00     0.274 C 
ENDROOT
BRANCH   1   2
ATOM      2  O   UNL     1      -0.491   0.468   1.949  1.00  0.00    -0.457 OA
BRANCH   2   3
ATOM      3  C   UNL     1      -0.855   0.901   3.234  1.00  0.00     0.368 C 
ATOM      4  O   UNL     1       0.056   1.227   4.018  1.00  0.00    -0.245 OA
BRANCH   3   5
ATOM      5  C   UNL     1      -2.347   1.172   3.806  1.00  0.00     0.195 C 
ATOM      6  C   UNL     1      -3.675   0.445   3.487  1.00  0.00     0.068 C 
ATOM      7  C   UNL     1      -4.540   1.380   2.643  1.00  0.00     0.011 C 
ATOM      8  C   UNL     1      -4.098   2.776   3.033  1.00  0.00     0.008 C 
ATOM      9  C   UNL     1      -2.705   2.674   3.646  1.00  0.00     0.081 C 
BRANCH   6  10
ATOM     10  C   UNL     1      -3.614  -1.001   3.037  1.00  0.00     0.072 C 
BRANCH  10  11
ATOM     11  C   UNL     1      -3.226  -1.234   1.594  1.00  0.00     0.262 C 
BRANCH  11  12
ATOM     12  N   UNL     1      -1.932  -0.734   1.202  1.00  0.00    -0.331 N 
ATOM     13  C   UNL     1       1.935  -0.766   3.359  1.00  0.00     0.045 C 
ATOM     14  C   UNL     1       1.172  -0.613   2.054  1.00  0.00     0.170 C 
ATOM     15  C   UNL     1      -0.547  -1.482   2.090  1.00  0.00     0.294 C 
ATOM     16  O   UNL     1       1.301   1.101   1.573  1.00  0.00    -0.364 OA
ATOM     17  C   UNL     1      -0.111   2.015   0.895  1.00  0.00     0.170 C 
ATOM     18  C   UNL     1      -1.844   1.061   0.802  1.00  0.00     0.294 C 
ATOM     19  H   UNL     1      -1.789  -1.103   0.261  1.00  0.00     0.348 HD
ATOM     20  C   UNL     1       0.518   2.832  -0.230  1.00  0.00     0.045 C 
ENDBRANCH  11  12
ENDBRANCH  10  11
ENDBRANCH   6  10
BRANCH   5  21
ATOM     21  N   UNL     1      -2.186   0.915   5.287  1.00  0.00    -0.343 N 
ATOM     22  H   UNL     1      -3.080   1.058   5.756  1.00  0.00     0.345 HD
ATOM     23  H   UNL     1      -1.494   1.558   5.670  1.00  0.00     0.345 HD
ATOM     24  H   UNL     1      -1.875  -0.046   5.434  1.00  0.00     0.345 HD
ENDBRANCH   5  21
ENDBRANCH   3   5
ENDBRANCH   2   3
ENDBRANCH   1   2
BRANCH   1  25
ATOM     25  C   UNL     1      -0.917   0.018  -1.289  1.00  0.00     0.275 C 
BRANCH  25  26
ATOM     26  O   UNL     1      -1.147   1.399  -1.705  1.00  0.00    -0.458 OA
BRANCH  26  27
ATOM     27  C   UNL     1      -2.198   1.687  -2.519  1.00  0.00     0.338 C 
ATOM     28  O   UNL     1      -2.790   0.890  -3.224  1.00  0.00    -0.246 OA
BRANCH  27  29
ATOM     29  C   UNL     1      -2.603   3.118  -2.328  1.00  0.00     0.060 A 
ATOM     30  C   UNL     1      -2.729   3.668  -1.045  1.00  0.00     0.016 A 
ATOM     31  C   UNL     1      -2.931   3.921  -3.416  1.00  0.00     0.016 A 
ATOM     32  C   UNL     1      -3.129   4.977  -0.829  1.00  0.00     0.010 A 
ATOM     33  C   UNL     1      -3.312   5.258  -3.206  1.00  0.00     0.010 A 
ATOM     34  C   UNL     1      -3.405   5.796  -1.911  1.00  0.00    -0.014 A 
BRANCH  34  35
ATOM     35  C   UNL     1      -3.882   7.174  -1.662  1.00  0.00     0.031 A 
ATOM     36  C   UNL     1      -5.308   7.506  -1.971  1.00  0.00     0.074 A 
ATOM     37  C   UNL     1      -3.088   8.104  -1.096  1.00  0.00     0.049 A 
ATOM     38  N   UNL     1      -5.872   8.672  -2.124  1.00  0.00    -0.248 NA
ATOM     39  C   UNL     1      -6.223   6.365  -2.123  1.00  0.00     0.031 C 
ATOM     40  C   UNL     1      -1.736   7.876  -0.584  1.00  0.00     0.029 A 
ATOM     41  N   UNL     1      -3.307   9.439  -0.859  1.00  0.00    -0.354 N 
ATOM     42  C   UNL     1      -7.188   8.407  -2.476  1.00  0.00     0.074 A 
ATOM     43  C   UNL     1      -7.352   6.970  -2.461  1.00  0.00     0.031 C 
ATOM     44  C   UNL     1      -1.244   9.031  -0.104  1.00  0.00     0.029 A 
ATOM     45  C   UNL     1      -2.206  10.096  -0.360  1.00  0.00     0.049 A 
ATOM     46  H   UNL     1      -4.169   9.883  -1.030  1.00  0.00     0.167 HD
ATOM     47  C   UNL     1      -8.153   9.292  -2.815  1.00  0.00     0.037 A 
ATOM     48  C   UNL     1      -1.974  11.415  -0.204  1.00  0.00     0.037 A 
ATOM     49  C   UNL     1      -7.968  10.718  -2.783  1.00  0.00     0.049 A 
ATOM     50  C   UNL     1      -3.031  12.391  -0.649  1.00  0.00     0.074 A 
ATOM     51  C   UNL     1      -8.844  11.716  -3.170  1.00  0.00     0.029 A 
ATOM     52  N   UNL     1      -6.824  11.349  -2.313  1.00  0.00    -0.354 N 
ATOM     53  N   UNL     1      -4.221  12.149  -1.146  1.00  0.00    -0.248 NA
ATOM     54  C   UNL     1      -2.702  13.819  -0.552  1.00  0.00     0.031 C 
ATOM     55  C   UNL     1      -8.221  12.951  -2.949  1.00  0.00     0.029 A 
ATOM     56  C   UNL     1      -6.970  12.722  -2.397  1.00  0.00     0.049 A 
ATOM     57  H   UNL     1      -6.026  10.887  -1.970  1.00  0.00     0.167 HD
ATOM     58  C   UNL     1      -4.780  13.391  -1.427  1.00  0.00     0.074 A 
ATOM     59  C   UNL     1      -3.807  14.384  -1.022  1.00  0.00     0.031 C 
ATOM     60  C   UNL     1      -5.982  13.685  -1.981  1.00  0.00     0.037 A 
BRANCH  47  61
ATOM     61  C   UNL     1      -9.442   8.732  -3.333  1.00  0.00     0.058 A 
ATOM     62  C   UNL     1     -10.408   8.171  -2.489  1.00  0.00     0.135 A 
ATOM     63  C   UNL     1      -9.699   8.741  -4.712  1.00  0.00     0.135 A 
ATOM     64  F   UNL     1     -10.195   8.111  -1.166  1.00  0.00    -0.206 F 
ATOM     65  C   UNL     1     -11.577   7.615  -2.997  1.00  0.00     0.059 A 
ATOM     66  C   UNL     1     -10.868   8.207  -5.240  1.00  0.00     0.059 A 
ATOM     67  F   UNL     1      -8.797   9.254  -5.563  1.00  0.00    -0.206 F 
ATOM     68  C   UNL     1     -11.795   7.631  -4.375  1.00  0.00     0.060 A 
BRANCH  68  69
ATOM     69  S   UNL     1     -13.304   6.890  -5.029  1.00  0.00     0.124 S 
ATOM     70  O   UNL     1     -12.979   5.468  -4.967  1.00  0.00    -0.237 OA
ATOM     71  O   UNL     1     -14.317   7.349  -4.085  1.00  0.00    -0.237 OA
ATOM     72  O   UNL     1     -13.403   7.452  -6.373  1.00  0.00    -0.744 OA
ENDBRANCH  68  69
ENDBRANCH  47  61
BRANCH  48  73
ATOM     73  C   UNL     1      -0.655  11.891   0.292  1.00  0.00     0.058 A 
ATOM     74  C   UNL     1      -0.525  12.498   1.547  1.00  0.00     0.135 A 
ATOM     75  C   UNL     1       0.504  11.749  -0.484  1.00  0.00     0.135 A 
ATOM     76  F   UNL     1      -1.607  12.674   2.320  1.00  0.00    -0.206 F 
ATOM     77  C   UNL     1       0.706  12.946   2.016  1.00  0.00     0.059 A 
ATOM     78  C   UNL     1       1.749  12.167  -0.027  1.00  0.00     0.059 A 
ATOM     79  F   UNL     1       0.435  11.173  -1.693  1.00  0.00    -0.206 F 
ATOM     80  C   UNL     1       1.839  12.772   1.223  1.00  0.00     0.060 A 
BRANCH  80  81
ATOM     81  S   UNL     1       3.446  13.299   1.857  1.00  0.00     0.124 S 
ATOM     82  O   UNL     1       3.403  14.735   1.609  1.00  0.00    -0.237 OA
ATOM     83  O   UNL     1       3.377  12.891   3.257  1.00  0.00    -0.237 OA
ATOM     84  O   UNL     1       4.389  12.543   1.039  1.00  0.00    -0.744 OA
ENDBRANCH  80  81
ENDBRANCH  48  73
BRANCH  60  85
ATOM     85  C   UNL     1      -6.315  15.136  -2.160  1.00  0.00     0.058 A 
ATOM     86  C   UNL     1      -5.789  15.878  -3.226  1.00  0.00     0.135 A 
ATOM     87  C   UNL     1      -7.210  15.771  -1.289  1.00  0.00     0.135 A 
ATOM     88  F   UNL     1      -4.923  15.311  -4.080  1.00  0.00    -0.206 F 
ATOM     89  C   UNL     1      -6.131  17.210  -3.416  1.00  0.00     0.059 A 
ATOM     90  C   UNL     1      -7.580  17.098  -1.471  1.00  0.00     0.059 A 
ATOM     91  F   UNL     1      -7.744  15.097  -0.260  1.00  0.00    -0.206 F 
ATOM     92  C   UNL     1      -7.028  17.813  -2.533  1.00  0.00     0.060 A 
BRANCH  92  93
ATOM     93  S   UNL     1      -7.501  19.532  -2.809  1.00  0.00     0.124 S 
ATOM     94  O   UNL     1      -6.351  20.244  -2.261  1.00  0.00    -0.237 OA
ATOM     95  O   UNL     1      -7.651  19.592  -4.260  1.00  0.00    -0.237 OA
ATOM     96  O   UNL     1      -8.742  19.666  -2.052  1.00  0.00    -0.744 OA
ENDBRANCH  92  93
ENDBRANCH  60  85
ENDBRANCH  34  35
ENDBRANCH  27  29
ENDBRANCH  26  27
ENDBRANCH  25  26
ENDBRANCH   1  25
TORSDOF 18
