REMARK SMILES CC1(C)[C@H](C#N)C(SCC(=O)OCCOC(=O)c2ccc(-c3c4nc(c(-c5c(F)cc(S(=O)(=O)[O-])cc5F)c5ccc([nH]5)c(-c5c(F)cc(S(=O)(=O)[O-])cc5F)c5nc(c(-c6c(F)cc(S(=O)(=O)[O-])cc6F)c6ccc3[nH]6)C=C5)C=C4)cc2)=NC(=O)[C@@H]1C#N
REMARK SMILES IDX 13 1 12 2 10 3 11 4 9 5 8 6 7 7 1 8 2 9 3 10 4 11 87 12
REMARK SMILES IDX 85 13 84 14 86 15 5 16 6 17 88 18 89 19 14 20 15 21 16 22
REMARK SMILES IDX 17 23 18 24 19 25 83 26 20 27 82 28 21 29 22 30 23 31 76 32
REMARK SMILES IDX 24 33 81 34 75 35 77 36 25 37 80 38 74 39 73 40 26 42 60 43
REMARK SMILES IDX 39 44 59 45 40 46 43 47 58 48 78 49 41 50 42 51 57 53 79 54
REMARK SMILES IDX 44 55 27 56 28 57 37 58 29 59 30 60 36 61 38 62 31 63 32 64
REMARK SMILES IDX 33 65 34 66 35 67 61 68 62 69 71 70 63 71 64 72 70 73 72 74
REMARK SMILES IDX 65 75 66 76 67 77 68 78 69 79 45 80 46 81 55 82 47 83 48 84
REMARK SMILES IDX 54 85 56 86 49 87 50 88 51 89 52 90 53 91
REMARK H PARENT 77 41 43 52
REMARK Flexibility Score: inf
ROOT
ATOM      1  C   UNL     1       3.507   5.792   3.149  1.00  0.00     0.274 C 
ENDROOT
BRANCH   1   2
ATOM      2  O   UNL     1       2.168   5.417   2.779  1.00  0.00    -0.461 OA
BRANCH   2   3
ATOM      3  C   UNL     1       1.397   6.394   2.228  1.00  0.00     0.316 C 
ATOM      4  O   UNL     1       1.736   7.569   2.138  1.00  0.00    -0.251 OA
BRANCH   3   5
ATOM      5  C   UNL     1       0.041   5.914   1.753  1.00  0.00     0.198 C 
BRANCH   5   6
ATOM      6  S   UNL     1      -0.198   4.144   1.875  1.00  0.00    -0.097 SA
BRANCH   6   7
ATOM      7  C   UNL     1       0.287   3.453   0.328  1.00  0.00     0.095 C 
ATOM      8  C   UNL     1       1.356  -0.021  -0.050  1.00  0.00     0.015 C 
ATOM      9  C   UNL     1       0.566   1.075  -0.813  1.00  0.00     0.012 C 
ATOM     10  C   UNL     1      -0.491   0.228  -1.640  1.00  0.00     0.015 C 
ATOM     11  C   UNL     1      -0.103   2.029   0.247  1.00  0.00     0.156 C 
ATOM     12  C   UNL     1       1.500   1.905  -1.735  1.00  0.00     0.191 C 
ATOM     13  C   UNL     1       1.111   3.390  -1.823  1.00  0.00     0.264 C 
ATOM     14  N   UNL     1       0.789   4.092  -0.662  1.00  0.00    -0.209 NA
ATOM     15  O   UNL     1       1.192   3.980  -2.893  1.00  0.00    -0.271 OA
BRANCH  11  16
ATOM     16  C   UNL     1      -1.566   2.069  -0.164  1.00  0.00     0.073 C 
ATOM     17  N   UNL     1      -2.779   2.102  -0.504  1.00  0.00    -0.198 NA
ENDBRANCH  11  16
BRANCH  12  18
ATOM     18  C   UNL     1       1.571   1.341  -3.104  1.00  0.00     0.076 C 
ATOM     19  N   UNL     1       1.581   0.829  -4.143  1.00  0.00    -0.197 NA
ENDBRANCH  12  18
ENDBRANCH   6   7
ENDBRANCH   5   6
ENDBRANCH   3   5
ENDBRANCH   2   3
ENDBRANCH   1   2
BRANCH   1  20
ATOM     20  C   UNL     1       4.481   5.401   2.042  1.00  0.00     0.275 C 
BRANCH  20  21
ATOM     21  O   UNL     1       4.141   6.100   0.828  1.00  0.00    -0.458 OA
BRANCH  21  22
ATOM     22  C   UNL     1       3.569   5.327  -0.123  1.00  0.00     0.338 C 
ATOM     23  O   UNL     1       3.432   4.111  -0.070  1.00  0.00    -0.246 OA
BRANCH  22  24
ATOM     24  C   UNL     1       3.110   6.127  -1.280  1.00  0.00     0.060 A 
ATOM     25  C   UNL     1       1.929   6.875  -1.225  1.00  0.00     0.016 A 
ATOM     26  C   UNL     1       3.735   5.915  -2.506  1.00  0.00     0.016 A 
ATOM     27  C   UNL     1       1.315   7.320  -2.399  1.00  0.00     0.010 A 
ATOM     28  C   UNL     1       3.171   6.443  -3.672  1.00  0.00     0.010 A 
ATOM     29  C   UNL     1       1.947   7.132  -3.634  1.00  0.00    -0.014 A 
BRANCH  29  30
ATOM     30  C   UNL     1       1.444   7.805  -4.859  1.00  0.00     0.031 A 
ATOM     31  C   UNL     1       0.953   7.035  -6.053  1.00  0.00     0.074 A 
ATOM     32  C   UNL     1       1.568   9.146  -4.912  1.00  0.00     0.049 A 
ATOM     33  N   UNL     1       0.712   7.467  -7.266  1.00  0.00    -0.248 NA
ATOM     34  C   UNL     1       0.694   5.600  -5.872  1.00  0.00     0.031 C 
ATOM     35  C   UNL     1       2.014   9.994  -3.802  1.00  0.00     0.029 A 
ATOM     36  N   UNL     1       1.384  10.026  -5.948  1.00  0.00    -0.354 N 
ATOM     37  C   UNL     1       0.307   6.356  -8.000  1.00  0.00     0.074 A 
ATOM     38  C   UNL     1       0.322   5.229  -7.092  1.00  0.00     0.031 C 
ATOM     39  C   UNL     1       2.106  11.261  -4.224  1.00  0.00     0.029 A 
ATOM     40  C   UNL     1       1.801  11.302  -5.647  1.00  0.00     0.049 A 
ATOM     41  H   UNL     1       0.995   9.772  -6.815  1.00  0.00     0.167 HD
ATOM     42  C   UNL     1      -0.025   6.293  -9.313  1.00  0.00     0.037 A 
ATOM     43  C   UNL     1       1.992  12.374  -6.438  1.00  0.00     0.037 A 
ATOM     44  C   UNL     1      -0.027   7.436 -10.197  1.00  0.00     0.049 A 
ATOM     45  C   UNL     1       1.689  12.255  -7.903  1.00  0.00     0.074 A 
ATOM     46  C   UNL     1      -0.404   7.490 -11.529  1.00  0.00     0.029 A 
ATOM     47  N   UNL     1       0.391   8.714  -9.852  1.00  0.00    -0.354 N 
ATOM     48  N   UNL     1       1.252  11.215  -8.572  1.00  0.00    -0.248 NA
ATOM     49  C   UNL     1       1.904  13.453  -8.724  1.00  0.00     0.031 C 
ATOM     50  C   UNL     1      -0.135   8.775 -12.009  1.00  0.00     0.029 A 
ATOM     51  C   UNL     1       0.331   9.547 -10.959  1.00  0.00     0.049 A 
ATOM     52  H   UNL     1       0.686   8.988  -8.954  1.00  0.00     0.167 HD
ATOM     53  C   UNL     1       1.112  11.642  -9.886  1.00  0.00     0.074 A 
ATOM     54  C   UNL     1       1.492  13.040  -9.913  1.00  0.00     0.031 C 
ATOM     55  C   UNL     1       0.707  10.940 -10.973  1.00  0.00     0.037 A 
BRANCH  42  56
ATOM     56  C   UNL     1      -0.372   4.955  -9.916  1.00  0.00     0.058 A 
ATOM     57  C   UNL     1      -1.586   4.303  -9.650  1.00  0.00     0.135 A 
ATOM     58  C   UNL     1       0.477   4.378 -10.878  1.00  0.00     0.135 A 
ATOM     59  F   UNL     1      -2.437   4.802  -8.740  1.00  0.00    -0.206 F 
ATOM     60  C   UNL     1      -1.945   3.131 -10.315  1.00  0.00     0.059 A 
ATOM     61  C   UNL     1       0.126   3.224 -11.574  1.00  0.00     0.059 A 
ATOM     62  F   UNL     1       1.649   4.960 -11.179  1.00  0.00    -0.206 F 
ATOM     63  C   UNL     1      -1.087   2.605 -11.284  1.00  0.00     0.060 A 
BRANCH  63  64
ATOM     64  S   UNL     1      -1.597   1.121 -12.181  1.00  0.00     0.124 S 
ATOM     65  O   UNL     1      -1.536   0.105 -11.135  1.00  0.00    -0.237 OA
ATOM     66  O   UNL     1      -2.937   1.478 -12.637  1.00  0.00    -0.237 OA
ATOM     67  O   UNL     1      -0.594   0.995 -13.235  1.00  0.00    -0.744 OA
ENDBRANCH  63  64
ENDBRANCH  42  56
BRANCH  43  68
ATOM     68  C   UNL     1       2.545  13.630  -5.866  1.00  0.00     0.058 A 
ATOM     69  C   UNL     1       1.775  14.799  -5.816  1.00  0.00     0.135 A 
ATOM     70  C   UNL     1       3.856  13.688  -5.364  1.00  0.00     0.135 A 
ATOM     71  F   UNL     1       0.516  14.794  -6.282  1.00  0.00    -0.206 F 
ATOM     72  C   UNL     1       2.295  15.992  -5.329  1.00  0.00     0.059 A 
ATOM     73  C   UNL     1       4.386  14.859  -4.835  1.00  0.00     0.059 A 
ATOM     74  F   UNL     1       4.630  12.591  -5.365  1.00  0.00    -0.206 F 
ATOM     75  C   UNL     1       3.604  16.012  -4.843  1.00  0.00     0.060 A 
BRANCH  75  76
ATOM     76  S   UNL     1       4.266  17.567  -4.212  1.00  0.00     0.124 S 
ATOM     77  O   UNL     1       4.420  18.339  -5.439  1.00  0.00    -0.237 OA
ATOM     78  O   UNL     1       3.206  18.007  -3.309  1.00  0.00    -0.237 OA
ATOM     79  O   UNL     1       5.508  17.165  -3.559  1.00  0.00    -0.744 OA
ENDBRANCH  75  76
ENDBRANCH  43  68
BRANCH  55  80
ATOM     80  C   UNL     1       0.616  11.682 -12.279  1.00  0.00     0.058 A 
ATOM     81  C   UNL     1       1.761  12.111 -12.969  1.00  0.00     0.135 A 
ATOM     82  C   UNL     1      -0.634  11.924 -12.873  1.00  0.00     0.135 A 
ATOM     83  F   UNL     1       2.981  11.920 -12.441  1.00  0.00    -0.206 F 
ATOM     84  C   UNL     1       1.669  12.772 -14.190  1.00  0.00     0.059 A 
ATOM     85  C   UNL     1      -0.747  12.550 -14.110  1.00  0.00     0.059 A 
ATOM     86  F   UNL     1      -1.762  11.533 -12.258  1.00  0.00    -0.206 F 
ATOM     87  C   UNL     1       0.410  12.979 -14.757  1.00  0.00     0.060 A 
BRANCH  87  88
ATOM     88  S   UNL     1       0.312  13.791 -16.365  1.00  0.00     0.124 S 
ATOM     89  O   UNL     1       0.698  15.158 -16.031  1.00  0.00    -0.237 OA
ATOM     90  O   UNL     1       1.279  13.034 -17.154  1.00  0.00    -0.237 OA
ATOM     91  O   UNL     1      -1.084  13.612 -16.754  1.00  0.00    -0.744 OA
ENDBRANCH  87  88
ENDBRANCH  55  80
ENDBRANCH  29  30
ENDBRANCH  22  24
ENDBRANCH  21  22
ENDBRANCH  20  21
ENDBRANCH   1  20
TORSDOF 18
