REMARK SMILES O=C(OCCOC(=O)c1cccn1CC(=O)N1CC[C@H]2CCCC[C@H]2C1)c1ccc(-c2c3nc(c(-c4c(F)cc(S(=O)(=O)[O-])cc4F)c4ccc([nH]4)c(-c4c(F)cc(S(=O)(=O)[O-])cc4F)c4nc(c(-c5c(F)cc(S(=O)(=O)[O-])cc5F)c5ccc2[nH]5)C=C4)C=C3)cc1
REMARK SMILES IDX 4 1 3 2 2 3 1 4 27 5 28 6 92 7 29 8 91 9 30 10 31 11 32 12
REMARK SMILES IDX 85 13 33 14 90 15 84 16 86 17 34 18 89 19 83 20 82 21 35 23
REMARK SMILES IDX 69 24 48 25 68 26 49 27 52 28 67 29 87 30 50 31 51 32 66 34
REMARK SMILES IDX 88 35 53 36 36 37 37 38 46 39 38 40 39 41 45 42 47 43 40 44
REMARK SMILES IDX 41 45 42 46 43 47 44 48 70 49 71 50 80 51 72 52 73 53 79 54
REMARK SMILES IDX 81 55 74 56 75 57 76 58 77 59 78 60 54 61 55 62 64 63 56 64
REMARK SMILES IDX 57 65 63 66 65 67 58 68 59 69 60 70 61 71 62 72 5 73 6 74
REMARK SMILES IDX 7 75 8 76 9 77 10 78 13 79 11 80 12 81 14 82 15 83 16 84
REMARK SMILES IDX 17 85 18 86 26 87 19 88 25 89 20 90 24 91 21 92 23 93 22 94
REMARK H PARENT 86 22 52 33
REMARK Flexibility Score: inf
ROOT
ATOM      1  C   UNL     1       5.146  -1.006  -0.686  1.00  0.00     0.275 C 
ENDROOT
BRANCH   1   2
ATOM      2  O   UNL     1       5.529   0.056  -1.654  1.00  0.00    -0.458 OA
BRANCH   2   3
ATOM      3  C   UNL     1       4.467   0.754  -2.129  1.00  0.00     0.338 C 
ATOM      4  O   UNL     1       3.366   0.282  -1.971  1.00  0.00    -0.246 OA
BRANCH   3   5
ATOM      5  C   UNL     1       4.387   2.208  -2.431  1.00  0.00     0.060 A 
ATOM      6  C   UNL     1       5.416   3.086  -2.229  1.00  0.00     0.016 A 
ATOM      7  C   UNL     1       3.070   2.746  -2.443  1.00  0.00     0.016 A 
ATOM      8  C   UNL     1       5.083   4.402  -1.829  1.00  0.00     0.010 A 
ATOM      9  C   UNL     1       2.740   3.991  -1.897  1.00  0.00     0.010 A 
ATOM     10  C   UNL     1       3.755   4.838  -1.495  1.00  0.00    -0.014 A 
BRANCH  10  11
ATOM     11  C   UNL     1       3.480   6.322  -1.332  1.00  0.00     0.031 A 
ATOM     12  C   UNL     1       3.572   6.777  -2.760  1.00  0.00     0.074 A 
ATOM     13  C   UNL     1       3.490   7.071  -0.175  1.00  0.00     0.049 A 
ATOM     14  N   UNL     1       4.653   7.064  -3.413  1.00  0.00    -0.248 NA
ATOM     15  C   UNL     1       2.446   6.395  -3.664  1.00  0.00     0.031 C 
ATOM     16  C   UNL     1       2.817   6.763   1.096  1.00  0.00     0.029 A 
ATOM     17  N   UNL     1       4.025   8.314   0.160  1.00  0.00    -0.354 N 
ATOM     18  C   UNL     1       4.223   7.196  -4.730  1.00  0.00     0.074 A 
ATOM     19  C   UNL     1       3.056   6.379  -4.853  1.00  0.00     0.031 C 
ATOM     20  C   UNL     1       3.177   7.614   2.095  1.00  0.00     0.029 A 
ATOM     21  C   UNL     1       4.085   8.620   1.574  1.00  0.00     0.049 A 
ATOM     22  H   UNL     1       4.343   8.946  -0.524  1.00  0.00     0.167 HD
ATOM     23  C   UNL     1       4.512   8.300  -5.470  1.00  0.00     0.037 A 
ATOM     24  C   UNL     1       4.864   9.564   2.228  1.00  0.00     0.037 A 
ATOM     25  C   UNL     1       5.202   9.249  -4.647  1.00  0.00     0.049 A 
ATOM     26  C   UNL     1       5.197  10.478   1.134  1.00  0.00     0.074 A 
ATOM     27  C   UNL     1       6.420   9.174  -4.021  1.00  0.00     0.029 A 
ATOM     28  N   UNL     1       4.405  10.175  -3.993  1.00  0.00    -0.354 N 
ATOM     29  N   UNL     1       4.328  11.268   0.581  1.00  0.00    -0.248 NA
ATOM     30  C   UNL     1       6.545  10.473   0.557  1.00  0.00     0.031 C 
ATOM     31  C   UNL     1       6.152   9.703  -2.746  1.00  0.00     0.029 A 
ATOM     32  C   UNL     1       4.944  10.411  -2.754  1.00  0.00     0.049 A 
ATOM     33  H   UNL     1       3.590  10.592  -4.356  1.00  0.00     0.167 HD
ATOM     34  C   UNL     1       4.899  11.488  -0.643  1.00  0.00     0.074 A 
ATOM     35  C   UNL     1       6.330  11.321  -0.449  1.00  0.00     0.031 C 
ATOM     36  C   UNL     1       4.184  11.128  -1.748  1.00  0.00     0.037 A 
BRANCH  23  37
ATOM     37  C   UNL     1       3.909   8.777  -6.741  1.00  0.00     0.058 A 
ATOM     38  C   UNL     1       4.684   9.673  -7.504  1.00  0.00     0.135 A 
ATOM     39  C   UNL     1       2.566   8.616  -7.116  1.00  0.00     0.135 A 
ATOM     40  F   UNL     1       5.985   9.864  -7.224  1.00  0.00    -0.206 F 
ATOM     41  C   UNL     1       4.135  10.435  -8.521  1.00  0.00     0.059 A 
ATOM     42  C   UNL     1       2.011   9.330  -8.168  1.00  0.00     0.059 A 
ATOM     43  F   UNL     1       1.720   7.835  -6.436  1.00  0.00    -0.206 F 
ATOM     44  C   UNL     1       2.792  10.265  -8.835  1.00  0.00     0.060 A 
BRANCH  44  45
ATOM     45  S   UNL     1       2.077  11.300 -10.116  1.00  0.00     0.124 S 
ATOM     46  O   UNL     1       2.038  12.599  -9.454  1.00  0.00    -0.237 OA
ATOM     47  O   UNL     1       3.053  11.162 -11.192  1.00  0.00    -0.237 OA
ATOM     48  O   UNL     1       0.783  10.675 -10.369  1.00  0.00    -0.744 OA
ENDBRANCH  44  45
ENDBRANCH  23  37
BRANCH  24  49
ATOM     49  C   UNL     1       5.462  10.018   3.583  1.00  0.00     0.058 A 
ATOM     50  C   UNL     1       5.397   9.364   4.822  1.00  0.00     0.135 A 
ATOM     51  C   UNL     1       6.368  11.136   3.602  1.00  0.00     0.135 A 
ATOM     52  F   UNL     1       4.530   8.358   5.009  1.00  0.00    -0.206 F 
ATOM     53  C   UNL     1       6.245   9.709   5.922  1.00  0.00     0.059 A 
ATOM     54  C   UNL     1       7.256  11.446   4.633  1.00  0.00     0.059 A 
ATOM     55  F   UNL     1       6.464  11.989   2.573  1.00  0.00    -0.206 F 
ATOM     56  C   UNL     1       7.211  10.714   5.796  1.00  0.00     0.060 A 
BRANCH  56  57
ATOM     57  S   UNL     1       8.493  11.014   7.049  1.00  0.00     0.124 S 
ATOM     58  O   UNL     1       7.832  11.945   7.956  1.00  0.00    -0.237 OA
ATOM     59  O   UNL     1       8.743   9.677   7.578  1.00  0.00    -0.237 OA
ATOM     60  O   UNL     1       9.597  11.576   6.272  1.00  0.00    -0.744 OA
ENDBRANCH  56  57
ENDBRANCH  24  49
BRANCH  36  61
ATOM     61  C   UNL     1       2.663  11.166  -1.553  1.00  0.00     0.058 A 
ATOM     62  C   UNL     1       2.041  12.328  -1.050  1.00  0.00     0.135 A 
ATOM     63  C   UNL     1       1.812  10.058  -1.708  1.00  0.00     0.135 A 
ATOM     64  F   UNL     1       2.759  13.450  -0.883  1.00  0.00    -0.206 F 
ATOM     65  C   UNL     1       0.684  12.376  -0.705  1.00  0.00     0.059 A 
ATOM     66  C   UNL     1       0.451  10.072  -1.362  1.00  0.00     0.059 A 
ATOM     67  F   UNL     1       2.284   8.920  -2.217  1.00  0.00    -0.206 F 
ATOM     68  C   UNL     1      -0.109  11.243  -0.866  1.00  0.00     0.060 A 
BRANCH  68  69
ATOM     69  S   UNL     1      -1.872  11.344  -0.466  1.00  0.00     0.124 S 
ATOM     70  O   UNL     1      -1.863  11.851   0.903  1.00  0.00    -0.237 OA
ATOM     71  O   UNL     1      -2.356  12.277  -1.478  1.00  0.00    -0.237 OA
ATOM     72  O   UNL     1      -2.342   9.969  -0.613  1.00  0.00    -0.744 OA
ENDBRANCH  68  69
ENDBRANCH  36  61
ENDBRANCH  10  11
ENDBRANCH   3   5
ENDBRANCH   2   3
ENDBRANCH   1   2
BRANCH   1  73
ATOM     73  C   UNL     1       4.436  -2.322  -1.129  1.00  0.00     0.275 C 
BRANCH  73  74
ATOM     74  O   UNL     1       3.204  -2.164  -1.862  1.00  0.00    -0.457 OA
BRANCH  74  75
ATOM     75  C   UNL     1       2.086  -1.774  -1.157  1.00  0.00     0.355 C 
ATOM     76  O   UNL     1       1.893  -2.046   0.026  1.00  0.00    -0.244 OA
BRANCH  75  77
ATOM     77  C   UNL     1       1.289  -0.856  -1.968  1.00  0.00     0.128 A 
ATOM     78  C   UNL     1       1.269  -0.839  -3.369  1.00  0.00     0.035 A 
ATOM     79  N   UNL     1       0.778   0.403  -1.535  1.00  0.00    -0.333 N 
ATOM     80  C   UNL     1       0.575   0.307  -3.792  1.00  0.00     0.020 A 
ATOM     81  C   UNL     1       0.155   0.969  -2.648  1.00  0.00     0.087 A 
BRANCH  79  82
ATOM     82  C   UNL     1       0.781   0.948  -0.105  1.00  0.00     0.222 C 
BRANCH  82  83
ATOM     83  C   UNL     1       1.399   2.347   0.472  1.00  0.00     0.242 C 
ATOM     84  O   UNL     1       0.690   3.362   0.386  1.00  0.00    -0.273 OA
BRANCH  83  85
ATOM     85  N   UNL     1       2.633   2.435   1.264  1.00  0.00    -0.341 N 
ATOM     86  C   UNL     1       3.793   1.908   0.646  1.00  0.00     0.120 C 
ATOM     87  C   UNL     1       3.003   3.673   2.039  1.00  0.00     0.123 C 
ATOM     88  C   UNL     1       5.009   1.648   1.510  1.00  0.00     0.025 C 
ATOM     89  C   UNL     1       4.449   3.743   2.736  1.00  0.00     0.012 C 
ATOM     90  C   UNL     1       5.582   2.933   2.096  1.00  0.00    -0.005 C 
ATOM     91  C   UNL     1       5.027   5.112   3.192  1.00  0.00     0.006 C 
ATOM     92  C   UNL     1       6.566   3.647   1.139  1.00  0.00     0.004 C 
ATOM     93  C   UNL     1       6.064   5.847   2.326  1.00  0.00     0.000 C 
ATOM     94  C   UNL     1       6.538   5.159   1.077  1.00  0.00     0.000 C 
ENDBRANCH  83  85
ENDBRANCH  82  83
ENDBRANCH  79  82
ENDBRANCH  75  77
ENDBRANCH  74  75
ENDBRANCH  73  74
ENDBRANCH   1  73
TORSDOF 17
