REMARK SMILES [NH3+][C@]1(C(=O)OCCOC(=O)c2ccc(-c3c4nc(c(-c5c(F)cc(S(=O)(=O)[O-])cc5F)c5ccc([nH]5)c(-c5c(F)cc(S(=O)(=O)[O-])cc5F)c5nc(c(-c6c(F)cc(S(=O)(=O)[O-])cc6F)c6ccc3[nH]6)C=C5)C=C4)cc2)CC[C@@H](Sc2cc3ccccc3[nH]2)C1
REMARK SMILES IDX 7 1 6 2 5 3 3 4 4 5 2 6 77 7 90 8 78 9 79 10 1 11 80 15
REMARK SMILES IDX 81 16 82 17 89 18 83 19 88 20 84 22 87 23 85 24 86 25 8 26
REMARK SMILES IDX 9 27 10 28 11 29 12 30 76 31 13 32 75 33 14 34 15 35 16 36
REMARK SMILES IDX 69 37 17 38 74 39 68 40 70 41 18 42 73 43 67 44 66 45 19 47
REMARK SMILES IDX 53 48 32 49 52 50 33 51 36 52 51 53 71 54 34 55 35 56 50 58
REMARK SMILES IDX 72 59 37 60 20 61 21 62 30 63 22 64 23 65 29 66 31 67 24 68
REMARK SMILES IDX 25 69 26 70 27 71 28 72 54 73 55 74 64 75 56 76 57 77 63 78
REMARK SMILES IDX 65 79 58 80 59 81 60 82 61 83 62 84 38 85 39 86 48 87 40 88
REMARK SMILES IDX 41 89 47 90 49 91 42 92 43 93 44 94 45 95 46 96
REMARK H PARENT 1 12 1 13 1 14 89 21 70 46 36 57
REMARK Flexibility Score: inf
ROOT
ATOM      1  C   UNL     1       3.827   1.485   0.184  1.00  0.00     0.275 C 
ENDROOT
BRANCH   1   2
ATOM      2  C   UNL     1       3.065   0.753   1.289  1.00  0.00     0.274 C 
BRANCH   2   3
ATOM      3  O   UNL     1       2.467  -0.457   0.790  1.00  0.00    -0.457 OA
BRANCH   3   4
ATOM      4  C   UNL     1       1.137  -0.372   0.493  1.00  0.00     0.368 C 
ATOM      5  O   UNL     1       0.455   0.631   0.670  1.00  0.00    -0.245 OA
BRANCH   4   6
ATOM      6  C   UNL     1       0.634  -1.671  -0.179  1.00  0.00     0.193 C 
ATOM      7  C   UNL     1       1.124  -2.929   0.548  1.00  0.00     0.082 C 
ATOM      8  C   UNL     1      -0.903  -1.746  -0.098  1.00  0.00     0.096 C 
ATOM      9  C   UNL     1       0.049  -3.970   0.278  1.00  0.00     0.022 C 
ATOM     10  C   UNL     1      -1.255  -3.185   0.286  1.00  0.00     0.060 C 
BRANCH   6  11
ATOM     11  N   UNL     1       1.028  -1.698  -1.601  1.00  0.00    -0.343 N 
ATOM     12  H   UNL     1       0.690  -2.559  -2.031  1.00  0.00     0.345 HD
ATOM     13  H   UNL     1       2.045  -1.659  -1.673  1.00  0.00     0.345 HD
ATOM     14  H   UNL     1       0.622  -0.896  -2.082  1.00  0.00     0.345 HD
ENDBRANCH   6  11
BRANCH  10  15
ATOM     15  S   UNL     1      -2.263  -3.191   1.785  1.00  0.00    -0.105 SA
BRANCH  15  16
ATOM     16  C   UNL     1      -1.250  -3.456   3.159  1.00  0.00     0.073 A 
ATOM     17  C   UNL     1      -0.960  -2.638   4.228  1.00  0.00     0.043 A 
ATOM     18  N   UNL     1      -1.038  -4.748   3.554  1.00  0.00    -0.350 N 
ATOM     19  C   UNL     1      -1.054  -3.481   5.383  1.00  0.00     0.001 A 
ATOM     20  C   UNL     1      -1.143  -4.798   4.927  1.00  0.00     0.046 A 
ATOM     21  H   UNL     1      -0.845  -5.510   2.961  1.00  0.00     0.167 HD
ATOM     22  C   UNL     1      -1.226  -3.234   6.759  1.00  0.00     0.010 A 
ATOM     23  C   UNL     1      -1.410  -5.883   5.766  1.00  0.00     0.027 A 
ATOM     24  C   UNL     1      -1.573  -4.300   7.601  1.00  0.00     0.001 A 
ATOM     25  C   UNL     1      -1.668  -5.601   7.109  1.00  0.00     0.002 A 
ENDBRANCH  15  16
ENDBRANCH  10  15
ENDBRANCH   4   6
ENDBRANCH   3   4
ENDBRANCH   2   3
ENDBRANCH   1   2
BRANCH   1  26
ATOM     26  O   UNL     1       2.939   1.977  -0.837  1.00  0.00    -0.458 OA
BRANCH  26  27
ATOM     27  C   UNL     1       2.800   1.161  -1.909  1.00  0.00     0.338 C 
ATOM     28  O   UNL     1       3.357   0.091  -2.095  1.00  0.00    -0.246 OA
BRANCH  27  29
ATOM     29  C   UNL     1       1.823   1.724  -2.853  1.00  0.00     0.060 A 
ATOM     30  C   UNL     1       0.496   1.296  -2.793  1.00  0.00     0.016 A 
ATOM     31  C   UNL     1       2.259   2.531  -3.903  1.00  0.00     0.016 A 
ATOM     32  C   UNL     1      -0.380   1.595  -3.833  1.00  0.00     0.010 A 
ATOM     33  C   UNL     1       1.362   2.880  -4.918  1.00  0.00     0.010 A 
ATOM     34  C   UNL     1       0.049   2.376  -4.915  1.00  0.00    -0.014 A 
BRANCH  34  35
ATOM     35  C   UNL     1      -0.851   2.593  -6.077  1.00  0.00     0.031 A 
ATOM     36  C   UNL     1      -0.507   1.987  -7.413  1.00  0.00     0.074 A 
ATOM     37  C   UNL     1      -1.985   3.305  -5.933  1.00  0.00     0.049 A 
ATOM     38  N   UNL     1      -1.088   2.155  -8.573  1.00  0.00    -0.248 NA
ATOM     39  C   UNL     1       0.650   1.078  -7.448  1.00  0.00     0.031 C 
ATOM     40  C   UNL     1      -2.454   3.905  -4.684  1.00  0.00     0.029 A 
ATOM     41  N   UNL     1      -2.949   3.642  -6.849  1.00  0.00    -0.354 N 
ATOM     42  C   UNL     1      -0.346   1.410  -9.482  1.00  0.00     0.074 A 
ATOM     43  C   UNL     1       0.733   0.793  -8.740  1.00  0.00     0.031 C 
ATOM     44  C   UNL     1      -3.623   4.527  -4.908  1.00  0.00     0.029 A 
ATOM     45  C   UNL     1      -3.957   4.415  -6.325  1.00  0.00     0.049 A 
ATOM     46  H   UNL     1      -2.922   3.358  -7.791  1.00  0.00     0.167 HD
ATOM     47  C   UNL     1      -0.547   1.253 -10.813  1.00  0.00     0.037 A 
ATOM     48  C   UNL     1      -5.016   4.992  -6.923  1.00  0.00     0.037 A 
ATOM     49  C   UNL     1      -1.646   1.835 -11.540  1.00  0.00     0.049 A 
ATOM     50  C   UNL     1      -5.216   4.809  -8.402  1.00  0.00     0.074 A 
ATOM     51  C   UNL     1      -1.938   1.736 -12.889  1.00  0.00     0.029 A 
ATOM     52  N   UNL     1      -2.644   2.613 -10.972  1.00  0.00    -0.354 N 
ATOM     53  N   UNL     1      -4.477   4.142  -9.257  1.00  0.00    -0.248 NA
ATOM     54  C   UNL     1      -6.388   5.463  -8.998  1.00  0.00     0.031 C 
ATOM     55  C   UNL     1      -3.103   2.471 -13.141  1.00  0.00     0.029 A 
ATOM     56  C   UNL     1      -3.553   3.002 -11.943  1.00  0.00     0.049 A 
ATOM     57  H   UNL     1      -2.699   2.853 -10.019  1.00  0.00     0.167 HD
ATOM     58  C   UNL     1      -5.102   4.285 -10.490  1.00  0.00     0.074 A 
ATOM     59  C   UNL     1      -6.288   5.087 -10.266  1.00  0.00     0.031 C 
ATOM     60  C   UNL     1      -4.727   3.800 -11.699  1.00  0.00     0.037 A 
BRANCH  47  61
ATOM     61  C   UNL     1       0.464   0.441 -11.575  1.00  0.00     0.058 A 
ATOM     62  C   UNL     1       0.514  -0.959 -11.480  1.00  0.00     0.135 A 
ATOM     63  C   UNL     1       1.386   1.073 -12.424  1.00  0.00     0.135 A 
ATOM     64  F   UNL     1      -0.333  -1.612 -10.668  1.00  0.00    -0.206 F 
ATOM     65  C   UNL     1       1.461  -1.701 -12.179  1.00  0.00     0.059 A 
ATOM     66  C   UNL     1       2.328   0.349 -13.149  1.00  0.00     0.059 A 
ATOM     67  F   UNL     1       1.383   2.409 -12.550  1.00  0.00    -0.206 F 
ATOM     68  C   UNL     1       2.369  -1.037 -13.007  1.00  0.00     0.060 A 
BRANCH  68  69
ATOM     69  S   UNL     1       3.600  -2.008 -13.902  1.00  0.00     0.124 S 
ATOM     70  O   UNL     1       4.564  -2.300 -12.846  1.00  0.00    -0.237 OA
ATOM     71  O   UNL     1       2.820  -3.146 -14.379  1.00  0.00    -0.237 OA
ATOM     72  O   UNL     1       4.064  -1.093 -14.940  1.00  0.00    -0.744 OA
ENDBRANCH  68  69
ENDBRANCH  47  61
BRANCH  48  73
ATOM     73  C   UNL     1      -5.958   5.815  -6.122  1.00  0.00     0.058 A 
ATOM     74  C   UNL     1      -7.250   5.356  -5.828  1.00  0.00     0.135 A 
ATOM     75  C   UNL     1      -5.578   7.070  -5.620  1.00  0.00     0.135 A 
ATOM     76  F   UNL     1      -7.661   4.167  -6.295  1.00  0.00    -0.206 F 
ATOM     77  C   UNL     1      -8.137   6.114  -5.071  1.00  0.00     0.059 A 
ATOM     78  C   UNL     1      -6.439   7.836  -4.843  1.00  0.00     0.059 A 
ATOM     79  F   UNL     1      -4.348   7.547  -5.865  1.00  0.00    -0.206 F 
ATOM     80  C   UNL     1      -7.721   7.354  -4.582  1.00  0.00     0.060 A 
BRANCH  80  81
ATOM     81  S   UNL     1      -8.855   8.311  -3.552  1.00  0.00     0.124 S 
ATOM     82  O   UNL     1      -9.739   8.893  -4.554  1.00  0.00    -0.237 OA
ATOM     83  O   UNL     1      -9.445   7.283  -2.700  1.00  0.00    -0.237 OA
ATOM     84  O   UNL     1      -7.971   9.249  -2.866  1.00  0.00    -0.744 OA
ENDBRANCH  80  81
ENDBRANCH  48  73
BRANCH  60  85
ATOM     85  C   UNL     1      -5.628   4.106 -12.861  1.00  0.00     0.058 A 
ATOM     86  C   UNL     1      -5.661   5.379 -13.450  1.00  0.00     0.135 A 
ATOM     87  C   UNL     1      -6.462   3.111 -13.396  1.00  0.00     0.135 A 
ATOM     88  F   UNL     1      -4.886   6.365 -12.971  1.00  0.00    -0.206 F 
ATOM     89  C   UNL     1      -6.516   5.667 -14.508  1.00  0.00     0.059 A 
ATOM     90  C   UNL     1      -7.310   3.371 -14.467  1.00  0.00     0.059 A 
ATOM     91  F   UNL     1      -6.459   1.874 -12.874  1.00  0.00    -0.206 F 
ATOM     92  C   UNL     1      -7.343   4.657 -15.005  1.00  0.00     0.060 A 
BRANCH  92  93
ATOM     93  S   UNL     1      -8.453   5.035 -16.378  1.00  0.00     0.124 S 
ATOM     94  O   UNL     1      -9.552   5.704 -15.691  1.00  0.00    -0.237 OA
ATOM     95  O   UNL     1      -7.627   5.886 -17.230  1.00  0.00    -0.237 OA
ATOM     96  O   UNL     1      -8.764   3.720 -16.932  1.00  0.00    -0.744 OA
ENDBRANCH  92  93
ENDBRANCH  60  85
ENDBRANCH  34  35
ENDBRANCH  27  29
ENDBRANCH  26  27
ENDBRANCH   1  26
TORSDOF 17
