REMARK SMILES COc1ccc(NC(=O)N2CC[C@@H](C(=O)OCCOC(=O)c3ccc(-c4c5nc(c(-c6c(F)cc(S(=O)(=O)[O-])cc6F)c6ccc([nH]6)c(-c6c(F)cc(S(=O)(=O)[O-])cc6F)c6nc(c(-c7c(F)cc(S(=O)(=O)[O-])cc7F)c7ccc4[nH]7)C=C6)C=C5)cc3)[C@H]2C)cc1F
REMARK SMILES IDX 17 1 16 2 14 3 15 4 13 5 10 6 11 7 88 8 12 9 89 10 8 11 7 12
REMARK SMILES IDX 9 14 6 15 3 16 4 17 91 18 5 19 90 20 92 21 2 22 1 23 18 24
REMARK SMILES IDX 19 25 20 26 21 27 22 28 23 29 87 30 24 31 86 32 25 33 26 34
REMARK SMILES IDX 27 35 80 36 28 37 85 38 79 39 81 40 29 41 84 42 78 43 77 44
REMARK SMILES IDX 30 46 64 47 43 48 63 49 44 50 47 51 62 52 82 53 45 54 46 55
REMARK SMILES IDX 61 57 83 58 48 59 31 60 32 61 41 62 33 63 34 64 40 65 42 66
REMARK SMILES IDX 35 67 36 68 37 69 38 70 39 71 65 72 66 73 75 74 67 75 68 76
REMARK SMILES IDX 74 77 76 78 69 79 70 80 71 81 72 82 73 83 49 84 50 85 59 86
REMARK SMILES IDX 51 87 52 88 58 89 60 90 53 91 54 92 55 93 56 94 57 95
REMARK H PARENT 7 13 81 45 47 56
REMARK Flexibility Score: inf
ROOT
ATOM      1  C   UNL     1      -4.543   2.562  -2.335  1.00  0.00     0.274 C 
ENDROOT
BRANCH   1   2
ATOM      2  O   UNL     1      -3.578   3.498  -2.862  1.00  0.00    -0.462 OA
BRANCH   2   3
ATOM      3  C   UNL     1      -4.029   4.766  -3.039  1.00  0.00     0.311 C 
ATOM      4  O   UNL     1      -5.210   5.091  -3.006  1.00  0.00    -0.252 OA
BRANCH   3   5
ATOM      5  C   UNL     1      -2.935   5.765  -3.336  1.00  0.00     0.123 C 
ATOM      6  N   UNL     1      -0.560   5.953  -3.582  1.00  0.00    -0.321 N 
ATOM      7  C   UNL     1      -1.196   6.413  -4.800  1.00  0.00     0.122 C 
ATOM      8  C   UNL     1      -1.599   5.760  -2.544  1.00  0.00     0.098 C 
ATOM      9  C   UNL     1      -2.525   5.697  -4.804  1.00  0.00     0.039 C 
ATOM     10  C   UNL     1      -1.378   4.620  -1.562  1.00  0.00     0.032 C 
BRANCH   6  11
ATOM     11  C   UNL     1       0.688   6.463  -3.301  1.00  0.00     0.322 C 
ATOM     12  N   UNL     1       1.578   5.692  -2.617  1.00  0.00    -0.308 N 
ATOM     13  H   UNL     1       2.266   6.196  -2.125  1.00  0.00     0.171 HD
ATOM     14  O   UNL     1       1.024   7.598  -3.640  1.00  0.00    -0.248 OA
BRANCH  12  15
ATOM     15  C   UNL     1       1.675   4.297  -2.497  1.00  0.00     0.046 A 
ATOM     16  C   UNL     1       1.674   1.549  -1.952  1.00  0.00     0.154 A 
ATOM     17  C   UNL     1       1.020   2.035  -3.081  1.00  0.00     0.052 A 
ATOM     18  C   UNL     1       2.435   2.427  -1.179  1.00  0.00     0.167 A 
ATOM     19  C   UNL     1       1.024   3.405  -3.355  1.00  0.00     0.030 A 
ATOM     20  C   UNL     1       2.450   3.792  -1.452  1.00  0.00     0.069 A 
ATOM     21  F   UNL     1       3.148   1.981  -0.134  1.00  0.00    -0.203 F 
BRANCH  16  22
ATOM     22  O   UNL     1       1.510   0.215  -1.693  1.00  0.00    -0.494 OA
ATOM     23  C   UNL     1       1.339  -0.075  -0.304  1.00  0.00     0.278 C 
ENDBRANCH  16  22
ENDBRANCH  12  15
ENDBRANCH   6  11
ENDBRANCH   3   5
ENDBRANCH   2   3
ENDBRANCH   1   2
BRANCH   1  24
ATOM     24  C   UNL     1      -4.517   2.592  -0.805  1.00  0.00     0.275 C 
BRANCH  24  25
ATOM     25  O   UNL     1      -4.887   3.908  -0.365  1.00  0.00    -0.458 OA
BRANCH  25  26
ATOM     26  C   UNL     1      -4.494   4.252   0.882  1.00  0.00     0.338 C 
ATOM     27  O   UNL     1      -3.940   3.538   1.698  1.00  0.00    -0.246 OA
BRANCH  26  28
ATOM     28  C   UNL     1      -4.863   5.665   1.112  1.00  0.00     0.060 A 
ATOM     29  C   UNL     1      -4.510   6.652   0.185  1.00  0.00     0.016 A 
ATOM     30  C   UNL     1      -5.543   6.010   2.279  1.00  0.00     0.016 A 
ATOM     31  C   UNL     1      -4.833   7.987   0.425  1.00  0.00     0.010 A 
ATOM     32  C   UNL     1      -5.906   7.343   2.497  1.00  0.00     0.010 A 
ATOM     33  C   UNL     1      -5.546   8.344   1.577  1.00  0.00    -0.014 A 
BRANCH  33  34
ATOM     34  C   UNL     1      -5.891   9.764   1.838  1.00  0.00     0.031 A 
ATOM     35  C   UNL     1      -5.226  10.503   2.966  1.00  0.00     0.074 A 
ATOM     36  C   UNL     1      -6.796  10.392   1.062  1.00  0.00     0.049 A 
ATOM     37  N   UNL     1      -5.460  11.708   3.417  1.00  0.00    -0.248 NA
ATOM     38  C   UNL     1      -4.159   9.788   3.686  1.00  0.00     0.031 C 
ATOM     39  C   UNL     1      -7.487   9.794  -0.082  1.00  0.00     0.029 A 
ATOM     40  N   UNL     1      -7.290  11.672   1.117  1.00  0.00    -0.354 N 
ATOM     41  C   UNL     1      -4.588  11.891   4.483  1.00  0.00     0.074 A 
ATOM     42  C   UNL     1      -3.831  10.665   4.625  1.00  0.00     0.031 C 
ATOM     43  C   UNL     1      -8.299  10.712  -0.632  1.00  0.00     0.029 A 
ATOM     44  C   UNL     1      -8.226  11.944   0.147  1.00  0.00     0.049 A 
ATOM     45  H   UNL     1      -7.000  12.332   1.787  1.00  0.00     0.167 HD
ATOM     46  C   UNL     1      -4.429  12.983   5.267  1.00  0.00     0.037 A 
ATOM     47  C   UNL     1      -8.958  13.053  -0.076  1.00  0.00     0.037 A 
ATOM     48  C   UNL     1      -5.169  14.208   5.109  1.00  0.00     0.049 A 
ATOM     49  C   UNL     1      -8.796  14.238   0.835  1.00  0.00     0.074 A 
ATOM     50  C   UNL     1      -5.074  15.374   5.850  1.00  0.00     0.029 A 
ATOM     51  N   UNL     1      -6.137  14.430   4.140  1.00  0.00    -0.354 N 
ATOM     52  N   UNL     1      -7.989  14.384   1.859  1.00  0.00    -0.248 NA
ATOM     53  C   UNL     1      -9.652  15.403   0.572  1.00  0.00     0.031 C 
ATOM     54  C   UNL     1      -6.006  16.289   5.349  1.00  0.00     0.029 A 
ATOM     55  C   UNL     1      -6.657  15.707   4.273  1.00  0.00     0.049 A 
ATOM     56  H   UNL     1      -6.413  13.776   3.458  1.00  0.00     0.167 HD
ATOM     57  C   UNL     1      -8.239  15.655   2.362  1.00  0.00     0.074 A 
ATOM     58  C   UNL     1      -9.256  16.247   1.516  1.00  0.00     0.031 C 
ATOM     59  C   UNL     1      -7.681  16.274   3.432  1.00  0.00     0.037 A 
BRANCH  46  60
ATOM     60  C   UNL     1      -3.423  12.902   6.380  1.00  0.00     0.058 A 
ATOM     61  C   UNL     1      -3.846  12.806   7.715  1.00  0.00     0.135 A 
ATOM     62  C   UNL     1      -2.043  12.962   6.131  1.00  0.00     0.135 A 
ATOM     63  F   UNL     1      -5.154  12.735   8.008  1.00  0.00    -0.206 F 
ATOM     64  C   UNL     1      -2.935  12.783   8.767  1.00  0.00     0.059 A 
ATOM     65  C   UNL     1      -1.113  12.920   7.167  1.00  0.00     0.059 A 
ATOM     66  F   UNL     1      -1.587  13.029   4.871  1.00  0.00    -0.206 F 
ATOM     67  C   UNL     1      -1.570  12.843   8.482  1.00  0.00     0.060 A 
BRANCH  67  68
ATOM     68  S   UNL     1      -0.398  12.768   9.854  1.00  0.00     0.124 S 
ATOM     69  O   UNL     1      -0.545  14.093  10.447  1.00  0.00    -0.237 OA
ATOM     70  O   UNL     1      -0.917  11.656  10.644  1.00  0.00    -0.237 OA
ATOM     71  O   UNL     1       0.878  12.511   9.193  1.00  0.00    -0.744 OA
ENDBRANCH  67  68
ENDBRANCH  46  60
BRANCH  47  72
ATOM     72  C   UNL     1      -9.918  13.085  -1.211  1.00  0.00     0.058 A 
ATOM     73  C   UNL     1     -11.096  12.323  -1.189  1.00  0.00     0.135 A 
ATOM     74  C   UNL     1      -9.651  13.846  -2.358  1.00  0.00     0.135 A 
ATOM     75  F   UNL     1     -11.396  11.577  -0.114  1.00  0.00    -0.206 F 
ATOM     76  C   UNL     1     -11.959  12.286  -2.278  1.00  0.00     0.059 A 
ATOM     77  C   UNL     1     -10.511  13.843  -3.453  1.00  0.00     0.059 A 
ATOM     78  F   UNL     1      -8.546  14.605  -2.416  1.00  0.00    -0.206 F 
ATOM     79  C   UNL     1     -11.652  13.042  -3.411  1.00  0.00     0.060 A 
BRANCH  79  80
ATOM     80  S   UNL     1     -12.767  12.959  -4.829  1.00  0.00     0.124 S 
ATOM     81  O   UNL     1     -12.469  11.630  -5.354  1.00  0.00    -0.237 OA
ATOM     82  O   UNL     1     -14.075  13.116  -4.203  1.00  0.00    -0.237 OA
ATOM     83  O   UNL     1     -12.335  14.076  -5.663  1.00  0.00    -0.744 OA
ENDBRANCH  79  80
ENDBRANCH  47  72
BRANCH  59  84
ATOM     84  C   UNL     1      -8.163  17.659   3.755  1.00  0.00     0.058 A 
ATOM     85  C   UNL     1      -7.358  18.778   3.491  1.00  0.00     0.135 A 
ATOM     86  C   UNL     1      -9.404  17.873   4.374  1.00  0.00     0.135 A 
ATOM     87  F   UNL     1      -6.160  18.626   2.903  1.00  0.00    -0.206 F 
ATOM     88  C   UNL     1      -7.763  20.062   3.838  1.00  0.00     0.059 A 
ATOM     89  C   UNL     1      -9.839  19.151   4.712  1.00  0.00     0.059 A 
ATOM     90  F   UNL     1     -10.215  16.835   4.636  1.00  0.00    -0.206 F 
ATOM     91  C   UNL     1      -9.004  20.238   4.452  1.00  0.00     0.060 A 
BRANCH  91  92
ATOM     92  S   UNL     1      -9.533  21.914   4.870  1.00  0.00     0.124 S 
ATOM     93  O   UNL     1      -8.721  22.197   6.048  1.00  0.00    -0.237 OA
ATOM     94  O   UNL     1      -9.184  22.660   3.664  1.00  0.00    -0.237 OA
ATOM     95  O   UNL     1     -10.964  21.765   5.113  1.00  0.00    -0.744 OA
ENDBRANCH  91  92
ENDBRANCH  59  84
ENDBRANCH  33  34
ENDBRANCH  26  28
ENDBRANCH  25  26
ENDBRANCH  24  25
ENDBRANCH   1  24
TORSDOF 17
