REMARK SMILES CCC[C@H](CCCc1c(O)nc(N)[nH]c1=O)C(=O)OCCOC(=O)c1ccc(-c2c3nc(c(-c4c(F)cc(S(=O)(=O)[O-])cc4F)c4ccc([nH]4)c(-c4c(F)cc(S(=O)(=O)[O-])cc4F)c4nc(c(-c5c(F)cc(S(=O)(=O)[O-])cc5F)c5ccc2[nH]5)C=C4)C=C3)cc1
REMARK SMILES IDX 20 1 19 2 17 3 18 4 4 5 3 6 2 7 1 8 5 9 6 10 7 11 8 12 9 13
REMARK SMILES IDX 15 14 11 15 14 16 16 17 12 18 10 20 13 22 21 25 22 26 23 27
REMARK SMILES IDX 24 28 25 29 26 30 90 31 27 32 89 33 28 34 29 35 30 36 83 37
REMARK SMILES IDX 31 38 88 39 82 40 84 41 32 42 87 43 81 44 80 45 33 47 67 48
REMARK SMILES IDX 46 49 66 50 47 51 50 52 65 53 85 54 48 55 49 56 64 58 86 59
REMARK SMILES IDX 51 60 34 61 35 62 44 63 36 64 37 65 43 66 45 67 38 68 39 69
REMARK SMILES IDX 40 70 41 71 42 72 68 73 69 74 78 75 70 76 71 77 77 78 79 79
REMARK SMILES IDX 72 80 73 81 74 82 75 83 76 84 52 85 53 86 62 87 54 88 55 89
REMARK SMILES IDX 61 90 63 91 56 92 57 93 58 94 59 95 60 96
REMARK H PARENT 14 19 10 21 13 23 13 24 84 46 50 57
REMARK Flexibility Score: inf
ROOT
ATOM      1  C   UNL     1       1.503  -6.304   1.674  1.00  0.00     0.274 C 
ENDROOT
BRANCH   1   2
ATOM      2  O   UNL     1       0.910  -5.157   1.036  1.00  0.00    -0.462 OA
BRANCH   2   3
ATOM      3  C   UNL     1       0.529  -4.138   1.851  1.00  0.00     0.309 C 
ATOM      4  O   UNL     1       0.636  -4.146   3.072  1.00  0.00    -0.252 OA
BRANCH   3   5
ATOM      5  C   UNL     1      -0.116  -2.985   1.093  1.00  0.00     0.099 C 
BRANCH   5   6
ATOM      6  C   UNL     1      -1.648  -2.976   1.253  1.00  0.00     0.015 C 
BRANCH   6   7
ATOM      7  C   UNL     1      -2.378  -4.322   1.165  1.00  0.00    -0.003 C 
ATOM      8  C   UNL     1      -2.439  -5.077   2.491  1.00  0.00     0.004 C 
ENDBRANCH   6   7
ENDBRANCH   5   6
BRANCH   5   9
ATOM      9  C   UNL     1       0.390  -2.879  -0.359  1.00  0.00     0.015 C 
BRANCH   9  10
ATOM     10  C   UNL     1       0.099  -1.564  -1.105  1.00  0.00     0.006 C 
BRANCH  10  11
ATOM     11  C   UNL     1       0.564  -0.242  -0.466  1.00  0.00     0.047 C 
BRANCH  11  12
ATOM     12  C   UNL     1       2.019   0.155  -0.349  1.00  0.00     0.079 A 
ATOM     13  C   UNL     1       2.420   1.314   0.220  1.00  0.00     0.222 A 
ATOM     14  C   UNL     1       3.118  -0.678  -0.896  1.00  0.00     0.259 A 
ATOM     15  N   UNL     1       3.720   1.696   0.381  1.00  0.00    -0.179 NA
ATOM     16  N   UNL     1       4.384  -0.313  -0.546  1.00  0.00    -0.292 N 
ATOM     17  O   UNL     1       2.926  -1.608  -1.673  1.00  0.00    -0.269 OA
ATOM     18  C   UNL     1       4.656   0.884   0.027  1.00  0.00     0.203 A 
ATOM     19  H   UNL     1       5.124  -0.939  -0.715  1.00  0.00     0.173 HD
BRANCH  13  20
ATOM     20  O   UNL     1       1.523   2.242   0.707  1.00  0.00    -0.493 OA
ATOM     21  H   UNL     1       0.602   2.080   0.647  1.00  0.00     0.295 HD
ENDBRANCH  13  20
BRANCH  18  22
ATOM     22  N   UNL     1       5.952   1.217   0.200  1.00  0.00    -0.369 N 
ATOM     23  H   UNL     1       6.188   2.079   0.613  1.00  0.00     0.159 HD
ATOM     24  H   UNL     1       6.662   0.598  -0.087  1.00  0.00     0.159 HD
ENDBRANCH  18  22
ENDBRANCH  11  12
ENDBRANCH  10  11
ENDBRANCH   9  10
ENDBRANCH   5   9
ENDBRANCH   3   5
ENDBRANCH   2   3
ENDBRANCH   1   2
BRANCH   1  25
ATOM     25  C   UNL     1       3.033  -6.231   1.683  1.00  0.00     0.275 C 
BRANCH  25  26
ATOM     26  O   UNL     1       3.502  -5.221   2.592  1.00  0.00    -0.458 OA
BRANCH  26  27
ATOM     27  C   UNL     1       3.811  -4.032   2.029  1.00  0.00     0.338 C 
ATOM     28  O   UNL     1       3.840  -3.759   0.837  1.00  0.00    -0.246 OA
BRANCH  27  29
ATOM     29  C   UNL     1       3.968  -3.021   3.081  1.00  0.00     0.060 A 
ATOM     30  C   UNL     1       3.058  -1.961   3.100  1.00  0.00     0.016 A 
ATOM     31  C   UNL     1       5.015  -3.079   4.002  1.00  0.00     0.016 A 
ATOM     32  C   UNL     1       3.171  -0.961   4.055  1.00  0.00     0.010 A 
ATOM     33  C   UNL     1       5.144  -2.060   4.950  1.00  0.00     0.010 A 
ATOM     34  C   UNL     1       4.224  -0.997   4.976  1.00  0.00    -0.014 A 
BRANCH  34  35
ATOM     35  C   UNL     1       4.401   0.153   5.887  1.00  0.00     0.031 A 
ATOM     36  C   UNL     1       5.359   1.241   5.505  1.00  0.00     0.074 A 
ATOM     37  C   UNL     1       3.642   0.258   6.992  1.00  0.00     0.049 A 
ATOM     38  N   UNL     1       5.652   2.345   6.140  1.00  0.00    -0.248 NA
ATOM     39  C   UNL     1       6.084   1.062   4.236  1.00  0.00     0.031 C 
ATOM     40  C   UNL     1       2.630  -0.712   7.412  1.00  0.00     0.029 A 
ATOM     41  N   UNL     1       3.586   1.238   7.949  1.00  0.00    -0.354 N 
ATOM     42  C   UNL     1       6.584   2.999   5.345  1.00  0.00     0.074 A 
ATOM     43  C   UNL     1       6.844   2.147   4.205  1.00  0.00     0.031 C 
ATOM     44  C   UNL     1       2.038  -0.266   8.533  1.00  0.00     0.029 A 
ATOM     45  C   UNL     1       2.649   1.002   8.926  1.00  0.00     0.049 A 
ATOM     46  H   UNL     1       4.163   2.036   7.937  1.00  0.00     0.167 HD
ATOM     47  C   UNL     1       7.154   4.210   5.542  1.00  0.00     0.037 A 
ATOM     48  C   UNL     1       2.328   1.728  10.015  1.00  0.00     0.037 A 
ATOM     49  C   UNL     1       6.882   5.049   6.677  1.00  0.00     0.049 A 
ATOM     50  C   UNL     1       3.053   3.023  10.267  1.00  0.00     0.074 A 
ATOM     51  C   UNL     1       7.418   6.287   6.982  1.00  0.00     0.029 A 
ATOM     52  N   UNL     1       5.992   4.735   7.696  1.00  0.00    -0.354 N 
ATOM     53  N   UNL     1       3.948   3.624   9.519  1.00  0.00    -0.248 NA
ATOM     54  C   UNL     1       2.738   3.733  11.515  1.00  0.00     0.031 C 
ATOM     55  C   UNL     1       6.884   6.702   8.206  1.00  0.00     0.029 A 
ATOM     56  C   UNL     1       5.985   5.742   8.645  1.00  0.00     0.049 A 
ATOM     57  H   UNL     1       5.447   3.916   7.736  1.00  0.00     0.167 HD
ATOM     58  C   UNL     1       4.296   4.786  10.198  1.00  0.00     0.074 A 
ATOM     59  C   UNL     1       3.506   4.811  11.413  1.00  0.00     0.031 C 
ATOM     60  C   UNL     1       5.191   5.743   9.850  1.00  0.00     0.037 A 
BRANCH  47  61
ATOM     61  C   UNL     1       8.141   4.681   4.513  1.00  0.00     0.058 A 
ATOM     62  C   UNL     1       7.729   5.109   3.241  1.00  0.00     0.135 A 
ATOM     63  C   UNL     1       9.515   4.704   4.800  1.00  0.00     0.135 A 
ATOM     64  F   UNL     1       6.429   5.085   2.908  1.00  0.00    -0.206 F 
ATOM     65  C   UNL     1       8.646   5.512   2.278  1.00  0.00     0.059 A 
ATOM     66  C   UNL     1      10.450   5.125   3.858  1.00  0.00     0.059 A 
ATOM     67  F   UNL     1       9.963   4.301   5.999  1.00  0.00    -0.206 F 
ATOM     68  C   UNL     1      10.006   5.510   2.594  1.00  0.00     0.060 A 
BRANCH  68  69
ATOM     69  S   UNL     1      11.186   5.992   1.316  1.00  0.00     0.124 S 
ATOM     70  O   UNL     1      11.113   4.848   0.410  1.00  0.00    -0.237 OA
ATOM     71  O   UNL     1      10.611   7.235   0.813  1.00  0.00    -0.237 OA
ATOM     72  O   UNL     1      12.441   6.133   2.046  1.00  0.00    -0.744 OA
ENDBRANCH  68  69
ENDBRANCH  47  61
BRANCH  48  73
ATOM     73  C   UNL     1       1.270   1.245  10.940  1.00  0.00     0.058 A 
ATOM     74  C   UNL     1       0.026   1.888  11.013  1.00  0.00     0.135 A 
ATOM     75  C   UNL     1       1.467   0.111  11.744  1.00  0.00     0.135 A 
ATOM     76  F   UNL     1      -0.207   2.984  10.274  1.00  0.00    -0.206 F 
ATOM     77  C   UNL     1      -0.987   1.423  11.846  1.00  0.00     0.059 A 
ATOM     78  C   UNL     1       0.462  -0.386  12.569  1.00  0.00     0.059 A 
ATOM     79  F   UNL     1       2.638  -0.544  11.707  1.00  0.00    -0.206 F 
ATOM     80  C   UNL     1      -0.762   0.280  12.615  1.00  0.00     0.060 A 
BRANCH  80  81
ATOM     81  S   UNL     1      -2.108  -0.353  13.641  1.00  0.00     0.124 S 
ATOM     82  O   UNL     1      -2.177   0.656  14.692  1.00  0.00    -0.237 OA
ATOM     83  O   UNL     1      -3.224  -0.373  12.701  1.00  0.00    -0.237 OA
ATOM     84  O   UNL     1      -1.625  -1.666  14.058  1.00  0.00    -0.744 OA
ENDBRANCH  80  81
ENDBRANCH  48  73
BRANCH  60  85
ATOM     85  C   UNL     1       5.380   6.900  10.789  1.00  0.00     0.058 A 
ATOM     86  C   UNL     1       6.140   6.765  11.960  1.00  0.00     0.135 A 
ATOM     87  C   UNL     1       4.900   8.177  10.456  1.00  0.00     0.135 A 
ATOM     88  F   UNL     1       6.613   5.563  12.324  1.00  0.00    -0.206 F 
ATOM     89  C   UNL     1       6.427   7.861  12.766  1.00  0.00     0.059 A 
ATOM     90  C   UNL     1       5.192   9.290  11.237  1.00  0.00     0.059 A 
ATOM     91  F   UNL     1       4.174   8.357   9.341  1.00  0.00    -0.206 F 
ATOM     92  C   UNL     1       5.960   9.122  12.389  1.00  0.00     0.060 A 
BRANCH  92  93
ATOM     93  S   UNL     1       6.419  10.547  13.399  1.00  0.00     0.124 S 
ATOM     94  O   UNL     1       5.610  10.335  14.595  1.00  0.00    -0.237 OA
ATOM     95  O   UNL     1       7.857  10.360  13.566  1.00  0.00    -0.237 OA
ATOM     96  O   UNL     1       6.033  11.688  12.574  1.00  0.00    -0.744 OA
ENDBRANCH  92  93
ENDBRANCH  60  85
ENDBRANCH  34  35
ENDBRANCH  27  29
ENDBRANCH  26  27
ENDBRANCH  25  26
ENDBRANCH   1  25
TORSDOF 22
