REMARK SMILES CC[C@@H](O)C[NH+]1CC(n2cc(C(=O)OCCOC(=O)c3ccc(-c4c5nc(c(-c6c(F)cc(S(=O)(=O)[O-])cc6F)c6ccc([nH]6)c(-c6c(F)cc(S(=O)(=O)[O-])cc6F)c6nc(c(-c7c(F)cc(S(=O)(=O)[O-])cc7F)c7ccc4[nH]7)C=C6)C=C5)cc3)nn2)C1
REMARK SMILES IDX 15 1 14 2 12 3 13 4 11 5 9 6 10 7 87 8 86 9 8 10 6 11 7 12
REMARK SMILES IDX 88 13 5 15 3 16 2 17 1 18 4 19 16 21 17 22 18 23 19 24 20 25
REMARK SMILES IDX 21 26 85 27 22 28 84 29 23 30 24 31 25 32 78 33 26 34 83 35
REMARK SMILES IDX 77 36 79 37 27 38 82 39 76 40 75 41 28 43 62 44 41 45 61 46
REMARK SMILES IDX 42 47 45 48 60 49 80 50 43 51 44 52 59 54 81 55 46 56 29 57
REMARK SMILES IDX 30 58 39 59 31 60 32 61 38 62 40 63 33 64 34 65 35 66 36 67
REMARK SMILES IDX 37 68 63 69 64 70 73 71 65 72 66 73 72 74 74 75 67 76 68 77
REMARK SMILES IDX 69 78 70 79 71 80 47 81 48 82 57 83 49 84 50 85 56 86 58 87
REMARK SMILES IDX 51 88 52 89 53 90 54 91 55 92
REMARK H PARENT 6 14 4 20 79 42 45 53
REMARK Flexibility Score: inf
ROOT
ATOM      1  C   UNL     1      -0.924  -5.449   6.520  1.00  0.00     0.275 C 
ENDROOT
BRANCH   1   2
ATOM      2  O   UNL     1      -0.744  -4.085   6.105  1.00  0.00    -0.457 OA
BRANCH   2   3
ATOM      3  C   UNL     1      -1.874  -3.308   6.097  1.00  0.00     0.360 C 
ATOM      4  O   UNL     1      -3.015  -3.759   6.164  1.00  0.00    -0.244 OA
BRANCH   3   5
ATOM      5  C   UNL     1      -1.572  -1.888   6.027  1.00  0.00     0.190 A 
ATOM      6  N   UNL     1      -0.605   0.049   5.875  1.00  0.00    -0.237 N 
ATOM      7  C   UNL     1      -0.330  -1.283   6.010  1.00  0.00     0.147 A 
ATOM      8  N   UNL     1      -1.929   0.269   5.841  1.00  0.00    -0.066 NA
ATOM      9  N   UNL     1      -2.535  -0.906   5.969  1.00  0.00    -0.123 NA
BRANCH   6  10
ATOM     10  C   UNL     1       0.390   0.986   5.454  1.00  0.00     0.218 C 
ATOM     11  N   UNL     1       0.873   2.172   3.783  1.00  0.00    -0.329 N 
ATOM     12  C   UNL     1      -0.068   2.369   4.945  1.00  0.00     0.296 C 
ATOM     13  C   UNL     1       0.693   0.718   3.968  1.00  0.00     0.296 C 
ATOM     14  H   UNL     1       1.799   2.597   3.746  1.00  0.00     0.348 HD
BRANCH  11  15
ATOM     15  C   UNL     1       0.256   2.643   2.529  1.00  0.00     0.294 C 
BRANCH  15  16
ATOM     16  C   UNL     1       0.891   2.113   1.207  1.00  0.00     0.169 C 
BRANCH  16  17
ATOM     17  C   UNL     1       0.509   0.657   0.883  1.00  0.00     0.034 C 
ATOM     18  C   UNL     1       0.992   0.146  -0.465  1.00  0.00     0.007 C 
ENDBRANCH  16  17
BRANCH  16  19
ATOM     19  O   UNL     1       0.434   2.957   0.141  1.00  0.00    -0.387 OA
ATOM     20  H   UNL     1      -0.533   2.904   0.079  1.00  0.00     0.211 HD
ENDBRANCH  16  19
ENDBRANCH  15  16
ENDBRANCH  11  15
ENDBRANCH   6  10
ENDBRANCH   3   5
ENDBRANCH   2   3
ENDBRANCH   1   2
BRANCH   1  21
ATOM     21  C   UNL     1      -0.751  -5.580   8.026  1.00  0.00     0.275 C 
BRANCH  21  22
ATOM     22  O   UNL     1      -1.815  -4.933   8.723  1.00  0.00    -0.458 OA
BRANCH  22  23
ATOM     23  C   UNL     1      -1.542  -3.673   9.134  1.00  0.00     0.338 C 
ATOM     24  O   UNL     1      -0.680  -2.931   8.693  1.00  0.00    -0.246 OA
BRANCH  23  25
ATOM     25  C   UNL     1      -2.276  -3.403  10.371  1.00  0.00     0.060 A 
ATOM     26  C   UNL     1      -2.198  -2.112  10.903  1.00  0.00     0.016 A 
ATOM     27  C   UNL     1      -2.756  -4.488  11.118  1.00  0.00     0.016 A 
ATOM     28  C   UNL     1      -2.449  -1.942  12.249  1.00  0.00     0.010 A 
ATOM     29  C   UNL     1      -2.979  -4.321  12.460  1.00  0.00     0.010 A 
ATOM     30  C   UNL     1      -2.756  -3.066  13.022  1.00  0.00    -0.014 A 
BRANCH  30  31
ATOM     31  C   UNL     1      -2.998  -2.894  14.440  1.00  0.00     0.031 A 
ATOM     32  C   UNL     1      -4.306  -2.247  14.705  1.00  0.00     0.074 A 
ATOM     33  C   UNL     1      -2.188  -3.439  15.369  1.00  0.00     0.049 A 
ATOM     34  N   UNL     1      -4.525  -1.084  15.222  1.00  0.00    -0.248 NA
ATOM     35  C   UNL     1      -5.510  -2.880  14.133  1.00  0.00     0.031 C 
ATOM     36  C   UNL     1      -1.045  -4.333  15.153  1.00  0.00     0.029 A 
ATOM     37  N   UNL     1      -2.282  -3.400  16.724  1.00  0.00    -0.354 N 
ATOM     38  C   UNL     1      -5.911  -0.965  15.277  1.00  0.00     0.074 A 
ATOM     39  C   UNL     1      -6.440  -1.961  14.388  1.00  0.00     0.031 C 
ATOM     40  C   UNL     1      -0.714  -4.927  16.323  1.00  0.00     0.029 A 
ATOM     41  C   UNL     1      -1.530  -4.367  17.385  1.00  0.00     0.049 A 
ATOM     42  H   UNL     1      -2.837  -2.740  17.200  1.00  0.00     0.167 HD
ATOM     43  C   UNL     1      -6.509  -0.273  16.284  1.00  0.00     0.037 A 
ATOM     44  C   UNL     1      -1.647  -4.721  18.693  1.00  0.00     0.037 A 
ATOM     45  C   UNL     1      -5.573   0.625  16.914  1.00  0.00     0.049 A 
ATOM     46  C   UNL     1      -2.354  -3.605  19.380  1.00  0.00     0.074 A 
ATOM     47  C   UNL     1      -4.797   1.680  16.476  1.00  0.00     0.029 A 
ATOM     48  N   UNL     1      -5.035   0.232  18.116  1.00  0.00    -0.354 N 
ATOM     49  N   UNL     1      -1.851  -2.409  19.525  1.00  0.00    -0.248 NA
ATOM     50  C   UNL     1      -3.805  -3.683  19.469  1.00  0.00     0.031 C 
ATOM     51  C   UNL     1      -3.571   1.563  17.194  1.00  0.00     0.029 A 
ATOM     52  C   UNL     1      -3.689   0.494  18.084  1.00  0.00     0.049 A 
ATOM     53  H   UNL     1      -5.529  -0.167  18.868  1.00  0.00     0.167 HD
ATOM     54  C   UNL     1      -2.911  -1.544  19.290  1.00  0.00     0.074 A 
ATOM     55  C   UNL     1      -4.104  -2.388  19.337  1.00  0.00     0.031 C 
ATOM     56  C   UNL     1      -2.699  -0.289  18.793  1.00  0.00     0.037 A 
BRANCH  43  57
ATOM     57  C   UNL     1      -7.788  -0.719  16.960  1.00  0.00     0.058 A 
ATOM     58  C   UNL     1      -8.367   0.116  17.937  1.00  0.00     0.135 A 
ATOM     59  C   UNL     1      -8.304  -2.036  16.909  1.00  0.00     0.135 A 
ATOM     60  F   UNL     1      -7.956   1.387  18.080  1.00  0.00    -0.206 F 
ATOM     61  C   UNL     1      -9.316  -0.346  18.849  1.00  0.00     0.059 A 
ATOM     62  C   UNL     1      -9.289  -2.499  17.772  1.00  0.00     0.059 A 
ATOM     63  F   UNL     1      -7.821  -2.976  16.091  1.00  0.00    -0.206 F 
ATOM     64  C   UNL     1      -9.757  -1.663  18.767  1.00  0.00     0.060 A 
BRANCH  64  65
ATOM     65  S   UNL     1     -10.902  -2.295  20.002  1.00  0.00     0.124 S 
ATOM     66  O   UNL     1     -10.064  -2.306  21.195  1.00  0.00    -0.237 OA
ATOM     67  O   UNL     1     -11.961  -1.292  19.971  1.00  0.00    -0.237 OA
ATOM     68  O   UNL     1     -11.272  -3.606  19.477  1.00  0.00    -0.744 OA
ENDBRANCH  64  65
ENDBRANCH  43  57
BRANCH  44  69
ATOM     69  C   UNL     1      -1.551  -6.088  19.284  1.00  0.00     0.058 A 
ATOM     70  C   UNL     1      -1.478  -6.285  20.676  1.00  0.00     0.135 A 
ATOM     71  C   UNL     1      -1.814  -7.240  18.514  1.00  0.00     0.135 A 
ATOM     72  F   UNL     1      -1.258  -5.243  21.493  1.00  0.00    -0.206 F 
ATOM     73  C   UNL     1      -1.695  -7.537  21.270  1.00  0.00     0.059 A 
ATOM     74  C   UNL     1      -2.023  -8.497  19.081  1.00  0.00     0.059 A 
ATOM     75  F   UNL     1      -1.968  -7.164  17.184  1.00  0.00    -0.206 F 
ATOM     76  C   UNL     1      -1.986  -8.636  20.463  1.00  0.00     0.060 A 
BRANCH  76  77
ATOM     77  S   UNL     1      -2.426 -10.218  21.223  1.00  0.00     0.124 S 
ATOM     78  O   UNL     1      -1.155 -10.642  21.799  1.00  0.00    -0.237 OA
ATOM     79  O   UNL     1      -3.460  -9.828  22.175  1.00  0.00    -0.237 OA
ATOM     80  O   UNL     1      -2.894 -11.018  20.093  1.00  0.00    -0.744 OA
ENDBRANCH  76  77
ENDBRANCH  44  69
BRANCH  56  81
ATOM     81  C   UNL     1      -1.292   0.253  18.799  1.00  0.00     0.058 A 
ATOM     82  C   UNL     1      -0.222  -0.275  18.052  1.00  0.00     0.135 A 
ATOM     83  C   UNL     1      -1.062   1.458  19.479  1.00  0.00     0.135 A 
ATOM     84  F   UNL     1      -0.384  -1.367  17.292  1.00  0.00    -0.206 F 
ATOM     85  C   UNL     1       1.028   0.349  18.017  1.00  0.00     0.059 A 
ATOM     86  C   UNL     1       0.164   2.113  19.432  1.00  0.00     0.059 A 
ATOM     87  F   UNL     1      -2.059   2.045  20.161  1.00  0.00    -0.206 F 
ATOM     88  C   UNL     1       1.211   1.546  18.710  1.00  0.00     0.060 A 
BRANCH  88  89
ATOM     89  S   UNL     1       2.804   2.390  18.614  1.00  0.00     0.124 S 
ATOM     90  O   UNL     1       3.667   1.508  19.392  1.00  0.00    -0.237 OA
ATOM     91  O   UNL     1       3.061   2.423  17.177  1.00  0.00    -0.237 OA
ATOM     92  O   UNL     1       2.538   3.693  19.219  1.00  0.00    -0.744 OA
ENDBRANCH  88  89
ENDBRANCH  56  81
ENDBRANCH  30  31
ENDBRANCH  23  25
ENDBRANCH  22  23
ENDBRANCH  21  22
ENDBRANCH   1  21
TORSDOF 19
