REMARK SMILES CC(C)(C)OC(=O)N1CCC[C@@H](CC2CCCCC2)[C@@H]1C(=O)OCCOC(=O)c1ccc(-c2c3nc(c(-c4c(F)cc(S(=O)(=O)[O-])cc4F)c4ccc([nH]4)c(-c4c(F)cc(S(=O)(=O)[O-])cc4F)c4nc(c(-c5c(F)cc(S(=O)(=O)[O-])cc5F)c5ccc2[nH]5)C=C4)C=C3)cc1
REMARK SMILES IDX 24 1 23 2 21 3 22 4 20 5 8 6 9 7 10 8 12 9 11 10 6 11 7 12
REMARK SMILES IDX 5 13 2 14 1 15 3 16 4 17 13 18 14 19 15 20 19 21 16 22 18 23
REMARK SMILES IDX 17 24 25 25 26 26 27 27 28 28 29 29 30 30 94 31 31 32 93 33
REMARK SMILES IDX 32 34 33 35 34 36 87 37 35 38 92 39 86 40 88 41 36 42 91 43
REMARK SMILES IDX 85 44 84 45 37 47 71 48 50 49 70 50 51 51 54 52 69 53 89 54
REMARK SMILES IDX 52 55 53 56 68 58 90 59 55 60 38 61 39 62 48 63 40 64 41 65
REMARK SMILES IDX 47 66 49 67 42 68 43 69 44 70 45 71 46 72 72 73 73 74 82 75
REMARK SMILES IDX 74 76 75 77 81 78 83 79 76 80 77 81 78 82 79 83 80 84 56 85
REMARK SMILES IDX 57 86 66 87 58 88 59 89 65 90 67 91 60 92 61 93 62 94 63 95
REMARK SMILES IDX 64 96
REMARK H PARENT 88 46 54 57
REMARK Flexibility Score: inf
ROOT
ATOM      1  C   UNL     1       4.445   2.498   0.921  1.00  0.00     0.274 C 
ENDROOT
BRANCH   1   2
ATOM      2  O   UNL     1       3.830   3.196   2.025  1.00  0.00    -0.461 OA
BRANCH   2   3
ATOM      3  C   UNL     1       2.993   2.429   2.779  1.00  0.00     0.329 C 
ATOM      4  O   UNL     1       2.862   1.218   2.626  1.00  0.00    -0.250 OA
BRANCH   3   5
ATOM      5  C   UNL     1       2.103   3.235   3.752  1.00  0.00     0.201 C 
ATOM      6  N   UNL     1       0.734   3.563   3.256  1.00  0.00    -0.294 N 
ATOM      7  C   UNL     1      -0.119   4.267   4.197  1.00  0.00     0.124 C 
ATOM      8  C   UNL     1       0.494   5.607   4.538  1.00  0.00     0.022 C 
ATOM      9  C   UNL     1       2.796   4.506   4.372  1.00  0.00     0.024 C 
ATOM     10  C   UNL     1       1.836   5.374   5.212  1.00  0.00     0.008 C 
BRANCH   6  11
ATOM     11  C   UNL     1       0.158   3.201   2.048  1.00  0.00     0.411 C 
ATOM     12  O   UNL     1      -0.811   3.784   1.578  1.00  0.00    -0.224 OA
BRANCH  11  13
ATOM     13  O   UNL     1       0.734   2.121   1.480  1.00  0.00    -0.444 OA
BRANCH  13  14
ATOM     14  C   UNL     1       0.247   1.542   0.242  1.00  0.00     0.106 C 
ATOM     15  C   UNL     1       0.939   0.173   0.125  1.00  0.00     0.056 C 
ATOM     16  C   UNL     1       0.685   2.431  -0.922  1.00  0.00     0.056 C 
ATOM     17  C   UNL     1      -1.267   1.294   0.240  1.00  0.00     0.056 C 
ENDBRANCH  13  14
ENDBRANCH  11  13
ENDBRANCH   6  11
BRANCH   9  18
ATOM     18  C   UNL     1       4.120   4.262   5.162  1.00  0.00     0.010 C 
BRANCH  18  19
ATOM     19  C   UNL     1       4.140   3.598   6.571  1.00  0.00    -0.011 C 
ATOM     20  C   UNL     1       3.951   4.570   7.755  1.00  0.00     0.003 C 
ATOM     21  C   UNL     1       3.196   2.406   6.710  1.00  0.00     0.003 C 
ATOM     22  C   UNL     1       4.018   3.857   9.115  1.00  0.00     0.000 C 
ATOM     23  C   UNL     1       3.366   1.690   8.041  1.00  0.00     0.000 C 
ATOM     24  C   UNL     1       3.094   2.645   9.190  1.00  0.00     0.000 C 
ENDBRANCH  18  19
ENDBRANCH   9  18
ENDBRANCH   3   5
ENDBRANCH   2   3
ENDBRANCH   1   2
BRANCH   1  25
ATOM     25  C   UNL     1       5.791   1.861   1.271  1.00  0.00     0.275 C 
BRANCH  25  26
ATOM     26  O   UNL     1       5.650   0.863   2.298  1.00  0.00    -0.458 OA
BRANCH  26  27
ATOM     27  C   UNL     1       6.325   1.108   3.444  1.00  0.00     0.338 C 
ATOM     28  O   UNL     1       7.069   2.051   3.662  1.00  0.00    -0.246 OA
BRANCH  27  29
ATOM     29  C   UNL     1       6.036   0.090   4.477  1.00  0.00     0.060 A 
ATOM     30  C   UNL     1       4.726  -0.237   4.801  1.00  0.00     0.016 A 
ATOM     31  C   UNL     1       7.075  -0.383   5.278  1.00  0.00     0.016 A 
ATOM     32  C   UNL     1       4.447  -0.883   6.004  1.00  0.00     0.010 A 
ATOM     33  C   UNL     1       6.792  -1.146   6.420  1.00  0.00     0.010 A 
ATOM     34  C   UNL     1       5.468  -1.350   6.844  1.00  0.00    -0.014 A 
BRANCH  34  35
ATOM     35  C   UNL     1       5.154  -1.969   8.173  1.00  0.00     0.031 A 
ATOM     36  C   UNL     1       5.854  -1.496   9.431  1.00  0.00     0.074 A 
ATOM     37  C   UNL     1       4.216  -2.935   8.289  1.00  0.00     0.049 A 
ATOM     38  N   UNL     1       5.897  -2.055  10.616  1.00  0.00    -0.248 NA
ATOM     39  C   UNL     1       6.615  -0.238   9.346  1.00  0.00     0.031 C 
ATOM     40  C   UNL     1       3.402  -3.469   7.196  1.00  0.00     0.029 A 
ATOM     41  N   UNL     1       3.780  -3.638   9.389  1.00  0.00    -0.354 N 
ATOM     42  C   UNL     1       6.756  -1.273  11.383  1.00  0.00     0.074 A 
ATOM     43  C   UNL     1       7.192  -0.182  10.539  1.00  0.00     0.031 C 
ATOM     44  C   UNL     1       2.528  -4.358   7.684  1.00  0.00     0.029 A 
ATOM     45  C   UNL     1       2.813  -4.571   9.097  1.00  0.00     0.049 A 
ATOM     46  H   UNL     1       4.127  -3.487  10.298  1.00  0.00     0.167 HD
ATOM     47  C   UNL     1       7.155  -1.456  12.666  1.00  0.00     0.037 A 
ATOM     48  C   UNL     1       2.263  -5.550   9.842  1.00  0.00     0.037 A 
ATOM     49  C   UNL     1       6.655  -2.497  13.530  1.00  0.00     0.049 A 
ATOM     50  C   UNL     1       2.732  -5.755  11.251  1.00  0.00     0.074 A 
ATOM     51  C   UNL     1       6.979  -2.745  14.854  1.00  0.00     0.029 A 
ATOM     52  N   UNL     1       5.715  -3.449  13.167  1.00  0.00    -0.354 N 
ATOM     53  N   UNL     1       3.624  -5.072  11.927  1.00  0.00    -0.248 NA
ATOM     54  C   UNL     1       2.150  -6.885  11.985  1.00  0.00     0.031 C 
ATOM     55  C   UNL     1       6.266  -3.873  15.278  1.00  0.00     0.029 A 
ATOM     56  C   UNL     1       5.462  -4.298  14.234  1.00  0.00     0.049 A 
ATOM     57  H   UNL     1       5.289  -3.513  12.282  1.00  0.00     0.167 HD
ATOM     58  C   UNL     1       3.721  -5.699  13.163  1.00  0.00     0.074 A 
ATOM     59  C   UNL     1       2.772  -6.794  13.153  1.00  0.00     0.031 C 
ATOM     60  C   UNL     1       4.532  -5.399  14.207  1.00  0.00     0.037 A 
BRANCH  47  61
ATOM     61  C   UNL     1       8.232  -0.552  13.208  1.00  0.00     0.058 A 
ATOM     62  C   UNL     1       7.996   0.787  13.551  1.00  0.00     0.135 A 
ATOM     63  C   UNL     1       9.521  -1.066  13.436  1.00  0.00     0.135 A 
ATOM     64  F   UNL     1       6.790   1.336  13.342  1.00  0.00    -0.206 F 
ATOM     65  C   UNL     1       9.005   1.591  14.079  1.00  0.00     0.059 A 
ATOM     66  C   UNL     1      10.536  -0.290  13.987  1.00  0.00     0.059 A 
ATOM     67  F   UNL     1       9.803  -2.342  13.129  1.00  0.00    -0.206 F 
ATOM     68  C   UNL     1      10.272   1.043  14.293  1.00  0.00     0.060 A 
BRANCH  68  69
ATOM     69  S   UNL     1      11.569   2.094  14.985  1.00  0.00     0.124 S 
ATOM     70  O   UNL     1      11.900   2.938  13.841  1.00  0.00    -0.237 OA
ATOM     71  O   UNL     1      10.879   2.760  16.085  1.00  0.00    -0.237 OA
ATOM     72  O   UNL     1      12.602   1.142  15.382  1.00  0.00    -0.744 OA
ENDBRANCH  68  69
ENDBRANCH  47  61
BRANCH  48  73
ATOM     73  C   UNL     1       1.272  -6.468   9.217  1.00  0.00     0.058 A 
ATOM     74  C   UNL     1      -0.083  -6.428   9.572  1.00  0.00     0.135 A 
ATOM     75  C   UNL     1       1.657  -7.354   8.197  1.00  0.00     0.135 A 
ATOM     76  F   UNL     1      -0.495  -5.614  10.556  1.00  0.00    -0.206 F 
ATOM     77  C   UNL     1      -1.027  -7.218   8.923  1.00  0.00     0.059 A 
ATOM     78  C   UNL     1       0.728  -8.128   7.511  1.00  0.00     0.059 A 
ATOM     79  F   UNL     1       2.942  -7.425   7.816  1.00  0.00    -0.206 F 
ATOM     80  C   UNL     1      -0.613  -8.053   7.883  1.00  0.00     0.060 A 
BRANCH  80  81
ATOM     81  S   UNL     1      -1.856  -8.986   6.963  1.00  0.00     0.124 S 
ATOM     82  O   UNL     1      -2.133 -10.087   7.878  1.00  0.00    -0.237 OA
ATOM     83  O   UNL     1      -2.924  -8.004   6.802  1.00  0.00    -0.237 OA
ATOM     84  O   UNL     1      -1.159  -9.346   5.731  1.00  0.00    -0.744 OA
ENDBRANCH  80  81
ENDBRANCH  48  73
BRANCH  60  85
ATOM     85  C   UNL     1       4.421  -6.268  15.427  1.00  0.00     0.058 A 
ATOM     86  C   UNL     1       4.934  -7.575  15.446  1.00  0.00     0.135 A 
ATOM     87  C   UNL     1       3.803  -5.788  16.593  1.00  0.00     0.135 A 
ATOM     88  F   UNL     1       5.526  -8.084  14.354  1.00  0.00    -0.206 F 
ATOM     89  C   UNL     1       4.809  -8.388  16.567  1.00  0.00     0.059 A 
ATOM     90  C   UNL     1       3.689  -6.575  17.734  1.00  0.00     0.059 A 
ATOM     91  F   UNL     1       3.304  -4.543  16.630  1.00  0.00    -0.206 F 
ATOM     92  C   UNL     1       4.179  -7.880  17.706  1.00  0.00     0.060 A 
BRANCH  92  93
ATOM     93  S   UNL     1       4.020  -8.944  19.155  1.00  0.00     0.124 S 
ATOM     94  O   UNL     1       2.948  -9.844  18.743  1.00  0.00    -0.237 OA
ATOM     95  O   UNL     1       5.348  -9.543  19.253  1.00  0.00    -0.237 OA
ATOM     96  O   UNL     1       3.680  -8.011  20.225  1.00  0.00    -0.744 OA
ENDBRANCH  92  93
ENDBRANCH  60  85
ENDBRANCH  34  35
ENDBRANCH  27  29
ENDBRANCH  26  27
ENDBRANCH  25  26
ENDBRANCH   1  25
TORSDOF 19
