REMARK SMILES Cc1ccc(-c2ncc(C(=O)OCCOC(=O)c3ccc(-c4c5nc(c(-c6c(F)cc(S(=O)(=O)[O-])cc6F)c6ccc([nH]6)c(-c6c(F)cc(S(=O)(=O)[O-])cc6F)c6nc(c(-c7c(F)cc(S(=O)(=O)[O-])cc7F)c7ccc4[nH]7)C=C6)C=C5)cc3)c(Nc3ccccc3)n2)cc1
REMARK SMILES IDX 14 1 13 2 12 3 10 4 11 5 9 6 6 7 7 8 92 9 8 10 84 11 5 12
REMARK SMILES IDX 1 13 2 14 3 15 94 16 4 17 93 18 85 19 86 21 87 22 91 23
REMARK SMILES IDX 88 24 90 25 89 26 15 27 16 28 17 29 18 30 19 31 83 32 20 33
REMARK SMILES IDX 82 34 21 35 22 36 23 37 76 38 24 39 81 40 75 41 77 42 25 43
REMARK SMILES IDX 80 44 74 45 73 46 26 48 60 49 39 50 59 51 40 52 43 53 58 54
REMARK SMILES IDX 78 55 41 56 42 57 57 59 79 60 44 61 27 62 28 63 37 64 29 65
REMARK SMILES IDX 30 66 36 67 38 68 31 69 32 70 33 71 34 72 35 73 61 74 62 75
REMARK SMILES IDX 71 76 63 77 64 78 70 79 72 80 65 81 66 82 67 83 68 84 69 85
REMARK SMILES IDX 45 86 46 87 55 88 47 89 48 90 54 91 56 92 49 93 50 94 51 95
REMARK SMILES IDX 52 96 53 97
REMARK H PARENT 85 20 77 47 43 58
REMARK Flexibility Score: inf
ROOT
ATOM      1  C   UNL     1      -9.519   2.190   2.232  1.00  0.00     0.275 C 
ENDROOT
BRANCH   1   2
ATOM      2  C   UNL     1      -8.486   1.049   2.313  1.00  0.00     0.275 C 
BRANCH   2   3
ATOM      3  O   UNL     1      -7.217   1.371   1.692  1.00  0.00    -0.458 OA
BRANCH   3   4
ATOM      4  C   UNL     1      -6.581   0.280   1.183  1.00  0.00     0.343 C 
ATOM      5  O   UNL     1      -6.999  -0.861   1.246  1.00  0.00    -0.246 OA
BRANCH   4   6
ATOM      6  C   UNL     1      -5.167   0.494   0.882  1.00  0.00     0.121 A 
ATOM      7  C   UNL     1      -2.511   0.228   0.547  1.00  0.00     0.161 A 
ATOM      8  N   UNL     1      -3.026  -0.343   1.640  1.00  0.00    -0.236 NA
ATOM      9  N   UNL     1      -3.204   0.932  -0.356  1.00  0.00    -0.210 NA
ATOM     10  C   UNL     1      -4.352  -0.192   1.772  1.00  0.00     0.133 A 
ATOM     11  C   UNL     1      -4.545   1.054  -0.224  1.00  0.00     0.149 A 
BRANCH   7  12
ATOM     12  C   UNL     1      -1.076   0.124   0.339  1.00  0.00     0.019 A 
ATOM     13  C   UNL     1       3.200  -0.116  -0.135  1.00  0.00     0.044 C 
ATOM     14  C   UNL     1       1.713  -0.028   0.010  1.00  0.00    -0.051 A 
ATOM     15  C   UNL     1       0.954  -1.196   0.156  1.00  0.00     0.004 A 
ATOM     16  C   UNL     1       1.069   1.212  -0.006  1.00  0.00     0.004 A 
ATOM     17  C   UNL     1      -0.429  -1.119   0.327  1.00  0.00     0.012 A 
ATOM     18  C   UNL     1      -0.313   1.285   0.146  1.00  0.00     0.012 A 
ENDBRANCH   7  12
BRANCH  11  19
ATOM     19  N   UNL     1      -5.184   1.702  -1.286  1.00  0.00    -0.339 N 
ATOM     20  H   UNL     1      -6.099   2.027  -1.120  1.00  0.00     0.168 HD
BRANCH  19  21
ATOM     21  C   UNL     1      -4.649   1.940  -2.584  1.00  0.00     0.040 A 
ATOM     22  C   UNL     1      -4.763   3.210  -3.166  1.00  0.00     0.026 A 
ATOM     23  C   UNL     1      -3.946   0.961  -3.305  1.00  0.00     0.026 A 
ATOM     24  C   UNL     1      -4.245   3.483  -4.439  1.00  0.00     0.002 A 
ATOM     25  C   UNL     1      -3.426   1.229  -4.581  1.00  0.00     0.002 A 
ATOM     26  C   UNL     1      -3.579   2.491  -5.150  1.00  0.00     0.000 A 
ENDBRANCH  19  21
ENDBRANCH  11  19
ENDBRANCH   4   6
ENDBRANCH   3   4
ENDBRANCH   2   3
ENDBRANCH   1   2
BRANCH   1  27
ATOM     27  O   UNL     1     -10.045   2.538   0.933  1.00  0.00    -0.458 OA
BRANCH  27  28
ATOM     28  C   UNL     1      -9.180   2.439  -0.108  1.00  0.00     0.338 C 
ATOM     29  O   UNL     1      -8.209   3.176  -0.257  1.00  0.00    -0.246 OA
BRANCH  28  30
ATOM     30  C   UNL     1      -9.366   1.098  -0.726  1.00  0.00     0.060 A 
ATOM     31  C   UNL     1      -8.302   0.538  -1.441  1.00  0.00     0.016 A 
ATOM     32  C   UNL     1     -10.417   0.289  -0.283  1.00  0.00     0.016 A 
ATOM     33  C   UNL     1      -8.196  -0.838  -1.595  1.00  0.00     0.010 A 
ATOM     34  C   UNL     1     -10.281  -1.077  -0.359  1.00  0.00     0.010 A 
ATOM     35  C   UNL     1      -9.174  -1.638  -1.013  1.00  0.00    -0.014 A 
BRANCH  35  36
ATOM     36  C   UNL     1      -9.326  -3.045  -1.324  1.00  0.00     0.031 A 
ATOM     37  C   UNL     1      -8.586  -4.125  -0.633  1.00  0.00     0.074 A 
ATOM     38  C   UNL     1     -10.306  -3.236  -2.237  1.00  0.00     0.049 A 
ATOM     39  N   UNL     1      -8.479  -5.323  -1.095  1.00  0.00    -0.248 NA
ATOM     40  C   UNL     1      -7.877  -3.964   0.636  1.00  0.00     0.031 C 
ATOM     41  C   UNL     1     -10.954  -4.462  -2.651  1.00  0.00     0.029 A 
ATOM     42  N   UNL     1     -10.817  -2.278  -3.133  1.00  0.00    -0.354 N 
ATOM     43  C   UNL     1      -7.985  -6.136  -0.089  1.00  0.00     0.074 A 
ATOM     44  C   UNL     1      -7.527  -5.226   0.929  1.00  0.00     0.031 C 
ATOM     45  C   UNL     1     -11.465  -4.264  -3.881  1.00  0.00     0.029 A 
ATOM     46  C   UNL     1     -10.995  -2.956  -4.331  1.00  0.00     0.049 A 
ATOM     47  H   UNL     1     -11.007  -1.330  -2.949  1.00  0.00     0.167 HD
ATOM     48  C   UNL     1      -8.186  -7.485  -0.182  1.00  0.00     0.037 A 
ATOM     49  C   UNL     1     -10.189  -2.733  -5.413  1.00  0.00     0.037 A 
ATOM     50  C   UNL     1      -8.810  -7.790  -1.466  1.00  0.00     0.049 A 
ATOM     51  C   UNL     1      -9.506  -4.019  -5.810  1.00  0.00     0.074 A 
ATOM     52  C   UNL     1     -10.143  -7.903  -1.824  1.00  0.00     0.029 A 
ATOM     53  N   UNL     1      -8.092  -7.606  -2.642  1.00  0.00    -0.354 N 
ATOM     54  N   UNL     1      -9.076  -4.915  -4.959  1.00  0.00    -0.248 NA
ATOM     55  C   UNL     1      -9.411  -4.454  -7.199  1.00  0.00     0.031 C 
ATOM     56  C   UNL     1     -10.235  -7.681  -3.219  1.00  0.00     0.029 A 
ATOM     57  C   UNL     1      -8.959  -7.450  -3.707  1.00  0.00     0.049 A 
ATOM     58  H   UNL     1      -7.110  -7.588  -2.706  1.00  0.00     0.167 HD
ATOM     59  C   UNL     1      -8.768  -6.063  -5.649  1.00  0.00     0.074 A 
ATOM     60  C   UNL     1      -8.960  -5.710  -7.047  1.00  0.00     0.031 C 
ATOM     61  C   UNL     1      -8.465  -7.258  -5.057  1.00  0.00     0.037 A 
BRANCH  48  62
ATOM     62  C   UNL     1      -8.142  -8.475   0.973  1.00  0.00     0.058 A 
ATOM     63  C   UNL     1      -9.017  -9.590   0.985  1.00  0.00     0.135 A 
ATOM     64  C   UNL     1      -7.314  -8.376   2.108  1.00  0.00     0.135 A 
ATOM     65  F   UNL     1      -9.824  -9.864  -0.049  1.00  0.00    -0.206 F 
ATOM     66  C   UNL     1      -9.127 -10.474   2.059  1.00  0.00     0.059 A 
ATOM     67  C   UNL     1      -7.424  -9.239   3.213  1.00  0.00     0.059 A 
ATOM     68  F   UNL     1      -6.340  -7.458   2.176  1.00  0.00    -0.206 F 
ATOM     69  C   UNL     1      -8.345 -10.279   3.185  1.00  0.00     0.060 A 
BRANCH  69  70
ATOM     70  S   UNL     1      -8.553 -11.410   4.576  1.00  0.00     0.124 S 
ATOM     71  O   UNL     1      -9.956 -11.211   4.926  1.00  0.00    -0.237 OA
ATOM     72  O   UNL     1      -8.228 -12.700   3.976  1.00  0.00    -0.237 OA
ATOM     73  O   UNL     1      -7.593 -10.920   5.561  1.00  0.00    -0.744 OA
ENDBRANCH  69  70
ENDBRANCH  48  62
BRANCH  49  74
ATOM     74  C   UNL     1      -9.645  -1.345  -5.559  1.00  0.00     0.058 A 
ATOM     75  C   UNL     1     -10.578  -0.306  -5.747  1.00  0.00     0.135 A 
ATOM     76  C   UNL     1      -8.339  -0.959  -5.211  1.00  0.00     0.135 A 
ATOM     77  F   UNL     1     -11.838  -0.596  -6.111  1.00  0.00    -0.206 F 
ATOM     78  C   UNL     1     -10.284   1.023  -5.460  1.00  0.00     0.059 A 
ATOM     79  C   UNL     1      -8.014   0.382  -4.930  1.00  0.00     0.059 A 
ATOM     80  F   UNL     1      -7.387  -1.886  -5.034  1.00  0.00    -0.206 F 
ATOM     81  C   UNL     1      -9.013   1.357  -5.005  1.00  0.00     0.060 A 
BRANCH  81  82
ATOM     82  S   UNL     1      -8.802   3.023  -4.317  1.00  0.00     0.124 S 
ATOM     83  O   UNL     1      -8.638   3.834  -5.517  1.00  0.00    -0.237 OA
ATOM     84  O   UNL     1     -10.053   3.212  -3.585  1.00  0.00    -0.237 OA
ATOM     85  O   UNL     1      -7.627   2.895  -3.471  1.00  0.00    -0.744 OA
ENDBRANCH  81  82
ENDBRANCH  49  74
BRANCH  61  86
ATOM     86  C   UNL     1      -7.822  -8.433  -5.753  1.00  0.00     0.058 A 
ATOM     87  C   UNL     1      -6.991  -8.297  -6.876  1.00  0.00     0.135 A 
ATOM     88  C   UNL     1      -7.894  -9.737  -5.200  1.00  0.00     0.135 A 
ATOM     89  F   UNL     1      -6.730  -7.096  -7.412  1.00  0.00    -0.206 F 
ATOM     90  C   UNL     1      -6.356  -9.384  -7.469  1.00  0.00     0.059 A 
ATOM     91  C   UNL     1      -7.215 -10.824  -5.737  1.00  0.00     0.059 A 
ATOM     92  F   UNL     1      -8.613 -10.002  -4.099  1.00  0.00    -0.206 F 
ATOM     93  C   UNL     1      -6.477 -10.645  -6.895  1.00  0.00     0.060 A 
BRANCH  93  94
ATOM     94  S   UNL     1      -5.630 -12.045  -7.640  1.00  0.00     0.124 S 
ATOM     95  O   UNL     1      -6.629 -12.508  -8.598  1.00  0.00    -0.237 OA
ATOM     96  O   UNL     1      -4.439 -11.430  -8.219  1.00  0.00    -0.237 OA
ATOM     97  O   UNL     1      -5.381 -12.928  -6.506  1.00  0.00    -0.744 OA
ENDBRANCH  93  94
ENDBRANCH  61  86
ENDBRANCH  35  36
ENDBRANCH  28  30
ENDBRANCH  27  28
ENDBRANCH   1  27
TORSDOF 17
