REMARK SMILES CC(C)[C@@H](NC(N)=O)C(=O)N[C@H](C(=O)OCCOC(=O)c1ccc(-c2c3nc(c(-c4c(F)cc(S(=O)(=O)[O-])cc4F)c4ccc([nH]4)c(-c4c(F)cc(S(=O)(=O)[O-])cc4F)c4nc(c(-c5c(F)cc(S(=O)(=O)[O-])cc5F)c5ccc2[nH]5)C=C4)C=C3)cc1)[C@@H](C)O
REMARK SMILES IDX 16 1 15 2 13 3 14 4 12 5 11 6 9 7 10 8 4 10 2 11 1 12 3 13
REMARK SMILES IDX 5 14 6 15 7 17 8 18 87 21 88 22 89 23 17 25 18 26 19 27
REMARK SMILES IDX 20 28 21 29 22 30 86 31 23 32 85 33 24 34 25 35 26 36 79 37
REMARK SMILES IDX 27 38 84 39 78 40 80 41 28 42 83 43 77 44 76 45 29 47 63 48
REMARK SMILES IDX 42 49 62 50 43 51 46 52 61 53 81 54 44 55 45 56 60 58 82 59
REMARK SMILES IDX 47 60 30 61 31 62 40 63 32 64 33 65 39 66 41 67 34 68 35 69
REMARK SMILES IDX 36 70 37 71 38 72 64 73 65 74 74 75 66 76 67 77 73 78 75 79
REMARK SMILES IDX 68 80 69 81 70 82 71 83 72 84 48 85 49 86 58 87 50 88 51 89
REMARK SMILES IDX 57 90 59 91 52 92 53 93 54 94 55 95 56 96
REMARK H PARENT 11 9 5 16 7 19 7 20 89 24 80 46 46 57
REMARK Flexibility Score: inf
ROOT
ATOM      1  C   UNL     1      -2.475  -4.460   0.267  1.00  0.00     0.274 C 
ENDROOT
BRANCH   1   2
ATOM      2  O   UNL     1      -1.548  -3.666  -0.508  1.00  0.00    -0.460 OA
BRANCH   2   3
ATOM      3  C   UNL     1      -1.170  -4.165  -1.726  1.00  0.00     0.331 C 
ATOM      4  O   UNL     1      -1.633  -5.192  -2.204  1.00  0.00    -0.250 OA
BRANCH   3   5
ATOM      5  C   UNL     1      -0.066  -3.290  -2.360  1.00  0.00     0.221 C 
BRANCH   5   6
ATOM      6  N   UNL     1       1.234  -3.968  -2.498  1.00  0.00    -0.339 N 
ATOM      7  C   UNL     1       2.186  -4.279  -1.575  1.00  0.00     0.243 C 
ATOM      8  O   UNL     1       3.368  -4.235  -1.931  1.00  0.00    -0.273 OA
ATOM      9  H   UNL     1       1.453  -4.245  -3.418  1.00  0.00     0.164 HD
BRANCH   7  10
ATOM     10  C   UNL     1       1.831  -4.561  -0.091  1.00  0.00     0.175 C 
BRANCH  10  11
ATOM     11  C   UNL     1       1.506  -3.248   0.673  1.00  0.00     0.015 C 
ATOM     12  C   UNL     1       1.125  -3.478   2.140  1.00  0.00     0.010 C 
ATOM     13  C   UNL     1       2.672  -2.255   0.612  1.00  0.00     0.010 C 
ENDBRANCH  10  11
BRANCH  10  14
ATOM     14  N   UNL     1       0.741  -5.535  -0.034  1.00  0.00    -0.326 N 
ATOM     15  C   UNL     1       0.835  -6.763  -0.623  1.00  0.00     0.312 C 
ATOM     16  H   UNL     1      -0.087  -5.298   0.444  1.00  0.00     0.166 HD
ATOM     17  N   UNL     1      -0.324  -7.461  -0.546  1.00  0.00    -0.352 N 
ATOM     18  O   UNL     1       1.820  -7.213  -1.184  1.00  0.00    -0.249 OA
ATOM     19  H   UNL     1      -1.103  -7.072  -0.086  1.00  0.00     0.161 HD
ATOM     20  H   UNL     1      -0.388  -8.356  -0.950  1.00  0.00     0.161 HD
ENDBRANCH  10  14
ENDBRANCH   7  10
ENDBRANCH   5   6
BRANCH   5  21
ATOM     21  C   UNL     1      -0.538  -2.815  -3.771  1.00  0.00     0.145 C 
ATOM     22  C   UNL     1      -1.060  -1.381  -3.760  1.00  0.00     0.041 C 
BRANCH  21  23
ATOM     23  O   UNL     1       0.566  -2.851  -4.698  1.00  0.00    -0.391 OA
ATOM     24  H   UNL     1       1.258  -2.240  -4.401  1.00  0.00     0.211 HD
ENDBRANCH  21  23
ENDBRANCH   5  21
ENDBRANCH   3   5
ENDBRANCH   2   3
ENDBRANCH   1   2
BRANCH   1  25
ATOM     25  C   UNL     1      -3.176  -3.588   1.313  1.00  0.00     0.275 C 
BRANCH  25  26
ATOM     26  O   UNL     1      -4.235  -2.870   0.668  1.00  0.00    -0.458 OA
BRANCH  26  27
ATOM     27  C   UNL     1      -3.830  -1.748   0.043  1.00  0.00     0.338 C 
ATOM     28  O   UNL     1      -2.789  -1.124   0.214  1.00  0.00    -0.246 OA
BRANCH  27  29
ATOM     29  C   UNL     1      -4.686  -1.577  -1.127  1.00  0.00     0.060 A 
ATOM     30  C   UNL     1      -4.197  -2.068  -2.338  1.00  0.00     0.016 A 
ATOM     31  C   UNL     1      -5.897  -0.899  -1.060  1.00  0.00     0.016 A 
ATOM     32  C   UNL     1      -4.851  -1.773  -3.521  1.00  0.00     0.010 A 
ATOM     33  C   UNL     1      -6.596  -0.671  -2.245  1.00  0.00     0.010 A 
ATOM     34  C   UNL     1      -6.055  -1.065  -3.486  1.00  0.00    -0.014 A 
BRANCH  34  35
ATOM     35  C   UNL     1      -6.704  -0.645  -4.750  1.00  0.00     0.031 A 
ATOM     36  C   UNL     1      -6.877   0.822  -5.018  1.00  0.00     0.074 A 
ATOM     37  C   UNL     1      -7.115  -1.558  -5.649  1.00  0.00     0.049 A 
ATOM     38  N   UNL     1      -7.649   1.419  -5.884  1.00  0.00    -0.248 NA
ATOM     39  C   UNL     1      -6.093   1.741  -4.175  1.00  0.00     0.031 C 
ATOM     40  C   UNL     1      -6.924  -3.006  -5.539  1.00  0.00     0.029 A 
ATOM     41  N   UNL     1      -7.786  -1.401  -6.834  1.00  0.00    -0.354 N 
ATOM     42  C   UNL     1      -7.516   2.779  -5.630  1.00  0.00     0.074 A 
ATOM     43  C   UNL     1      -6.567   2.921  -4.549  1.00  0.00     0.031 C 
ATOM     44  C   UNL     1      -7.450  -3.603  -6.619  1.00  0.00     0.029 A 
ATOM     45  C   UNL     1      -8.099  -2.592  -7.445  1.00  0.00     0.049 A 
ATOM     46  H   UNL     1      -8.020  -0.522  -7.210  1.00  0.00     0.167 HD
ATOM     47  C   UNL     1      -8.154   3.806  -6.238  1.00  0.00     0.037 A 
ATOM     48  C   UNL     1      -8.878  -2.843  -8.514  1.00  0.00     0.037 A 
ATOM     49  C   UNL     1      -9.040   3.633  -7.359  1.00  0.00     0.049 A 
ATOM     50  C   UNL     1      -9.561  -1.689  -9.190  1.00  0.00     0.074 A 
ATOM     51  C   UNL     1      -9.744   4.593  -8.063  1.00  0.00     0.029 A 
ATOM     52  N   UNL     1      -9.320   2.411  -7.956  1.00  0.00    -0.354 N 
ATOM     53  N   UNL     1      -9.518  -0.414  -8.880  1.00  0.00    -0.248 NA
ATOM     54  C   UNL     1     -10.417  -2.005 -10.339  1.00  0.00     0.031 C 
ATOM     55  C   UNL     1     -10.466   3.947  -9.074  1.00  0.00     0.029 A 
ATOM     56  C   UNL     1     -10.185   2.590  -9.020  1.00  0.00     0.049 A 
ATOM     57  H   UNL     1      -8.956   1.544  -7.665  1.00  0.00     0.167 HD
ATOM     58  C   UNL     1     -10.348   0.226  -9.791  1.00  0.00     0.074 A 
ATOM     59  C   UNL     1     -10.857  -0.800 -10.681  1.00  0.00     0.031 C 
ATOM     60  C   UNL     1     -10.671   1.540  -9.880  1.00  0.00     0.037 A 
BRANCH  47  61
ATOM     61  C   UNL     1      -7.964   5.181  -5.663  1.00  0.00     0.058 A 
ATOM     62  C   UNL     1      -6.770   5.902  -5.814  1.00  0.00     0.135 A 
ATOM     63  C   UNL     1      -9.005   5.785  -4.937  1.00  0.00     0.135 A 
ATOM     64  F   UNL     1      -5.734   5.363  -6.476  1.00  0.00    -0.206 F 
ATOM     65  C   UNL     1      -6.603   7.161  -5.241  1.00  0.00     0.059 A 
ATOM     66  C   UNL     1      -8.869   7.051  -4.375  1.00  0.00     0.059 A 
ATOM     67  F   UNL     1     -10.166   5.136  -4.755  1.00  0.00    -0.206 F 
ATOM     68  C   UNL     1      -7.657   7.723  -4.518  1.00  0.00     0.060 A 
BRANCH  68  69
ATOM     69  S   UNL     1      -7.426   9.348  -3.763  1.00  0.00     0.124 S 
ATOM     70  O   UNL     1      -6.610   9.013  -2.600  1.00  0.00    -0.237 OA
ATOM     71  O   UNL     1      -6.748  10.092  -4.819  1.00  0.00    -0.237 OA
ATOM     72  O   UNL     1      -8.789   9.782  -3.471  1.00  0.00    -0.744 OA
ENDBRANCH  68  69
ENDBRANCH  47  61
BRANCH  48  73
ATOM     73  C   UNL     1      -9.092  -4.247  -8.952  1.00  0.00     0.058 A 
ATOM     74  C   UNL     1      -8.513  -4.734 -10.131  1.00  0.00     0.135 A 
ATOM     75  C   UNL     1      -9.826  -5.147  -8.162  1.00  0.00     0.135 A 
ATOM     76  F   UNL     1      -7.812  -3.910 -10.924  1.00  0.00    -0.206 F 
ATOM     77  C   UNL     1      -8.642  -6.068 -10.508  1.00  0.00     0.059 A 
ATOM     78  C   UNL     1      -9.948  -6.490  -8.504  1.00  0.00     0.059 A 
ATOM     79  F   UNL     1     -10.388  -4.733  -7.016  1.00  0.00    -0.206 F 
ATOM     80  C   UNL     1      -9.354  -6.941  -9.681  1.00  0.00     0.060 A 
BRANCH  80  81
ATOM     81  S   UNL     1      -9.433  -8.691 -10.120  1.00  0.00     0.124 S 
ATOM     82  O   UNL     1     -10.462  -8.688 -11.153  1.00  0.00    -0.237 OA
ATOM     83  O   UNL     1      -8.072  -8.960 -10.574  1.00  0.00    -0.237 OA
ATOM     84  O   UNL     1      -9.800  -9.333  -8.861  1.00  0.00    -0.744 OA
ENDBRANCH  80  81
ENDBRANCH  48  73
BRANCH  60  85
ATOM     85  C   UNL     1     -11.606   1.932 -10.985  1.00  0.00     0.058 A 
ATOM     86  C   UNL     1     -12.986   1.699 -10.889  1.00  0.00     0.135 A 
ATOM     87  C   UNL     1     -11.121   2.585 -12.128  1.00  0.00     0.135 A 
ATOM     88  F   UNL     1     -13.493   1.071  -9.816  1.00  0.00    -0.206 F 
ATOM     89  C   UNL     1     -13.855   2.084 -11.903  1.00  0.00     0.059 A 
ATOM     90  C   UNL     1     -11.974   2.996 -13.145  1.00  0.00     0.059 A 
ATOM     91  F   UNL     1      -9.808   2.836 -12.257  1.00  0.00    -0.206 F 
ATOM     92  C   UNL     1     -13.338   2.730 -13.028  1.00  0.00     0.060 A 
BRANCH  92  93
ATOM     93  S   UNL     1     -14.477   3.251 -14.328  1.00  0.00     0.124 S 
ATOM     94  O   UNL     1     -14.729   1.990 -15.017  1.00  0.00    -0.237 OA
ATOM     95  O   UNL     1     -15.598   3.793 -13.567  1.00  0.00    -0.237 OA
ATOM     96  O   UNL     1     -13.704   4.235 -15.079  1.00  0.00    -0.744 OA
ENDBRANCH  92  93
ENDBRANCH  60  85
ENDBRANCH  34  35
ENDBRANCH  27  29
ENDBRANCH  26  27
ENDBRANCH  25  26
ENDBRANCH   1  25
TORSDOF 20
