REMARK SMILES O=C(OCCOC(=O)c1cc(S(=O)(=O)Nc2ccccc2-n2cc(Br)cn2)c[nH]1)c1ccc(-c2c3nc(c(-c4c(F)cc(S(=O)(=O)[O-])cc4F)c4ccc([nH]4)c(-c4c(F)cc(S(=O)(=O)[O-])cc4F)c4nc(c(-c5c(F)cc(S(=O)(=O)[O-])cc5F)c5ccc2[nH]5)C=C4)C=C3)cc1
REMARK SMILES IDX 5 1 4 2 3 3 2 4 1 5 30 6 31 7 95 8 32 9 94 10 33 11 34 12
REMARK SMILES IDX 35 13 88 14 36 15 93 16 87 17 89 18 37 19 92 20 86 21 85 22
REMARK SMILES IDX 38 24 72 25 51 26 71 27 52 28 55 29 70 30 90 31 53 32 54 33
REMARK SMILES IDX 69 35 91 36 56 37 39 38 40 39 49 40 41 41 42 42 48 43 50 44
REMARK SMILES IDX 43 45 44 46 45 47 46 48 47 49 73 50 74 51 83 52 75 53 76 54
REMARK SMILES IDX 82 55 84 56 77 57 78 58 79 59 80 60 81 61 57 62 58 63 67 64
REMARK SMILES IDX 59 65 60 66 66 67 68 68 61 69 62 70 63 71 64 72 65 73 6 74
REMARK SMILES IDX 7 75 8 76 9 77 10 78 29 79 11 80 28 81 12 83 13 84 14 85
REMARK SMILES IDX 15 86 16 88 17 89 21 90 18 91 20 92 19 93 22 94 23 95 27 96
REMARK SMILES IDX 24 97 26 98 25 99
REMARK H PARENT 89 23 55 34 29 82 15 87
REMARK Flexibility Score: inf
ROOT
ATOM      1  C   UNL     1       4.621   0.713  -1.242  1.00  0.00     0.275 C 
ENDROOT
BRANCH   1   2
ATOM      2  C   UNL     1       4.339  -0.792  -1.161  1.00  0.00     0.275 C 
BRANCH   2   3
ATOM      3  O   UNL     1       2.935  -1.124  -1.155  1.00  0.00    -0.458 OA
BRANCH   3   4
ATOM      4  C   UNL     1       2.034  -0.841  -0.185  1.00  0.00     0.338 C 
ATOM      5  O   UNL     1       0.904  -0.461  -0.484  1.00  0.00    -0.246 OA
BRANCH   4   6
ATOM      6  C   UNL     1       2.307  -1.175   1.240  1.00  0.00     0.060 A 
ATOM      7  C   UNL     1       3.548  -1.083   1.872  1.00  0.00     0.016 A 
ATOM      8  C   UNL     1       1.188  -1.567   2.002  1.00  0.00     0.016 A 
ATOM      9  C   UNL     1       3.696  -1.474   3.199  1.00  0.00     0.010 A 
ATOM     10  C   UNL     1       1.321  -1.924   3.341  1.00  0.00     0.010 A 
ATOM     11  C   UNL     1       2.586  -1.902   3.930  1.00  0.00    -0.014 A 
BRANCH  11  12
ATOM     12  C   UNL     1       2.793  -2.265   5.348  1.00  0.00     0.031 A 
ATOM     13  C   UNL     1       2.947  -1.051   6.259  1.00  0.00     0.074 A 
ATOM     14  C   UNL     1       2.895  -3.598   5.621  1.00  0.00     0.049 A 
ATOM     15  N   UNL     1       3.670  -0.905   7.328  1.00  0.00    -0.248 NA
ATOM     16  C   UNL     1       2.292   0.223   5.864  1.00  0.00     0.031 C 
ATOM     17  C   UNL     1       2.749  -4.651   4.600  1.00  0.00     0.029 A 
ATOM     18  N   UNL     1       3.137  -4.344   6.759  1.00  0.00    -0.354 N 
ATOM     19  C   UNL     1       3.387   0.376   7.846  1.00  0.00     0.074 A 
ATOM     20  C   UNL     1       2.659   1.073   6.826  1.00  0.00     0.031 C 
ATOM     21  C   UNL     1       2.954  -5.868   5.137  1.00  0.00     0.029 A 
ATOM     22  C   UNL     1       3.247  -5.744   6.550  1.00  0.00     0.049 A 
ATOM     23  H   UNL     1       3.226  -3.934   7.650  1.00  0.00     0.167 HD
ATOM     24  C   UNL     1       3.626   0.733   9.142  1.00  0.00     0.037 A 
ATOM     25  C   UNL     1       3.587  -6.736   7.431  1.00  0.00     0.037 A 
ATOM     26  C   UNL     1       4.172  -0.366   9.871  1.00  0.00     0.049 A 
ATOM     27  C   UNL     1       3.696  -6.087   8.754  1.00  0.00     0.074 A 
ATOM     28  C   UNL     1       5.403  -0.962   9.915  1.00  0.00     0.029 A 
ATOM     29  N   UNL     1       3.272  -1.163  10.540  1.00  0.00    -0.354 N 
ATOM     30  N   UNL     1       2.698  -5.624   9.446  1.00  0.00    -0.248 NA
ATOM     31  C   UNL     1       5.032  -5.865   9.326  1.00  0.00     0.031 C 
ATOM     32  C   UNL     1       5.138  -2.297  10.293  1.00  0.00     0.029 A 
ATOM     33  C   UNL     1       3.766  -2.445  10.531  1.00  0.00     0.049 A 
ATOM     34  H   UNL     1       2.428  -0.868  10.951  1.00  0.00     0.167 HD
ATOM     35  C   UNL     1       3.309  -4.784  10.348  1.00  0.00     0.074 A 
ATOM     36  C   UNL     1       4.693  -5.193  10.422  1.00  0.00     0.031 C 
ATOM     37  C   UNL     1       2.811  -3.537  10.546  1.00  0.00     0.037 A 
BRANCH  24  38
ATOM     38  C   UNL     1       3.167   1.915   9.959  1.00  0.00     0.058 A 
ATOM     39  C   UNL     1       3.884   2.212  11.146  1.00  0.00     0.135 A 
ATOM     40  C   UNL     1       1.900   2.505   9.840  1.00  0.00     0.135 A 
ATOM     41  F   UNL     1       5.134   1.752  11.325  1.00  0.00    -0.206 F 
ATOM     42  C   UNL     1       3.316   2.900  12.212  1.00  0.00     0.059 A 
ATOM     43  C   UNL     1       1.329   3.244  10.881  1.00  0.00     0.059 A 
ATOM     44  F   UNL     1       1.141   2.305   8.755  1.00  0.00    -0.206 F 
ATOM     45  C   UNL     1       2.016   3.373  12.087  1.00  0.00     0.060 A 
BRANCH  45  46
ATOM     46  S   UNL     1       1.216   4.095  13.535  1.00  0.00     0.124 S 
ATOM     47  O   UNL     1       0.813   2.903  14.272  1.00  0.00    -0.237 OA
ATOM     48  O   UNL     1       2.295   4.874  14.138  1.00  0.00    -0.237 OA
ATOM     49  O   UNL     1       0.133   4.885  12.959  1.00  0.00    -0.744 OA
ENDBRANCH  45  46
ENDBRANCH  24  38
BRANCH  25  50
ATOM     50  C   UNL     1       3.982  -8.202   7.349  1.00  0.00     0.058 A 
ATOM     51  C   UNL     1       4.044  -8.985   6.186  1.00  0.00     0.135 A 
ATOM     52  C   UNL     1       4.481  -8.865   8.507  1.00  0.00     0.135 A 
ATOM     53  F   UNL     1       3.486  -8.591   5.039  1.00  0.00    -0.206 F 
ATOM     54  C   UNL     1       4.697 -10.227   6.135  1.00  0.00     0.059 A 
ATOM     55  C   UNL     1       5.172 -10.076   8.477  1.00  0.00     0.059 A 
ATOM     56  F   UNL     1       4.351  -8.335   9.732  1.00  0.00    -0.206 F 
ATOM     57  C   UNL     1       5.309 -10.738   7.272  1.00  0.00     0.060 A 
BRANCH  57  58
ATOM     58  S   UNL     1       6.384 -12.182   7.167  1.00  0.00     0.124 S 
ATOM     59  O   UNL     1       5.455 -13.273   7.434  1.00  0.00    -0.237 OA
ATOM     60  O   UNL     1       6.896 -12.102   5.802  1.00  0.00    -0.237 OA
ATOM     61  O   UNL     1       7.377 -11.925   8.208  1.00  0.00    -0.744 OA
ENDBRANCH  57  58
ENDBRANCH  25  50
BRANCH  37  62
ATOM     62  C   UNL     1       1.320  -3.419  10.279  1.00  0.00     0.058 A 
ATOM     63  C   UNL     1       0.393  -4.105  11.078  1.00  0.00     0.135 A 
ATOM     64  C   UNL     1       0.786  -2.724   9.181  1.00  0.00     0.135 A 
ATOM     65  F   UNL     1       0.815  -4.800  12.147  1.00  0.00    -0.206 F 
ATOM     66  C   UNL     1      -0.979  -4.101  10.799  1.00  0.00     0.059 A 
ATOM     67  C   UNL     1      -0.576  -2.686   8.886  1.00  0.00     0.059 A 
ATOM     68  F   UNL     1       1.591  -2.067   8.348  1.00  0.00    -0.206 F 
ATOM     69  C   UNL     1      -1.456  -3.388   9.698  1.00  0.00     0.060 A 
BRANCH  69  70
ATOM     70  S   UNL     1      -3.226  -3.396   9.337  1.00  0.00     0.124 S 
ATOM     71  O   UNL     1      -3.494  -4.814   9.120  1.00  0.00    -0.237 OA
ATOM     72  O   UNL     1      -3.791  -2.827  10.556  1.00  0.00    -0.237 OA
ATOM     73  O   UNL     1      -3.342  -2.556   8.146  1.00  0.00    -0.744 OA
ENDBRANCH  69  70
ENDBRANCH  37  62
ENDBRANCH  11  12
ENDBRANCH   4   6
ENDBRANCH   3   4
ENDBRANCH   2   3
ENDBRANCH   1   2
BRANCH   1  74
ATOM     74  O   UNL     1       4.135   1.441  -0.103  1.00  0.00    -0.457 OA
BRANCH  74  75
ATOM     75  C   UNL     1       2.921   2.034  -0.277  1.00  0.00     0.354 C 
ATOM     76  O   UNL     1       2.260   1.986  -1.310  1.00  0.00    -0.244 OA
BRANCH  75  77
ATOM     77  C   UNL     1       2.493   2.690   0.928  1.00  0.00     0.126 A 
ATOM     78  C   UNL     1       3.215   3.421   1.857  1.00  0.00     0.057 A 
ATOM     79  N   UNL     1       1.166   2.779   1.294  1.00  0.00    -0.354 N 
ATOM     80  C   UNL     1       2.273   4.220   2.564  1.00  0.00     0.106 A 
ATOM     81  C   UNL     1       1.017   3.733   2.268  1.00  0.00     0.105 A 
ATOM     82  H   UNL     1       0.436   2.239   0.914  1.00  0.00     0.166 HD
BRANCH  80  83
ATOM     83  S   UNL     1       2.679   5.635   3.475  1.00  0.00     0.263 S 
ATOM     84  O   UNL     1       1.433   6.061   4.102  1.00  0.00    -0.201 OA
ATOM     85  O   UNL     1       3.839   5.286   4.237  1.00  0.00    -0.201 OA
BRANCH  83  86
ATOM     86  N   UNL     1       3.119   6.911   2.403  1.00  0.00    -0.277 N 
ATOM     87  H   UNL     1       2.743   7.817   2.487  1.00  0.00     0.180 HD
BRANCH  86  88
ATOM     88  C   UNL     1       4.071   6.570   1.379  1.00  0.00     0.075 A 
ATOM     89  C   UNL     1       5.421   6.500   1.751  1.00  0.00     0.029 A 
ATOM     90  C   UNL     1       3.678   6.105   0.108  1.00  0.00     0.089 A 
ATOM     91  C   UNL     1       6.372   5.948   0.889  1.00  0.00     0.002 A 
ATOM     92  C   UNL     1       4.645   5.532  -0.742  1.00  0.00     0.030 A 
ATOM     93  C   UNL     1       5.982   5.453  -0.351  1.00  0.00     0.002 A 
BRANCH  90  94
ATOM     94  N   UNL     1       2.324   6.116  -0.336  1.00  0.00    -0.238 N 
ATOM     95  C   UNL     1       1.253   6.839   0.148  1.00  0.00     0.130 A 
ATOM     96  N   UNL     1       1.933   5.309  -1.365  1.00  0.00    -0.175 NA
ATOM     97  C   UNL     1       0.136   6.292  -0.418  1.00  0.00     0.056 A 
ATOM     98  C   UNL     1       0.598   5.335  -1.319  1.00  0.00     0.151 A 
ATOM     99  Br  UNL     1      -1.648   6.714  -0.082  1.00  0.00    -0.047 Br
ENDBRANCH  90  94
ENDBRANCH  86  88
ENDBRANCH  83  86
ENDBRANCH  80  83
ENDBRANCH  75  77
ENDBRANCH  74  75
ENDBRANCH   1  74
TORSDOF 18
