REMARK SMILES C#CCN(CC(=O)OCCOC(=O)c1ccc(-c2c3nc(c(-c4c(F)cc(S(=O)(=O)[O-])cc4F)c4ccc([nH]4)c(-c4c(F)cc(S(=O)(=O)[O-])cc4F)c4nc(c(-c5c(F)cc(S(=O)(=O)[O-])cc5F)c5ccc2[nH]5)C=C4)C=C3)cc1)C(=O)c1cccnc1C
REMARK SMILES IDX 9 1 8 2 6 3 7 4 5 5 4 6 3 7 2 8 1 9 80 10 81 11 82 12 83 13
REMARK SMILES IDX 87 14 84 15 86 16 88 17 85 18 10 19 11 20 12 21 13 22 14 23
REMARK SMILES IDX 15 24 79 25 16 26 78 27 17 28 18 29 19 30 72 31 20 32 77 33
REMARK SMILES IDX 71 34 73 35 21 36 76 37 70 38 69 39 22 41 56 42 35 43 55 44
REMARK SMILES IDX 36 45 39 46 54 47 74 48 37 49 38 50 53 52 75 53 40 54 23 55
REMARK SMILES IDX 24 56 33 57 25 58 26 59 32 60 34 61 27 62 28 63 29 64 30 65
REMARK SMILES IDX 31 66 57 67 58 68 67 69 59 70 60 71 66 72 68 73 61 74 62 75
REMARK SMILES IDX 63 76 64 77 65 78 41 79 42 80 51 81 43 82 44 83 50 84 52 85
REMARK SMILES IDX 45 86 46 87 47 88 48 89 49 90
REMARK H PARENT 73 40 39 51
REMARK Flexibility Score: inf
ROOT
ATOM      1  C   UNL     1      -6.578  -1.776   0.870  1.00  0.00     0.274 C 
ENDROOT
BRANCH   1   2
ATOM      2  O   UNL     1      -5.173  -1.728   0.535  1.00  0.00    -0.461 OA
BRANCH   2   3
ATOM      3  C   UNL     1      -4.330  -1.649   1.603  1.00  0.00     0.325 C 
ATOM      4  O   UNL     1      -4.701  -1.540   2.768  1.00  0.00    -0.250 OA
BRANCH   3   5
ATOM      5  C   UNL     1      -2.874  -1.953   1.246  1.00  0.00     0.243 C 
BRANCH   5   6
ATOM      6  N   UNL     1      -2.380  -1.417  -0.015  1.00  0.00    -0.316 N 
BRANCH   6   7
ATOM      7  C   UNL     1      -1.908  -0.049   0.024  1.00  0.00     0.210 C 
BRANCH   7   8
ATOM      8  C   UNL     1      -0.388  -0.049   0.024  1.00  0.00    -0.085 C 
ATOM      9  C   UNL     1       0.916  -0.049   0.024  1.00  0.00     0.006 C 
ENDBRANCH   7   8
ENDBRANCH   6   7
BRANCH   6  10
ATOM     10  C   UNL     1      -2.308  -2.090  -1.231  1.00  0.00     0.257 C 
ATOM     11  O   UNL     1      -2.112  -1.507  -2.297  1.00  0.00    -0.269 OA
BRANCH  10  12
ATOM     12  C   UNL     1      -2.386  -3.566  -1.269  1.00  0.00     0.061 A 
ATOM     13  C   UNL     1      -1.477  -4.335  -0.532  1.00  0.00     0.017 A 
ATOM     14  C   UNL     1      -3.272  -4.219  -2.128  1.00  0.00     0.050 A 
ATOM     15  C   UNL     1      -1.519  -5.722  -0.628  1.00  0.00     0.021 A 
ATOM     16  N   UNL     1      -3.290  -5.575  -2.261  1.00  0.00    -0.261 NA
ATOM     17  C   UNL     1      -4.292  -3.464  -2.929  1.00  0.00     0.067 C 
ATOM     18  C   UNL     1      -2.435  -6.290  -1.497  1.00  0.00     0.111 A 
ENDBRANCH  10  12
ENDBRANCH   6  10
ENDBRANCH   5   6
ENDBRANCH   3   5
ENDBRANCH   2   3
ENDBRANCH   1   2
BRANCH   1  19
ATOM     19  C   UNL     1      -7.102  -3.215   0.932  1.00  0.00     0.275 C 
BRANCH  19  20
ATOM     20  O   UNL     1      -6.312  -4.022   1.829  1.00  0.00    -0.458 OA
BRANCH  20  21
ATOM     21  C   UNL     1      -5.438  -4.834   1.192  1.00  0.00     0.338 C 
ATOM     22  O   UNL     1      -5.314  -4.945  -0.014  1.00  0.00    -0.246 OA
BRANCH  21  23
ATOM     23  C   UNL     1      -4.572  -5.581   2.117  1.00  0.00     0.060 A 
ATOM     24  C   UNL     1      -3.668  -4.904   2.933  1.00  0.00     0.016 A 
ATOM     25  C   UNL     1      -4.522  -6.973   2.015  1.00  0.00     0.016 A 
ATOM     26  C   UNL     1      -2.649  -5.607   3.566  1.00  0.00     0.010 A 
ATOM     27  C   UNL     1      -3.571  -7.691   2.748  1.00  0.00     0.010 A 
ATOM     28  C   UNL     1      -2.614  -7.011   3.513  1.00  0.00    -0.014 A 
BRANCH  28  29
ATOM     29  C   UNL     1      -1.659  -7.732   4.390  1.00  0.00     0.031 A 
ATOM     30  C   UNL     1      -0.511  -8.530   3.840  1.00  0.00     0.074 A 
ATOM     31  C   UNL     1      -1.828  -7.604   5.720  1.00  0.00     0.049 A 
ATOM     32  N   UNL     1       0.427  -9.168   4.492  1.00  0.00    -0.248 NA
ATOM     33  C   UNL     1      -0.392  -8.621   2.377  1.00  0.00     0.031 C 
ATOM     34  C   UNL     1      -2.914  -6.850   6.358  1.00  0.00     0.029 A 
ATOM     35  N   UNL     1      -1.089  -8.072   6.773  1.00  0.00    -0.354 N 
ATOM     36  C   UNL     1       1.252  -9.732   3.526  1.00  0.00     0.074 A 
ATOM     37  C   UNL     1       0.696  -9.372   2.238  1.00  0.00     0.031 C 
ATOM     38  C   UNL     1      -2.739  -6.861   7.685  1.00  0.00     0.029 A 
ATOM     39  C   UNL     1      -1.575  -7.678   7.997  1.00  0.00     0.049 A 
ATOM     40  H   UNL     1      -0.289  -8.634   6.664  1.00  0.00     0.167 HD
ATOM     41  C   UNL     1       2.366 -10.483   3.705  1.00  0.00     0.037 A 
ATOM     42  C   UNL     1      -1.147  -7.962   9.240  1.00  0.00     0.037 A 
ATOM     43  C   UNL     1       2.889 -10.862   4.994  1.00  0.00     0.049 A 
ATOM     44  C   UNL     1       0.056  -8.836   9.405  1.00  0.00     0.074 A 
ATOM     45  C   UNL     1       3.998 -11.642   5.282  1.00  0.00     0.029 A 
ATOM     46  N   UNL     1       2.335 -10.497   6.213  1.00  0.00    -0.354 N 
ATOM     47  N   UNL     1       0.814  -9.368   8.477  1.00  0.00    -0.248 NA
ATOM     48  C   UNL     1       0.449  -9.163  10.779  1.00  0.00     0.031 C 
ATOM     49  C   UNL     1       4.093 -11.774   6.674  1.00  0.00     0.029 A 
ATOM     50  C   UNL     1       3.063 -11.051   7.253  1.00  0.00     0.049 A 
ATOM     51  H   UNL     1       1.540  -9.926   6.322  1.00  0.00     0.167 HD
ATOM     52  C   UNL     1       1.771 -10.109   9.155  1.00  0.00     0.074 A 
ATOM     53  C   UNL     1       1.513  -9.927  10.571  1.00  0.00     0.031 C 
ATOM     54  C   UNL     1       2.766 -10.880   8.652  1.00  0.00     0.037 A 
BRANCH  41  55
ATOM     55  C   UNL     1       3.088 -10.971   2.480  1.00  0.00     0.058 A 
ATOM     56  C   UNL     1       3.945 -10.130   1.752  1.00  0.00     0.135 A 
ATOM     57  C   UNL     1       2.978 -12.309   2.069  1.00  0.00     0.135 A 
ATOM     58  F   UNL     1       4.074  -8.839   2.095  1.00  0.00    -0.206 F 
ATOM     59  C   UNL     1       4.665 -10.598   0.657  1.00  0.00     0.059 A 
ATOM     60  C   UNL     1       3.698 -12.802   0.984  1.00  0.00     0.059 A 
ATOM     61  F   UNL     1       2.169 -13.152   2.728  1.00  0.00    -0.206 F 
ATOM     62  C   UNL     1       4.535 -11.937   0.279  1.00  0.00     0.060 A 
BRANCH  62  63
ATOM     63  S   UNL     1       5.490 -12.538  -1.131  1.00  0.00     0.124 S 
ATOM     64  O   UNL     1       4.743 -11.972  -2.250  1.00  0.00    -0.237 OA
ATOM     65  O   UNL     1       6.807 -11.958  -0.889  1.00  0.00    -0.237 OA
ATOM     66  O   UNL     1       5.415 -13.990  -0.997  1.00  0.00    -0.744 OA
ENDBRANCH  62  63
ENDBRANCH  41  55
BRANCH  42  67
ATOM     67  C   UNL     1      -1.896  -7.431  10.405  1.00  0.00     0.058 A 
ATOM     68  C   UNL     1      -1.381  -6.388  11.184  1.00  0.00     0.135 A 
ATOM     69  C   UNL     1      -3.178  -7.914  10.713  1.00  0.00     0.135 A 
ATOM     70  F   UNL     1      -0.159  -5.897  10.925  1.00  0.00    -0.206 F 
ATOM     71  C   UNL     1      -2.113  -5.834  12.229  1.00  0.00     0.059 A 
ATOM     72  C   UNL     1      -3.938  -7.362  11.736  1.00  0.00     0.059 A 
ATOM     73  F   UNL     1      -3.720  -8.899   9.979  1.00  0.00    -0.206 F 
ATOM     74  C   UNL     1      -3.394  -6.324  12.493  1.00  0.00     0.060 A 
BRANCH  74  75
ATOM     75  S   UNL     1      -4.388  -5.548  13.786  1.00  0.00     0.124 S 
ATOM     76  O   UNL     1      -3.927  -6.258  14.973  1.00  0.00    -0.237 OA
ATOM     77  O   UNL     1      -3.995  -4.145  13.687  1.00  0.00    -0.237 OA
ATOM     78  O   UNL     1      -5.756  -5.836  13.364  1.00  0.00    -0.744 OA
ENDBRANCH  74  75
ENDBRANCH  42  67
BRANCH  54  79
ATOM     79  C   UNL     1       3.621 -11.589   9.657  1.00  0.00     0.058 A 
ATOM     80  C   UNL     1       3.158 -12.738  10.317  1.00  0.00     0.135 A 
ATOM     81  C   UNL     1       4.894 -11.103   9.987  1.00  0.00     0.135 A 
ATOM     82  F   UNL     1       1.940 -13.232  10.040  1.00  0.00    -0.206 F 
ATOM     83  C   UNL     1       3.915 -13.361  11.302  1.00  0.00     0.059 A 
ATOM     84  C   UNL     1       5.676 -11.720  10.957  1.00  0.00     0.059 A 
ATOM     85  F   UNL     1       5.379 -10.010   9.377  1.00  0.00    -0.206 F 
ATOM     86  C   UNL     1       5.168 -12.836  11.624  1.00  0.00     0.060 A 
BRANCH  86  87
ATOM     87  S   UNL     1       6.141 -13.630  12.920  1.00  0.00     0.124 S 
ATOM     88  O   UNL     1       5.564 -13.037  14.121  1.00  0.00    -0.237 OA
ATOM     89  O   UNL     1       5.856 -15.047  12.713  1.00  0.00    -0.237 OA
ATOM     90  O   UNL     1       7.508 -13.222  12.608  1.00  0.00    -0.744 OA
ENDBRANCH  86  87
ENDBRANCH  54  79
ENDBRANCH  28  29
ENDBRANCH  21  23
ENDBRANCH  20  21
ENDBRANCH  19  20
ENDBRANCH   1  19
TORSDOF 19
