REMARK SMILES O=C(OCCOC(=O)c1cccnc1SCC(=O)c1ccccc1Cl)c1ccc(-c2c3nc(c(-c4c(F)cc(S(=O)(=O)[O-])cc4F)c4ccc([nH]4)c(-c4c(F)cc(S(=O)(=O)[O-])cc4F)c4nc(c(-c5c(F)cc(S(=O)(=O)[O-])cc5F)c5ccc2[nH]5)C=C4)C=C3)cc1
REMARK SMILES IDX 5 1 4 2 3 3 2 4 1 5 26 6 27 7 91 8 28 9 90 10 29 11 30 12
REMARK SMILES IDX 31 13 84 14 32 15 89 16 83 17 85 18 33 19 88 20 82 21 81 22
REMARK SMILES IDX 34 24 68 25 47 26 67 27 48 28 51 29 66 30 86 31 49 32 50 33
REMARK SMILES IDX 65 35 87 36 52 37 35 38 36 39 45 40 37 41 38 42 44 43 46 44
REMARK SMILES IDX 39 45 40 46 41 47 42 48 43 49 69 50 70 51 79 52 71 53 72 54
REMARK SMILES IDX 78 55 80 56 73 57 74 58 75 59 76 60 77 61 53 62 54 63 63 64
REMARK SMILES IDX 55 65 56 66 62 67 64 68 57 69 58 70 59 71 60 72 61 73 6 74
REMARK SMILES IDX 7 75 8 76 9 77 10 78 14 79 11 80 13 81 12 82 15 83 16 84
REMARK SMILES IDX 17 85 18 86 19 87 20 88 24 89 21 90 23 91 25 92 22 93
REMARK H PARENT 85 23 51 34
REMARK Flexibility Score: inf
ROOT
ATOM      1  C   UNL     1       4.049   1.497  -1.254  1.00  0.00     0.275 C 
ENDROOT
BRANCH   1   2
ATOM      2  C   UNL     1       4.559   0.158  -1.813  1.00  0.00     0.275 C 
BRANCH   2   3
ATOM      3  O   UNL     1       5.246  -0.594  -0.809  1.00  0.00    -0.458 OA
BRANCH   3   4
ATOM      4  C   UNL     1       4.420  -1.251   0.047  1.00  0.00     0.338 C 
ATOM      5  O   UNL     1       3.451  -1.920  -0.261  1.00  0.00    -0.246 OA
BRANCH   4   6
ATOM      6  C   UNL     1       4.768  -0.809   1.424  1.00  0.00     0.060 A 
ATOM      7  C   UNL     1       5.888  -0.004   1.658  1.00  0.00     0.016 A 
ATOM      8  C   UNL     1       3.862  -1.052   2.458  1.00  0.00     0.016 A 
ATOM      9  C   UNL     1       6.089   0.554   2.909  1.00  0.00     0.010 A 
ATOM     10  C   UNL     1       3.998  -0.402   3.681  1.00  0.00     0.010 A 
ATOM     11  C   UNL     1       5.147   0.355   3.924  1.00  0.00    -0.014 A 
BRANCH  11  12
ATOM     12  C   UNL     1       5.543   0.730   5.292  1.00  0.00     0.031 A 
ATOM     13  C   UNL     1       6.040  -0.376   6.176  1.00  0.00     0.074 A 
ATOM     14  C   UNL     1       5.628   2.027   5.636  1.00  0.00     0.049 A 
ATOM     15  N   UNL     1       6.733  -0.297   7.277  1.00  0.00    -0.248 NA
ATOM     16  C   UNL     1       5.760  -1.758   5.742  1.00  0.00     0.031 C 
ATOM     17  C   UNL     1       5.199   3.152   4.800  1.00  0.00     0.029 A 
ATOM     18  N   UNL     1       6.141   2.623   6.755  1.00  0.00    -0.354 N 
ATOM     19  C   UNL     1       7.021  -1.611   7.625  1.00  0.00     0.074 A 
ATOM     20  C   UNL     1       6.356  -2.472   6.681  1.00  0.00     0.031 C 
ATOM     21  C   UNL     1       5.466   4.304   5.439  1.00  0.00     0.029 A 
ATOM     22  C   UNL     1       6.106   3.997   6.713  1.00  0.00     0.049 A 
ATOM     23  H   UNL     1       6.502   2.116   7.518  1.00  0.00     0.167 HD
ATOM     24  C   UNL     1       7.816  -2.057   8.621  1.00  0.00     0.037 A 
ATOM     25  C   UNL     1       6.574   4.897   7.599  1.00  0.00     0.037 A 
ATOM     26  C   UNL     1       8.432  -1.175   9.569  1.00  0.00     0.049 A 
ATOM     27  C   UNL     1       7.367   4.372   8.768  1.00  0.00     0.074 A 
ATOM     28  C   UNL     1       9.221  -1.486  10.657  1.00  0.00     0.029 A 
ATOM     29  N   UNL     1       8.301   0.209   9.538  1.00  0.00    -0.354 N 
ATOM     30  N   UNL     1       7.679   3.128   9.056  1.00  0.00    -0.248 NA
ATOM     31  C   UNL     1       7.901   5.362   9.709  1.00  0.00     0.031 C 
ATOM     32  C   UNL     1       9.531  -0.288  11.312  1.00  0.00     0.029 A 
ATOM     33  C   UNL     1       8.975   0.769  10.605  1.00  0.00     0.049 A 
ATOM     34  H   UNL     1       7.802   0.714   8.857  1.00  0.00     0.167 HD
ATOM     35  C   UNL     1       8.477   3.187  10.191  1.00  0.00     0.074 A 
ATOM     36  C   UNL     1       8.601   4.592  10.533  1.00  0.00     0.031 C 
ATOM     37  C   UNL     1       9.063   2.181  10.890  1.00  0.00     0.037 A 
BRANCH  24  38
ATOM     38  C   UNL     1       8.016  -3.542   8.714  1.00  0.00     0.058 A 
ATOM     39  C   UNL     1       8.780  -4.240   7.761  1.00  0.00     0.135 A 
ATOM     40  C   UNL     1       7.381  -4.288   9.716  1.00  0.00     0.135 A 
ATOM     41  F   UNL     1       9.379  -3.578   6.758  1.00  0.00    -0.206 F 
ATOM     42  C   UNL     1       8.878  -5.628   7.780  1.00  0.00     0.059 A 
ATOM     43  C   UNL     1       7.484  -5.676   9.768  1.00  0.00     0.059 A 
ATOM     44  F   UNL     1       6.622  -3.675  10.638  1.00  0.00    -0.206 F 
ATOM     45  C   UNL     1       8.219  -6.338   8.785  1.00  0.00     0.060 A 
BRANCH  45  46
ATOM     46  S   UNL     1       8.330  -8.140   8.782  1.00  0.00     0.124 S 
ATOM     47  O   UNL     1       7.462  -8.485   7.661  1.00  0.00    -0.237 OA
ATOM     48  O   UNL     1       9.756  -8.366   8.572  1.00  0.00    -0.237 OA
ATOM     49  O   UNL     1       7.828  -8.513  10.101  1.00  0.00    -0.744 OA
ENDBRANCH  45  46
ENDBRANCH  24  38
BRANCH  25  50
ATOM     50  C   UNL     1       6.342   6.353   7.389  1.00  0.00     0.058 A 
ATOM     51  C   UNL     1       7.387   7.235   7.080  1.00  0.00     0.135 A 
ATOM     52  C   UNL     1       5.046   6.890   7.479  1.00  0.00     0.135 A 
ATOM     53  F   UNL     1       8.643   6.776   6.978  1.00  0.00    -0.206 F 
ATOM     54  C   UNL     1       7.163   8.597   6.886  1.00  0.00     0.059 A 
ATOM     55  C   UNL     1       4.794   8.244   7.271  1.00  0.00     0.059 A 
ATOM     56  F   UNL     1       4.004   6.090   7.752  1.00  0.00    -0.206 F 
ATOM     57  C   UNL     1       5.861   9.092   6.984  1.00  0.00     0.060 A 
BRANCH  57  58
ATOM     58  S   UNL     1       5.574  10.853   6.693  1.00  0.00     0.124 S 
ATOM     59  O   UNL     1       6.161  11.449   7.887  1.00  0.00    -0.237 OA
ATOM     60  O   UNL     1       6.297  11.078   5.445  1.00  0.00    -0.237 OA
ATOM     61  O   UNL     1       4.120  10.944   6.591  1.00  0.00    -0.744 OA
ENDBRANCH  57  58
ENDBRANCH  25  50
BRANCH  37  62
ATOM     62  C   UNL     1       9.900   2.575  12.069  1.00  0.00     0.058 A 
ATOM     63  C   UNL     1       9.314   2.997  13.271  1.00  0.00     0.135 A 
ATOM     64  C   UNL     1      11.298   2.458  12.014  1.00  0.00     0.135 A 
ATOM     65  F   UNL     1       7.981   3.126  13.366  1.00  0.00    -0.206 F 
ATOM     66  C   UNL     1      10.091   3.310  14.378  1.00  0.00     0.059 A 
ATOM     67  C   UNL     1      12.091   2.740  13.117  1.00  0.00     0.059 A 
ATOM     68  F   UNL     1      11.899   2.044  10.887  1.00  0.00    -0.206 F 
ATOM     69  C   UNL     1      11.479   3.176  14.292  1.00  0.00     0.060 A 
BRANCH  69  70
ATOM     70  S   UNL     1      12.474   3.546  15.749  1.00  0.00     0.124 S 
ATOM     71  O   UNL     1      12.465   5.005  15.745  1.00  0.00    -0.237 OA
ATOM     72  O   UNL     1      11.712   2.910  16.820  1.00  0.00    -0.237 OA
ATOM     73  O   UNL     1      13.759   2.923  15.448  1.00  0.00    -0.744 OA
ENDBRANCH  69  70
ENDBRANCH  37  62
ENDBRANCH  11  12
ENDBRANCH   4   6
ENDBRANCH   3   4
ENDBRANCH   2   3
ENDBRANCH   1   2
BRANCH   1  74
ATOM     74  O   UNL     1       3.285   1.329  -0.042  1.00  0.00    -0.458 OA
BRANCH  74  75
ATOM     75  C   UNL     1       2.294   2.223   0.153  1.00  0.00     0.341 C 
ATOM     76  O   UNL     1       1.946   3.117  -0.605  1.00  0.00    -0.246 OA
BRANCH  75  77
ATOM     77  C   UNL     1       1.797   2.164   1.529  1.00  0.00     0.092 A 
ATOM     78  C   UNL     1       2.141   3.289   2.305  1.00  0.00     0.020 A 
ATOM     79  C   UNL     1       1.046   1.143   2.108  1.00  0.00     0.111 A 
ATOM     80  C   UNL     1       1.762   3.366   3.636  1.00  0.00     0.021 A 
ATOM     81  N   UNL     1       0.642   1.247   3.411  1.00  0.00    -0.249 NA
ATOM     82  C   UNL     1       1.011   2.328   4.141  1.00  0.00     0.112 A 
BRANCH  79  83
ATOM     83  S   UNL     1       0.801  -0.521   1.532  1.00  0.00    -0.097 SA
BRANCH  83  84
ATOM     84  C   UNL     1      -0.178  -0.609   0.032  1.00  0.00     0.157 C 
BRANCH  84  85
ATOM     85  C   UNL     1       0.093   0.413  -1.024  1.00  0.00     0.174 C 
ATOM     86  O   UNL     1       1.149   0.406  -1.661  1.00  0.00    -0.293 OA
BRANCH  85  87
ATOM     87  C   UNL     1      -0.999   1.318  -1.479  1.00  0.00     0.037 A 
ATOM     88  C   UNL     1      -0.930   1.697  -2.833  1.00  0.00     0.013 A 
ATOM     89  C   UNL     1      -2.086   1.757  -0.711  1.00  0.00     0.051 A 
ATOM     90  C   UNL     1      -1.951   2.435  -3.426  1.00  0.00     0.001 A 
ATOM     91  C   UNL     1      -3.119   2.479  -1.321  1.00  0.00     0.021 A 
ATOM     92  Cl  UNL     1      -2.249   1.538   0.993  1.00  0.00    -0.084 Cl
ATOM     93  C   UNL     1      -3.058   2.807  -2.674  1.00  0.00     0.002 A 
ENDBRANCH  85  87
ENDBRANCH  84  85
ENDBRANCH  83  84
ENDBRANCH  79  83
ENDBRANCH  75  77
ENDBRANCH  74  75
ENDBRANCH   1  74
TORSDOF 18
