REMARK SMILES O=C(OCCOC(=O)c1ccc(-c2c3nc(c(-c4c(F)cc(S(=O)(=O)[O-])cc4F)c4ccc([nH]4)c(-c4c(F)cc(S(=O)(=O)[O-])cc4F)c4nc(c(-c5c(F)cc(S(=O)(=O)[O-])cc5F)c5ccc2[nH]5)C=C4)C=C3)cc1)c1ccc(C[C@H]2CCN(C(=O)Cc3cccc(O)c3)C2)cc1
REMARK SMILES IDX 3 1 2 2 1 3 75 4 76 5 96 6 77 7 95 8 78 9 79 10 80 11 81 12
REMARK SMILES IDX 94 13 82 14 83 15 84 16 85 17 86 18 87 19 88 20 93 21 89 22
REMARK SMILES IDX 91 23 90 24 92 25 4 27 5 28 6 29 7 30 8 31 9 32 10 33 74 34
REMARK SMILES IDX 11 35 73 36 12 37 13 38 14 39 67 40 15 41 72 42 66 43 68 44
REMARK SMILES IDX 16 45 71 46 65 47 64 48 17 50 51 51 30 52 50 53 31 54 34 55
REMARK SMILES IDX 49 56 69 57 32 58 33 59 48 61 70 62 35 63 18 64 19 65 28 66
REMARK SMILES IDX 20 67 21 68 27 69 29 70 22 71 23 72 24 73 25 74 26 75 52 76
REMARK SMILES IDX 53 77 62 78 54 79 55 80 61 81 63 82 56 83 57 84 58 85 59 86
REMARK SMILES IDX 60 87 36 88 37 89 46 90 38 91 39 92 45 93 47 94 40 95 41 96
REMARK SMILES IDX 42 97 43 98 44 99
REMARK H PARENT 92 26 68 49 34 60
REMARK Flexibility Score: inf
ROOT
ATOM      1  O   UNL     1       6.284   3.445  -9.630  1.00  0.00    -0.458 OA
ENDROOT
BRANCH   1   2
ATOM      2  C   UNL     1       5.401   4.192  -8.915  1.00  0.00     0.338 C 
ATOM      3  O   UNL     1       4.556   4.851  -9.518  1.00  0.00    -0.246 OA
BRANCH   2   4
ATOM      4  C   UNL     1       5.533   4.387  -7.432  1.00  0.00     0.060 A 
ATOM      5  C   UNL     1       6.428   3.698  -6.633  1.00  0.00     0.016 A 
ATOM      6  C   UNL     1       4.786   5.404  -6.811  1.00  0.00     0.016 A 
ATOM      7  C   UNL     1       6.695   4.095  -5.333  1.00  0.00     0.004 A 
ATOM      8  C   UNL     1       4.962   5.717  -5.447  1.00  0.00     0.004 A 
ATOM      9  C   UNL     1       5.950   5.078  -4.695  1.00  0.00    -0.048 A 
BRANCH   9  10
ATOM     10  C   UNL     1       6.282   5.449  -3.265  1.00  0.00     0.041 C 
BRANCH  10  11
ATOM     11  C   UNL     1       6.096   4.301  -2.253  1.00  0.00     0.015 C 
ATOM     12  C   UNL     1       6.879   3.014  -2.558  1.00  0.00     0.027 C 
ATOM     13  C   UNL     1       6.609   4.644  -0.844  1.00  0.00     0.123 C 
ATOM     14  C   UNL     1       6.905   2.293  -1.238  1.00  0.00     0.120 C 
ATOM     15  N   UNL     1       7.048   3.366  -0.281  1.00  0.00    -0.342 N 
BRANCH  15  16
ATOM     16  C   UNL     1       7.538   3.253   1.002  1.00  0.00     0.227 C 
ATOM     17  O   UNL     1       7.642   4.227   1.748  1.00  0.00    -0.275 OA
BRANCH  16  18
ATOM     18  C   UNL     1       8.011   1.876   1.460  1.00  0.00     0.135 C 
BRANCH  18  19
ATOM     19  C   UNL     1       6.965   0.779   1.453  1.00  0.00    -0.035 A 
ATOM     20  C   UNL     1       5.608   1.056   1.679  1.00  0.00     0.004 A 
ATOM     21  C   UNL     1       7.355  -0.550   1.221  1.00  0.00     0.050 A 
ATOM     22  C   UNL     1       4.653   0.041   1.603  1.00  0.00     0.004 A 
ATOM     23  C   UNL     1       6.394  -1.558   1.169  1.00  0.00     0.115 A 
ATOM     24  C   UNL     1       5.046  -1.269   1.343  1.00  0.00     0.046 A 
BRANCH  23  25
ATOM     25  O   UNL     1       6.740  -2.858   0.939  1.00  0.00    -0.508 OA
ATOM     26  H   UNL     1       6.079  -3.521   0.908  1.00  0.00     0.293 HD
ENDBRANCH  23  25
ENDBRANCH  18  19
ENDBRANCH  16  18
ENDBRANCH  15  16
ENDBRANCH  10  11
ENDBRANCH   9  10
ENDBRANCH   2   4
ENDBRANCH   1   2
BRANCH   1  27
ATOM     27  C   UNL     1       6.870   2.179  -9.260  1.00  0.00     0.275 C 
BRANCH  27  28
ATOM     28  C   UNL     1       8.402   2.274  -9.099  1.00  0.00     0.275 C 
BRANCH  28  29
ATOM     29  O   UNL     1       8.816   3.347  -8.224  1.00  0.00    -0.458 OA
BRANCH  29  30
ATOM     30  C   UNL     1       9.046   4.545  -8.829  1.00  0.00     0.338 C 
ATOM     31  O   UNL     1       9.131   4.727 -10.027  1.00  0.00    -0.246 OA
BRANCH  30  32
ATOM     32  C   UNL     1       9.026   5.656  -7.832  1.00  0.00     0.060 A 
ATOM     33  C   UNL     1       8.442   6.867  -8.227  1.00  0.00     0.016 A 
ATOM     34  C   UNL     1       9.540   5.537  -6.536  1.00  0.00     0.016 A 
ATOM     35  C   UNL     1       8.377   7.952  -7.342  1.00  0.00     0.010 A 
ATOM     36  C   UNL     1       9.459   6.624  -5.645  1.00  0.00     0.010 A 
ATOM     37  C   UNL     1       8.886   7.849  -6.040  1.00  0.00    -0.014 A 
BRANCH  37  38
ATOM     38  C   UNL     1       8.861   9.022  -5.112  1.00  0.00     0.031 A 
ATOM     39  C   UNL     1      10.134   9.757  -4.784  1.00  0.00     0.074 A 
ATOM     40  C   UNL     1       7.712   9.447  -4.546  1.00  0.00     0.049 A 
ATOM     41  N   UNL     1      10.311  10.781  -3.987  1.00  0.00    -0.248 NA
ATOM     42  C   UNL     1      11.361   9.294  -5.449  1.00  0.00     0.031 C 
ATOM     43  C   UNL     1       6.391   8.884  -4.800  1.00  0.00     0.029 A 
ATOM     44  N   UNL     1       7.471  10.437  -3.620  1.00  0.00    -0.354 N 
ATOM     45  C   UNL     1      11.661  11.098  -4.068  1.00  0.00     0.074 A 
ATOM     46  C   UNL     1      12.267  10.127  -4.955  1.00  0.00     0.031 C 
ATOM     47  C   UNL     1       5.489   9.482  -4.003  1.00  0.00     0.029 A 
ATOM     48  C   UNL     1       6.166  10.483  -3.182  1.00  0.00     0.049 A 
ATOM     49  H   UNL     1       8.168  11.055  -3.300  1.00  0.00     0.167 HD
ATOM     50  C   UNL     1      12.330  12.121  -3.483  1.00  0.00     0.037 A 
ATOM     51  C   UNL     1       5.579  11.230  -2.224  1.00  0.00     0.037 A 
ATOM     52  C   UNL     1      11.740  13.107  -2.615  1.00  0.00     0.049 A 
ATOM     53  C   UNL     1       6.374  12.284  -1.496  1.00  0.00     0.074 A 
ATOM     54  C   UNL     1      12.340  14.224  -2.056  1.00  0.00     0.029 A 
ATOM     55  N   UNL     1      10.433  13.090  -2.159  1.00  0.00    -0.354 N 
ATOM     56  N   UNL     1       7.626  12.632  -1.667  1.00  0.00    -0.248 NA
ATOM     57  C   UNL     1       5.673  13.061  -0.461  1.00  0.00     0.031 C 
ATOM     58  C   UNL     1      11.413  14.849  -1.216  1.00  0.00     0.029 A 
ATOM     59  C   UNL     1      10.222  14.147  -1.286  1.00  0.00     0.049 A 
ATOM     60  H   UNL     1       9.753  12.426  -2.416  1.00  0.00     0.167 HD
ATOM     61  C   UNL     1       7.849  13.691  -0.790  1.00  0.00     0.074 A 
ATOM     62  C   UNL     1       6.605  13.931  -0.093  1.00  0.00     0.031 C 
ATOM     63  C   UNL     1       8.986  14.401  -0.592  1.00  0.00     0.037 A 
BRANCH  50  64
ATOM     64  C   UNL     1      13.798  12.247  -3.766  1.00  0.00     0.058 A 
ATOM     65  C   UNL     1      14.265  12.754  -4.988  1.00  0.00     0.135 A 
ATOM     66  C   UNL     1      14.742  11.949  -2.771  1.00  0.00     0.135 A 
ATOM     67  F   UNL     1      13.402  13.043  -5.975  1.00  0.00    -0.206 F 
ATOM     68  C   UNL     1      15.621  12.957  -5.216  1.00  0.00     0.059 A 
ATOM     69  C   UNL     1      16.101  12.163  -2.970  1.00  0.00     0.059 A 
ATOM     70  F   UNL     1      14.342  11.460  -1.586  1.00  0.00    -0.206 F 
ATOM     71  C   UNL     1      16.531  12.663  -4.199  1.00  0.00     0.060 A 
BRANCH  71  72
ATOM     72  S   UNL     1      18.284  12.969  -4.498  1.00  0.00     0.124 S 
ATOM     73  O   UNL     1      18.613  11.890  -5.425  1.00  0.00    -0.237 OA
ATOM     74  O   UNL     1      18.274  14.313  -5.068  1.00  0.00    -0.237 OA
ATOM     75  O   UNL     1      18.881  12.859  -3.171  1.00  0.00    -0.744 OA
ENDBRANCH  71  72
ENDBRANCH  50  64
BRANCH  51  76
ATOM     76  C   UNL     1       4.154  11.001  -1.859  1.00  0.00     0.058 A 
ATOM     77  C   UNL     1       3.166  11.957  -2.135  1.00  0.00     0.135 A 
ATOM     78  C   UNL     1       3.769   9.845  -1.161  1.00  0.00     0.135 A 
ATOM     79  F   UNL     1       3.487  13.083  -2.791  1.00  0.00    -0.206 F 
ATOM     80  C   UNL     1       1.854  11.796  -1.698  1.00  0.00     0.059 A 
ATOM     81  C   UNL     1       2.459   9.652  -0.732  1.00  0.00     0.059 A 
ATOM     82  F   UNL     1       4.673   8.891  -0.887  1.00  0.00    -0.206 F 
ATOM     83  C   UNL     1       1.513  10.643  -0.989  1.00  0.00     0.060 A 
BRANCH  83  84
ATOM     84  S   UNL     1      -0.190  10.444  -0.420  1.00  0.00     0.124 S 
ATOM     85  O   UNL     1      -0.238  11.383   0.694  1.00  0.00    -0.237 OA
ATOM     86  O   UNL     1      -0.955  10.819  -1.606  1.00  0.00    -0.237 OA
ATOM     87  O   UNL     1      -0.258   9.031  -0.061  1.00  0.00    -0.744 OA
ENDBRANCH  83  84
ENDBRANCH  51  76
BRANCH  63  88
ATOM     88  C   UNL     1       8.949  15.531   0.401  1.00  0.00     0.058 A 
ATOM     89  C   UNL     1       8.911  15.293   1.784  1.00  0.00     0.135 A 
ATOM     90  C   UNL     1       9.020  16.866  -0.029  1.00  0.00     0.135 A 
ATOM     91  F   UNL     1       8.833  14.036   2.251  1.00  0.00    -0.206 F 
ATOM     92  C   UNL     1       8.934  16.337   2.704  1.00  0.00     0.059 A 
ATOM     93  C   UNL     1       9.069  17.925   0.873  1.00  0.00     0.059 A 
ATOM     94  F   UNL     1       9.064  17.152  -1.340  1.00  0.00    -0.206 F 
ATOM     95  C   UNL     1       9.018  17.651   2.239  1.00  0.00     0.060 A 
BRANCH  95  96
ATOM     96  S   UNL     1       9.104  18.994   3.444  1.00  0.00     0.124 S 
ATOM     97  O   UNL     1       7.726  19.050   3.922  1.00  0.00    -0.237 OA
ATOM     98  O   UNL     1      10.086  18.495   4.401  1.00  0.00    -0.237 OA
ATOM     99  O   UNL     1       9.539  20.138   2.649  1.00  0.00    -0.744 OA
ENDBRANCH  95  96
ENDBRANCH  63  88
ENDBRANCH  37  38
ENDBRANCH  30  32
ENDBRANCH  29  30
ENDBRANCH  28  29
ENDBRANCH  27  28
ENDBRANCH   1  27
TORSDOF 20
