REMARK SMILES COc1cc(/C=C2/C(=O)N(c3ccccc3)C(=O)N=C2OCCOC(=O)c2ccc(-c3c4nc(c(-c5c(F)cc(S(=O)(=O)[O-])cc5F)c5ccc([nH]5)c(-c5c(F)cc(S(=O)(=O)[O-])cc5F)c5nc(c(-c6c(F)cc(S(=O)(=O)[O-])cc6F)c6ccc3[nH]6)C=C5)C=C4)cc2)ccc1OCC(=O)[O-]
REMARK SMILES IDX 22 1 21 2 20 3 6 4 7 5 8 6 9 7 10 8 19 9 17 10 18 11 5 12
REMARK SMILES IDX 3 13 4 14 95 15 94 16 93 17 2 18 1 19 96 20 97 21 98 22
REMARK SMILES IDX 99 23 100 24 11 25 12 26 16 27 13 28 15 29 14 30 23 31 24 32
REMARK SMILES IDX 25 33 26 34 27 35 28 36 92 37 29 38 91 39 30 40 31 41 32 42
REMARK SMILES IDX 85 43 33 44 90 45 84 46 86 47 34 48 89 49 83 50 82 51 35 53
REMARK SMILES IDX 69 54 48 55 68 56 49 57 52 58 67 59 87 60 50 61 51 62 66 64
REMARK SMILES IDX 88 65 53 66 36 67 37 68 46 69 38 70 39 71 45 72 47 73 40 74
REMARK SMILES IDX 41 75 42 76 43 77 44 78 70 79 71 80 80 81 72 82 73 83 79 84
REMARK SMILES IDX 81 85 74 86 75 87 76 88 77 89 78 90 54 91 55 92 64 93 56 94
REMARK SMILES IDX 57 95 63 96 65 97 58 98 59 99 60 100 61 101 62 102
REMARK H PARENT 86 52 52 63
REMARK Flexibility Score: inf
ROOT
ATOM      1  C   UNL     1      -2.958  -0.556   2.681  1.00  0.00     0.273 C 
ENDROOT
BRANCH   1   2
ATOM      2  O   UNL     1      -2.092  -1.607   3.168  1.00  0.00    -0.473 OA
BRANCH   2   3
ATOM      3  C   UNL     1      -1.970  -1.880   4.478  1.00  0.00     0.231 C 
ATOM      4  C   UNL     1      -0.109  -3.609   4.161  1.00  0.00     0.027 C 
ATOM      5  C   UNL     1      -1.232  -3.120   4.732  1.00  0.00     0.103 C 
ATOM      6  C   UNL     1      -1.797  -3.884   5.898  1.00  0.00     0.272 C 
ATOM      7  O   UNL     1      -1.514  -5.072   6.050  1.00  0.00    -0.268 OA
ATOM      8  N   UNL     1      -2.558  -3.108   6.779  1.00  0.00    -0.226 N 
ATOM      9  N   UNL     1      -2.584  -1.207   5.375  1.00  0.00    -0.156 NA
ATOM     10  C   UNL     1      -2.549  -1.705   6.660  1.00  0.00     0.358 C 
ATOM     11  O   UNL     1      -2.547  -0.926   7.595  1.00  0.00    -0.245 OA
BRANCH   4  12
ATOM     12  C   UNL     1       0.880  -3.075   3.189  1.00  0.00    -0.021 A 
ATOM     13  C   UNL     1       1.661  -1.570   1.401  1.00  0.00     0.161 A 
ATOM     14  C   UNL     1       0.647  -2.089   2.226  1.00  0.00     0.058 A 
ATOM     15  C   UNL     1       2.942  -2.127   1.464  1.00  0.00     0.161 A 
ATOM     16  C   UNL     1       3.186  -3.145   2.392  1.00  0.00     0.051 A 
ATOM     17  C   UNL     1       2.176  -3.605   3.244  1.00  0.00     0.012 A 
BRANCH  13  18
ATOM     18  O   UNL     1       1.461  -0.506   0.565  1.00  0.00    -0.493 OA
ATOM     19  C   UNL     1       0.133  -0.091   0.278  1.00  0.00     0.278 C 
ENDBRANCH  13  18
BRANCH  15  20
ATOM     20  O   UNL     1       4.037  -1.825   0.699  1.00  0.00    -0.484 OA
BRANCH  20  21
ATOM     21  C   UNL     1       3.906  -0.947  -0.408  1.00  0.00     0.282 C 
BRANCH  21  22
ATOM     22  C   UNL     1       2.968  -1.314  -1.559  1.00  0.00     0.079 C 
ATOM     23  O   UNL     1       2.512  -0.534  -2.384  1.00  0.00    -0.546 OA
ATOM     24  O   UNL     1       2.682  -2.629  -1.646  1.00  0.00    -0.546 OA
ENDBRANCH  21  22
ENDBRANCH  20  21
ENDBRANCH  15  20
ENDBRANCH   4  12
BRANCH   8  25
ATOM     25  C   UNL     1      -3.319  -3.743   7.835  1.00  0.00     0.054 A 
ATOM     26  C   UNL     1      -3.941  -4.987   7.597  1.00  0.00     0.027 A 
ATOM     27  C   UNL     1      -3.624  -3.100   9.045  1.00  0.00     0.027 A 
ATOM     28  C   UNL     1      -4.894  -5.509   8.482  1.00  0.00     0.002 A 
ATOM     29  C   UNL     1      -4.552  -3.639   9.946  1.00  0.00     0.002 A 
ATOM     30  C   UNL     1      -5.209  -4.827   9.651  1.00  0.00     0.000 A 
ENDBRANCH   8  25
ENDBRANCH   2   3
ENDBRANCH   1   2
BRANCH   1  31
ATOM     31  C   UNL     1      -3.697  -1.083   1.443  1.00  0.00     0.274 C 
BRANCH  31  32
ATOM     32  O   UNL     1      -4.950  -1.666   1.847  1.00  0.00    -0.458 OA
BRANCH  32  33
ATOM     33  C   UNL     1      -4.864  -2.941   2.293  1.00  0.00     0.338 C 
ATOM     34  O   UNL     1      -3.940  -3.720   2.132  1.00  0.00    -0.246 OA
BRANCH  33  35
ATOM     35  C   UNL     1      -5.899  -3.106   3.324  1.00  0.00     0.060 A 
ATOM     36  C   UNL     1      -5.428  -3.226   4.627  1.00  0.00     0.016 A 
ATOM     37  C   UNL     1      -7.269  -3.111   3.067  1.00  0.00     0.016 A 
ATOM     38  C   UNL     1      -6.312  -3.356   5.683  1.00  0.00     0.010 A 
ATOM     39  C   UNL     1      -8.164  -3.267   4.138  1.00  0.00     0.010 A 
ATOM     40  C   UNL     1      -7.687  -3.406   5.455  1.00  0.00    -0.014 A 
BRANCH  40  41
ATOM     41  C   UNL     1      -8.560  -3.757   6.605  1.00  0.00     0.031 A 
ATOM     42  C   UNL     1      -9.189  -5.122   6.650  1.00  0.00     0.074 A 
ATOM     43  C   UNL     1      -8.658  -2.944   7.677  1.00  0.00     0.049 A 
ATOM     44  N   UNL     1     -10.042  -5.612   7.510  1.00  0.00    -0.248 NA
ATOM     45  C   UNL     1      -8.793  -6.068   5.592  1.00  0.00     0.031 C 
ATOM     46  C   UNL     1      -7.975  -1.657   7.829  1.00  0.00     0.029 A 
ATOM     47  N   UNL     1      -9.340  -3.097   8.859  1.00  0.00    -0.354 N 
ATOM     48  C   UNL     1     -10.337  -6.893   7.061  1.00  0.00     0.074 A 
ATOM     49  C   UNL     1      -9.547  -7.121   5.871  1.00  0.00     0.031 C 
ATOM     50  C   UNL     1      -8.244  -1.158   9.047  1.00  0.00     0.029 A 
ATOM     51  C   UNL     1      -9.181  -2.045   9.731  1.00  0.00     0.049 A 
ATOM     52  H   UNL     1      -9.892  -3.886   9.063  1.00  0.00     0.167 HD
ATOM     53  C   UNL     1     -11.203  -7.789   7.588  1.00  0.00     0.037 A 
ATOM     54  C   UNL     1      -9.756  -1.805  10.927  1.00  0.00     0.037 A 
ATOM     55  C   UNL     1     -11.940  -7.580   8.805  1.00  0.00     0.049 A 
ATOM     56  C   UNL     1     -10.759  -2.793  11.464  1.00  0.00     0.074 A 
ATOM     57  C   UNL     1     -12.867  -8.415   9.403  1.00  0.00     0.029 A 
ATOM     58  N   UNL     1     -11.817  -6.467   9.620  1.00  0.00    -0.354 N 
ATOM     59  N   UNL     1     -11.114  -3.958  10.975  1.00  0.00    -0.248 NA
ATOM     60  C   UNL     1     -11.465  -2.421  12.699  1.00  0.00     0.031 C 
ATOM     61  C   UNL     1     -13.332  -7.789  10.565  1.00  0.00     0.029 A 
ATOM     62  C   UNL     1     -12.664  -6.583  10.709  1.00  0.00     0.049 A 
ATOM     63  H   UNL     1     -11.217  -5.705   9.451  1.00  0.00     0.167 HD
ATOM     64  C   UNL     1     -12.082  -4.455  11.841  1.00  0.00     0.074 A 
ATOM     65  C   UNL     1     -12.235  -3.482  12.902  1.00  0.00     0.031 C 
ATOM     66  C   UNL     1     -12.793  -5.606  11.759  1.00  0.00     0.037 A 
BRANCH  53  67
ATOM     67  C   UNL     1     -11.463  -9.045   6.810  1.00  0.00     0.058 A 
ATOM     68  C   UNL     1     -10.574 -10.128   6.811  1.00  0.00     0.135 A 
ATOM     69  C   UNL     1     -12.658  -9.173   6.084  1.00  0.00     0.135 A 
ATOM     70  F   UNL     1      -9.405 -10.043   7.466  1.00  0.00    -0.206 F 
ATOM     71  C   UNL     1     -10.860 -11.298   6.113  1.00  0.00     0.059 A 
ATOM     72  C   UNL     1     -12.973 -10.338   5.395  1.00  0.00     0.059 A 
ATOM     73  F   UNL     1     -13.535  -8.157   6.043  1.00  0.00    -0.206 F 
ATOM     74  C   UNL     1     -12.064 -11.394   5.410  1.00  0.00     0.060 A 
BRANCH  74  75
ATOM     75  S   UNL     1     -12.437 -12.925   4.530  1.00  0.00     0.124 S 
ATOM     76  O   UNL     1     -11.547 -12.823   3.378  1.00  0.00    -0.237 OA
ATOM     77  O   UNL     1     -12.086 -13.945   5.514  1.00  0.00    -0.237 OA
ATOM     78  O   UNL     1     -13.862 -12.808   4.235  1.00  0.00    -0.744 OA
ENDBRANCH  74  75
ENDBRANCH  53  67
BRANCH  54  79
ATOM     79  C   UNL     1      -9.472  -0.543  11.666  1.00  0.00     0.058 A 
ATOM     80  C   UNL     1      -8.841  -0.557  12.919  1.00  0.00     0.135 A 
ATOM     81  C   UNL     1      -9.874   0.701  11.153  1.00  0.00     0.135 A 
ATOM     82  F   UNL     1      -8.451  -1.721  13.461  1.00  0.00    -0.206 F 
ATOM     83  C   UNL     1      -8.640   0.613  13.648  1.00  0.00     0.059 A 
ATOM     84  C   UNL     1      -9.656   1.885  11.848  1.00  0.00     0.059 A 
ATOM     85  F   UNL     1     -10.480   0.773   9.959  1.00  0.00    -0.206 F 
ATOM     86  C   UNL     1      -9.057   1.829  13.105  1.00  0.00     0.060 A 
BRANCH  86  87
ATOM     87  S   UNL     1      -8.790   3.350  14.042  1.00  0.00     0.124 S 
ATOM     88  O   UNL     1      -9.910   3.317  14.976  1.00  0.00    -0.237 OA
ATOM     89  O   UNL     1      -7.468   3.133  14.623  1.00  0.00    -0.237 OA
ATOM     90  O   UNL     1      -8.852   4.386  13.016  1.00  0.00    -0.744 OA
ENDBRANCH  86  87
ENDBRANCH  54  79
BRANCH  66  91
ATOM     91  C   UNL     1     -13.787  -5.884  12.850  1.00  0.00     0.058 A 
ATOM     92  C   UNL     1     -15.013  -5.204  12.912  1.00  0.00     0.135 A 
ATOM     93  C   UNL     1     -13.533  -6.875  13.812  1.00  0.00     0.135 A 
ATOM     94  F   UNL     1     -15.300  -4.245  12.018  1.00  0.00    -0.206 F 
ATOM     95  C   UNL     1     -15.946  -5.483  13.905  1.00  0.00     0.059 A 
ATOM     96  C   UNL     1     -14.462  -7.185  14.799  1.00  0.00     0.059 A 
ATOM     97  F   UNL     1     -12.379  -7.561  13.787  1.00  0.00    -0.206 F 
ATOM     98  C   UNL     1     -15.661  -6.475  14.845  1.00  0.00     0.060 A 
BRANCH  98  99
ATOM     99  S   UNL     1     -16.893  -6.851  16.110  1.00  0.00     0.124 S 
ATOM    100  O   UNL     1     -16.714  -5.736  17.034  1.00  0.00    -0.237 OA
ATOM    101  O   UNL     1     -18.138  -6.850  15.349  1.00  0.00    -0.237 OA
ATOM    102  O   UNL     1     -16.474  -8.157  16.611  1.00  0.00    -0.744 OA
ENDBRANCH  98  99
ENDBRANCH  66  91
ENDBRANCH  40  41
ENDBRANCH  33  35
ENDBRANCH  32  33
ENDBRANCH  31  32
ENDBRANCH   1  31
TORSDOF 19
