REMARK SMILES O=C(COc1ccc(/C=C2/SC(Nc3ccccc3Br)=[NH+]C2=O)cc1)OCCOC(=O)c1ccc(-c2c3nc(c(-c4c(F)cc(S(=O)(=O)[O-])cc4F)c4ccc([nH]4)c(-c4c(F)cc(S(=O)(=O)[O-])cc4F)c4nc(c(-c5c(F)cc(S(=O)(=O)[O-])cc5F)c5ccc2[nH]5)C=C4)C=C3)cc1
REMARK SMILES IDX 27 1 26 2 2 3 1 4 3 5 4 6 5 7 6 8 25 9 7 10 24 11 8 12 9 13
REMARK SMILES IDX 10 14 11 15 22 16 12 17 21 18 23 19 13 20 14 23 15 24 19 25
REMARK SMILES IDX 16 26 18 27 20 28 17 29 28 30 29 31 30 32 31 33 32 34 33 35
REMARK SMILES IDX 97 36 34 37 96 38 35 39 36 40 37 41 90 42 38 43 95 44 89 45
REMARK SMILES IDX 91 46 39 47 94 48 88 49 87 50 40 52 74 53 53 54 73 55 54 56
REMARK SMILES IDX 57 57 72 58 92 59 55 60 56 61 71 63 93 64 58 65 41 66 42 67
REMARK SMILES IDX 51 68 43 69 44 70 50 71 52 72 45 73 46 74 47 75 48 76 49 77
REMARK SMILES IDX 75 78 76 79 85 80 77 81 78 82 84 83 86 84 79 85 80 86 81 87
REMARK SMILES IDX 82 88 83 89 59 90 60 91 69 92 61 93 62 94 68 95 70 96 63 97
REMARK SMILES IDX 64 98 65 99 66 100 67 101
REMARK H PARENT 21 21 13 22 91 51 57 62
REMARK Flexibility Score: inf
ROOT
ATOM      1  C   UNL     1       4.543   0.559  -0.861  1.00  0.00     0.274 C 
ENDROOT
BRANCH   1   2
ATOM      2  O   UNL     1       3.170   0.139  -0.946  1.00  0.00    -0.460 OA
BRANCH   2   3
ATOM      3  C   UNL     1       2.443  -0.203   0.144  1.00  0.00     0.344 C 
ATOM      4  O   UNL     1       1.214  -0.221   0.081  1.00  0.00    -0.248 OA
BRANCH   3   5
ATOM      5  C   UNL     1       3.182  -0.615   1.420  1.00  0.00     0.351 C 
BRANCH   5   6
ATOM      6  O   UNL     1       4.016  -1.758   1.324  1.00  0.00    -0.482 OA
BRANCH   6   7
ATOM      7  C   UNL     1       3.294  -2.897   1.543  1.00  0.00     0.120 A 
ATOM      8  C   UNL     1       3.730  -3.760   2.546  1.00  0.00     0.047 A 
ATOM      9  C   UNL     1       2.188  -3.217   0.761  1.00  0.00     0.047 A 
ATOM     10  C   UNL     1       3.079  -4.979   2.733  1.00  0.00     0.012 A 
ATOM     11  C   UNL     1       1.495  -4.389   0.995  1.00  0.00     0.012 A 
ATOM     12  C   UNL     1       1.992  -5.312   1.919  1.00  0.00    -0.024 A 
BRANCH  12  13
ATOM     13  C   UNL     1       1.485  -6.681   1.852  1.00  0.00     0.032 C 
ATOM     14  C   UNL     1       1.642  -7.411   0.736  1.00  0.00     0.110 C 
ATOM     15  S   UNL     1       0.941  -8.971   0.497  1.00  0.00     0.006 SA
ATOM     16  C   UNL     1       2.390  -7.023  -0.514  1.00  0.00     0.346 C 
ATOM     17  C   UNL     1       1.526  -8.967  -1.150  1.00  0.00     0.322 C 
ATOM     18  N   UNL     1       2.172  -7.915  -1.524  1.00  0.00    -0.199 N 
ATOM     19  O   UNL     1       3.141  -6.066  -0.636  1.00  0.00    -0.240 OA
ATOM     20  N   UNL     1       1.251 -10.054  -1.923  1.00  0.00    -0.233 N 
ATOM     21  H   UNL     1       2.479  -7.771  -2.448  1.00  0.00     0.316 HD
ATOM     22  H   UNL     1       0.613 -10.723  -1.585  1.00  0.00     0.313 HD
BRANCH  20  23
ATOM     23  C   UNL     1       1.840 -10.262  -3.184  1.00  0.00     0.139 A 
ATOM     24  C   UNL     1       0.993 -10.434  -4.289  1.00  0.00     0.053 A 
ATOM     25  C   UNL     1       3.230 -10.189  -3.419  1.00  0.00     0.064 A 
ATOM     26  C   UNL     1       1.509 -10.506  -5.587  1.00  0.00     0.004 A 
ATOM     27  C   UNL     1       3.742 -10.247  -4.720  1.00  0.00     0.020 A 
ATOM     28  Br  UNL     1       4.516 -10.147  -2.009  1.00  0.00    -0.046 Br
ATOM     29  C   UNL     1       2.880 -10.401  -5.802  1.00  0.00     0.001 A 
ENDBRANCH  20  23
ENDBRANCH  12  13
ENDBRANCH   6   7
ENDBRANCH   5   6
ENDBRANCH   3   5
ENDBRANCH   2   3
ENDBRANCH   1   2
BRANCH   1  30
ATOM     30  C   UNL     1       4.641   2.053  -0.535  1.00  0.00     0.275 C 
BRANCH  30  31
ATOM     31  O   UNL     1       4.161   2.326   0.798  1.00  0.00    -0.458 OA
BRANCH  31  32
ATOM     32  C   UNL     1       2.875   2.760   0.907  1.00  0.00     0.338 C 
ATOM     33  O   UNL     1       2.135   3.059  -0.011  1.00  0.00    -0.246 OA
BRANCH  32  34
ATOM     34  C   UNL     1       2.436   2.592   2.317  1.00  0.00     0.060 A 
ATOM     35  C   UNL     1       1.190   2.001   2.571  1.00  0.00     0.016 A 
ATOM     36  C   UNL     1       3.260   2.960   3.383  1.00  0.00     0.016 A 
ATOM     37  C   UNL     1       0.761   1.793   3.888  1.00  0.00     0.010 A 
ATOM     38  C   UNL     1       2.822   2.768   4.699  1.00  0.00     0.010 A 
ATOM     39  C   UNL     1       1.560   2.205   4.962  1.00  0.00    -0.014 A 
BRANCH  39  40
ATOM     40  C   UNL     1       1.013   2.220   6.346  1.00  0.00     0.031 A 
ATOM     41  C   UNL     1       0.488   3.522   6.895  1.00  0.00     0.074 A 
ATOM     42  C   UNL     1       0.974   1.111   7.110  1.00  0.00     0.049 A 
ATOM     43  N   UNL     1       0.001   3.791   8.078  1.00  0.00    -0.248 NA
ATOM     44  C   UNL     1       0.525   4.677   5.982  1.00  0.00     0.031 C 
ATOM     45  C   UNL     1       1.421  -0.218   6.699  1.00  0.00     0.029 A 
ATOM     46  N   UNL     1       0.543   0.934   8.404  1.00  0.00    -0.354 N 
ATOM     47  C   UNL     1      -0.331   5.141   8.052  1.00  0.00     0.074 A 
ATOM     48  C   UNL     1       0.054   5.646   6.752  1.00  0.00     0.031 C 
ATOM     49  C   UNL     1       1.251  -1.072   7.725  1.00  0.00     0.029 A 
ATOM     50  C   UNL     1       0.708  -0.347   8.875  1.00  0.00     0.049 A 
ATOM     51  H   UNL     1       0.151   1.659   8.944  1.00  0.00     0.167 HD
ATOM     52  C   UNL     1      -0.918   5.891   9.015  1.00  0.00     0.037 A 
ATOM     53  C   UNL     1       0.466  -0.871  10.095  1.00  0.00     0.037 A 
ATOM     54  C   UNL     1      -1.292   5.396  10.315  1.00  0.00     0.049 A 
ATOM     55  C   UNL     1      -0.114   0.005  11.182  1.00  0.00     0.074 A 
ATOM     56  C   UNL     1      -1.901   6.080  11.352  1.00  0.00     0.029 A 
ATOM     57  N   UNL     1      -1.082   4.099  10.761  1.00  0.00    -0.354 N 
ATOM     58  N   UNL     1      -0.458   1.270  11.131  1.00  0.00    -0.248 NA
ATOM     59  C   UNL     1      -0.344  -0.622  12.493  1.00  0.00     0.031 C 
ATOM     60  C   UNL     1      -2.006   5.215  12.446  1.00  0.00     0.029 A 
ATOM     61  C   UNL     1      -1.525   3.972  12.068  1.00  0.00     0.049 A 
ATOM     62  H   UNL     1      -0.679   3.377  10.228  1.00  0.00     0.167 HD
ATOM     63  C   UNL     1      -0.979   1.577  12.386  1.00  0.00     0.074 A 
ATOM     64  C   UNL     1      -0.913   0.364  13.172  1.00  0.00     0.031 C 
ATOM     65  C   UNL     1      -1.470   2.756  12.844  1.00  0.00     0.037 A 
BRANCH  52  66
ATOM     66  C   UNL     1      -1.175   7.341   8.705  1.00  0.00     0.058 A 
ATOM     67  C   UNL     1      -2.148   7.736   7.772  1.00  0.00     0.135 A 
ATOM     68  C   UNL     1      -0.460   8.350   9.371  1.00  0.00     0.135 A 
ATOM     69  F   UNL     1      -2.848   6.814   7.093  1.00  0.00    -0.206 F 
ATOM     70  C   UNL     1      -2.382   9.078   7.490  1.00  0.00     0.059 A 
ATOM     71  C   UNL     1      -0.701   9.699   9.128  1.00  0.00     0.059 A 
ATOM     72  F   UNL     1       0.483   8.030  10.271  1.00  0.00    -0.206 F 
ATOM     73  C   UNL     1      -1.654  10.052   8.174  1.00  0.00     0.060 A 
BRANCH  73  74
ATOM     74  S   UNL     1      -1.974  11.788   7.798  1.00  0.00     0.124 S 
ATOM     75  O   UNL     1      -1.405  11.905   6.458  1.00  0.00    -0.237 OA
ATOM     76  O   UNL     1      -3.429  11.860   7.876  1.00  0.00    -0.237 OA
ATOM     77  O   UNL     1      -1.255  12.503   8.848  1.00  0.00    -0.744 OA
ENDBRANCH  73  74
ENDBRANCH  52  66
BRANCH  53  78
ATOM     78  C   UNL     1       0.773  -2.304  10.374  1.00  0.00     0.058 A 
ATOM     79  C   UNL     1      -0.248  -3.230  10.638  1.00  0.00     0.135 A 
ATOM     80  C   UNL     1       2.097  -2.769  10.413  1.00  0.00     0.135 A 
ATOM     81  F   UNL     1      -1.530  -2.834  10.632  1.00  0.00    -0.206 F 
ATOM     82  C   UNL     1       0.031  -4.558  10.950  1.00  0.00     0.059 A 
ATOM     83  C   UNL     1       2.400  -4.098  10.692  1.00  0.00     0.059 A 
ATOM     84  F   UNL     1       3.113  -1.928  10.165  1.00  0.00    -0.206 F 
ATOM     85  C   UNL     1       1.360  -4.983  10.970  1.00  0.00     0.060 A 
BRANCH  85  86
ATOM     86  S   UNL     1       1.708  -6.718  11.333  1.00  0.00     0.124 S 
ATOM     87  O   UNL     1       1.388  -6.793  12.754  1.00  0.00    -0.237 OA
ATOM     88  O   UNL     1       0.788  -7.408  10.434  1.00  0.00    -0.237 OA
ATOM     89  O   UNL     1       3.122  -6.855  10.996  1.00  0.00    -0.744 OA
ENDBRANCH  85  86
ENDBRANCH  53  78
BRANCH  65  90
ATOM     90  C   UNL     1      -2.026   2.794  14.245  1.00  0.00     0.058 A 
ATOM     91  C   UNL     1      -1.201   2.704  15.378  1.00  0.00     0.135 A 
ATOM     92  C   UNL     1      -3.403   2.982  14.457  1.00  0.00     0.135 A 
ATOM     93  F   UNL     1       0.121   2.521  15.238  1.00  0.00    -0.206 F 
ATOM     94  C   UNL     1      -1.723   2.771  16.667  1.00  0.00     0.059 A 
ATOM     95  C   UNL     1      -3.942   3.085  15.736  1.00  0.00     0.059 A 
ATOM     96  F   UNL     1      -4.239   3.088  13.412  1.00  0.00    -0.206 F 
ATOM     97  C   UNL     1      -3.096   2.965  16.836  1.00  0.00     0.060 A 
BRANCH  97  98
ATOM     98  S   UNL     1      -3.754   3.081  18.514  1.00  0.00     0.124 S 
ATOM     99  O   UNL     1      -3.640   1.701  18.972  1.00  0.00    -0.237 OA
ATOM    100  O   UNL     1      -2.844   4.035  19.140  1.00  0.00    -0.237 OA
ATOM    101  O   UNL     1      -5.117   3.564  18.313  1.00  0.00    -0.744 OA
ENDBRANCH  97  98
ENDBRANCH  65  90
ENDBRANCH  39  40
ENDBRANCH  32  34
ENDBRANCH  31  32
ENDBRANCH  30  31
ENDBRANCH   1  30
TORSDOF 18
