REMARK SMILES CC(C)[C@](C)(CC(=O)NC#N)C(=O)OCCOC(=O)c1ccc(-c2c3nc(c(-c4c(F)cc(S(=O)(=O)[O-])cc4F)c4ccc([nH]4)c(-c4c(F)cc(S(=O)(=O)[O-])cc4F)c4nc(c(-c5c(F)cc(S(=O)(=O)[O-])cc5F)c5ccc2[nH]5)C=C4)C=C3)cc1
REMARK SMILES IDX 15 1 14 2 12 3 13 4 4 5 5 6 2 7 1 8 3 9 6 10 7 11 8 12 9 13
REMARK SMILES IDX 10 15 11 16 16 17 17 18 18 19 19 20 20 21 21 22 85 23 22 24
REMARK SMILES IDX 84 25 23 26 24 27 25 28 78 29 26 30 83 31 77 32 79 33 27 34
REMARK SMILES IDX 82 35 76 36 75 37 28 39 62 40 41 41 61 42 42 43 45 44 60 45
REMARK SMILES IDX 80 46 43 47 44 48 59 50 81 51 46 52 29 53 30 54 39 55 31 56
REMARK SMILES IDX 32 57 38 58 40 59 33 60 34 61 35 62 36 63 37 64 63 65 64 66
REMARK SMILES IDX 73 67 65 68 66 69 72 70 74 71 67 72 68 73 69 74 70 75 71 76
REMARK SMILES IDX 47 77 48 78 57 79 49 80 50 81 56 82 58 83 51 84 52 85 53 86
REMARK SMILES IDX 54 87 55 88
REMARK H PARENT 9 14 79 38 45 49
REMARK Flexibility Score: inf
ROOT
ATOM      1  C   UNL     1      -3.216  -0.173   2.594  1.00  0.00     0.274 C 
ENDROOT
BRANCH   1   2
ATOM      2  O   UNL     1      -2.692  -1.006   1.535  1.00  0.00    -0.462 OA
BRANCH   2   3
ATOM      3  C   UNL     1      -1.638  -0.487   0.856  1.00  0.00     0.312 C 
ATOM      4  O   UNL     1      -1.118   0.588   1.136  1.00  0.00    -0.252 OA
BRANCH   3   5
ATOM      5  C   UNL     1      -1.254  -1.287  -0.402  1.00  0.00     0.076 C 
ATOM      6  C   UNL     1       0.274  -1.143  -0.597  1.00  0.00     0.024 C 
BRANCH   5   7
ATOM      7  C   UNL     1      -1.903  -0.574  -1.672  1.00  0.00     0.000 C 
ATOM      8  C   UNL     1      -2.442  -1.537  -2.736  1.00  0.00     0.008 C 
ATOM      9  C   UNL     1      -2.985   0.472  -1.366  1.00  0.00     0.008 C 
ENDBRANCH   5   7
BRANCH   5  10
ATOM     10  C   UNL     1      -1.597  -2.803  -0.315  1.00  0.00     0.119 C 
BRANCH  10  11
ATOM     11  C   UNL     1      -1.228  -3.614   0.924  1.00  0.00     0.234 C 
ATOM     12  O   UNL     1      -2.103  -3.966   1.718  1.00  0.00    -0.274 OA
ATOM     13  N   UNL     1       0.045  -4.062   1.099  1.00  0.00    -0.263 N 
ATOM     14  H   UNL     1       0.181  -4.488   1.976  1.00  0.00     0.182 HD
BRANCH  13  15
ATOM     15  C   UNL     1       1.153  -4.055   0.349  1.00  0.00     0.183 C 
ATOM     16  N   UNL     1       2.109  -4.036  -0.304  1.00  0.00    -0.172 NA
ENDBRANCH  13  15
ENDBRANCH  10  11
ENDBRANCH   5  10
ENDBRANCH   3   5
ENDBRANCH   2   3
ENDBRANCH   1   2
BRANCH   1  17
ATOM     17  C   UNL     1      -2.645  -0.532   3.965  1.00  0.00     0.275 C 
BRANCH  17  18
ATOM     18  O   UNL     1      -1.223  -0.315   4.002  1.00  0.00    -0.458 OA
BRANCH  18  19
ATOM     19  C   UNL     1      -0.483  -1.443   3.983  1.00  0.00     0.338 C 
ATOM     20  O   UNL     1      -0.881  -2.597   3.997  1.00  0.00    -0.246 OA
BRANCH  19  21
ATOM     21  C   UNL     1       0.950  -1.163   3.873  1.00  0.00     0.060 A 
ATOM     22  C   UNL     1       1.453  -0.681   2.673  1.00  0.00     0.016 A 
ATOM     23  C   UNL     1       1.814  -1.655   4.846  1.00  0.00     0.016 A 
ATOM     24  C   UNL     1       2.800  -0.829   2.373  1.00  0.00     0.010 A 
ATOM     25  C   UNL     1       3.189  -1.655   4.604  1.00  0.00     0.010 A 
ATOM     26  C   UNL     1       3.696  -1.279   3.348  1.00  0.00    -0.014 A 
BRANCH  26  27
ATOM     27  C   UNL     1       5.154  -1.333   3.061  1.00  0.00     0.031 A 
ATOM     28  C   UNL     1       5.927  -2.607   3.280  1.00  0.00     0.074 A 
ATOM     29  C   UNL     1       5.789  -0.223   2.633  1.00  0.00     0.049 A 
ATOM     30  N   UNL     1       7.221  -2.790   3.323  1.00  0.00    -0.248 NA
ATOM     31  C   UNL     1       5.143  -3.832   3.507  1.00  0.00     0.031 C 
ATOM     32  C   UNL     1       5.149   1.064   2.336  1.00  0.00     0.029 A 
ATOM     33  N   UNL     1       7.117   0.011   2.378  1.00  0.00    -0.354 N 
ATOM     34  C   UNL     1       7.407  -4.132   3.640  1.00  0.00     0.074 A 
ATOM     35  C   UNL     1       6.091  -4.715   3.788  1.00  0.00     0.031 C 
ATOM     36  C   UNL     1       6.073   1.933   1.907  1.00  0.00     0.029 A 
ATOM     37  C   UNL     1       7.383   1.310   2.013  1.00  0.00     0.049 A 
ATOM     38  H   UNL     1       7.811  -0.683   2.449  1.00  0.00     0.167 HD
ATOM     39  C   UNL     1       8.573  -4.806   3.795  1.00  0.00     0.037 A 
ATOM     40  C   UNL     1       8.551   1.957   1.846  1.00  0.00     0.037 A 
ATOM     41  C   UNL     1       9.872  -4.211   3.597  1.00  0.00     0.049 A 
ATOM     42  C   UNL     1       9.828   1.204   2.077  1.00  0.00     0.074 A 
ATOM     43  C   UNL     1      11.116  -4.806   3.702  1.00  0.00     0.029 A 
ATOM     44  N   UNL     1      10.094  -2.885   3.246  1.00  0.00    -0.354 N 
ATOM     45  N   UNL     1       9.992  -0.053   2.415  1.00  0.00    -0.248 NA
ATOM     46  C   UNL     1      11.077   1.957   1.921  1.00  0.00     0.031 C 
ATOM     47  C   UNL     1      12.090  -3.829   3.474  1.00  0.00     0.029 A 
ATOM     48  C   UNL     1      11.454  -2.639   3.159  1.00  0.00     0.049 A 
ATOM     49  H   UNL     1       9.388  -2.219   3.084  1.00  0.00     0.167 HD
ATOM     50  C   UNL     1      11.365  -0.249   2.485  1.00  0.00     0.074 A 
ATOM     51  C   UNL     1      11.983   1.016   2.140  1.00  0.00     0.031 C 
ATOM     52  C   UNL     1      12.052  -1.374   2.804  1.00  0.00     0.037 A 
BRANCH  39  53
ATOM     53  C   UNL     1       8.508  -6.244   4.240  1.00  0.00     0.058 A 
ATOM     54  C   UNL     1       8.024  -7.268   3.411  1.00  0.00     0.135 A 
ATOM     55  C   UNL     1       8.981  -6.609   5.513  1.00  0.00     0.135 A 
ATOM     56  F   UNL     1       7.545  -6.981   2.190  1.00  0.00    -0.206 F 
ATOM     57  C   UNL     1       7.983  -8.594   3.837  1.00  0.00     0.059 A 
ATOM     58  C   UNL     1       8.980  -7.932   5.947  1.00  0.00     0.059 A 
ATOM     59  F   UNL     1       9.456  -5.674   6.351  1.00  0.00    -0.206 F 
ATOM     60  C   UNL     1       8.465  -8.916   5.107  1.00  0.00     0.060 A 
BRANCH  60  61
ATOM     61  S   UNL     1       8.408 -10.640   5.641  1.00  0.00     0.124 S 
ATOM     62  O   UNL     1       6.974 -10.840   5.827  1.00  0.00    -0.237 OA
ATOM     63  O   UNL     1       9.003 -11.338   4.506  1.00  0.00    -0.237 OA
ATOM     64  O   UNL     1       9.204 -10.645   6.865  1.00  0.00    -0.744 OA
ENDBRANCH  60  61
ENDBRANCH  39  53
BRANCH  40  65
ATOM     65  C   UNL     1       8.556   3.400   1.484  1.00  0.00     0.058 A 
ATOM     66  C   UNL     1       9.027   3.827   0.235  1.00  0.00     0.135 A 
ATOM     67  C   UNL     1       8.066   4.379   2.365  1.00  0.00     0.135 A 
ATOM     68  F   UNL     1       9.511   2.932  -0.640  1.00  0.00    -0.206 F 
ATOM     69  C   UNL     1       9.028   5.171  -0.124  1.00  0.00     0.059 A 
ATOM     70  C   UNL     1       8.022   5.724   2.016  1.00  0.00     0.059 A 
ATOM     71  F   UNL     1       7.585   4.024   3.568  1.00  0.00    -0.206 F 
ATOM     72  C   UNL     1       8.518   6.112   0.773  1.00  0.00     0.060 A 
BRANCH  72  73
ATOM     73  S   UNL     1       8.485   7.848   0.278  1.00  0.00     0.124 S 
ATOM     74  O   UNL     1       9.902   8.190   0.317  1.00  0.00    -0.237 OA
ATOM     75  O   UNL     1       7.880   7.776  -1.048  1.00  0.00    -0.237 OA
ATOM     76  O   UNL     1       7.656   8.474   1.304  1.00  0.00    -0.744 OA
ENDBRANCH  72  73
ENDBRANCH  40  65
BRANCH  52  77
ATOM     77  C   UNL     1      13.552  -1.300   2.745  1.00  0.00     0.058 A 
ATOM     78  C   UNL     1      14.298  -0.578   3.689  1.00  0.00     0.135 A 
ATOM     79  C   UNL     1      14.253  -1.998   1.748  1.00  0.00     0.135 A 
ATOM     80  F   UNL     1      13.676   0.116   4.656  1.00  0.00    -0.206 F 
ATOM     81  C   UNL     1      15.687  -0.529   3.632  1.00  0.00     0.059 A 
ATOM     82  C   UNL     1      15.643  -1.991   1.692  1.00  0.00     0.059 A 
ATOM     83  F   UNL     1      13.588  -2.710   0.825  1.00  0.00    -0.206 F 
ATOM     84  C   UNL     1      16.350  -1.243   2.632  1.00  0.00     0.060 A 
BRANCH  84  85
ATOM     85  S   UNL     1      18.154  -1.200   2.592  1.00  0.00     0.124 S 
ATOM     86  O   UNL     1      18.406   0.163   2.136  1.00  0.00    -0.237 OA
ATOM     87  O   UNL     1      18.502  -1.478   3.982  1.00  0.00    -0.237 OA
ATOM     88  O   UNL     1      18.499  -2.253   1.642  1.00  0.00    -0.744 OA
ENDBRANCH  84  85
ENDBRANCH  52  77
ENDBRANCH  26  27
ENDBRANCH  19  21
ENDBRANCH  18  19
ENDBRANCH  17  18
ENDBRANCH   1  17
TORSDOF 18
