REMARK SMILES CN1C(=O)C[C@@H](C(=O)OCCOC(=O)c2ccc(-c3c4nc(c(-c5c(F)cc(S(=O)(=O)[O-])cc5F)c5ccc([nH]5)c(-c5c(F)cc(S(=O)(=O)[O-])cc5F)c5nc(c(-c6c(F)cc(S(=O)(=O)[O-])cc6F)c6ccc3[nH]6)C=C5)C=C4)cc2)C12CCN(c1ccc(Cl)cn1)CC2
REMARK SMILES IDX 11 1 10 2 9 3 7 4 8 5 6 6 1 7 2 8 3 9 81 10 4 11 5 12 82 13
REMARK SMILES IDX 93 14 83 15 92 16 84 17 85 18 86 19 91 20 87 21 90 22 88 23
REMARK SMILES IDX 89 24 12 25 13 26 14 27 15 28 16 29 80 30 17 31 79 32 18 33
REMARK SMILES IDX 19 34 20 35 73 36 21 37 78 38 72 39 74 40 22 41 77 42 71 43
REMARK SMILES IDX 70 44 23 46 57 47 36 48 56 49 37 50 40 51 55 52 75 53 38 54
REMARK SMILES IDX 39 55 54 57 76 58 41 59 24 60 25 61 34 62 26 63 27 64 33 65
REMARK SMILES IDX 35 66 28 67 29 68 30 69 31 70 32 71 58 72 59 73 68 74 60 75
REMARK SMILES IDX 61 76 67 77 69 78 62 79 63 80 64 81 65 82 66 83 42 84 43 85
REMARK SMILES IDX 52 86 44 87 45 88 51 89 53 90 46 91 47 92 48 93 49 94 50 95
REMARK H PARENT 74 45 40 56
REMARK Flexibility Score: inf
ROOT
ATOM      1  C   UNL     1      -4.569  -0.385   3.843  1.00  0.00     0.275 C 
ENDROOT
BRANCH   1   2
ATOM      2  C   UNL     1      -3.216   0.317   3.978  1.00  0.00     0.274 C 
BRANCH   2   3
ATOM      3  O   UNL     1      -2.232  -0.251   3.087  1.00  0.00    -0.462 OA
BRANCH   3   4
ATOM      4  C   UNL     1      -1.479  -1.231   3.628  1.00  0.00     0.311 C 
ATOM      5  O   UNL     1      -1.579  -1.598   4.798  1.00  0.00    -0.252 OA
BRANCH   4   6
ATOM      6  C   UNL     1      -0.447  -1.869   2.716  1.00  0.00     0.134 C 
ATOM      7  C   UNL     1       0.954   0.349   0.042  1.00  0.00     0.147 C 
ATOM      8  N   UNL     1       0.664  -0.473   1.202  1.00  0.00    -0.339 N 
ATOM      9  C   UNL     1       1.379  -0.368   2.381  1.00  0.00     0.223 C 
ATOM     10  C   UNL     1      -0.302  -1.587   1.196  1.00  0.00     0.060 C 
ATOM     11  O   UNL     1       2.263   0.436   2.630  1.00  0.00    -0.275 OA
ATOM     12  C   UNL     1       0.916  -1.455   3.307  1.00  0.00     0.118 C 
ATOM     13  C   UNL     1      -1.575  -1.229   0.393  1.00  0.00     0.051 C 
ATOM     14  C   UNL     1       0.390  -2.830   0.527  1.00  0.00     0.051 C 
ATOM     15  C   UNL     1      -2.470  -2.424   0.102  1.00  0.00     0.120 C 
ATOM     16  C   UNL     1      -0.569  -3.976   0.173  1.00  0.00     0.120 C 
ATOM     17  N   UNL     1      -1.670  -3.419  -0.596  1.00  0.00    -0.356 N 
BRANCH  17  18
ATOM     18  C   UNL     1      -2.341  -4.261  -1.474  1.00  0.00     0.128 A 
ATOM     19  C   UNL     1      -3.002  -3.712  -2.579  1.00  0.00     0.048 A 
ATOM     20  N   UNL     1      -2.320  -5.594  -1.271  1.00  0.00    -0.238 NA
ATOM     21  C   UNL     1      -3.684  -4.536  -3.473  1.00  0.00     0.026 A 
ATOM     22  C   UNL     1      -2.993  -6.381  -2.154  1.00  0.00     0.134 A 
ATOM     23  C   UNL     1      -3.691  -5.901  -3.248  1.00  0.00     0.059 A 
ATOM     24  Cl  UNL     1      -4.542  -6.954  -4.296  1.00  0.00    -0.083 Cl
ENDBRANCH  17  18
ENDBRANCH   4   6
ENDBRANCH   3   4
ENDBRANCH   2   3
ENDBRANCH   1   2
BRANCH   1  25
ATOM     25  O   UNL     1      -4.425  -1.809   3.997  1.00  0.00    -0.458 OA
BRANCH  25  26
ATOM     26  C   UNL     1      -4.831  -2.555   2.943  1.00  0.00     0.338 C 
ATOM     27  O   UNL     1      -5.341  -2.144   1.913  1.00  0.00    -0.246 OA
BRANCH  26  28
ATOM     28  C   UNL     1      -4.543  -3.986   3.167  1.00  0.00     0.060 A 
ATOM     29  C   UNL     1      -3.269  -4.414   3.547  1.00  0.00     0.016 A 
ATOM     30  C   UNL     1      -5.529  -4.924   2.865  1.00  0.00     0.016 A 
ATOM     31  C   UNL     1      -2.961  -5.775   3.563  1.00  0.00     0.010 A 
ATOM     32  C   UNL     1      -5.245  -6.289   2.972  1.00  0.00     0.010 A 
ATOM     33  C   UNL     1      -3.953  -6.731   3.302  1.00  0.00    -0.014 A 
BRANCH  33  34
ATOM     34  C   UNL     1      -3.666  -8.188   3.407  1.00  0.00     0.031 A 
ATOM     35  C   UNL     1      -3.855  -9.095   2.219  1.00  0.00     0.074 A 
ATOM     36  C   UNL     1      -3.291  -8.712   4.591  1.00  0.00     0.049 A 
ATOM     37  N   UNL     1      -3.857 -10.402   2.168  1.00  0.00    -0.248 NA
ATOM     38  C   UNL     1      -4.089  -8.445   0.919  1.00  0.00     0.031 C 
ATOM     39  C   UNL     1      -3.054  -7.949   5.819  1.00  0.00     0.029 A 
ATOM     40  N   UNL     1      -3.064 -10.014   4.964  1.00  0.00    -0.354 N 
ATOM     41  C   UNL     1      -4.127 -10.735   0.846  1.00  0.00     0.074 A 
ATOM     42  C   UNL     1      -4.299  -9.489   0.128  1.00  0.00     0.031 C 
ATOM     43  C   UNL     1      -2.713  -8.793   6.804  1.00  0.00     0.029 A 
ATOM     44  C   UNL     1      -2.780 -10.160   6.301  1.00  0.00     0.049 A 
ATOM     45  H   UNL     1      -3.102 -10.771   4.335  1.00  0.00     0.167 HD
ATOM     46  C   UNL     1      -4.220 -11.964   0.283  1.00  0.00     0.037 A 
ATOM     47  C   UNL     1      -2.638 -11.266   7.057  1.00  0.00     0.037 A 
ATOM     48  C   UNL     1      -4.021 -13.201   0.997  1.00  0.00     0.049 A 
ATOM     49  C   UNL     1      -2.795 -12.618   6.423  1.00  0.00     0.074 A 
ATOM     50  C   UNL     1      -4.065 -14.495   0.505  1.00  0.00     0.029 A 
ATOM     51  N   UNL     1      -3.739 -13.301   2.351  1.00  0.00    -0.354 N 
ATOM     52  N   UNL     1      -3.061 -12.915   5.174  1.00  0.00    -0.248 NA
ATOM     53  C   UNL     1      -2.644 -13.785   7.303  1.00  0.00     0.031 C 
ATOM     54  C   UNL     1      -3.849 -15.378   1.570  1.00  0.00     0.029 A 
ATOM     55  C   UNL     1      -3.627 -14.633   2.716  1.00  0.00     0.049 A 
ATOM     56  H   UNL     1      -3.634 -12.537   2.963  1.00  0.00     0.167 HD
ATOM     57  C   UNL     1      -3.094 -14.303   5.114  1.00  0.00     0.074 A 
ATOM     58  C   UNL     1      -2.808 -14.787   6.449  1.00  0.00     0.031 C 
ATOM     59  C   UNL     1      -3.341 -15.103   4.048  1.00  0.00     0.037 A 
BRANCH  46  60
ATOM     60  C   UNL     1      -4.570 -12.045  -1.178  1.00  0.00     0.058 A 
ATOM     61  C   UNL     1      -3.642 -11.726  -2.181  1.00  0.00     0.135 A 
ATOM     62  C   UNL     1      -5.833 -12.510  -1.579  1.00  0.00     0.135 A 
ATOM     63  F   UNL     1      -2.426 -11.259  -1.854  1.00  0.00    -0.206 F 
ATOM     64  C   UNL     1      -3.957 -11.855  -3.531  1.00  0.00     0.059 A 
ATOM     65  C   UNL     1      -6.163 -12.667  -2.922  1.00  0.00     0.059 A 
ATOM     66  F   UNL     1      -6.759 -12.827  -0.660  1.00  0.00    -0.206 F 
ATOM     67  C   UNL     1      -5.220 -12.329  -3.892  1.00  0.00     0.060 A 
BRANCH  67  68
ATOM     68  S   UNL     1      -5.605 -12.521  -5.646  1.00  0.00     0.124 S 
ATOM     69  O   UNL     1      -5.787 -11.133  -6.059  1.00  0.00    -0.237 OA
ATOM     70  O   UNL     1      -4.410 -13.182  -6.159  1.00  0.00    -0.237 OA
ATOM     71  O   UNL     1      -6.815 -13.337  -5.641  1.00  0.00    -0.744 OA
ENDBRANCH  67  68
ENDBRANCH  46  60
BRANCH  47  72
ATOM     72  C   UNL     1      -2.370 -11.132   8.513  1.00  0.00     0.058 A 
ATOM     73  C   UNL     1      -1.117 -11.459   9.048  1.00  0.00     0.135 A 
ATOM     74  C   UNL     1      -3.354 -10.650   9.390  1.00  0.00     0.135 A 
ATOM     75  F   UNL     1      -0.149 -11.932   8.248  1.00  0.00    -0.206 F 
ATOM     76  C   UNL     1      -0.849 -11.321  10.406  1.00  0.00     0.059 A 
ATOM     77  C   UNL     1      -3.102 -10.479  10.747  1.00  0.00     0.059 A 
ATOM     78  F   UNL     1      -4.565 -10.309   8.923  1.00  0.00    -0.206 F 
ATOM     79  C   UNL     1      -1.847 -10.826  11.247  1.00  0.00     0.060 A 
BRANCH  79  80
ATOM     80  S   UNL     1      -1.474 -10.593  12.998  1.00  0.00     0.124 S 
ATOM     81  O   UNL     1      -1.553 -11.960  13.498  1.00  0.00    -0.237 OA
ATOM     82  O   UNL     1      -0.139 -10.004  12.954  1.00  0.00    -0.237 OA
ATOM     83  O   UNL     1      -2.532  -9.692  13.447  1.00  0.00    -0.744 OA
ENDBRANCH  79  80
ENDBRANCH  47  72
BRANCH  59  84
ATOM     84  C   UNL     1      -3.281 -16.587   4.277  1.00  0.00     0.058 A 
ATOM     85  C   UNL     1      -4.306 -17.269   4.948  1.00  0.00     0.135 A 
ATOM     86  C   UNL     1      -2.199 -17.338   3.791  1.00  0.00     0.135 A 
ATOM     87  F   UNL     1      -5.357 -16.595   5.441  1.00  0.00    -0.206 F 
ATOM     88  C   UNL     1      -4.251 -18.645   5.151  1.00  0.00     0.059 A 
ATOM     89  C   UNL     1      -2.134 -18.717   3.962  1.00  0.00     0.059 A 
ATOM     90  F   UNL     1      -1.196 -16.733   3.136  1.00  0.00    -0.206 F 
ATOM     91  C   UNL     1      -3.159 -19.360   4.654  1.00  0.00     0.060 A 
BRANCH  91  92
ATOM     92  S   UNL     1      -3.108 -21.148   4.900  1.00  0.00     0.124 S 
ATOM     93  O   UNL     1      -2.717 -21.241   6.303  1.00  0.00    -0.237 OA
ATOM     94  O   UNL     1      -4.479 -21.547   4.596  1.00  0.00    -0.237 OA
ATOM     95  O   UNL     1      -2.106 -21.594   3.937  1.00  0.00    -0.744 OA
ENDBRANCH  91  92
ENDBRANCH  59  84
ENDBRANCH  33  34
ENDBRANCH  26  28
ENDBRANCH  25  26
ENDBRANCH   1  25
TORSDOF 15
