REMARK SMILES C[C@@H](C(=O)OCCOC(=O)c1ccc(-c2c3nc(c(-c4c(F)cc(S(=O)(=O)[O-])cc4F)c4ccc([nH]4)c(-c4c(F)cc(S(=O)(=O)[O-])cc4F)c4nc(c(-c5c(F)cc(S(=O)(=O)[O-])cc5F)c5ccc2[nH]5)C=C4)C=C3)cc1)N(C)c1ccc(C(N)=O)nn1
REMARK SMILES IDX 6 1 5 2 3 3 4 4 2 5 1 6 77 7 78 8 79 9 80 10 87 11 81 12
REMARK SMILES IDX 86 13 82 14 83 15 84 16 85 17 7 20 8 21 9 22 10 23 11 24
REMARK SMILES IDX 12 25 76 26 13 27 75 28 14 29 15 30 16 31 69 32 17 33 74 34
REMARK SMILES IDX 68 35 70 36 18 37 73 38 67 39 66 40 19 42 53 43 32 44 52 45
REMARK SMILES IDX 33 46 36 47 51 48 71 49 34 50 35 51 50 53 72 54 37 55 20 56
REMARK SMILES IDX 21 57 30 58 22 59 23 60 29 61 31 62 24 63 25 64 26 65 27 66
REMARK SMILES IDX 28 67 54 68 55 69 64 70 56 71 57 72 63 73 65 74 58 75 59 76
REMARK SMILES IDX 60 77 61 78 62 79 38 80 39 81 48 82 40 83 41 84 47 85 49 86
REMARK SMILES IDX 42 87 43 88 44 89 45 90 46 91
REMARK H PARENT 84 18 84 19 70 41 36 52
REMARK Flexibility Score: inf
ROOT
ATOM      1  C   UNL     1       2.583  -3.587   0.368  1.00  0.00     0.274 C 
ENDROOT
BRANCH   1   2
ATOM      2  O   UNL     1       2.212  -2.198   0.241  1.00  0.00    -0.461 OA
BRANCH   2   3
ATOM      3  C   UNL     1       1.224  -1.914  -0.653  1.00  0.00     0.328 C 
ATOM      4  O   UNL     1       0.613  -2.759  -1.301  1.00  0.00    -0.250 OA
BRANCH   3   5
ATOM      5  C   UNL     1       0.993  -0.400  -0.825  1.00  0.00     0.190 C 
ATOM      6  C   UNL     1       2.134   0.483  -0.334  1.00  0.00     0.044 C 
BRANCH   5   7
ATOM      7  N   UNL     1      -0.361   0.043  -0.394  1.00  0.00    -0.345 N 
ATOM      8  C   UNL     1      -1.433  -0.215  -1.369  1.00  0.00     0.146 C 
BRANCH   7   9
ATOM      9  C   UNL     1      -0.784   0.017   0.934  1.00  0.00     0.151 A 
ATOM     10  C   UNL     1      -0.008   0.463   1.996  1.00  0.00     0.051 A 
ATOM     11  N   UNL     1      -2.023  -0.424   1.234  1.00  0.00    -0.132 NA
ATOM     12  C   UNL     1      -0.446   0.350   3.322  1.00  0.00     0.040 A 
ATOM     13  N   UNL     1      -2.470  -0.568   2.545  1.00  0.00    -0.143 NA
ATOM     14  C   UNL     1      -1.678  -0.208   3.564  1.00  0.00     0.150 A 
BRANCH  14  15
ATOM     15  C   UNL     1      -2.169  -0.435   4.951  1.00  0.00     0.269 C 
ATOM     16  N   UNL     1      -3.299  -1.194   5.095  1.00  0.00    -0.364 N 
ATOM     17  O   UNL     1      -1.578   0.018   5.925  1.00  0.00    -0.268 OA
ATOM     18  H   UNL     1      -3.758  -1.548   4.299  1.00  0.00     0.160 HD
ATOM     19  H   UNL     1      -3.652  -1.385   5.993  1.00  0.00     0.160 HD
ENDBRANCH  14  15
ENDBRANCH   7   9
ENDBRANCH   5   7
ENDBRANCH   3   5
ENDBRANCH   2   3
ENDBRANCH   1   2
BRANCH   1  20
ATOM     20  C   UNL     1       1.976  -4.200   1.625  1.00  0.00     0.275 C 
BRANCH  20  21
ATOM     21  O   UNL     1       0.550  -4.279   1.471  1.00  0.00    -0.458 OA
BRANCH  21  22
ATOM     22  C   UNL     1      -0.184  -3.756   2.477  1.00  0.00     0.338 C 
ATOM     23  O   UNL     1       0.244  -3.289   3.526  1.00  0.00    -0.246 OA
BRANCH  22  24
ATOM     24  C   UNL     1      -1.623  -3.807   2.149  1.00  0.00     0.060 A 
ATOM     25  C   UNL     1      -2.071  -3.456   0.876  1.00  0.00     0.016 A 
ATOM     26  C   UNL     1      -2.546  -4.049   3.170  1.00  0.00     0.016 A 
ATOM     27  C   UNL     1      -3.431  -3.231   0.658  1.00  0.00     0.010 A 
ATOM     28  C   UNL     1      -3.917  -3.899   2.925  1.00  0.00     0.010 A 
ATOM     29  C   UNL     1      -4.372  -3.444   1.677  1.00  0.00    -0.014 A 
BRANCH  29  30
ATOM     30  C   UNL     1      -5.821  -3.199   1.449  1.00  0.00     0.031 A 
ATOM     31  C   UNL     1      -6.578  -2.198   2.275  1.00  0.00     0.074 A 
ATOM     32  C   UNL     1      -6.482  -3.869   0.491  1.00  0.00     0.049 A 
ATOM     33  N   UNL     1      -7.839  -2.171   2.615  1.00  0.00    -0.248 NA
ATOM     34  C   UNL     1      -5.799  -1.084   2.813  1.00  0.00     0.031 C 
ATOM     35  C   UNL     1      -5.884  -4.800  -0.465  1.00  0.00     0.029 A 
ATOM     36  N   UNL     1      -7.812  -3.857   0.167  1.00  0.00    -0.354 N 
ATOM     37  C   UNL     1      -7.963  -1.124   3.527  1.00  0.00     0.074 A 
ATOM     38  C   UNL     1      -6.656  -0.519   3.654  1.00  0.00     0.031 C 
ATOM     39  C   UNL     1      -6.839  -5.244  -1.294  1.00  0.00     0.029 A 
ATOM     40  C   UNL     1      -8.126  -4.714  -0.855  1.00  0.00     0.049 A 
ATOM     41  H   UNL     1      -8.476  -3.290   0.622  1.00  0.00     0.167 HD
ATOM     42  C   UNL     1      -9.080  -0.710   4.175  1.00  0.00     0.037 A 
ATOM     43  C   UNL     1      -9.324  -5.079  -1.343  1.00  0.00     0.037 A 
ATOM     44  C   UNL     1     -10.402  -1.156   3.811  1.00  0.00     0.049 A 
ATOM     45  C   UNL     1     -10.564  -4.522  -0.711  1.00  0.00     0.074 A 
ATOM     46  C   UNL     1     -11.623  -0.792   4.350  1.00  0.00     0.029 A 
ATOM     47  N   UNL     1     -10.674  -1.992   2.736  1.00  0.00    -0.354 N 
ATOM     48  N   UNL     1     -10.672  -3.735   0.333  1.00  0.00    -0.248 NA
ATOM     49  C   UNL     1     -11.844  -4.916  -1.309  1.00  0.00     0.031 C 
ATOM     50  C   UNL     1     -12.634  -1.386   3.582  1.00  0.00     0.029 A 
ATOM     51  C   UNL     1     -12.040  -2.110   2.559  1.00  0.00     0.049 A 
ATOM     52  H   UNL     1      -9.993  -2.436   2.180  1.00  0.00     0.167 HD
ATOM     53  C   UNL     1     -12.033  -3.543   0.524  1.00  0.00     0.074 A 
ATOM     54  C   UNL     1     -12.707  -4.276  -0.531  1.00  0.00     0.031 C 
ATOM     55  C   UNL     1     -12.673  -2.841   1.492  1.00  0.00     0.037 A 
BRANCH  42  56
ATOM     56  C   UNL     1      -8.943   0.250   5.329  1.00  0.00     0.058 A 
ATOM     57  C   UNL     1      -8.638   1.609   5.168  1.00  0.00     0.135 A 
ATOM     58  C   UNL     1      -9.202  -0.204   6.636  1.00  0.00     0.135 A 
ATOM     59  F   UNL     1      -8.375   2.102   3.948  1.00  0.00    -0.206 F 
ATOM     60  C   UNL     1      -8.572   2.477   6.258  1.00  0.00     0.059 A 
ATOM     61  C   UNL     1      -9.169   0.650   7.736  1.00  0.00     0.059 A 
ATOM     62  F   UNL     1      -9.507  -1.493   6.855  1.00  0.00    -0.206 F 
ATOM     63  C   UNL     1      -8.840   1.989   7.538  1.00  0.00     0.060 A 
BRANCH  63  64
ATOM     64  S   UNL     1      -8.797   3.126   8.943  1.00  0.00     0.124 S 
ATOM     65  O   UNL     1      -7.367   3.183   9.229  1.00  0.00    -0.237 OA
ATOM     66  O   UNL     1      -9.381   4.343   8.388  1.00  0.00    -0.237 OA
ATOM     67  O   UNL     1      -9.612   2.450   9.948  1.00  0.00    -0.744 OA
ENDBRANCH  63  64
ENDBRANCH  42  56
BRANCH  43  68
ATOM     68  C   UNL     1      -9.371  -6.049  -2.463  1.00  0.00     0.058 A 
ATOM     69  C   UNL     1      -9.659  -5.624  -3.766  1.00  0.00     0.135 A 
ATOM     70  C   UNL     1      -9.012  -7.392  -2.270  1.00  0.00     0.135 A 
ATOM     71  F   UNL     1     -10.007  -4.348  -3.994  1.00  0.00    -0.206 F 
ATOM     72  C   UNL     1      -9.573  -6.494  -4.846  1.00  0.00     0.059 A 
ATOM     73  C   UNL     1      -8.894  -8.274  -3.337  1.00  0.00     0.059 A 
ATOM     74  F   UNL     1      -8.703  -7.836  -1.041  1.00  0.00    -0.206 F 
ATOM     75  C   UNL     1      -9.177  -7.814  -4.623  1.00  0.00     0.060 A 
BRANCH  75  76
ATOM     76  S   UNL     1      -8.946  -8.908  -6.041  1.00  0.00     0.124 S 
ATOM     77  O   UNL     1     -10.319  -9.309  -6.327  1.00  0.00    -0.237 OA
ATOM     78  O   UNL     1      -8.322  -8.023  -7.020  1.00  0.00    -0.237 OA
ATOM     79  O   UNL     1      -8.076  -9.956  -5.514  1.00  0.00    -0.744 OA
ENDBRANCH  75  76
ENDBRANCH  43  68
BRANCH  55  80
ATOM     80  C   UNL     1     -14.169  -2.817   1.428  1.00  0.00     0.058 A 
ATOM     81  C   UNL     1     -14.932  -3.905   1.879  1.00  0.00     0.135 A 
ATOM     82  C   UNL     1     -14.844  -1.692   0.933  1.00  0.00     0.135 A 
ATOM     83  F   UNL     1     -14.326  -5.004   2.355  1.00  0.00    -0.206 F 
ATOM     84  C   UNL     1     -16.320  -3.887   1.818  1.00  0.00     0.059 A 
ATOM     85  C   UNL     1     -16.233  -1.646   0.878  1.00  0.00     0.059 A 
ATOM     86  F   UNL     1     -14.154  -0.626   0.497  1.00  0.00    -0.206 F 
ATOM     87  C   UNL     1     -16.961  -2.755   1.310  1.00  0.00     0.060 A 
BRANCH  87  88
ATOM     88  S   UNL     1     -18.764  -2.741   1.239  1.00  0.00     0.124 S 
ATOM     89  O   UNL     1     -19.017  -3.586   0.076  1.00  0.00    -0.237 OA
ATOM     90  O   UNL     1     -19.134  -3.313   2.530  1.00  0.00    -0.237 OA
ATOM     91  O   UNL     1     -19.085  -1.327   1.072  1.00  0.00    -0.744 OA
ENDBRANCH  87  88
ENDBRANCH  55  80
ENDBRANCH  29  30
ENDBRANCH  22  24
ENDBRANCH  21  22
ENDBRANCH  20  21
ENDBRANCH   1  20
TORSDOF 17
