REMARK SMILES O=C(/C=C/c1ccc(C(=O)NC2CC2)cc1)NC1(C(=O)OCCOC(=O)c2ccc(-c3c4nc(c(-c5c(F)cc(S(=O)(=O)[O-])cc5F)c5ccc([nH]5)c(-c5c(F)cc(S(=O)(=O)[O-])cc5F)c5nc(c(-c6c(F)cc(S(=O)(=O)[O-])cc6F)c6ccc3[nH]6)C=C5)C=C4)cc2)CCCC1
REMARK SMILES IDX 22 1 21 2 19 3 20 4 18 5 93 6 96 7 94 8 95 9 17 10 1 11 2 12
REMARK SMILES IDX 3 14 4 15 5 16 6 17 16 18 7 19 15 20 8 21 9 22 10 23 11 24
REMARK SMILES IDX 12 26 13 27 14 28 23 29 24 30 25 31 26 32 27 33 28 34 92 35
REMARK SMILES IDX 29 36 91 37 30 38 31 39 32 40 85 41 33 42 90 43 84 44 86 45
REMARK SMILES IDX 34 46 89 47 83 48 82 49 35 51 69 52 48 53 68 54 49 55 52 56
REMARK SMILES IDX 67 57 87 58 50 59 51 60 66 62 88 63 53 64 36 65 37 66 46 67
REMARK SMILES IDX 38 68 39 69 45 70 47 71 40 72 41 73 42 74 43 75 44 76 70 77
REMARK SMILES IDX 71 78 80 79 72 80 73 81 79 82 81 83 74 84 75 85 76 86 77 87
REMARK SMILES IDX 78 88 54 89 55 90 64 91 56 92 57 93 63 94 65 95 58 96 59 97
REMARK SMILES IDX 60 98 61 99 62 100
REMARK H PARENT 17 13 11 25 86 50 52 61
REMARK Flexibility Score: inf
ROOT
ATOM      1  C   UNL     1       3.746  -0.210   5.608  1.00  0.00     0.274 C 
ENDROOT
BRANCH   1   2
ATOM      2  O   UNL     1       2.877  -0.727   4.581  1.00  0.00    -0.460 OA
BRANCH   2   3
ATOM      3  C   UNL     1       2.723   0.032   3.461  1.00  0.00     0.331 C 
ATOM      4  O   UNL     1       3.290   1.105   3.270  1.00  0.00    -0.249 OA
BRANCH   3   5
ATOM      5  C   UNL     1       1.687  -0.554   2.462  1.00  0.00     0.138 C 
ATOM      6  C   UNL     1       0.320   0.054   2.804  1.00  0.00     0.040 C 
ATOM      7  C   UNL     1       1.477  -2.067   2.630  1.00  0.00     0.040 C 
ATOM      8  C   UNL     1      -0.203  -0.827   3.930  1.00  0.00     0.003 C 
ATOM      9  C   UNL     1       0.332  -2.225   3.636  1.00  0.00     0.003 C 
BRANCH   5  10
ATOM     10  N   UNL     1       2.156  -0.187   1.111  1.00  0.00    -0.337 N 
ATOM     11  O   UNL     1       0.399  -0.996  -0.144  1.00  0.00    -0.270 OA
ATOM     12  C   UNL     1       1.492  -0.455  -0.058  1.00  0.00     0.244 C 
ATOM     13  H   UNL     1       3.015   0.289   1.045  1.00  0.00     0.164 HD
BRANCH  12  14
ATOM     14  C   UNL     1       2.169   0.067  -1.266  1.00  0.00     0.072 C 
ATOM     15  C   UNL     1       3.418  -0.308  -1.582  1.00  0.00     0.014 C 
BRANCH  15  16
ATOM     16  C   UNL     1       4.127   0.153  -2.785  1.00  0.00    -0.025 A 
ATOM     17  C   UNL     1       4.982  -0.722  -3.455  1.00  0.00     0.009 A 
ATOM     18  C   UNL     1       4.037   1.472  -3.243  1.00  0.00     0.009 A 
ATOM     19  C   UNL     1       5.700  -0.293  -4.579  1.00  0.00     0.014 A 
ATOM     20  C   UNL     1       4.762   1.900  -4.368  1.00  0.00     0.014 A 
ATOM     21  C   UNL     1       5.598   1.024  -5.061  1.00  0.00     0.039 A 
BRANCH  21  22
ATOM     22  C   UNL     1       6.436   1.361  -6.253  1.00  0.00     0.251 C 
ATOM     23  O   UNL     1       7.216   0.508  -6.678  1.00  0.00    -0.269 OA
ATOM     24  N   UNL     1       6.386   2.555  -6.935  1.00  0.00    -0.349 N 
ATOM     25  H   UNL     1       7.085   2.655  -7.621  1.00  0.00     0.164 HD
BRANCH  24  26
ATOM     26  C   UNL     1       5.514   3.667  -6.833  1.00  0.00     0.082 C 
ATOM     27  C   UNL     1       5.277   4.551  -8.029  1.00  0.00     0.027 C 
ATOM     28  C   UNL     1       4.176   3.673  -7.516  1.00  0.00     0.027 C 
ENDBRANCH  24  26
ENDBRANCH  21  22
ENDBRANCH  15  16
ENDBRANCH  12  14
ENDBRANCH   5  10
ENDBRANCH   3   5
ENDBRANCH   2   3
ENDBRANCH   1   2
BRANCH   1  29
ATOM     29  C   UNL     1       5.087  -0.938   5.604  1.00  0.00     0.275 C 
BRANCH  29  30
ATOM     30  O   UNL     1       5.818  -0.589   4.417  1.00  0.00    -0.458 OA
BRANCH  30  31
ATOM     31  C   UNL     1       6.042  -1.595   3.542  1.00  0.00     0.338 C 
ATOM     32  O   UNL     1       5.748  -2.770   3.668  1.00  0.00    -0.246 OA
BRANCH  31  33
ATOM     33  C   UNL     1       6.685  -1.045   2.339  1.00  0.00     0.060 A 
ATOM     34  C   UNL     1       5.959  -0.183   1.522  1.00  0.00     0.016 A 
ATOM     35  C   UNL     1       7.957  -1.468   1.959  1.00  0.00     0.016 A 
ATOM     36  C   UNL     1       6.470   0.200   0.286  1.00  0.00     0.010 A 
ATOM     37  C   UNL     1       8.499  -1.021   0.747  1.00  0.00     0.010 A 
ATOM     38  C   UNL     1       7.745  -0.215  -0.126  1.00  0.00    -0.014 A 
BRANCH  38  39
ATOM     39  C   UNL     1       8.234   0.122  -1.496  1.00  0.00     0.031 A 
ATOM     40  C   UNL     1       8.571  -0.988  -2.462  1.00  0.00     0.074 A 
ATOM     41  C   UNL     1       8.302   1.404  -1.914  1.00  0.00     0.049 A 
ATOM     42  N   UNL     1       9.148  -0.918  -3.633  1.00  0.00    -0.248 NA
ATOM     43  C   UNL     1       8.211  -2.358  -2.057  1.00  0.00     0.031 C 
ATOM     44  C   UNL     1       7.928   2.571  -1.113  1.00  0.00     0.029 A 
ATOM     45  N   UNL     1       8.683   1.946  -3.120  1.00  0.00    -0.354 N 
ATOM     46  C   UNL     1       9.256  -2.228  -4.088  1.00  0.00     0.074 A 
ATOM     47  C   UNL     1       8.694  -3.077  -3.061  1.00  0.00     0.031 C 
ATOM     48  C   UNL     1       8.037   3.678  -1.864  1.00  0.00     0.029 A 
ATOM     49  C   UNL     1       8.588   3.320  -3.168  1.00  0.00     0.049 A 
ATOM     50  H   UNL     1       8.996   1.402  -3.879  1.00  0.00     0.167 HD
ATOM     51  C   UNL     1       9.776  -2.680  -5.255  1.00  0.00     0.037 A 
ATOM     52  C   UNL     1       8.935   4.199  -4.131  1.00  0.00     0.037 A 
ATOM     53  C   UNL     1      10.297  -1.826  -6.290  1.00  0.00     0.049 A 
ATOM     54  C   UNL     1       9.550   3.674  -5.400  1.00  0.00     0.074 A 
ATOM     55  C   UNL     1      10.961  -2.178  -7.453  1.00  0.00     0.029 A 
ATOM     56  N   UNL     1      10.162  -0.445  -6.313  1.00  0.00    -0.354 N 
ATOM     57  N   UNL     1       9.780   2.431  -5.747  1.00  0.00    -0.248 NA
ATOM     58  C   UNL     1       9.975   4.662  -6.401  1.00  0.00     0.031 C 
ATOM     59  C   UNL     1      11.266  -1.006  -8.156  1.00  0.00     0.029 A 
ATOM     60  C   UNL     1      10.765   0.073  -7.446  1.00  0.00     0.049 A 
ATOM     61  H   UNL     1       9.703   0.088  -5.624  1.00  0.00     0.167 HD
ATOM     62  C   UNL     1      10.359   2.484  -7.009  1.00  0.00     0.074 A 
ATOM     63  C   UNL     1      10.431   3.884  -7.374  1.00  0.00     0.031 C 
ATOM     64  C   UNL     1      10.806   1.471  -7.791  1.00  0.00     0.037 A 
BRANCH  51  65
ATOM     65  C   UNL     1       9.860  -4.169  -5.447  1.00  0.00     0.058 A 
ATOM     66  C   UNL     1       8.732  -4.944  -5.753  1.00  0.00     0.135 A 
ATOM     67  C   UNL     1      11.097  -4.826  -5.338  1.00  0.00     0.135 A 
ATOM     68  F   UNL     1       7.520  -4.372  -5.837  1.00  0.00    -0.206 F 
ATOM     69  C   UNL     1       8.824  -6.323  -5.929  1.00  0.00     0.059 A 
ATOM     70  C   UNL     1      11.215  -6.200  -5.530  1.00  0.00     0.059 A 
ATOM     71  F   UNL     1      12.207  -4.133  -5.039  1.00  0.00    -0.206 F 
ATOM     72  C   UNL     1      10.070  -6.942  -5.811  1.00  0.00     0.060 A 
BRANCH  72  73
ATOM     73  S   UNL     1      10.178  -8.731  -6.032  1.00  0.00     0.124 S 
ATOM     74  O   UNL     1       9.636  -9.214  -4.766  1.00  0.00    -0.237 OA
ATOM     75  O   UNL     1       9.341  -8.957  -7.206  1.00  0.00    -0.237 OA
ATOM     76  O   UNL     1      11.606  -8.963  -6.232  1.00  0.00    -0.744 OA
ENDBRANCH  72  73
ENDBRANCH  51  65
BRANCH  52  77
ATOM     77  C   UNL     1       8.727   5.663  -3.924  1.00  0.00     0.058 A 
ATOM     78  C   UNL     1       7.826   6.388  -4.718  1.00  0.00     0.135 A 
ATOM     79  C   UNL     1       9.399   6.369  -2.913  1.00  0.00     0.135 A 
ATOM     80  F   UNL     1       7.197   5.791  -5.737  1.00  0.00    -0.206 F 
ATOM     81  C   UNL     1       7.574   7.739  -4.506  1.00  0.00     0.059 A 
ATOM     82  C   UNL     1       9.149   7.717  -2.664  1.00  0.00     0.059 A 
ATOM     83  F   UNL     1      10.285   5.738  -2.127  1.00  0.00    -0.206 F 
ATOM     84  C   UNL     1       8.233   8.393  -3.467  1.00  0.00     0.060 A 
BRANCH  84  85
ATOM     85  S   UNL     1       7.837  10.125  -3.150  1.00  0.00     0.124 S 
ATOM     86  O   UNL     1       8.547  10.791  -4.236  1.00  0.00    -0.237 OA
ATOM     87  O   UNL     1       6.380  10.128  -3.243  1.00  0.00    -0.237 OA
ATOM     88  O   UNL     1       8.372  10.349  -1.811  1.00  0.00    -0.744 OA
ENDBRANCH  84  85
ENDBRANCH  52  77
BRANCH  64  89
ATOM     89  C   UNL     1      11.410   1.841  -9.114  1.00  0.00     0.058 A 
ATOM     90  C   UNL     1      12.712   2.355  -9.199  1.00  0.00     0.135 A 
ATOM     91  C   UNL     1      10.703   1.630 -10.307  1.00  0.00     0.135 A 
ATOM     92  F   UNL     1      13.425   2.581  -8.084  1.00  0.00    -0.206 F 
ATOM     93  C   UNL     1      13.289   2.667 -10.426  1.00  0.00     0.059 A 
ATOM     94  C   UNL     1      11.267   1.917 -11.546  1.00  0.00     0.059 A 
ATOM     95  F   UNL     1       9.453   1.141 -10.277  1.00  0.00    -0.206 F 
ATOM     96  C   UNL     1      12.558   2.445 -11.594  1.00  0.00     0.060 A 
BRANCH  96  97
ATOM     97  S   UNL     1      13.326   2.827 -13.183  1.00  0.00     0.124 S 
ATOM     98  O   UNL     1      13.201   4.280 -13.226  1.00  0.00    -0.237 OA
ATOM     99  O   UNL     1      14.681   2.313 -13.011  1.00  0.00    -0.237 OA
ATOM    100  O   UNL     1      12.503   2.097 -14.142  1.00  0.00    -0.744 OA
ENDBRANCH  96  97
ENDBRANCH  64  89
ENDBRANCH  38  39
ENDBRANCH  31  33
ENDBRANCH  30  31
ENDBRANCH  29  30
ENDBRANCH   1  29
TORSDOF 19
