REMARK SMILES C[NH+](C)[C@H]1CCN(C(=O)C(=O)c2ccccc2)C[C@H]1CCC(=O)OCCOC(=O)c1ccc(-c2c3nc(c(-c4c(F)cc(S(=O)(=O)[O-])cc4F)c4ccc([nH]4)c(-c4c(F)cc(S(=O)(=O)[O-])cc4F)c4nc(c(-c5c(F)cc(S(=O)(=O)[O-])cc5F)c5ccc2[nH]5)C=C4)C=C3)cc1
REMARK SMILES IDX 25 1 24 2 22 3 23 4 21 5 20 6 19 7 4 8 5 9 6 10 18 11 7 12
REMARK SMILES IDX 2 13 1 14 3 15 8 17 9 18 10 19 11 20 12 21 13 22 17 23 14 24
REMARK SMILES IDX 16 25 15 26 26 27 27 28 28 29 29 30 30 31 31 32 95 33 32 34
REMARK SMILES IDX 94 35 33 36 34 37 35 38 88 39 36 40 93 41 87 42 89 43 37 44
REMARK SMILES IDX 92 45 86 46 85 47 38 49 72 50 51 51 71 52 52 53 55 54 70 55
REMARK SMILES IDX 90 56 53 57 54 58 69 60 91 61 56 62 39 63 40 64 49 65 41 66
REMARK SMILES IDX 42 67 48 68 50 69 43 70 44 71 45 72 46 73 47 74 73 75 74 76
REMARK SMILES IDX 83 77 75 78 76 79 82 80 84 81 77 82 78 83 79 84 80 85 81 86
REMARK SMILES IDX 57 87 58 88 67 89 59 90 60 91 66 92 68 93 61 94 62 95 63 96
REMARK SMILES IDX 64 97 65 98
REMARK H PARENT 2 16 89 48 55 59
REMARK Flexibility Score: inf
ROOT
ATOM      1  C   UNL     1       5.222  -3.079   0.246  1.00  0.00     0.274 C 
ENDROOT
BRANCH   1   2
ATOM      2  O   UNL     1       4.221  -3.063  -0.790  1.00  0.00    -0.462 OA
BRANCH   2   3
ATOM      3  C   UNL     1       4.404  -2.204  -1.825  1.00  0.00     0.305 C 
ATOM      4  O   UNL     1       5.362  -1.448  -1.936  1.00  0.00    -0.252 OA
BRANCH   3   5
ATOM      5  C   UNL     1       3.321  -2.306  -2.881  1.00  0.00     0.123 C 
BRANCH   5   6
ATOM      6  C   UNL     1       2.145  -3.240  -2.596  1.00  0.00     0.023 C 
BRANCH   6   7
ATOM      7  C   UNL     1       1.221  -2.918  -1.389  1.00  0.00     0.067 C 
ATOM      8  C   UNL     1       0.606  -1.482  -1.353  1.00  0.00     0.190 C 
ATOM      9  C   UNL     1      -0.387  -1.344  -2.526  1.00  0.00     0.087 C 
ATOM     10  C   UNL     1      -1.461  -2.422  -2.469  1.00  0.00     0.126 C 
ATOM     11  C   UNL     1       0.098  -3.983  -1.354  1.00  0.00     0.129 C 
ATOM     12  N   UNL     1      -0.908  -3.765  -2.394  1.00  0.00    -0.335 N 
BRANCH   8  13
ATOM     13  N   UNL     1       1.659  -0.441  -1.308  1.00  0.00    -0.337 N 
ATOM     14  C   UNL     1       2.272  -0.299   0.014  1.00  0.00     0.332 C 
ATOM     15  C   UNL     1       1.275   0.878  -1.808  1.00  0.00     0.332 C 
ATOM     16  H   UNL     1       2.346  -0.808  -1.967  1.00  0.00     0.347 HD
ENDBRANCH   8  13
BRANCH  12  17
ATOM     17  C   UNL     1      -1.536  -4.769  -3.146  1.00  0.00     0.294 C 
ATOM     18  O   UNL     1      -2.408  -4.525  -3.979  1.00  0.00    -0.265 OA
BRANCH  17  19
ATOM     19  C   UNL     1      -1.195  -6.242  -2.898  1.00  0.00     0.250 C 
ATOM     20  O   UNL     1      -1.012  -6.637  -1.751  1.00  0.00    -0.283 OA
BRANCH  19  21
ATOM     21  C   UNL     1      -1.250  -7.212  -4.033  1.00  0.00     0.028 A 
ATOM     22  C   UNL     1      -1.463  -8.567  -3.735  1.00  0.00     0.012 A 
ATOM     23  C   UNL     1      -1.147  -6.817  -5.373  1.00  0.00     0.012 A 
ATOM     24  C   UNL     1      -1.616  -9.504  -4.759  1.00  0.00     0.001 A 
ATOM     25  C   UNL     1      -1.299  -7.759  -6.397  1.00  0.00     0.001 A 
ATOM     26  C   UNL     1      -1.543  -9.098  -6.090  1.00  0.00     0.000 A 
ENDBRANCH  19  21
ENDBRANCH  17  19
ENDBRANCH  12  17
ENDBRANCH   6   7
ENDBRANCH   5   6
ENDBRANCH   3   5
ENDBRANCH   2   3
ENDBRANCH   1   2
BRANCH   1  27
ATOM     27  C   UNL     1       5.651  -4.519   0.530  1.00  0.00     0.275 C 
BRANCH  27  28
ATOM     28  O   UNL     1       6.332  -5.059  -0.614  1.00  0.00    -0.458 OA
BRANCH  28  29
ATOM     29  C   UNL     1       5.541  -5.723  -1.487  1.00  0.00     0.338 C 
ATOM     30  O   UNL     1       4.369  -6.038  -1.345  1.00  0.00    -0.246 OA
BRANCH  29  31
ATOM     31  C   UNL     1       6.263  -5.844  -2.756  1.00  0.00     0.060 A 
ATOM     32  C   UNL     1       5.880  -5.002  -3.801  1.00  0.00     0.016 A 
ATOM     33  C   UNL     1       7.273  -6.786  -2.934  1.00  0.00     0.016 A 
ATOM     34  C   UNL     1       6.498  -5.092  -5.040  1.00  0.00     0.010 A 
ATOM     35  C   UNL     1       7.901  -6.875  -4.179  1.00  0.00     0.010 A 
ATOM     36  C   UNL     1       7.512  -6.034  -5.239  1.00  0.00    -0.014 A 
BRANCH  36  37
ATOM     37  C   UNL     1       8.124  -6.189  -6.577  1.00  0.00     0.031 A 
ATOM     38  C   UNL     1       7.805  -7.409  -7.388  1.00  0.00     0.074 A 
ATOM     39  C   UNL     1       8.953  -5.242  -7.053  1.00  0.00     0.049 A 
ATOM     40  N   UNL     1       8.364  -7.841  -8.486  1.00  0.00    -0.248 NA
ATOM     41  C   UNL     1       6.712  -8.261  -6.889  1.00  0.00     0.031 C 
ATOM     42  C   UNL     1       9.274  -3.983  -6.380  1.00  0.00     0.029 A 
ATOM     43  N   UNL     1       9.686  -5.199  -8.211  1.00  0.00    -0.354 N 
ATOM     44  C   UNL     1       7.722  -9.036  -8.790  1.00  0.00     0.074 A 
ATOM     45  C   UNL     1       6.729  -9.259  -7.761  1.00  0.00     0.031 C 
ATOM     46  C   UNL     1      10.147  -3.294  -7.133  1.00  0.00     0.029 A 
ATOM     47  C   UNL     1      10.492  -4.090  -8.307  1.00  0.00     0.049 A 
ATOM     48  H   UNL     1       9.639  -5.894  -8.906  1.00  0.00     0.167 HD
ATOM     49  C   UNL     1       7.952  -9.869  -9.831  1.00  0.00     0.037 A 
ATOM     50  C   UNL     1      11.436  -3.777  -9.216  1.00  0.00     0.037 A 
ATOM     51  C   UNL     1       8.930  -9.615 -10.857  1.00  0.00     0.049 A 
ATOM     52  C   UNL     1      11.712  -4.743 -10.335  1.00  0.00     0.074 A 
ATOM     53  C   UNL     1       9.251 -10.392 -11.956  1.00  0.00     0.029 A 
ATOM     54  N   UNL     1       9.740  -8.489 -10.911  1.00  0.00    -0.354 N 
ATOM     55  N   UNL     1      11.137  -5.896 -10.588  1.00  0.00    -0.248 NA
ATOM     56  C   UNL     1      12.774  -4.379 -11.282  1.00  0.00     0.031 C 
ATOM     57  C   UNL     1      10.277  -9.749 -12.658  1.00  0.00     0.029 A 
ATOM     58  C   UNL     1      10.570  -8.555 -12.017  1.00  0.00     0.049 A 
ATOM     59  H   UNL     1       9.727  -7.752 -10.258  1.00  0.00     0.167 HD
ATOM     60  C   UNL     1      11.759  -6.390 -11.728  1.00  0.00     0.074 A 
ATOM     61  C   UNL     1      12.746  -5.404 -12.124  1.00  0.00     0.031 C 
ATOM     62  C   UNL     1      11.539  -7.554 -12.387  1.00  0.00     0.037 A 
BRANCH  49  63
ATOM     63  C   UNL     1       7.165 -11.147  -9.883  1.00  0.00     0.058 A 
ATOM     64  C   UNL     1       5.806 -11.169 -10.235  1.00  0.00     0.135 A 
ATOM     65  C   UNL     1       7.783 -12.371  -9.581  1.00  0.00     0.135 A 
ATOM     66  F   UNL     1       5.162 -10.024 -10.512  1.00  0.00    -0.206 F 
ATOM     67  C   UNL     1       5.082 -12.357 -10.261  1.00  0.00     0.059 A 
ATOM     68  C   UNL     1       7.083 -13.574  -9.621  1.00  0.00     0.059 A 
ATOM     69  F   UNL     1       9.079 -12.406  -9.232  1.00  0.00    -0.206 F 
ATOM     70  C   UNL     1       5.728 -13.554  -9.947  1.00  0.00     0.060 A 
BRANCH  70  71
ATOM     71  S   UNL     1       4.775 -15.087  -9.976  1.00  0.00     0.124 S 
ATOM     72  O   UNL     1       4.008 -14.975  -8.739  1.00  0.00    -0.237 OA
ATOM     73  O   UNL     1       4.007 -14.958 -11.210  1.00  0.00    -0.237 OA
ATOM     74  O   UNL     1       5.801 -16.125  -9.986  1.00  0.00    -0.744 OA
ENDBRANCH  70  71
ENDBRANCH  49  63
BRANCH  50  75
ATOM     75  C   UNL     1      12.214  -2.519  -9.074  1.00  0.00     0.058 A 
ATOM     76  C   UNL     1      12.028  -1.449  -9.960  1.00  0.00     0.135 A 
ATOM     77  C   UNL     1      13.143  -2.353  -8.034  1.00  0.00     0.135 A 
ATOM     78  F   UNL     1      11.159  -1.564 -10.977  1.00  0.00    -0.206 F 
ATOM     79  C   UNL     1      12.737  -0.259  -9.825  1.00  0.00     0.059 A 
ATOM     80  C   UNL     1      13.847  -1.165  -7.865  1.00  0.00     0.059 A 
ATOM     81  F   UNL     1      13.352  -3.344  -7.154  1.00  0.00    -0.206 F 
ATOM     82  C   UNL     1      13.643  -0.125  -8.771  1.00  0.00     0.060 A 
BRANCH  82  83
ATOM     83  S   UNL     1      14.516   1.443  -8.566  1.00  0.00     0.124 S 
ATOM     84  O   UNL     1      15.528   1.354  -9.612  1.00  0.00    -0.237 OA
ATOM     85  O   UNL     1      13.454   2.420  -8.786  1.00  0.00    -0.237 OA
ATOM     86  O   UNL     1      15.015   1.371  -7.196  1.00  0.00    -0.744 OA
ENDBRANCH  82  83
ENDBRANCH  50  75
BRANCH  62  87
ATOM     87  C   UNL     1      12.363  -7.812 -13.615  1.00  0.00     0.058 A 
ATOM     88  C   UNL     1      13.700  -8.224 -13.527  1.00  0.00     0.135 A 
ATOM     89  C   UNL     1      11.788  -7.702 -14.891  1.00  0.00     0.135 A 
ATOM     90  F   UNL     1      14.295  -8.336 -12.328  1.00  0.00    -0.206 F 
ATOM     91  C   UNL     1      14.447  -8.507 -14.665  1.00  0.00     0.059 A 
ATOM     92  C   UNL     1      12.510  -8.000 -16.042  1.00  0.00     0.059 A 
ATOM     93  F   UNL     1      10.508  -7.319 -15.025  1.00  0.00    -0.206 F 
ATOM     94  C   UNL     1      13.842  -8.394 -15.918  1.00  0.00     0.060 A 
BRANCH  94  95
ATOM     95  S   UNL     1      14.806  -8.807 -17.388  1.00  0.00     0.124 S 
ATOM     96  O   UNL     1      15.644  -7.621 -17.532  1.00  0.00    -0.237 OA
ATOM     97  O   UNL     1      15.497 -10.026 -16.979  1.00  0.00    -0.237 OA
ATOM     98  O   UNL     1      13.789  -8.987 -18.419  1.00  0.00    -0.744 OA
ENDBRANCH  94  95
ENDBRANCH  62  87
ENDBRANCH  36  37
ENDBRANCH  29  31
ENDBRANCH  28  29
ENDBRANCH  27  28
ENDBRANCH   1  27
TORSDOF 20
