REMARK SMILES CC[C@H]1CCCC[N@H+]1[C@@H]1CC(=O)N(c2nc(CC(=O)OCCOC(=O)c3ccc(-c4c5nc(c(-c6c(F)cc(S(=O)(=O)[O-])cc6F)c6ccc([nH]6)c(-c6c(F)cc(S(=O)(=O)[O-])cc6F)c6nc(c(-c7c(F)cc(S(=O)(=O)[O-])cc7F)c7ccc4[nH]7)C=C6)C=C5)cc3)cs2)C1=O
REMARK SMILES IDX 21 1 20 2 18 3 19 4 17 5 16 6 14 7 15 8 93 9 92 10 13 11
REMARK SMILES IDX 9 12 10 13 94 14 11 15 95 16 12 17 8 18 3 19 4 20 5 21 7 22
REMARK SMILES IDX 6 24 2 25 1 26 22 27 23 28 24 29 25 30 26 31 27 32 91 33
REMARK SMILES IDX 28 34 90 35 29 36 30 37 31 38 84 39 32 40 89 41 83 42 85 43
REMARK SMILES IDX 33 44 88 45 82 46 81 47 34 49 68 50 47 51 67 52 48 53 51 54
REMARK SMILES IDX 66 55 86 56 49 57 50 58 65 60 87 61 52 62 35 63 36 64 45 65
REMARK SMILES IDX 37 66 38 67 44 68 46 69 39 70 40 71 41 72 42 73 43 74 69 75
REMARK SMILES IDX 70 76 79 77 71 78 72 79 78 80 80 81 73 82 74 83 75 84 76 85
REMARK SMILES IDX 77 86 53 87 54 88 63 89 55 90 56 91 62 92 64 93 57 94 58 95
REMARK SMILES IDX 59 96 60 97 61 98
REMARK H PARENT 8 23 85 48 51 59
REMARK Flexibility Score: inf
ROOT
ATOM      1  C   UNL     1      -5.438   2.922   7.819  1.00  0.00     0.274 C 
ENDROOT
BRANCH   1   2
ATOM      2  O   UNL     1      -4.062   2.962   7.393  1.00  0.00    -0.462 OA
BRANCH   2   3
ATOM      3  C   UNL     1      -3.295   3.951   7.926  1.00  0.00     0.312 C 
ATOM      4  O   UNL     1      -3.708   4.800   8.710  1.00  0.00    -0.252 OA
BRANCH   3   5
ATOM      5  C   UNL     1      -1.873   3.958   7.416  1.00  0.00     0.179 C 
BRANCH   5   6
ATOM      6  C   UNL     1      -1.360   2.634   6.957  1.00  0.00     0.065 A 
ATOM      7  C   UNL     1      -0.514   1.296   5.426  1.00  0.00     0.199 A 
ATOM      8  N   UNL     1      -0.847   2.540   5.669  1.00  0.00    -0.224 NA
ATOM      9  S   UNL     1      -0.707   0.183   6.710  1.00  0.00    -0.104 S 
ATOM     10  C   UNL     1      -1.269   1.465   7.694  1.00  0.00     0.093 A 
BRANCH   7  11
ATOM     11  N   UNL     1       0.088   0.811   4.308  1.00  0.00    -0.219 N 
ATOM     12  C   UNL     1       0.501  -0.487   2.424  1.00  0.00     0.285 C 
ATOM     13  C   UNL     1       1.789   0.203   2.868  1.00  0.00     0.176 C 
ATOM     14  C   UNL     1      -0.542  -0.034   3.443  1.00  0.00     0.294 C 
ATOM     15  C   UNL     1       1.387   1.085   4.011  1.00  0.00     0.242 C 
ATOM     16  O   UNL     1      -1.720  -0.370   3.443  1.00  0.00    -0.267 OA
ATOM     17  O   UNL     1       2.166   1.841   4.572  1.00  0.00    -0.274 OA
BRANCH  12  18
ATOM     18  N   UNL     1       0.525  -1.952   2.308  1.00  0.00    -0.322 N 
ATOM     19  C   UNL     1       1.167  -2.514   1.115  1.00  0.00     0.184 C 
ATOM     20  C   UNL     1       0.731  -3.982   0.917  1.00  0.00     0.065 C 
ATOM     21  C   UNL     1       0.792  -4.838   2.180  1.00  0.00     0.012 C 
ATOM     22  C   UNL     1       0.653  -2.718   3.543  1.00  0.00     0.263 C 
ATOM     23  H   UNL     1      -0.457  -2.121   2.093  1.00  0.00     0.349 HD
ATOM     24  C   UNL     1       0.124  -4.137   3.351  1.00  0.00     0.062 C 
BRANCH  19  25
ATOM     25  C   UNL     1       2.691  -2.306   0.926  1.00  0.00     0.061 C 
ATOM     26  C   UNL     1       3.650  -3.056   1.836  1.00  0.00     0.010 C 
ENDBRANCH  19  25
ENDBRANCH  12  18
ENDBRANCH   7  11
ENDBRANCH   5   6
ENDBRANCH   3   5
ENDBRANCH   2   3
ENDBRANCH   1   2
BRANCH   1  27
ATOM     27  C   UNL     1      -5.647   1.883   8.918  1.00  0.00     0.275 C 
BRANCH  27  28
ATOM     28  O   UNL     1      -4.884   2.230  10.087  1.00  0.00    -0.458 OA
BRANCH  28  29
ATOM     29  C   UNL     1      -3.907   1.359  10.423  1.00  0.00     0.338 C 
ATOM     30  O   UNL     1      -3.627   0.305   9.881  1.00  0.00    -0.246 OA
BRANCH  29  31
ATOM     31  C   UNL     1      -3.139   1.895  11.554  1.00  0.00     0.060 A 
ATOM     32  C   UNL     1      -2.064   2.751  11.306  1.00  0.00     0.016 A 
ATOM     33  C   UNL     1      -3.405   1.438  12.844  1.00  0.00     0.016 A 
ATOM     34  C   UNL     1      -1.222   3.126  12.350  1.00  0.00     0.010 A 
ATOM     35  C   UNL     1      -2.583   1.847  13.896  1.00  0.00     0.010 A 
ATOM     36  C   UNL     1      -1.471   2.673  13.653  1.00  0.00    -0.014 A 
BRANCH  36  37
ATOM     37  C   UNL     1      -0.550   3.032  14.759  1.00  0.00     0.031 A 
ATOM     38  C   UNL     1       0.339   1.983  15.367  1.00  0.00     0.074 A 
ATOM     39  C   UNL     1      -0.519   4.296  15.219  1.00  0.00     0.049 A 
ATOM     40  N   UNL     1       1.128   2.071  16.406  1.00  0.00    -0.248 NA
ATOM     41  C   UNL     1       0.334   0.659  14.725  1.00  0.00     0.031 C 
ATOM     42  C   UNL     1      -1.316   5.406  14.694  1.00  0.00     0.029 A 
ATOM     43  N   UNL     1       0.206   4.857  16.239  1.00  0.00    -0.354 N 
ATOM     44  C   UNL     1       1.693   0.811  16.562  1.00  0.00     0.074 A 
ATOM     45  C   UNL     1       1.149  -0.027  15.514  1.00  0.00     0.031 C 
ATOM     46  C   UNL     1      -1.037   6.516  15.398  1.00  0.00     0.029 A 
ATOM     47  C   UNL     1      -0.076   6.186  16.447  1.00  0.00     0.049 A 
ATOM     48  H   UNL     1       0.866   4.356  16.771  1.00  0.00     0.167 HD
ATOM     49  C   UNL     1       2.584   0.394  17.493  1.00  0.00     0.037 A 
ATOM     50  C   UNL     1       0.367   7.035  17.393  1.00  0.00     0.037 A 
ATOM     51  C   UNL     1       3.140   1.237  18.519  1.00  0.00     0.049 A 
ATOM     52  C   UNL     1       1.342   6.544  18.426  1.00  0.00     0.074 A 
ATOM     53  C   UNL     1       4.062   0.910  19.498  1.00  0.00     0.029 A 
ATOM     54  N   UNL     1       2.830   2.578  18.695  1.00  0.00    -0.354 N 
ATOM     55  N   UNL     1       1.858   5.347  18.567  1.00  0.00    -0.248 NA
ATOM     56  C   UNL     1       1.792   7.518  19.430  1.00  0.00     0.031 C 
ATOM     57  C   UNL     1       4.291   2.047  20.282  1.00  0.00     0.029 A 
ATOM     58  C   UNL     1       3.535   3.090  19.772  1.00  0.00     0.049 A 
ATOM     59  H   UNL     1       2.202   3.090  18.136  1.00  0.00     0.167 HD
ATOM     60  C   UNL     1       2.701   5.425  19.669  1.00  0.00     0.074 A 
ATOM     61  C   UNL     1       2.637   6.790  20.149  1.00  0.00     0.031 C 
ATOM     62  C   UNL     1       3.458   4.453  20.234  1.00  0.00     0.037 A 
BRANCH  49  63
ATOM     63  C   UNL     1       2.994  -1.050  17.459  1.00  0.00     0.058 A 
ATOM     64  C   UNL     1       3.893  -1.539  16.500  1.00  0.00     0.135 A 
ATOM     65  C   UNL     1       2.498  -1.952  18.415  1.00  0.00     0.135 A 
ATOM     66  F   UNL     1       4.382  -0.722  15.553  1.00  0.00    -0.206 F 
ATOM     67  C   UNL     1       4.271  -2.878  16.474  1.00  0.00     0.059 A 
ATOM     68  C   UNL     1       2.876  -3.291  18.420  1.00  0.00     0.059 A 
ATOM     69  F   UNL     1       1.633  -1.534  19.352  1.00  0.00    -0.206 F 
ATOM     70  C   UNL     1       3.752  -3.748  17.436  1.00  0.00     0.060 A 
BRANCH  70  71
ATOM     71  S   UNL     1       4.244  -5.485  17.392  1.00  0.00     0.124 S 
ATOM     72  O   UNL     1       3.418  -5.992  16.301  1.00  0.00    -0.237 OA
ATOM     73  O   UNL     1       5.675  -5.402  17.117  1.00  0.00    -0.237 OA
ATOM     74  O   UNL     1       3.893  -5.969  18.724  1.00  0.00    -0.744 OA
ENDBRANCH  70  71
ENDBRANCH  49  63
BRANCH  50  75
ATOM     75  C   UNL     1      -0.128   8.434  17.413  1.00  0.00     0.058 A 
ATOM     76  C   UNL     1       0.694   9.496  17.012  1.00  0.00     0.135 A 
ATOM     77  C   UNL     1      -1.442   8.732  17.807  1.00  0.00     0.135 A 
ATOM     78  F   UNL     1       1.960   9.259  16.635  1.00  0.00    -0.206 F 
ATOM     79  C   UNL     1       0.233  10.809  17.005  1.00  0.00     0.059 A 
ATOM     80  C   UNL     1      -1.931  10.033  17.790  1.00  0.00     0.059 A 
ATOM     81  F   UNL     1      -2.269   7.746  18.187  1.00  0.00    -0.206 F 
ATOM     82  C   UNL     1      -1.083  11.066  17.393  1.00  0.00     0.060 A 
BRANCH  82  83
ATOM     83  S   UNL     1      -1.698  12.763  17.320  1.00  0.00     0.124 S 
ATOM     84  O   UNL     1      -1.142  13.329  18.543  1.00  0.00    -0.237 OA
ATOM     85  O   UNL     1      -1.122  13.250  16.070  1.00  0.00    -0.237 OA
ATOM     86  O   UNL     1      -3.148  12.590  17.304  1.00  0.00    -0.744 OA
ENDBRANCH  82  83
ENDBRANCH  50  75
BRANCH  62  87
ATOM     87  C   UNL     1       4.293   4.838  21.420  1.00  0.00     0.058 A 
ATOM     88  C   UNL     1       3.726   5.000  22.693  1.00  0.00     0.135 A 
ATOM     89  C   UNL     1       5.680   5.011  21.289  1.00  0.00     0.135 A 
ATOM     90  F   UNL     1       2.403   4.852  22.866  1.00  0.00    -0.206 F 
ATOM     91  C   UNL     1       4.503   5.340  23.795  1.00  0.00     0.059 A 
ATOM     92  C   UNL     1       6.479   5.334  22.381  1.00  0.00     0.059 A 
ATOM     93  F   UNL     1       6.270   4.859  20.093  1.00  0.00    -0.206 F 
ATOM     94  C   UNL     1       5.880   5.508  23.628  1.00  0.00     0.060 A 
BRANCH  94  95
ATOM     95  S   UNL     1       6.888   5.923  25.067  1.00  0.00     0.124 S 
ATOM     96  O   UNL     1       6.646   7.357  25.191  1.00  0.00    -0.237 OA
ATOM     97  O   UNL     1       6.305   5.090  26.115  1.00  0.00    -0.237 OA
ATOM     98  O   UNL     1       8.236   5.545  24.654  1.00  0.00    -0.744 OA
ENDBRANCH  94  95
ENDBRANCH  62  87
ENDBRANCH  36  37
ENDBRANCH  29  31
ENDBRANCH  28  29
ENDBRANCH  27  28
ENDBRANCH   1  27
TORSDOF 18
