REMARK SMILES Cc1ccc(-c2nn(CCC(=O)OCCOC(=O)c3ccc(-c4c5nc(c(-c6c(F)cc(S(=O)(=O)[O-])cc6F)c6ccc([nH]6)c(-c6c(F)cc(S(=O)(=O)[O-])cc6F)c6nc(c(-c7c(F)cc(S(=O)(=O)[O-])cc7F)c7ccc4[nH]7)C=C6)C=C5)cc3)c(=O)c3noc(C)c23)cc1C
REMARK SMILES IDX 14 1 13 2 11 3 12 4 10 5 9 6 8 7 6 8 7 9 92 10 87 11 90 12
REMARK SMILES IDX 85 13 88 14 89 15 91 16 86 17 5 18 1 19 2 20 3 21 94 22 4 23
REMARK SMILES IDX 93 24 95 25 15 26 16 27 17 28 18 29 19 30 20 31 84 32 21 33
REMARK SMILES IDX 83 34 22 35 23 36 24 37 77 38 25 39 82 40 76 41 78 42 26 43
REMARK SMILES IDX 81 44 75 45 74 46 27 48 61 49 40 50 60 51 41 52 44 53 59 54
REMARK SMILES IDX 79 55 42 56 43 57 58 59 80 60 45 61 28 62 29 63 38 64 30 65
REMARK SMILES IDX 31 66 37 67 39 68 32 69 33 70 34 71 35 72 36 73 62 74 63 75
REMARK SMILES IDX 72 76 64 77 65 78 71 79 73 80 66 81 67 82 68 83 69 84 70 85
REMARK SMILES IDX 46 86 47 87 56 88 48 89 49 90 55 91 57 92 50 93 51 94 52 95
REMARK SMILES IDX 53 96 54 97
REMARK H PARENT 78 47 44 58
REMARK Flexibility Score: inf
ROOT
ATOM      1  C   UNL     1      -7.318  -5.725  -0.918  1.00  0.00     0.274 C 
ENDROOT
BRANCH   1   2
ATOM      2  O   UNL     1      -6.396  -4.700  -1.330  1.00  0.00    -0.462 OA
BRANCH   2   3
ATOM      3  C   UNL     1      -6.412  -4.347  -2.635  1.00  0.00     0.307 C 
ATOM      4  O   UNL     1      -6.978  -4.970  -3.525  1.00  0.00    -0.252 OA
BRANCH   3   5
ATOM      5  C   UNL     1      -5.576  -3.120  -2.901  1.00  0.00     0.146 C 
BRANCH   5   6
ATOM      6  C   UNL     1      -5.824  -1.964  -1.933  1.00  0.00     0.160 C 
BRANCH   6   7
ATOM      7  N   UNL     1      -4.980  -2.038  -0.740  1.00  0.00    -0.227 N 
ATOM      8  C   UNL     1      -2.841  -1.537   0.102  1.00  0.00     0.104 A 
ATOM      9  N   UNL     1      -3.701  -1.473  -0.876  1.00  0.00    -0.169 NA
ATOM     10  C   UNL     1      -3.167  -2.272   1.291  1.00  0.00     0.078 A 
ATOM     11  C   UNL     1      -4.464  -2.776   1.461  1.00  0.00     0.183 A 
ATOM     12  C   UNL     1      -2.507  -2.643   2.438  1.00  0.00     0.143 A 
ATOM     13  C   UNL     1      -5.482  -2.589   0.458  1.00  0.00     0.296 A 
ATOM     14  N   UNL     1      -4.601  -3.442   2.613  1.00  0.00    -0.074 NA
ATOM     15  O   UNL     1      -3.365  -3.356   3.226  1.00  0.00    -0.360 OA
ATOM     16  C   UNL     1      -1.155  -2.471   2.994  1.00  0.00     0.091 C 
ATOM     17  O   UNL     1      -6.651  -2.924   0.649  1.00  0.00    -0.265 OA
BRANCH   8  18
ATOM     18  C   UNL     1      -1.583  -0.785   0.010  1.00  0.00     0.003 A 
ATOM     19  C   UNL     1       2.007   1.582  -0.015  1.00  0.00     0.044 C 
ATOM     20  C   UNL     1       0.773   0.722  -0.027  1.00  0.00    -0.048 A 
ATOM     21  C   UNL     1      -0.482   1.354  -0.013  1.00  0.00     0.004 A 
ATOM     22  C   UNL     1       0.841  -0.688  -0.051  1.00  0.00    -0.048 A 
ATOM     23  C   UNL     1      -1.657   0.607   0.003  1.00  0.00     0.011 A 
ATOM     24  C   UNL     1      -0.351  -1.434  -0.049  1.00  0.00     0.014 A 
ATOM     25  C   UNL     1       2.138  -1.448  -0.065  1.00  0.00     0.044 C 
ENDBRANCH   8  18
ENDBRANCH   6   7
ENDBRANCH   5   6
ENDBRANCH   3   5
ENDBRANCH   2   3
ENDBRANCH   1   2
BRANCH   1  26
ATOM     26  C   UNL     1      -8.693  -5.155  -0.562  1.00  0.00     0.275 C 
BRANCH  26  27
ATOM     27  O   UNL     1      -9.275  -4.466  -1.684  1.00  0.00    -0.458 OA
BRANCH  27  28
ATOM     28  C   UNL     1      -9.446  -3.140  -1.495  1.00  0.00     0.338 C 
ATOM     29  O   UNL     1      -9.170  -2.485  -0.501  1.00  0.00    -0.246 OA
BRANCH  28  30
ATOM     30  C   UNL     1     -10.099  -2.495  -2.633  1.00  0.00     0.060 A 
ATOM     31  C   UNL     1      -9.467  -2.341  -3.871  1.00  0.00     0.016 A 
ATOM     32  C   UNL     1     -11.297  -1.842  -2.351  1.00  0.00     0.016 A 
ATOM     33  C   UNL     1     -10.039  -1.498  -4.830  1.00  0.00     0.010 A 
ATOM     34  C   UNL     1     -11.860  -1.010  -3.305  1.00  0.00     0.010 A 
ATOM     35  C   UNL     1     -11.240  -0.829  -4.550  1.00  0.00    -0.014 A 
BRANCH  35  36
ATOM     36  C   UNL     1     -11.901  -0.009  -5.589  1.00  0.00     0.031 A 
ATOM     37  C   UNL     1     -13.324  -0.387  -5.834  1.00  0.00     0.074 A 
ATOM     38  C   UNL     1     -11.534   1.260  -5.873  1.00  0.00     0.049 A 
ATOM     39  N   UNL     1     -14.268  -0.035  -5.012  1.00  0.00    -0.248 NA
ATOM     40  C   UNL     1     -13.737  -1.384  -6.817  1.00  0.00     0.031 C 
ATOM     41  C   UNL     1     -10.711   2.096  -4.991  1.00  0.00     0.029 A 
ATOM     42  N   UNL     1     -11.988   2.133  -6.839  1.00  0.00    -0.354 N 
ATOM     43  C   UNL     1     -15.368  -0.813  -5.293  1.00  0.00     0.074 A 
ATOM     44  C   UNL     1     -15.012  -1.603  -6.452  1.00  0.00     0.031 C 
ATOM     45  C   UNL     1     -10.874   3.388  -5.345  1.00  0.00     0.029 A 
ATOM     46  C   UNL     1     -11.679   3.467  -6.564  1.00  0.00     0.049 A 
ATOM     47  H   UNL     1     -12.480   1.845  -7.642  1.00  0.00     0.167 HD
ATOM     48  C   UNL     1     -16.487  -0.791  -4.525  1.00  0.00     0.037 A 
ATOM     49  C   UNL     1     -12.450   4.547  -6.874  1.00  0.00     0.037 A 
ATOM     50  C   UNL     1     -16.443   0.062  -3.374  1.00  0.00     0.049 A 
ATOM     51  C   UNL     1     -13.708   4.278  -6.087  1.00  0.00     0.074 A 
ATOM     52  C   UNL     1     -16.108  -0.065  -2.042  1.00  0.00     0.029 A 
ATOM     53  N   UNL     1     -16.694   1.403  -3.546  1.00  0.00    -0.354 N 
ATOM     54  N   UNL     1     -13.894   4.510  -4.815  1.00  0.00    -0.248 NA
ATOM     55  C   UNL     1     -14.718   3.419  -6.709  1.00  0.00     0.031 C 
ATOM     56  C   UNL     1     -15.734   1.247  -1.613  1.00  0.00     0.029 A 
ATOM     57  C   UNL     1     -15.819   2.077  -2.729  1.00  0.00     0.049 A 
ATOM     58  H   UNL     1     -17.370   1.803  -4.139  1.00  0.00     0.167 HD
ATOM     59  C   UNL     1     -14.891   3.616  -4.421  1.00  0.00     0.074 A 
ATOM     60  C   UNL     1     -15.373   2.994  -5.638  1.00  0.00     0.031 C 
ATOM     61  C   UNL     1     -15.151   3.298  -3.121  1.00  0.00     0.037 A 
BRANCH  48  62
ATOM     62  C   UNL     1     -17.741  -1.470  -4.883  1.00  0.00     0.058 A 
ATOM     63  C   UNL     1     -18.720  -0.724  -5.555  1.00  0.00     0.135 A 
ATOM     64  C   UNL     1     -18.076  -2.740  -4.406  1.00  0.00     0.135 A 
ATOM     65  F   UNL     1     -18.430   0.509  -6.006  1.00  0.00    -0.206 F 
ATOM     66  C   UNL     1     -20.011  -1.200  -5.710  1.00  0.00     0.059 A 
ATOM     67  C   UNL     1     -19.366  -3.243  -4.554  1.00  0.00     0.059 A 
ATOM     68  F   UNL     1     -17.167  -3.481  -3.752  1.00  0.00    -0.206 F 
ATOM     69  C   UNL     1     -20.331  -2.453  -5.185  1.00  0.00     0.060 A 
BRANCH  69  70
ATOM     70  S   UNL     1     -22.048  -2.997  -5.297  1.00  0.00     0.124 S 
ATOM     71  O   UNL     1     -22.735  -1.981  -4.506  1.00  0.00    -0.237 OA
ATOM     72  O   UNL     1     -22.284  -2.950  -6.736  1.00  0.00    -0.237 OA
ATOM     73  O   UNL     1     -22.019  -4.334  -4.712  1.00  0.00    -0.744 OA
ENDBRANCH  69  70
ENDBRANCH  48  62
BRANCH  49  74
ATOM     74  C   UNL     1     -12.501   4.962  -8.318  1.00  0.00     0.058 A 
ATOM     75  C   UNL     1     -11.318   4.978  -9.084  1.00  0.00     0.135 A 
ATOM     76  C   UNL     1     -13.667   5.383  -8.983  1.00  0.00     0.135 A 
ATOM     77  F   UNL     1     -10.131   4.724  -8.509  1.00  0.00    -0.206 F 
ATOM     78  C   UNL     1     -11.315   5.248 -10.452  1.00  0.00     0.059 A 
ATOM     79  C   UNL     1     -13.697   5.633 -10.356  1.00  0.00     0.059 A 
ATOM     80  F   UNL     1     -14.819   5.547  -8.318  1.00  0.00    -0.206 F 
ATOM     81  C   UNL     1     -12.519   5.536 -11.088  1.00  0.00     0.060 A 
BRANCH  81  82
ATOM     82  S   UNL     1     -12.526   5.721 -12.883  1.00  0.00     0.124 S 
ATOM     83  O   UNL     1     -11.798   6.972 -13.060  1.00  0.00    -0.237 OA
ATOM     84  O   UNL     1     -11.827   4.513 -13.313  1.00  0.00    -0.237 OA
ATOM     85  O   UNL     1     -13.947   5.764 -13.213  1.00  0.00    -0.744 OA
ENDBRANCH  81  82
ENDBRANCH  49  74
BRANCH  61  86
ATOM     86  C   UNL     1     -14.495   4.146  -2.085  1.00  0.00     0.058 A 
ATOM     87  C   UNL     1     -15.015   5.415  -1.795  1.00  0.00     0.135 A 
ATOM     88  C   UNL     1     -13.424   3.680  -1.308  1.00  0.00     0.135 A 
ATOM     89  F   UNL     1     -16.044   5.904  -2.506  1.00  0.00    -0.206 F 
ATOM     90  C   UNL     1     -14.526   6.174  -0.736  1.00  0.00     0.059 A 
ATOM     91  C   UNL     1     -12.930   4.415  -0.233  1.00  0.00     0.059 A 
ATOM     92  F   UNL     1     -12.877   2.477  -1.549  1.00  0.00    -0.206 F 
ATOM     93  C   UNL     1     -13.499   5.656   0.054  1.00  0.00     0.060 A 
BRANCH  93  94
ATOM     94  S   UNL     1     -12.988   6.587   1.514  1.00  0.00     0.124 S 
ATOM     95  O   UNL     1     -12.351   7.760   0.924  1.00  0.00    -0.237 OA
ATOM     96  O   UNL     1     -14.261   6.830   2.187  1.00  0.00    -0.237 OA
ATOM     97  O   UNL     1     -12.088   5.671   2.211  1.00  0.00    -0.744 OA
ENDBRANCH  93  94
ENDBRANCH  61  86
ENDBRANCH  35  36
ENDBRANCH  28  30
ENDBRANCH  27  28
ENDBRANCH  26  27
ENDBRANCH   1  26
TORSDOF 17
