REMARK SMILES NS(=O)(=O)c1ccc(-n2nc(C(=O)OCCOC(=O)c3ccc(-c4c5nc(c(-c6c(F)cc(S(=O)(=O)[O-])cc6F)c6ccc([nH]6)c(-c6c(F)cc(S(=O)(=O)[O-])cc6F)c6nc(c(-c7c(F)cc(S(=O)(=O)[O-])cc7F)c7ccc4[nH]7)C=C6)C=C5)cc3)c(Cl)c2-c2ccc(Cl)cc2)cc1
REMARK SMILES IDX 15 1 14 2 12 3 13 4 11 5 9 6 10 7 88 8 86 9 87 10 8 11 5 12
REMARK SMILES IDX 6 13 97 14 7 15 96 16 2 17 3 18 4 19 1 20 89 23 90 24 95 25
REMARK SMILES IDX 91 26 94 27 92 28 93 29 16 30 17 31 18 32 19 33 20 34 21 35
REMARK SMILES IDX 85 36 22 37 84 38 23 39 24 40 25 41 78 42 26 43 83 44 77 45
REMARK SMILES IDX 79 46 27 47 82 48 76 49 75 50 28 52 62 53 41 54 61 55 42 56
REMARK SMILES IDX 45 57 60 58 80 59 43 60 44 61 59 63 81 64 46 65 29 66 30 67
REMARK SMILES IDX 39 68 31 69 32 70 38 71 40 72 33 73 34 74 35 75 36 76 37 77
REMARK SMILES IDX 63 78 64 79 73 80 65 81 66 82 72 83 74 84 67 85 68 86 69 87
REMARK SMILES IDX 70 88 71 89 47 90 48 91 57 92 49 93 50 94 56 95 58 96 51 97
REMARK SMILES IDX 52 98 53 99 54 100 55 101
REMARK H PARENT 1 21 1 22 79 51 45 62
REMARK Flexibility Score: inf
ROOT
ATOM      1  C   UNL     1       3.849 -12.284  -2.512  1.00  0.00     0.275 C 
ENDROOT
BRANCH   1   2
ATOM      2  O   UNL     1       3.936 -10.999  -1.883  1.00  0.00    -0.457 OA
BRANCH   2   3
ATOM      3  C   UNL     1       3.042 -10.017  -2.216  1.00  0.00     0.360 C 
ATOM      4  O   UNL     1       2.277 -10.095  -3.172  1.00  0.00    -0.244 OA
BRANCH   3   5
ATOM      5  C   UNL     1       3.130  -8.865  -1.298  1.00  0.00     0.190 A 
ATOM      6  N   UNL     1       2.749  -6.939  -0.416  1.00  0.00    -0.231 N 
ATOM      7  N   UNL     1       2.239  -7.842  -1.293  1.00  0.00    -0.159 NA
ATOM      8  C   UNL     1       3.929  -7.375   0.164  1.00  0.00     0.094 A 
ATOM      9  C   UNL     1       4.130  -8.650  -0.318  1.00  0.00     0.102 A 
ATOM     10  Cl  UNL     1       5.397  -9.695   0.157  1.00  0.00    -0.079 Cl
BRANCH   6  11
ATOM     11  C   UNL     1       2.153  -5.661  -0.244  1.00  0.00     0.065 A 
ATOM     12  C   UNL     1       1.151  -3.173   0.504  1.00  0.00     0.082 A 
ATOM     13  C   UNL     1       0.313  -4.296   0.536  1.00  0.00     0.024 A 
ATOM     14  C   UNL     1       2.460  -3.274   0.030  1.00  0.00     0.024 A 
ATOM     15  C   UNL     1       0.810  -5.548   0.139  1.00  0.00     0.030 A 
ATOM     16  C   UNL     1       2.963  -4.520  -0.335  1.00  0.00     0.030 A 
BRANCH  12  17
ATOM     17  S   UNL     1       0.586  -1.616   1.126  1.00  0.00     0.238 S 
ATOM     18  O   UNL     1       1.291  -1.344   2.368  1.00  0.00    -0.207 OA
ATOM     19  O   UNL     1      -0.838  -1.522   0.998  1.00  0.00    -0.207 OA
BRANCH  17  20
ATOM     20  N   UNL     1       1.204  -0.502   0.021  1.00  0.00    -0.225 NA
ATOM     21  H   UNL     1       0.928   0.440   0.297  1.00  0.00     0.137 HD
ATOM     22  H   UNL     1       0.835  -0.706  -0.908  1.00  0.00     0.137 HD
ENDBRANCH  17  20
ENDBRANCH  12  17
ENDBRANCH   6  11
BRANCH   8  23
ATOM     23  C   UNL     1       4.755  -6.667   1.138  1.00  0.00     0.002 A 
ATOM     24  C   UNL     1       6.115  -6.482   0.847  1.00  0.00     0.012 A 
ATOM     25  C   UNL     1       4.259  -6.288   2.389  1.00  0.00     0.012 A 
ATOM     26  C   UNL     1       6.983  -5.975   1.809  1.00  0.00     0.021 A 
ATOM     27  C   UNL     1       5.128  -5.763   3.350  1.00  0.00     0.021 A 
ATOM     28  C   UNL     1       6.487  -5.626   3.062  1.00  0.00     0.041 A 
ATOM     29  Cl  UNL     1       7.569  -5.048   4.266  1.00  0.00    -0.084 Cl
ENDBRANCH   8  23
ENDBRANCH   3   5
ENDBRANCH   2   3
ENDBRANCH   1   2
BRANCH   1  30
ATOM     30  C   UNL     1       2.899 -13.193  -1.753  1.00  0.00     0.275 C 
BRANCH  30  31
ATOM     31  O   UNL     1       1.554 -12.796  -1.993  1.00  0.00    -0.458 OA
BRANCH  31  32
ATOM     32  C   UNL     1       1.026 -11.959  -1.073  1.00  0.00     0.338 C 
ATOM     33  O   UNL     1       1.625 -11.320  -0.224  1.00  0.00    -0.246 OA
BRANCH  32  34
ATOM     34  C   UNL     1      -0.428 -12.093  -1.115  1.00  0.00     0.060 A 
ATOM     35  C   UNL     1      -1.189 -11.190  -0.369  1.00  0.00     0.016 A 
ATOM     36  C   UNL     1      -0.972 -13.267  -1.655  1.00  0.00     0.016 A 
ATOM     37  C   UNL     1      -2.473 -11.553  -0.023  1.00  0.00     0.010 A 
ATOM     38  C   UNL     1      -2.237 -13.638  -1.288  1.00  0.00     0.010 A 
ATOM     39  C   UNL     1      -2.944 -12.808  -0.423  1.00  0.00    -0.014 A 
BRANCH  39  40
ATOM     40  C   UNL     1      -4.286 -13.201  -0.060  1.00  0.00     0.031 A 
ATOM     41  C   UNL     1      -5.305 -12.465  -0.843  1.00  0.00     0.074 A 
ATOM     42  C   UNL     1      -4.520 -14.243   0.759  1.00  0.00     0.049 A 
ATOM     43  N   UNL     1      -6.146 -11.590  -0.404  1.00  0.00    -0.248 NA
ATOM     44  C   UNL     1      -5.234 -12.534  -2.316  1.00  0.00     0.031 C 
ATOM     45  C   UNL     1      -3.546 -15.169   1.344  1.00  0.00     0.029 A 
ATOM     46  N   UNL     1      -5.708 -14.770   1.152  1.00  0.00    -0.354 N 
ATOM     47  C   UNL     1      -6.891 -11.211  -1.514  1.00  0.00     0.074 A 
ATOM     48  C   UNL     1      -6.136 -11.618  -2.667  1.00  0.00     0.031 C 
ATOM     49  C   UNL     1      -4.194 -16.261   1.813  1.00  0.00     0.029 A 
ATOM     50  C   UNL     1      -5.625 -16.063   1.665  1.00  0.00     0.049 A 
ATOM     51  H   UNL     1      -6.559 -14.279   1.081  1.00  0.00     0.167 HD
ATOM     52  C   UNL     1      -8.204 -10.882  -1.386  1.00  0.00     0.037 A 
ATOM     53  C   UNL     1      -6.669 -16.915   1.849  1.00  0.00     0.037 A 
ATOM     54  C   UNL     1      -8.523 -10.569  -0.013  1.00  0.00     0.049 A 
ATOM     55  C   UNL     1      -7.904 -16.077   1.886  1.00  0.00     0.074 A 
ATOM     56  C   UNL     1      -8.032  -9.656   0.903  1.00  0.00     0.029 A 
ATOM     57  N   UNL     1      -9.182 -11.525   0.723  1.00  0.00    -0.354 N 
ATOM     58  N   UNL     1      -8.162 -15.221   2.840  1.00  0.00    -0.248 NA
ATOM     59  C   UNL     1      -8.579 -15.815   0.622  1.00  0.00     0.031 C 
ATOM     60  C   UNL     1      -7.997 -10.361   2.141  1.00  0.00     0.029 A 
ATOM     61  C   UNL     1      -8.549 -11.625   1.936  1.00  0.00     0.049 A 
ATOM     62  H   UNL     1      -9.966 -12.044   0.432  1.00  0.00     0.167 HD
ATOM     63  C   UNL     1      -8.653 -14.098   2.188  1.00  0.00     0.074 A 
ATOM     64  C   UNL     1      -8.951 -14.547   0.829  1.00  0.00     0.031 C 
ATOM     65  C   UNL     1      -8.488 -12.845   2.711  1.00  0.00     0.037 A 
BRANCH  52  66
ATOM     66  C   UNL     1      -9.258 -11.245  -2.404  1.00  0.00     0.058 A 
ATOM     67  C   UNL     1     -10.564 -10.743  -2.238  1.00  0.00     0.135 A 
ATOM     68  C   UNL     1      -9.121 -12.278  -3.362  1.00  0.00     0.135 A 
ATOM     69  F   UNL     1     -10.813  -9.768  -1.351  1.00  0.00    -0.206 F 
ATOM     70  C   UNL     1     -11.660 -11.279  -2.914  1.00  0.00     0.059 A 
ATOM     71  C   UNL     1     -10.190 -12.786  -4.087  1.00  0.00     0.059 A 
ATOM     72  F   UNL     1      -7.967 -12.918  -3.578  1.00  0.00    -0.206 F 
ATOM     73  C   UNL     1     -11.462 -12.311  -3.827  1.00  0.00     0.060 A 
BRANCH  73  74
ATOM     74  S   UNL     1     -12.881 -13.067  -4.632  1.00  0.00     0.124 S 
ATOM     75  O   UNL     1     -13.524 -13.744  -3.512  1.00  0.00    -0.237 OA
ATOM     76  O   UNL     1     -13.579 -11.902  -5.165  1.00  0.00    -0.237 OA
ATOM     77  O   UNL     1     -12.274 -13.939  -5.633  1.00  0.00    -0.744 OA
ENDBRANCH  73  74
ENDBRANCH  52  66
BRANCH  53  78
ATOM     78  C   UNL     1      -6.699 -18.387   1.605  1.00  0.00     0.058 A 
ATOM     79  C   UNL     1      -7.805 -19.173   1.984  1.00  0.00     0.135 A 
ATOM     80  C   UNL     1      -5.769 -19.013   0.749  1.00  0.00     0.135 A 
ATOM     81  F   UNL     1      -8.755 -18.661   2.781  1.00  0.00    -0.206 F 
ATOM     82  C   UNL     1      -8.001 -20.476   1.502  1.00  0.00     0.059 A 
ATOM     83  C   UNL     1      -5.937 -20.311   0.268  1.00  0.00     0.059 A 
ATOM     84  F   UNL     1      -4.706 -18.351   0.272  1.00  0.00    -0.206 F 
ATOM     85  C   UNL     1      -7.069 -21.029   0.624  1.00  0.00     0.060 A 
BRANCH  85  86
ATOM     86  S   UNL     1      -7.400 -22.629  -0.154  1.00  0.00     0.124 S 
ATOM     87  O   UNL     1      -7.250 -23.549   0.967  1.00  0.00    -0.237 OA
ATOM     88  O   UNL     1      -8.758 -22.453  -0.658  1.00  0.00    -0.237 OA
ATOM     89  O   UNL     1      -6.367 -22.726  -1.183  1.00  0.00    -0.744 OA
ENDBRANCH  85  86
ENDBRANCH  53  78
BRANCH  65  90
ATOM     90  C   UNL     1      -8.012 -12.719   4.137  1.00  0.00     0.058 A 
ATOM     91  C   UNL     1      -6.772 -13.184   4.616  1.00  0.00     0.135 A 
ATOM     92  C   UNL     1      -8.792 -11.962   5.024  1.00  0.00     0.135 A 
ATOM     93  F   UNL     1      -5.911 -13.813   3.805  1.00  0.00    -0.206 F 
ATOM     94  C   UNL     1      -6.358 -12.957   5.931  1.00  0.00     0.059 A 
ATOM     95  C   UNL     1      -8.384 -11.693   6.326  1.00  0.00     0.059 A 
ATOM     96  F   UNL     1      -9.954 -11.430   4.610  1.00  0.00    -0.206 F 
ATOM     97  C   UNL     1      -7.176 -12.213   6.781  1.00  0.00     0.060 A 
BRANCH  97  98
ATOM     98  S   UNL     1      -6.631 -11.888   8.472  1.00  0.00     0.124 S 
ATOM     99  O   UNL     1      -6.742 -13.206   9.087  1.00  0.00    -0.237 OA
ATOM    100  O   UNL     1      -5.271 -11.391   8.278  1.00  0.00    -0.237 OA
ATOM    101  O   UNL     1      -7.586 -10.893   8.953  1.00  0.00    -0.744 OA
ENDBRANCH  97  98
ENDBRANCH  65  90
ENDBRANCH  39  40
ENDBRANCH  32  34
ENDBRANCH  31  32
ENDBRANCH  30  31
ENDBRANCH   1  30
TORSDOF 18
