REMARK SMILES CCNC(=O)c1ccc(NC(=O)CC2(C(=O)OCCOC(=O)c3ccc(-c4c5nc(c(-c6c(F)cc(S(=O)(=O)[O-])cc6F)c6ccc([nH]6)c(-c6c(F)cc(S(=O)(=O)[O-])cc6F)c6nc(c(-c7c(F)cc(S(=O)(=O)[O-])cc7F)c7ccc4[nH]7)C=C6)C=C5)cc3)CCCC2)cc1
REMARK SMILES IDX 18 1 17 2 15 3 16 4 14 5 89 6 92 7 90 8 91 9 13 10 11 11
REMARK SMILES IDX 10 12 12 14 9 15 6 16 7 17 94 18 8 19 93 20 4 21 3 22 5 24
REMARK SMILES IDX 2 25 1 26 19 27 20 28 21 29 22 30 23 31 24 32 88 33 25 34
REMARK SMILES IDX 87 35 26 36 27 37 28 38 81 39 29 40 86 41 80 42 82 43 30 44
REMARK SMILES IDX 85 45 79 46 78 47 31 49 65 50 44 51 64 52 45 53 48 54 63 55
REMARK SMILES IDX 83 56 46 57 47 58 62 60 84 61 49 62 32 63 33 64 42 65 34 66
REMARK SMILES IDX 35 67 41 68 43 69 36 70 37 71 38 72 39 73 40 74 66 75 67 76
REMARK SMILES IDX 76 77 68 78 69 79 75 80 77 81 70 82 71 83 72 84 73 85 74 86
REMARK SMILES IDX 50 87 51 88 60 89 52 90 53 91 59 92 61 93 54 94 55 95 56 96
REMARK SMILES IDX 57 97 58 98
REMARK H PARENT 10 13 3 23 82 48 48 59
REMARK Flexibility Score: inf
ROOT
ATOM      1  C   UNL     1      -2.148  -2.287  -6.039  1.00  0.00     0.274 C 
ENDROOT
BRANCH   1   2
ATOM      2  O   UNL     1      -3.289  -1.397  -6.107  1.00  0.00    -0.462 OA
BRANCH   2   3
ATOM      3  C   UNL     1      -4.489  -1.966  -5.801  1.00  0.00     0.312 C 
ATOM      4  O   UNL     1      -4.620  -3.149  -5.500  1.00  0.00    -0.252 OA
BRANCH   3   5
ATOM      5  C   UNL     1      -5.693  -0.983  -5.810  1.00  0.00     0.077 C 
ATOM      6  C   UNL     1      -6.689  -1.576  -6.833  1.00  0.00     0.019 C 
ATOM      7  C   UNL     1      -5.466   0.415  -6.412  1.00  0.00     0.019 C 
ATOM      8  C   UNL     1      -6.119  -1.133  -8.176  1.00  0.00     0.001 C 
ATOM      9  C   UNL     1      -5.613   0.279  -7.928  1.00  0.00     0.001 C 
BRANCH   5  10
ATOM     10  C   UNL     1      -6.253  -0.980  -4.363  1.00  0.00     0.119 C 
BRANCH  10  11
ATOM     11  C   UNL     1      -6.669   0.293  -3.629  1.00  0.00     0.225 C 
ATOM     12  N   UNL     1      -5.836   1.087  -2.887  1.00  0.00    -0.326 N 
ATOM     13  H   UNL     1      -6.326   1.649  -2.243  1.00  0.00     0.169 HD
ATOM     14  O   UNL     1      -7.870   0.596  -3.618  1.00  0.00    -0.275 OA
BRANCH  12  15
ATOM     15  C   UNL     1      -4.444   1.291  -2.825  1.00  0.00     0.041 A 
ATOM     16  C   UNL     1      -1.687   1.935  -2.846  1.00  0.00     0.039 A 
ATOM     17  C   UNL     1      -2.216   1.043  -3.759  1.00  0.00     0.016 A 
ATOM     18  C   UNL     1      -2.539   2.545  -1.925  1.00  0.00     0.016 A 
ATOM     19  C   UNL     1      -3.559   0.686  -3.688  1.00  0.00     0.027 A 
ATOM     20  C   UNL     1      -3.917   2.234  -1.929  1.00  0.00     0.027 A 
BRANCH  16  21
ATOM     21  C   UNL     1      -0.229   2.160  -2.941  1.00  0.00     0.251 C 
ATOM     22  N   UNL     1       0.581   1.909  -1.867  1.00  0.00    -0.352 N 
ATOM     23  H   UNL     1       1.543   2.042  -2.025  1.00  0.00     0.163 HD
ATOM     24  O   UNL     1       0.260   2.484  -4.021  1.00  0.00    -0.269 OA
BRANCH  22  25
ATOM     25  C   UNL     1       0.226   1.474  -0.531  1.00  0.00     0.112 C 
ATOM     26  C   UNL     1       1.161   0.394  -0.019  1.00  0.00     0.027 C 
ENDBRANCH  22  25
ENDBRANCH  16  21
ENDBRANCH  12  15
ENDBRANCH  10  11
ENDBRANCH   5  10
ENDBRANCH   3   5
ENDBRANCH   2   3
ENDBRANCH   1   2
BRANCH   1  27
ATOM     27  C   UNL     1      -1.427  -2.275  -4.679  1.00  0.00     0.275 C 
BRANCH  27  28
ATOM     28  O   UNL     1      -2.366  -2.366  -3.599  1.00  0.00    -0.458 OA
BRANCH  28  29
ATOM     29  C   UNL     1      -1.901  -2.009  -2.368  1.00  0.00     0.338 C 
ATOM     30  O   UNL     1      -0.760  -1.701  -2.101  1.00  0.00    -0.246 OA
BRANCH  29  31
ATOM     31  C   UNL     1      -3.032  -1.967  -1.391  1.00  0.00     0.060 A 
ATOM     32  C   UNL     1      -4.300  -2.433  -1.736  1.00  0.00     0.016 A 
ATOM     33  C   UNL     1      -2.832  -1.445  -0.107  1.00  0.00     0.016 A 
ATOM     34  C   UNL     1      -5.368  -2.333  -0.844  1.00  0.00     0.010 A 
ATOM     35  C   UNL     1      -3.877  -1.453   0.832  1.00  0.00     0.010 A 
ATOM     36  C   UNL     1      -5.151  -1.926   0.480  1.00  0.00    -0.014 A 
BRANCH  36  37
ATOM     37  C   UNL     1      -6.183  -2.209   1.522  1.00  0.00     0.031 A 
ATOM     38  C   UNL     1      -6.770  -1.131   2.390  1.00  0.00     0.074 A 
ATOM     39  C   UNL     1      -6.540  -3.495   1.728  1.00  0.00     0.049 A 
ATOM     40  N   UNL     1      -7.530  -1.252   3.450  1.00  0.00    -0.248 NA
ATOM     41  C   UNL     1      -6.455   0.260   2.035  1.00  0.00     0.031 C 
ATOM     42  C   UNL     1      -6.043  -4.644   0.963  1.00  0.00     0.029 A 
ATOM     43  N   UNL     1      -7.395  -4.061   2.642  1.00  0.00    -0.354 N 
ATOM     44  C   UNL     1      -7.751   0.038   3.918  1.00  0.00     0.074 A 
ATOM     45  C   UNL     1      -7.047   0.930   3.018  1.00  0.00     0.031 C 
ATOM     46  C   UNL     1      -6.628  -5.763   1.407  1.00  0.00     0.029 A 
ATOM     47  C   UNL     1      -7.465  -5.432   2.550  1.00  0.00     0.049 A 
ATOM     48  H   UNL     1      -7.908  -3.537   3.298  1.00  0.00     0.167 HD
ATOM     49  C   UNL     1      -8.465   0.434   5.003  1.00  0.00     0.037 A 
ATOM     50  C   UNL     1      -8.088  -6.342   3.322  1.00  0.00     0.037 A 
ATOM     51  C   UNL     1      -9.190  -0.461   5.875  1.00  0.00     0.049 A 
ATOM     52  C   UNL     1      -8.858  -5.878   4.520  1.00  0.00     0.074 A 
ATOM     53  C   UNL     1      -9.971  -0.146   6.976  1.00  0.00     0.029 A 
ATOM     54  N   UNL     1      -9.230  -1.842   5.747  1.00  0.00    -0.354 N 
ATOM     55  N   UNL     1      -9.034  -4.656   4.958  1.00  0.00    -0.248 NA
ATOM     56  C   UNL     1      -9.496  -6.916   5.338  1.00  0.00     0.031 C 
ATOM     57  C   UNL     1     -10.450  -1.337   7.535  1.00  0.00     0.029 A 
ATOM     58  C   UNL     1     -10.005  -2.393   6.757  1.00  0.00     0.049 A 
ATOM     59  H   UNL     1      -8.774  -2.357   5.042  1.00  0.00     0.167 HD
ATOM     60  C   UNL     1      -9.818  -4.776   6.098  1.00  0.00     0.074 A 
ATOM     61  C   UNL     1     -10.092  -6.188   6.272  1.00  0.00     0.031 C 
ATOM     62  C   UNL     1     -10.268  -3.800   6.925  1.00  0.00     0.037 A 
BRANCH  49  63
ATOM     63  C   UNL     1      -8.473   1.901   5.342  1.00  0.00     0.058 A 
ATOM     64  C   UNL     1      -9.200   2.838   4.592  1.00  0.00     0.135 A 
ATOM     65  C   UNL     1      -7.780   2.368   6.473  1.00  0.00     0.135 A 
ATOM     66  F   UNL     1      -9.875   2.450   3.498  1.00  0.00    -0.206 F 
ATOM     67  C   UNL     1      -9.216   4.189   4.931  1.00  0.00     0.059 A 
ATOM     68  C   UNL     1      -7.800   3.710   6.844  1.00  0.00     0.059 A 
ATOM     69  F   UNL     1      -7.073   1.516   7.231  1.00  0.00    -0.206 F 
ATOM     70  C   UNL     1      -8.507   4.616   6.056  1.00  0.00     0.060 A 
BRANCH  70  71
ATOM     71  S   UNL     1      -8.518   6.373   6.476  1.00  0.00     0.124 S 
ATOM     72  O   UNL     1      -7.605   6.914   5.473  1.00  0.00    -0.237 OA
ATOM     73  O   UNL     1      -9.924   6.728   6.309  1.00  0.00    -0.237 OA
ATOM     74  O   UNL     1      -8.027   6.398   7.850  1.00  0.00    -0.744 OA
ENDBRANCH  70  71
ENDBRANCH  49  63
BRANCH  50  75
ATOM     75  C   UNL     1      -7.979  -7.785   2.987  1.00  0.00     0.058 A 
ATOM     76  C   UNL     1      -9.074  -8.483   2.462  1.00  0.00     0.135 A 
ATOM     77  C   UNL     1      -6.766  -8.477   3.132  1.00  0.00     0.135 A 
ATOM     78  F   UNL     1     -10.255  -7.864   2.311  1.00  0.00    -0.206 F 
ATOM     79  C   UNL     1      -8.974  -9.820   2.093  1.00  0.00     0.059 A 
ATOM     80  C   UNL     1      -6.633  -9.805   2.745  1.00  0.00     0.059 A 
ATOM     81  F   UNL     1      -5.683  -7.844   3.611  1.00  0.00    -0.206 F 
ATOM     82  C   UNL     1      -7.746 -10.471   2.232  1.00  0.00     0.060 A 
BRANCH  82  83
ATOM     83  S   UNL     1      -7.604 -12.184   1.682  1.00  0.00     0.124 S 
ATOM     84  O   UNL     1      -8.259 -12.897   2.772  1.00  0.00    -0.237 OA
ATOM     85  O   UNL     1      -8.321 -12.162   0.411  1.00  0.00    -0.237 OA
ATOM     86  O   UNL     1      -6.161 -12.381   1.574  1.00  0.00    -0.744 OA
ENDBRANCH  82  83
ENDBRANCH  50  75
BRANCH  62  87
ATOM     87  C   UNL     1     -11.133  -4.234   8.074  1.00  0.00     0.058 A 
ATOM     88  C   UNL     1     -10.595  -4.877   9.200  1.00  0.00     0.135 A 
ATOM     89  C   UNL     1     -12.517  -4.002   8.047  1.00  0.00     0.135 A 
ATOM     90  F   UNL     1      -9.279  -5.134   9.266  1.00  0.00    -0.206 F 
ATOM     91  C   UNL     1     -11.405  -5.301  10.248  1.00  0.00     0.059 A 
ATOM     92  C   UNL     1     -13.342  -4.397   9.095  1.00  0.00     0.059 A 
ATOM     93  F   UNL     1     -13.080  -3.387   6.995  1.00  0.00    -0.206 F 
ATOM     94  C   UNL     1     -12.779  -5.060  10.185  1.00  0.00     0.060 A 
BRANCH  94  95
ATOM     95  S   UNL     1     -13.821  -5.604  11.555  1.00  0.00     0.124 S 
ATOM     96  O   UNL     1     -13.920  -7.037  11.297  1.00  0.00    -0.237 OA
ATOM     97  O   UNL     1     -13.031  -5.224  12.722  1.00  0.00    -0.237 OA
ATOM     98  O   UNL     1     -15.053  -4.844  11.366  1.00  0.00    -0.744 OA
ENDBRANCH  94  95
ENDBRANCH  62  87
ENDBRANCH  36  37
ENDBRANCH  29  31
ENDBRANCH  28  29
ENDBRANCH  27  28
ENDBRANCH   1  27
TORSDOF 19
