REMARK SMILES CCC[N@@H+](CC1CC[NH2+]CC1)[C@@H](CC)C(=O)OCCOC(=O)c1ccc(-c2c3nc(c(-c4c(F)cc(S(=O)(=O)[O-])cc4F)c4ccc([nH]4)c(-c4c(F)cc(S(=O)(=O)[O-])cc4F)c4nc(c(-c5c(F)cc(S(=O)(=O)[O-])cc5F)c5ccc2[nH]5)C=C4)C=C3)cc1
REMARK SMILES IDX 18 1 17 2 15 3 16 4 12 5 4 6 3 8 2 9 1 10 5 11 6 12 7 13
REMARK SMILES IDX 11 14 8 15 10 16 9 17 13 20 14 21 19 22 20 23 21 24 22 25
REMARK SMILES IDX 23 26 24 27 88 28 25 29 87 30 26 31 27 32 28 33 81 34 29 35
REMARK SMILES IDX 86 36 80 37 82 38 30 39 85 40 79 41 78 42 31 44 65 45 44 46
REMARK SMILES IDX 64 47 45 48 48 49 63 50 83 51 46 52 47 53 62 55 84 56 49 57
REMARK SMILES IDX 32 58 33 59 42 60 34 61 35 62 41 63 43 64 36 65 37 66 38 67
REMARK SMILES IDX 39 68 40 69 66 70 67 71 76 72 68 73 69 74 75 75 77 76 70 77
REMARK SMILES IDX 71 78 72 79 73 80 74 81 50 82 51 83 60 84 52 85 53 86 59 87
REMARK SMILES IDX 61 88 54 89 55 90 56 91 57 92 58 93
REMARK H PARENT 4 7 9 18 9 19 82 43 48 54
REMARK Flexibility Score: inf
ROOT
ATOM      1  C   UNL     1      -0.605  -0.984  -1.705  1.00  0.00     0.274 C 
ENDROOT
BRANCH   1   2
ATOM      2  O   UNL     1       0.148  -0.304  -0.681  1.00  0.00    -0.458 OA
BRANCH   2   3
ATOM      3  C   UNL     1       0.613   0.933  -0.962  1.00  0.00     0.365 C 
ATOM      4  O   UNL     1       0.365   1.525  -2.011  1.00  0.00    -0.245 OA
BRANCH   3   5
ATOM      5  C   UNL     1       1.641   1.471   0.049  1.00  0.00     0.294 C 
BRANCH   5   6
ATOM      6  N   UNL     1       1.223   1.553   1.465  1.00  0.00    -0.323 N 
ATOM      7  H   UNL     1       0.362   1.188   1.057  1.00  0.00     0.348 HD
BRANCH   6   8
ATOM      8  C   UNL     1       1.191   0.455   2.429  1.00  0.00     0.262 C 
BRANCH   8   9
ATOM      9  C   UNL     1       0.263  -0.757   2.218  1.00  0.00     0.058 C 
ATOM     10  C   UNL     1       0.911  -1.984   1.597  1.00  0.00     0.010 C 
ENDBRANCH   8   9
ENDBRANCH   6   8
BRANCH   6  11
ATOM     11  C   UNL     1       1.199   2.900   2.077  1.00  0.00     0.266 C 
BRANCH  11  12
ATOM     12  C   UNL     1       2.432   3.634   2.705  1.00  0.00     0.055 C 
ATOM     13  C   UNL     1       3.149   4.639   1.789  1.00  0.00     0.071 C 
ATOM     14  C   UNL     1       3.472   2.800   3.456  1.00  0.00     0.071 C 
ATOM     15  C   UNL     1       4.245   4.041   0.926  1.00  0.00     0.261 C 
ATOM     16  C   UNL     1       4.543   2.207   2.553  1.00  0.00     0.261 C 
ATOM     17  N   UNL     1       5.170   3.177   1.658  1.00  0.00    -0.346 N 
ATOM     18  H   UNL     1       5.781   3.772   2.218  1.00  0.00     0.346 HD
ATOM     19  H   UNL     1       5.664   2.631   0.953  1.00  0.00     0.346 HD
ENDBRANCH  11  12
ENDBRANCH   6  11
ENDBRANCH   5   6
BRANCH   5  20
ATOM     20  C   UNL     1       3.028   0.954  -0.378  1.00  0.00     0.074 C 
ATOM     21  C   UNL     1       3.454  -0.452  -0.029  1.00  0.00     0.011 C 
ENDBRANCH   5  20
ENDBRANCH   3   5
ENDBRANCH   2   3
ENDBRANCH   1   2
BRANCH   1  22
ATOM     22  C   UNL     1      -2.105  -0.962  -1.415  1.00  0.00     0.275 C 
BRANCH  22  23
ATOM     23  O   UNL     1      -2.643   0.339  -1.681  1.00  0.00    -0.458 OA
BRANCH  23  24
ATOM     24  C   UNL     1      -2.605   1.210  -0.640  1.00  0.00     0.338 C 
ATOM     25  O   UNL     1      -2.346   0.971   0.519  1.00  0.00    -0.246 OA
BRANCH  24  26
ATOM     26  C   UNL     1      -2.763   2.563  -1.194  1.00  0.00     0.060 A 
ATOM     27  C   UNL     1      -1.786   3.521  -0.902  1.00  0.00     0.016 A 
ATOM     28  C   UNL     1      -3.838   2.864  -2.029  1.00  0.00     0.016 A 
ATOM     29  C   UNL     1      -1.859   4.785  -1.479  1.00  0.00     0.010 A 
ATOM     30  C   UNL     1      -3.919   4.131  -2.594  1.00  0.00     0.010 A 
ATOM     31  C   UNL     1      -2.929   5.093  -2.325  1.00  0.00    -0.014 A 
BRANCH  31  32
ATOM     32  C   UNL     1      -3.081   6.443  -2.902  1.00  0.00     0.031 A 
ATOM     33  C   UNL     1      -4.123   7.352  -2.330  1.00  0.00     0.074 A 
ATOM     34  C   UNL     1      -2.346   6.802  -3.969  1.00  0.00     0.049 A 
ATOM     35  N   UNL     1      -4.579   8.483  -2.794  1.00  0.00    -0.248 NA
ATOM     36  C   UNL     1      -4.748   6.916  -1.070  1.00  0.00     0.031 C 
ATOM     37  C   UNL     1      -1.281   5.998  -4.570  1.00  0.00     0.029 A 
ATOM     38  N   UNL     1      -2.408   7.923  -4.755  1.00  0.00    -0.354 N 
ATOM     39  C   UNL     1      -5.561   8.886  -1.899  1.00  0.00     0.074 A 
ATOM     40  C   UNL     1      -5.649   7.868  -0.874  1.00  0.00     0.031 C 
ATOM     41  C   UNL     1      -0.806   6.642  -5.650  1.00  0.00     0.029 A 
ATOM     42  C   UNL     1      -1.570   7.871  -5.844  1.00  0.00     0.049 A 
ATOM     43  H   UNL     1      -2.995   8.688  -4.560  1.00  0.00     0.167 HD
ATOM     44  C   UNL     1      -6.318  10.007  -1.938  1.00  0.00     0.037 A 
ATOM     45  C   UNL     1      -1.471   8.702  -6.901  1.00  0.00     0.037 A 
ATOM     46  C   UNL     1      -6.213  10.999  -2.976  1.00  0.00     0.049 A 
ATOM     47  C   UNL     1      -2.382   9.900  -6.966  1.00  0.00     0.074 A 
ATOM     48  C   UNL     1      -6.910  12.186  -3.106  1.00  0.00     0.029 A 
ATOM     49  N   UNL     1      -5.363  10.910  -4.071  1.00  0.00    -0.354 N 
ATOM     50  N   UNL     1      -3.293  10.291  -6.105  1.00  0.00    -0.248 NA
ATOM     51  C   UNL     1      -2.264  10.762  -8.149  1.00  0.00     0.031 C 
ATOM     52  C   UNL     1      -6.524  12.786  -4.309  1.00  0.00     0.029 A 
ATOM     53  C   UNL     1      -5.544  12.003  -4.902  1.00  0.00     0.049 A 
ATOM     54  H   UNL     1      -4.725  10.178  -4.232  1.00  0.00     0.167 HD
ATOM     55  C   UNL     1      -3.846  11.452  -6.635  1.00  0.00     0.074 A 
ATOM     56  C   UNL     1      -3.152  11.710  -7.880  1.00  0.00     0.031 C 
ATOM     57  C   UNL     1      -4.841  12.232  -6.141  1.00  0.00     0.037 A 
BRANCH  44  58
ATOM     58  C   UNL     1      -7.343  10.194  -0.854  1.00  0.00     0.058 A 
ATOM     59  C   UNL     1      -6.978  10.462   0.475  1.00  0.00     0.135 A 
ATOM     60  C   UNL     1      -8.714  10.119  -1.151  1.00  0.00     0.135 A 
ATOM     61  F   UNL     1      -5.682  10.524   0.822  1.00  0.00    -0.206 F 
ATOM     62  C   UNL     1      -7.933  10.621   1.475  1.00  0.00     0.059 A 
ATOM     63  C   UNL     1      -9.687  10.304  -0.173  1.00  0.00     0.059 A 
ATOM     64  F   UNL     1      -9.121   9.858  -2.404  1.00  0.00    -0.206 F 
ATOM     65  C   UNL     1      -9.285  10.541   1.140  1.00  0.00     0.060 A 
BRANCH  65  66
ATOM     66  S   UNL     1     -10.510  10.751   2.449  1.00  0.00     0.124 S 
ATOM     67  O   UNL     1     -10.342   9.515   3.208  1.00  0.00    -0.237 OA
ATOM     68  O   UNL     1     -10.050  11.968   3.112  1.00  0.00    -0.237 OA
ATOM     69  O   UNL     1     -11.770  10.874   1.722  1.00  0.00    -0.744 OA
ENDBRANCH  65  66
ENDBRANCH  44  58
BRANCH  45  70
ATOM     70  C   UNL     1      -0.499   8.411  -7.989  1.00  0.00     0.058 A 
ATOM     71  C   UNL     1       0.618   9.234  -8.195  1.00  0.00     0.135 A 
ATOM     72  C   UNL     1      -0.653   7.299  -8.832  1.00  0.00     0.135 A 
ATOM     73  F   UNL     1       0.804  10.317  -7.425  1.00  0.00    -0.206 F 
ATOM     74  C   UNL     1       1.542   8.971  -9.201  1.00  0.00     0.059 A 
ATOM     75  C   UNL     1       0.273   6.998  -9.827  1.00  0.00     0.059 A 
ATOM     76  F   UNL     1      -1.700   6.474  -8.674  1.00  0.00    -0.206 F 
ATOM     77  C   UNL     1       1.364   7.846 -10.009  1.00  0.00     0.060 A 
BRANCH  77  78
ATOM     78  S   UNL     1       2.603   7.485 -11.273  1.00  0.00     0.124 S 
ATOM     79  O   UNL     1       2.354   8.547 -12.241  1.00  0.00    -0.237 OA
ATOM     80  O   UNL     1       3.848   7.588 -10.519  1.00  0.00    -0.237 OA
ATOM     81  O   UNL     1       2.254   6.137 -11.712  1.00  0.00    -0.744 OA
ENDBRANCH  77  78
ENDBRANCH  45  70
BRANCH  57  82
ATOM     82  C   UNL     1      -5.232  13.442  -6.944  1.00  0.00     0.058 A 
ATOM     83  C   UNL     1      -5.953  13.324  -8.143  1.00  0.00     0.135 A 
ATOM     84  C   UNL     1      -4.947  14.734  -6.473  1.00  0.00     0.135 A 
ATOM     85  F   UNL     1      -6.242  12.112  -8.642  1.00  0.00    -0.206 F 
ATOM     86  C   UNL     1      -6.366  14.445  -8.854  1.00  0.00     0.059 A 
ATOM     87  C   UNL     1      -5.377  15.869  -7.152  1.00  0.00     0.059 A 
ATOM     88  F   UNL     1      -4.269  14.902  -5.327  1.00  0.00    -0.206 F 
ATOM     89  C   UNL     1      -6.080  15.714  -8.346  1.00  0.00     0.060 A 
BRANCH  89  90
ATOM     90  S   UNL     1      -6.672  17.158  -9.252  1.00  0.00     0.124 S 
ATOM     91  O   UNL     1      -5.802  17.149 -10.424  1.00  0.00    -0.237 OA
ATOM     92  O   UNL     1      -8.070  16.819  -9.498  1.00  0.00    -0.237 OA
ATOM     93  O   UNL     1      -6.455  18.259  -8.319  1.00  0.00    -0.744 OA
ENDBRANCH  89  90
ENDBRANCH  57  82
ENDBRANCH  31  32
ENDBRANCH  24  26
ENDBRANCH  23  24
ENDBRANCH  22  23
ENDBRANCH   1  22
TORSDOF 20
