REMARK SMILES O=C1NC[C@@H](CSc2ccnc(C(=O)OCCOC(=O)c3ccc(-c4c5nc(c(-c6c(F)cc(S(=O)(=O)[O-])cc6F)c6ccc([nH]6)c(-c6c(F)cc(S(=O)(=O)[O-])cc6F)c6nc(c(-c7c(F)cc(S(=O)(=O)[O-])cc7F)c7ccc4[nH]7)C=C6)C=C5)cc3)c2)O1
REMARK SMILES IDX 16 1 15 2 13 3 14 4 12 5 8 6 9 7 87 8 10 9 11 10 7 11 6 12
REMARK SMILES IDX 5 13 1 14 2 15 3 16 88 17 4 18 17 20 18 21 19 22 20 23 21 24
REMARK SMILES IDX 22 25 86 26 23 27 85 28 24 29 25 30 26 31 79 32 27 33 84 34
REMARK SMILES IDX 78 35 80 36 28 37 83 38 77 39 76 40 29 42 63 43 42 44 62 45
REMARK SMILES IDX 43 46 46 47 61 48 81 49 44 50 45 51 60 53 82 54 47 55 30 56
REMARK SMILES IDX 31 57 40 58 32 59 33 60 39 61 41 62 34 63 35 64 36 65 37 66
REMARK SMILES IDX 38 67 64 68 65 69 74 70 66 71 67 72 73 73 75 74 68 75 69 76
REMARK SMILES IDX 70 77 71 78 72 79 48 80 49 81 58 82 50 83 51 84 57 85 59 86
REMARK SMILES IDX 52 87 53 88 54 89 55 90 56 91
REMARK H PARENT 3 19 80 41 46 52
REMARK Flexibility Score: inf
ROOT
ATOM      1  C   UNL     1       3.572  -4.736  -6.519  1.00  0.00     0.275 C 
ENDROOT
BRANCH   1   2
ATOM      2  O   UNL     1       2.900  -3.811  -5.640  1.00  0.00    -0.457 OA
BRANCH   2   3
ATOM      3  C   UNL     1       1.855  -4.351  -4.955  1.00  0.00     0.357 C 
ATOM      4  O   UNL     1       1.419  -5.481  -5.127  1.00  0.00    -0.244 OA
BRANCH   3   5
ATOM      5  C   UNL     1       1.330  -3.431  -3.896  1.00  0.00     0.149 A 
ATOM      6  C   UNL     1       0.876  -1.301  -2.919  1.00  0.00     0.011 A 
ATOM      7  C   UNL     1       0.083  -1.950  -1.976  1.00  0.00     0.035 A 
ATOM      8  C   UNL     1       1.510  -2.053  -3.913  1.00  0.00     0.051 A 
ATOM      9  C   UNL     1       0.012  -3.324  -1.994  1.00  0.00     0.113 A 
ATOM     10  N   UNL     1       0.604  -4.067  -2.937  1.00  0.00    -0.249 NA
BRANCH   6  11
ATOM     11  S   UNL     1       0.904   0.480  -2.951  1.00  0.00    -0.122 SA
BRANCH  11  12
ATOM     12  C   UNL     1       2.020   0.909  -1.551  1.00  0.00     0.122 C 
BRANCH  12  13
ATOM     13  C   UNL     1       1.472   0.938  -0.114  1.00  0.00     0.208 C 
ATOM     14  O   UNL     1      -1.800   0.435   0.880  1.00  0.00    -0.225 OA
ATOM     15  C   UNL     1      -0.602   0.403   0.671  1.00  0.00     0.407 C 
ATOM     16  N   UNL     1       0.239  -0.588   1.085  1.00  0.00    -0.318 N 
ATOM     17  O   UNL     1       0.091   1.332  -0.047  1.00  0.00    -0.443 OA
ATOM     18  C   UNL     1       1.573  -0.366   0.655  1.00  0.00     0.165 C 
ATOM     19  H   UNL     1      -0.046  -1.364   1.620  1.00  0.00     0.167 HD
ENDBRANCH  12  13
ENDBRANCH  11  12
ENDBRANCH   6  11
ENDBRANCH   3   5
ENDBRANCH   2   3
ENDBRANCH   1   2
BRANCH   1  20
ATOM     20  C   UNL     1       4.804  -5.365  -5.857  1.00  0.00     0.275 C 
BRANCH  20  21
ATOM     21  O   UNL     1       4.471  -6.269  -4.786  1.00  0.00    -0.458 OA
BRANCH  21  22
ATOM     22  C   UNL     1       4.373  -5.702  -3.561  1.00  0.00     0.338 C 
ATOM     23  O   UNL     1       4.523  -4.522  -3.283  1.00  0.00    -0.246 OA
BRANCH  22  24
ATOM     24  C   UNL     1       3.986  -6.712  -2.563  1.00  0.00     0.060 A 
ATOM     25  C   UNL     1       2.756  -6.574  -1.919  1.00  0.00     0.016 A 
ATOM     26  C   UNL     1       4.873  -7.717  -2.177  1.00  0.00     0.016 A 
ATOM     27  C   UNL     1       2.416  -7.411  -0.860  1.00  0.00     0.010 A 
ATOM     28  C   UNL     1       4.518  -8.578  -1.132  1.00  0.00     0.010 A 
ATOM     29  C   UNL     1       3.296  -8.419  -0.451  1.00  0.00    -0.014 A 
BRANCH  29  30
ATOM     30  C   UNL     1       2.975  -9.278   0.719  1.00  0.00     0.031 A 
ATOM     31  C   UNL     1       3.822  -9.188   1.959  1.00  0.00     0.074 A 
ATOM     32  C   UNL     1       1.945 -10.145   0.665  1.00  0.00     0.049 A 
ATOM     33  N   UNL     1       3.844  -9.970   3.007  1.00  0.00    -0.248 NA
ATOM     34  C   UNL     1       4.778  -8.072   2.021  1.00  0.00     0.031 C 
ATOM     35  C   UNL     1       1.012 -10.281  -0.454  1.00  0.00     0.029 A 
ATOM     36  N   UNL     1       1.522 -11.088   1.568  1.00  0.00    -0.354 N 
ATOM     37  C   UNL     1       4.842  -9.467   3.834  1.00  0.00     0.074 A 
ATOM     38  C   UNL     1       5.409  -8.318   3.161  1.00  0.00     0.031 C 
ATOM     39  C   UNL     1       0.132 -11.256  -0.175  1.00  0.00     0.029 A 
ATOM     40  C   UNL     1       0.480 -11.859   1.108  1.00  0.00     0.049 A 
ATOM     41  H   UNL     1       1.926 -11.202   2.459  1.00  0.00     0.167 HD
ATOM     42  C   UNL     1       5.246  -9.926   5.043  1.00  0.00     0.037 A 
ATOM     43  C   UNL     1      -0.096 -12.957   1.635  1.00  0.00     0.037 A 
ATOM     44  C   UNL     1       4.656 -11.060   5.709  1.00  0.00     0.049 A 
ATOM     45  C   UNL     1       0.412 -13.491   2.948  1.00  0.00     0.074 A 
ATOM     46  C   UNL     1       4.988 -11.607   6.936  1.00  0.00     0.029 A 
ATOM     47  N   UNL     1       3.609 -11.818   5.204  1.00  0.00    -0.354 N 
ATOM     48  N   UNL     1       1.377 -13.028   3.707  1.00  0.00    -0.248 NA
ATOM     49  C   UNL     1      -0.239 -14.698   3.474  1.00  0.00     0.031 C 
ATOM     50  C   UNL     1       4.174 -12.723   7.151  1.00  0.00     0.029 A 
ATOM     51  C   UNL     1       3.292 -12.836   6.087  1.00  0.00     0.049 A 
ATOM     52  H   UNL     1       3.158 -11.656   4.344  1.00  0.00     0.167 HD
ATOM     53  C   UNL     1       1.423 -13.865   4.818  1.00  0.00     0.074 A 
ATOM     54  C   UNL     1       0.390 -14.863   4.630  1.00  0.00     0.031 C 
ATOM     55  C   UNL     1       2.241 -13.806   5.897  1.00  0.00     0.037 A 
BRANCH  42  56
ATOM     56  C   UNL     1       6.404  -9.229   5.707  1.00  0.00     0.058 A 
ATOM     57  C   UNL     1       6.290  -7.936   6.239  1.00  0.00     0.135 A 
ATOM     58  C   UNL     1       7.643  -9.880   5.835  1.00  0.00     0.135 A 
ATOM     59  F   UNL     1       5.135  -7.259   6.131  1.00  0.00    -0.206 F 
ATOM     60  C   UNL     1       7.370  -7.300   6.845  1.00  0.00     0.059 A 
ATOM     61  C   UNL     1       8.728  -9.275   6.463  1.00  0.00     0.059 A 
ATOM     62  F   UNL     1       7.810 -11.119   5.345  1.00  0.00    -0.206 F 
ATOM     63  C   UNL     1       8.586  -7.977   6.949  1.00  0.00     0.060 A 
BRANCH  63  64
ATOM     64  S   UNL     1       9.980  -7.133   7.726  1.00  0.00     0.124 S 
ATOM     65  O   UNL     1      10.329  -6.149   6.706  1.00  0.00    -0.237 OA
ATOM     66  O   UNL     1       9.381  -6.597   8.944  1.00  0.00    -0.237 OA
ATOM     67  O   UNL     1      10.956  -8.200   7.928  1.00  0.00    -0.744 OA
ENDBRANCH  63  64
ENDBRANCH  42  56
BRANCH  43  68
ATOM     68  C   UNL     1      -1.199 -13.640   0.906  1.00  0.00     0.058 A 
ATOM     69  C   UNL     1      -2.510 -13.630   1.403  1.00  0.00     0.135 A 
ATOM     70  C   UNL     1      -0.968 -14.305  -0.310  1.00  0.00     0.135 A 
ATOM     71  F   UNL     1      -2.781 -13.018   2.566  1.00  0.00    -0.206 F 
ATOM     72  C   UNL     1      -3.550 -14.264   0.730  1.00  0.00     0.059 A 
ATOM     73  C   UNL     1      -1.996 -14.921  -1.016  1.00  0.00     0.059 A 
ATOM     74  F   UNL     1       0.267 -14.337  -0.835  1.00  0.00    -0.206 F 
ATOM     75  C   UNL     1      -3.284 -14.904  -0.481  1.00  0.00     0.060 A 
BRANCH  75  76
ATOM     76  S   UNL     1      -4.650 -15.685  -1.367  1.00  0.00     0.124 S 
ATOM     77  O   UNL     1      -4.912 -16.852  -0.533  1.00  0.00    -0.237 OA
ATOM     78  O   UNL     1      -5.669 -14.640  -1.342  1.00  0.00    -0.237 OA
ATOM     79  O   UNL     1      -4.082 -15.964  -2.683  1.00  0.00    -0.744 OA
ENDBRANCH  75  76
ENDBRANCH  43  68
BRANCH  55  80
ATOM     80  C   UNL     1       2.016 -14.804   7.000  1.00  0.00     0.058 A 
ATOM     81  C   UNL     1       2.384 -16.151   6.873  1.00  0.00     0.135 A 
ATOM     82  C   UNL     1       1.495 -14.379   8.234  1.00  0.00     0.135 A 
ATOM     83  F   UNL     1       2.878 -16.611   5.712  1.00  0.00    -0.206 F 
ATOM     84  C   UNL     1       2.235 -17.046   7.928  1.00  0.00     0.059 A 
ATOM     85  C   UNL     1       1.363 -15.249   9.310  1.00  0.00     0.059 A 
ATOM     86  F   UNL     1       1.135 -13.097   8.410  1.00  0.00    -0.206 F 
ATOM     87  C   UNL     1       1.731 -16.583   9.146  1.00  0.00     0.060 A 
BRANCH  87  88
ATOM     88  S   UNL     1       1.601 -17.740  10.526  1.00  0.00     0.124 S 
ATOM     89  O   UNL     1       0.467 -18.561  10.117  1.00  0.00    -0.237 OA
ATOM     90  O   UNL     1       2.903 -18.399  10.503  1.00  0.00    -0.237 OA
ATOM     91  O   UNL     1       1.366 -16.872  11.677  1.00  0.00    -0.744 OA
ENDBRANCH  87  88
ENDBRANCH  55  80
ENDBRANCH  29  30
ENDBRANCH  22  24
ENDBRANCH  21  22
ENDBRANCH  20  21
ENDBRANCH   1  20
TORSDOF 17
