REMARK SMILES O=C(OCCOC(=O)c1ccc(-c2c3nc(c(-c4c(F)cc(S(=O)(=O)[O-])cc4F)c4ccc([nH]4)c(-c4c(F)cc(S(=O)(=O)[O-])cc4F)c4nc(c(-c5c(F)cc(S(=O)(=O)[O-])cc5F)c5ccc2[nH]5)C=C4)C=C3)cc1)c1ccc(NC(=O)[C@@H]2CC=CC[C@H]2C(=O)Nc2cccc([N+](=O)[O-])c2)cc1
REMARK SMILES IDX 4 1 3 2 2 3 1 4 75 5 76 6 101 7 77 8 100 9 78 10 79 11 80 12
REMARK SMILES IDX 81 14 82 15 83 16 87 17 84 18 86 19 85 20 88 21 89 22 90 23
REMARK SMILES IDX 91 25 92 26 99 27 93 28 95 29 94 30 96 31 97 32 98 33 5 34
REMARK SMILES IDX 6 35 7 36 8 37 9 38 10 39 74 40 11 41 73 42 12 43 13 44
REMARK SMILES IDX 14 45 67 46 15 47 72 48 66 49 68 50 16 51 71 52 65 53 64 54
REMARK SMILES IDX 17 56 51 57 30 58 50 59 31 60 34 61 49 62 69 63 32 64 33 65
REMARK SMILES IDX 48 67 70 68 35 69 18 70 19 71 28 72 20 73 21 74 27 75 29 76
REMARK SMILES IDX 22 77 23 78 24 79 25 80 26 81 52 82 53 83 62 84 54 85 55 86
REMARK SMILES IDX 61 87 63 88 56 89 57 90 58 91 59 92 60 93 36 94 37 95 46 96
REMARK SMILES IDX 38 97 39 98 45 99 47 100 40 101 41 102 42 103 43 104 44 105
REMARK H PARENT 79 13 90 24 68 55 34 66
REMARK Flexibility Score: inf
ROOT
ATOM      1  C   UNL     1       5.188   9.403   0.823  1.00  0.00     0.275 C 
ENDROOT
BRANCH   1   2
ATOM      2  O   UNL     1       6.416   9.773   1.485  1.00  0.00    -0.458 OA
BRANCH   2   3
ATOM      3  C   UNL     1       7.518   9.052   1.812  1.00  0.00     0.338 C 
ATOM      4  O   UNL     1       8.349   9.579   2.550  1.00  0.00    -0.246 OA
BRANCH   3   5
ATOM      5  C   UNL     1       7.841   7.686   1.275  1.00  0.00     0.060 A 
ATOM      6  C   UNL     1       7.075   6.993   0.356  1.00  0.00     0.018 A 
ATOM      7  C   UNL     1       9.071   7.098   1.623  1.00  0.00     0.018 A 
ATOM      8  C   UNL     1       7.556   5.849  -0.281  1.00  0.00     0.027 A 
ATOM      9  C   UNL     1       9.514   5.893   1.029  1.00  0.00     0.027 A 
ATOM     10  C   UNL     1       8.761   5.263   0.038  1.00  0.00     0.041 A 
BRANCH  10  11
ATOM     11  N   UNL     1       9.291   4.144  -0.634  1.00  0.00    -0.326 N 
ATOM     12  C   UNL     1       8.796   3.245  -1.547  1.00  0.00     0.228 C 
ATOM     13  H   UNL     1      10.229   3.965  -0.395  1.00  0.00     0.169 HD
ATOM     14  O   UNL     1       9.596   2.447  -2.046  1.00  0.00    -0.274 OA
BRANCH  12  15
ATOM     15  C   UNL     1       7.307   3.134  -1.897  1.00  0.00     0.095 C 
ATOM     16  C   UNL     1       6.851   1.685  -1.624  1.00  0.00     0.041 C 
ATOM     17  C   UNL     1       7.013   3.558  -3.362  1.00  0.00     0.095 C 
ATOM     18  C   UNL     1       5.456   1.423  -2.111  1.00  0.00    -0.030 C 
ATOM     19  C   UNL     1       5.851   2.848  -4.094  1.00  0.00     0.041 C 
ATOM     20  C   UNL     1       5.000   1.963  -3.246  1.00  0.00    -0.030 C 
BRANCH  17  21
ATOM     21  C   UNL     1       6.899   5.048  -3.672  1.00  0.00     0.228 C 
ATOM     22  O   UNL     1       7.843   5.599  -4.256  1.00  0.00    -0.274 OA
ATOM     23  N   UNL     1       5.810   5.847  -3.483  1.00  0.00    -0.326 N 
ATOM     24  H   UNL     1       5.861   6.650  -4.051  1.00  0.00     0.169 HD
BRANCH  23  25
ATOM     25  C   UNL     1       4.635   5.852  -2.710  1.00  0.00     0.048 A 
ATOM     26  C   UNL     1       3.739   6.909  -2.934  1.00  0.00     0.026 A 
ATOM     27  C   UNL     1       4.365   4.988  -1.659  1.00  0.00     0.111 A 
ATOM     28  C   UNL     1       2.631   7.119  -2.101  1.00  0.00     0.009 A 
ATOM     29  C   UNL     1       3.318   5.253  -0.763  1.00  0.00     0.271 A 
ATOM     30  C   UNL     1       2.435   6.310  -0.986  1.00  0.00     0.086 A 
BRANCH  29  31
ATOM     31  N   UNL     1       3.217   4.465   0.472  1.00  0.00     0.062 N 
ATOM     32  O   UNL     1       2.215   4.634   1.180  1.00  0.00    -0.258 OA
ATOM     33  O   UNL     1       4.157   3.708   0.750  1.00  0.00    -0.258 OA
ENDBRANCH  29  31
ENDBRANCH  23  25
ENDBRANCH  17  21
ENDBRANCH  12  15
ENDBRANCH  10  11
ENDBRANCH   3   5
ENDBRANCH   2   3
ENDBRANCH   1   2
BRANCH   1  34
ATOM     34  C   UNL     1       5.201   9.755  -0.673  1.00  0.00     0.275 C 
BRANCH  34  35
ATOM     35  O   UNL     1       6.369   9.238  -1.340  1.00  0.00    -0.458 OA
BRANCH  35  36
ATOM     36  C   UNL     1       7.368  10.135  -1.554  1.00  0.00     0.338 C 
ATOM     37  O   UNL     1       7.273  11.347  -1.444  1.00  0.00    -0.246 OA
BRANCH  36  38
ATOM     38  C   UNL     1       8.654   9.432  -1.800  1.00  0.00     0.060 A 
ATOM     39  C   UNL     1       9.828  10.000  -1.299  1.00  0.00     0.016 A 
ATOM     40  C   UNL     1       8.725   8.222  -2.492  1.00  0.00     0.016 A 
ATOM     41  C   UNL     1      11.064   9.375  -1.509  1.00  0.00     0.010 A 
ATOM     42  C   UNL     1       9.958   7.576  -2.668  1.00  0.00     0.010 A 
ATOM     43  C   UNL     1      11.147   8.160  -2.208  1.00  0.00    -0.014 A 
BRANCH  43  44
ATOM     44  C   UNL     1      12.472   7.543  -2.505  1.00  0.00     0.031 A 
ATOM     45  C   UNL     1      13.003   7.529  -3.917  1.00  0.00     0.074 A 
ATOM     46  C   UNL     1      13.214   6.990  -1.523  1.00  0.00     0.049 A 
ATOM     47  N   UNL     1      14.186   7.166  -4.349  1.00  0.00    -0.248 NA
ATOM     48  C   UNL     1      12.092   7.980  -4.979  1.00  0.00     0.031 C 
ATOM     49  C   UNL     1      12.818   6.893  -0.120  1.00  0.00     0.029 A 
ATOM     50  N   UNL     1      14.453   6.396  -1.556  1.00  0.00    -0.354 N 
ATOM     51  C   UNL     1      14.170   7.375  -5.724  1.00  0.00     0.074 A 
ATOM     52  C   UNL     1      12.838   7.824  -6.064  1.00  0.00     0.031 C 
ATOM     53  C   UNL     1      13.780   6.255   0.570  1.00  0.00     0.029 A 
ATOM     54  C   UNL     1      14.876   5.921  -0.337  1.00  0.00     0.049 A 
ATOM     55  H   UNL     1      14.989   6.317  -2.379  1.00  0.00     0.167 HD
ATOM     56  C   UNL     1      15.180   7.243  -6.618  1.00  0.00     0.037 A 
ATOM     57  C   UNL     1      16.024   5.310   0.021  1.00  0.00     0.037 A 
ATOM     58  C   UNL     1      16.503   6.783  -6.286  1.00  0.00     0.049 A 
ATOM     59  C   UNL     1      17.128   5.145  -0.993  1.00  0.00     0.074 A 
ATOM     60  C   UNL     1      17.612   6.686  -7.110  1.00  0.00     0.029 A 
ATOM     61  N   UNL     1      16.893   6.319  -5.039  1.00  0.00    -0.354 N 
ATOM     62  N   UNL     1      17.144   5.490  -2.258  1.00  0.00    -0.248 NA
ATOM     63  C   UNL     1      18.385   4.545  -0.520  1.00  0.00     0.031 C 
ATOM     64  C   UNL     1      18.657   6.116  -6.375  1.00  0.00     0.029 A 
ATOM     65  C   UNL     1      18.216   5.908  -5.078  1.00  0.00     0.049 A 
ATOM     66  H   UNL     1      16.315   6.287  -4.243  1.00  0.00     0.167 HD
ATOM     67  C   UNL     1      18.423   5.191  -2.719  1.00  0.00     0.074 A 
ATOM     68  C   UNL     1      19.153   4.639  -1.597  1.00  0.00     0.031 C 
ATOM     69  C   UNL     1      18.946   5.371  -3.957  1.00  0.00     0.037 A 
BRANCH  56  70
ATOM     70  C   UNL     1      14.902   7.629  -8.046  1.00  0.00     0.058 A 
ATOM     71  C   UNL     1      14.717   8.972  -8.415  1.00  0.00     0.135 A 
ATOM     72  C   UNL     1      14.880   6.663  -9.064  1.00  0.00     0.135 A 
ATOM     73  F   UNL     1      14.719   9.937  -7.482  1.00  0.00    -0.206 F 
ATOM     74  C   UNL     1      14.493   9.340  -9.737  1.00  0.00     0.059 A 
ATOM     75  C   UNL     1      14.685   7.011 -10.398  1.00  0.00     0.059 A 
ATOM     76  F   UNL     1      15.057   5.365  -8.769  1.00  0.00    -0.206 F 
ATOM     77  C   UNL     1      14.480   8.352 -10.723  1.00  0.00     0.060 A 
BRANCH  77  78
ATOM     78  S   UNL     1      14.204   8.851 -12.436  1.00  0.00     0.124 S 
ATOM     79  O   UNL     1      12.786   9.197 -12.414  1.00  0.00    -0.237 OA
ATOM     80  O   UNL     1      15.126   9.972 -12.587  1.00  0.00    -0.237 OA
ATOM     81  O   UNL     1      14.546   7.655 -13.199  1.00  0.00    -0.744 OA
ENDBRANCH  77  78
ENDBRANCH  56  70
BRANCH  57  82
ATOM     82  C   UNL     1      16.220   4.858   1.426  1.00  0.00     0.058 A 
ATOM     83  C   UNL     1      17.113   5.518   2.284  1.00  0.00     0.135 A 
ATOM     84  C   UNL     1      15.524   3.751   1.934  1.00  0.00     0.135 A 
ATOM     85  F   UNL     1      17.805   6.579   1.842  1.00  0.00    -0.206 F 
ATOM     86  C   UNL     1      17.328   5.083   3.587  1.00  0.00     0.059 A 
ATOM     87  C   UNL     1      15.707   3.309   3.242  1.00  0.00     0.059 A 
ATOM     88  F   UNL     1      14.643   3.096   1.161  1.00  0.00    -0.206 F 
ATOM     89  C   UNL     1      16.620   3.975   4.057  1.00  0.00     0.060 A 
BRANCH  89  90
ATOM     90  S   UNL     1      16.883   3.442   5.763  1.00  0.00     0.124 S 
ATOM     91  O   UNL     1      18.215   2.854   5.686  1.00  0.00    -0.237 OA
ATOM     92  O   UNL     1      16.780   4.700   6.496  1.00  0.00    -0.237 OA
ATOM     93  O   UNL     1      15.790   2.501   5.992  1.00  0.00    -0.744 OA
ENDBRANCH  89  90
ENDBRANCH  57  82
BRANCH  69  94
ATOM     94  C   UNL     1      20.392   5.011  -4.169  1.00  0.00     0.058 A 
ATOM     95  C   UNL     1      20.828   3.677  -4.207  1.00  0.00     0.135 A 
ATOM     96  C   UNL     1      21.347   6.016  -4.399  1.00  0.00     0.135 A 
ATOM     97  F   UNL     1      19.960   2.676  -3.989  1.00  0.00    -0.206 F 
ATOM     98  C   UNL     1      22.161   3.353  -4.442  1.00  0.00     0.059 A 
ATOM     99  C   UNL     1      22.680   5.714  -4.665  1.00  0.00     0.059 A 
ATOM    100  F   UNL     1      20.985   7.309  -4.385  1.00  0.00    -0.206 F 
ATOM    101  C   UNL     1      23.080   4.379  -4.673  1.00  0.00     0.060 A 
BRANCH 101 102
ATOM    102  S   UNL     1      24.799   3.943  -5.017  1.00  0.00     0.124 S 
ATOM    103  O   UNL     1      25.271   3.542  -3.696  1.00  0.00    -0.237 OA
ATOM    104  O   UNL     1      24.660   2.867  -5.994  1.00  0.00    -0.237 OA
ATOM    105  O   UNL     1      25.367   5.183  -5.537  1.00  0.00    -0.744 OA
ENDBRANCH 101 102
ENDBRANCH  69  94
ENDBRANCH  43  44
ENDBRANCH  36  38
ENDBRANCH  35  36
ENDBRANCH  34  35
ENDBRANCH   1  34
TORSDOF 19
