REMARK SMILES Cc1ccc(C(=O)OCCOC(=O)c2ccc(-c3c4nc(c(-c5c(F)cc(S(=O)(=O)[O-])cc5F)c5ccc([nH]5)c(-c5c(F)cc(S(=O)(=O)[O-])cc5F)c5nc(c(-c6c(F)cc(S(=O)(=O)[O-])cc6F)c6ccc3[nH]6)C=C5)C=C4)cc2)cc1S(=O)(=O)N(C)[C@H]1CCSC1
REMARK SMILES IDX 9 1 8 2 6 3 7 4 5 5 1 6 2 7 3 8 81 9 4 10 80 11 82 12 83 13
REMARK SMILES IDX 84 14 85 15 86 16 87 17 88 18 91 19 89 20 90 21 10 22 11 23
REMARK SMILES IDX 12 24 13 25 14 26 15 27 79 28 16 29 78 30 17 31 18 32 19 33
REMARK SMILES IDX 72 34 20 35 77 36 71 37 73 38 21 39 76 40 70 41 69 42 22 44
REMARK SMILES IDX 56 45 35 46 55 47 36 48 39 49 54 50 74 51 37 52 38 53 53 55
REMARK SMILES IDX 75 56 40 57 23 58 24 59 33 60 25 61 26 62 32 63 34 64 27 65
REMARK SMILES IDX 28 66 29 67 30 68 31 69 57 70 58 71 67 72 59 73 60 74 66 75
REMARK SMILES IDX 68 76 61 77 62 78 63 79 64 80 65 81 41 82 42 83 51 84 43 85
REMARK SMILES IDX 44 86 50 87 52 88 45 89 46 90 47 91 48 92 49 93
REMARK H PARENT 73 43 39 54
REMARK Flexibility Score: inf
ROOT
ATOM      1  C   UNL     1      -4.011   4.506  -4.331  1.00  0.00     0.275 C 
ENDROOT
BRANCH   1   2
ATOM      2  O   UNL     1      -2.816   3.753  -4.068  1.00  0.00    -0.458 OA
BRANCH   2   3
ATOM      3  C   UNL     1      -2.119   4.224  -3.011  1.00  0.00     0.338 C 
ATOM      4  O   UNL     1      -2.391   5.231  -2.370  1.00  0.00    -0.246 OA
BRANCH   3   5
ATOM      5  C   UNL     1      -0.878   3.471  -2.760  1.00  0.00     0.061 A 
ATOM      6  C   UNL     1       2.649   1.487  -1.265  1.00  0.00     0.046 C 
ATOM      7  C   UNL     1       1.535   2.278  -1.876  1.00  0.00    -0.031 A 
ATOM      8  C   UNL     1       0.384   1.511  -2.172  1.00  0.00     0.006 A 
ATOM      9  C   UNL     1       1.470   3.662  -2.118  1.00  0.00     0.086 A 
ATOM     10  C   UNL     1      -0.787   2.091  -2.667  1.00  0.00     0.016 A 
ATOM     11  C   UNL     1       0.249   4.241  -2.506  1.00  0.00     0.037 A 
BRANCH   9  12
ATOM     12  S   UNL     1       2.767   4.885  -2.092  1.00  0.00     0.243 S 
ATOM     13  O   UNL     1       3.208   5.024  -3.466  1.00  0.00    -0.207 OA
ATOM     14  O   UNL     1       2.240   6.026  -1.371  1.00  0.00    -0.207 OA
BRANCH  12  15
ATOM     15  N   UNL     1       4.052   4.303  -1.190  1.00  0.00    -0.197 NA
ATOM     16  C   UNL     1       5.193   3.754  -1.924  1.00  0.00     0.125 C 
BRANCH  15  17
ATOM     17  C   UNL     1       3.964   4.381   0.283  1.00  0.00     0.083 C 
ATOM     18  C   UNL     1       4.806   3.359   1.039  1.00  0.00     0.032 C 
ATOM     19  C   UNL     1       4.392   5.752   0.821  1.00  0.00     0.089 C 
ATOM     20  C   UNL     1       4.585   3.674   2.508  1.00  0.00     0.071 C 
ATOM     21  S   UNL     1       4.758   5.476   2.587  1.00  0.00    -0.160 SA
ENDBRANCH  15  17
ENDBRANCH  12  15
ENDBRANCH   9  12
ENDBRANCH   3   5
ENDBRANCH   2   3
ENDBRANCH   1   2
BRANCH   1  22
ATOM     22  C   UNL     1      -5.026   3.701  -5.163  1.00  0.00     0.275 C 
BRANCH  22  23
ATOM     23  O   UNL     1      -5.593   2.513  -4.570  1.00  0.00    -0.458 OA
BRANCH  23  24
ATOM     24  C   UNL     1      -4.724   1.700  -3.903  1.00  0.00     0.338 C 
ATOM     25  O   UNL     1      -3.854   1.052  -4.437  1.00  0.00    -0.246 OA
BRANCH  24  26
ATOM     26  C   UNL     1      -4.827   2.029  -2.451  1.00  0.00     0.060 A 
ATOM     27  C   UNL     1      -3.850   1.560  -1.565  1.00  0.00     0.016 A 
ATOM     28  C   UNL     1      -5.689   3.063  -2.072  1.00  0.00     0.016 A 
ATOM     29  C   UNL     1      -3.638   2.203  -0.352  1.00  0.00     0.010 A 
ATOM     30  C   UNL     1      -5.406   3.784  -0.946  1.00  0.00     0.010 A 
ATOM     31  C   UNL     1      -4.413   3.322  -0.070  1.00  0.00    -0.014 A 
BRANCH  31  32
ATOM     32  C   UNL     1      -4.609   3.825   1.274  1.00  0.00     0.031 A 
ATOM     33  C   UNL     1      -3.862   4.972   1.799  1.00  0.00     0.074 A 
ATOM     34  C   UNL     1      -5.738   3.282   1.780  1.00  0.00     0.049 A 
ATOM     35  N   UNL     1      -3.840   5.304   3.041  1.00  0.00    -0.248 NA
ATOM     36  C   UNL     1      -3.021   5.837   0.975  1.00  0.00     0.031 C 
ATOM     37  C   UNL     1      -6.644   3.718   2.820  1.00  0.00     0.029 A 
ATOM     38  N   UNL     1      -6.241   2.026   1.405  1.00  0.00    -0.354 N 
ATOM     39  C   UNL     1      -3.337   6.591   3.112  1.00  0.00     0.074 A 
ATOM     40  C   UNL     1      -2.694   6.806   1.840  1.00  0.00     0.031 C 
ATOM     41  C   UNL     1      -7.382   2.656   3.208  1.00  0.00     0.029 A 
ATOM     42  C   UNL     1      -6.853   1.477   2.522  1.00  0.00     0.049 A 
ATOM     43  H   UNL     1      -6.171   1.612   0.514  1.00  0.00     0.167 HD
ATOM     44  C   UNL     1      -3.734   7.382   4.154  1.00  0.00     0.037 A 
ATOM     45  C   UNL     1      -6.203   0.432   3.119  1.00  0.00     0.037 A 
ATOM     46  C   UNL     1      -4.597   6.597   5.041  1.00  0.00     0.049 A 
ATOM     47  C   UNL     1      -5.679   0.870   4.466  1.00  0.00     0.074 A 
ATOM     48  C   UNL     1      -5.977   6.481   5.091  1.00  0.00     0.029 A 
ATOM     49  N   UNL     1      -4.082   5.494   5.717  1.00  0.00    -0.354 N 
ATOM     50  N   UNL     1      -5.228   2.068   4.735  1.00  0.00    -0.248 NA
ATOM     51  C   UNL     1      -5.781   0.020   5.645  1.00  0.00     0.031 C 
ATOM     52  C   UNL     1      -6.287   5.242   5.706  1.00  0.00     0.029 A 
ATOM     53  C   UNL     1      -5.098   4.606   6.024  1.00  0.00     0.049 A 
ATOM     54  H   UNL     1      -3.132   5.365   5.943  1.00  0.00     0.167 HD
ATOM     55  C   UNL     1      -5.097   2.196   6.093  1.00  0.00     0.074 A 
ATOM     56  C   UNL     1      -5.415   0.875   6.614  1.00  0.00     0.031 C 
ATOM     57  C   UNL     1      -4.819   3.371   6.734  1.00  0.00     0.037 A 
BRANCH  44  58
ATOM     58  C   UNL     1      -3.687   8.905   4.178  1.00  0.00     0.058 A 
ATOM     59  C   UNL     1      -4.640   9.633   4.931  1.00  0.00     0.135 A 
ATOM     60  C   UNL     1      -2.782   9.713   3.460  1.00  0.00     0.135 A 
ATOM     61  F   UNL     1      -5.511   9.022   5.745  1.00  0.00    -0.206 F 
ATOM     62  C   UNL     1      -4.757  11.023   4.892  1.00  0.00     0.059 A 
ATOM     63  C   UNL     1      -2.893  11.111   3.385  1.00  0.00     0.059 A 
ATOM     64  F   UNL     1      -1.720   9.185   2.838  1.00  0.00    -0.206 F 
ATOM     65  C   UNL     1      -3.895  11.758   4.095  1.00  0.00     0.060 A 
BRANCH  65  66
ATOM     66  S   UNL     1      -4.091  13.550   4.048  1.00  0.00     0.124 S 
ATOM     67  O   UNL     1      -5.443  13.697   3.517  1.00  0.00    -0.237 OA
ATOM     68  O   UNL     1      -3.920  13.915   5.451  1.00  0.00    -0.237 OA
ATOM     69  O   UNL     1      -3.023  13.989   3.155  1.00  0.00    -0.744 OA
ENDBRANCH  65  66
ENDBRANCH  44  58
BRANCH  45  70
ATOM     70  C   UNL     1      -5.526  -0.510   2.156  1.00  0.00     0.058 A 
ATOM     71  C   UNL     1      -6.305  -1.089   1.126  1.00  0.00     0.135 A 
ATOM     72  C   UNL     1      -4.136  -0.650   2.031  1.00  0.00     0.135 A 
ATOM     73  F   UNL     1      -7.646  -1.004   1.173  1.00  0.00    -0.206 F 
ATOM     74  C   UNL     1      -5.745  -1.674  -0.010  1.00  0.00     0.059 A 
ATOM     75  C   UNL     1      -3.548  -1.251   0.904  1.00  0.00     0.059 A 
ATOM     76  F   UNL     1      -3.316  -0.138   2.960  1.00  0.00    -0.206 F 
ATOM     77  C   UNL     1      -4.360  -1.731  -0.126  1.00  0.00     0.060 A 
BRANCH  77  78
ATOM     78  S   UNL     1      -3.648  -2.259  -1.710  1.00  0.00     0.124 S 
ATOM     79  O   UNL     1      -3.681  -3.711  -1.590  1.00  0.00    -0.237 OA
ATOM     80  O   UNL     1      -4.585  -1.681  -2.669  1.00  0.00    -0.237 OA
ATOM     81  O   UNL     1      -2.320  -1.649  -1.695  1.00  0.00    -0.744 OA
ENDBRANCH  77  78
ENDBRANCH  45  70
BRANCH  57  82
ATOM     82  C   UNL     1      -4.382   3.475   8.169  1.00  0.00     0.058 A 
ATOM     83  C   UNL     1      -3.633   2.477   8.810  1.00  0.00     0.135 A 
ATOM     84  C   UNL     1      -4.559   4.680   8.893  1.00  0.00     0.135 A 
ATOM     85  F   UNL     1      -3.299   1.340   8.181  1.00  0.00    -0.206 F 
ATOM     86  C   UNL     1      -3.162   2.627  10.110  1.00  0.00     0.059 A 
ATOM     87  C   UNL     1      -4.036   4.876  10.163  1.00  0.00     0.059 A 
ATOM     88  F   UNL     1      -5.232   5.721   8.382  1.00  0.00    -0.206 F 
ATOM     89  C   UNL     1      -3.369   3.829  10.778  1.00  0.00     0.060 A 
BRANCH  89  90
ATOM     90  S   UNL     1      -2.731   4.035  12.445  1.00  0.00     0.124 S 
ATOM     91  O   UNL     1      -3.823   3.481  13.238  1.00  0.00    -0.237 OA
ATOM     92  O   UNL     1      -1.504   3.244  12.418  1.00  0.00    -0.237 OA
ATOM     93  O   UNL     1      -2.537   5.477  12.554  1.00  0.00    -0.744 OA
ENDBRANCH  89  90
ENDBRANCH  57  82
ENDBRANCH  31  32
ENDBRANCH  24  26
ENDBRANCH  23  24
ENDBRANCH  22  23
ENDBRANCH   1  22
TORSDOF 17
