REMARK SMILES [NH3+][C@H](CS[C@@H]1CC(=O)N(c2ccc3ccccc3c2)C1=O)C(=O)OCCOC(=O)c1ccc(-c2c3nc(c(-c4c(F)cc(S(=O)(=O)[O-])cc4F)c4ccc([nH]4)c(-c4c(F)cc(S(=O)(=O)[O-])cc4F)c4nc(c(-c5c(F)cc(S(=O)(=O)[O-])cc5F)c5ccc2[nH]5)C=C4)C=C3)cc1
REMARK SMILES IDX 25 1 24 2 22 3 23 4 2 5 1 6 3 10 4 11 5 12 6 13 20 14 7 15
REMARK SMILES IDX 9 16 21 17 8 18 10 19 11 20 19 21 12 22 18 23 13 24 17 25
REMARK SMILES IDX 14 26 16 27 15 28 26 29 27 30 28 31 29 32 30 33 31 34 95 35
REMARK SMILES IDX 32 36 94 37 33 38 34 39 35 40 88 41 36 42 93 43 87 44 89 45
REMARK SMILES IDX 37 46 92 47 86 48 85 49 38 51 72 52 51 53 71 54 52 55 55 56
REMARK SMILES IDX 70 57 90 58 53 59 54 60 69 62 91 63 56 64 39 65 40 66 49 67
REMARK SMILES IDX 41 68 42 69 48 70 50 71 43 72 44 73 45 74 46 75 47 76 73 77
REMARK SMILES IDX 74 78 83 79 75 80 76 81 82 82 84 83 77 84 78 85 79 86 80 87
REMARK SMILES IDX 81 88 57 89 58 90 67 91 59 92 60 93 66 94 68 95 61 96 62 97
REMARK SMILES IDX 63 98 64 99 65 100
REMARK H PARENT 1 7 1 8 1 9 89 50 55 61
REMARK Flexibility Score: inf
ROOT
ATOM      1  C   UNL     1      -3.174  -1.272  -1.885  1.00  0.00     0.274 C 
ENDROOT
BRANCH   1   2
ATOM      2  O   UNL     1      -1.895  -1.440  -1.220  1.00  0.00    -0.458 OA
BRANCH   2   3
ATOM      3  C   UNL     1      -0.820  -1.560  -2.049  1.00  0.00     0.365 C 
ATOM      4  O   UNL     1      -0.926  -1.731  -3.264  1.00  0.00    -0.245 OA
BRANCH   3   5
ATOM      5  C   UNL     1       0.568  -1.437  -1.367  1.00  0.00     0.301 C 
BRANCH   5   6
ATOM      6  N   UNL     1       1.281  -2.736  -1.458  1.00  0.00    -0.345 N 
ATOM      7  H   UNL     1       1.103  -3.158  -2.370  1.00  0.00     0.345 HD
ATOM      8  H   UNL     1       0.947  -3.360  -0.724  1.00  0.00     0.345 HD
ATOM      9  H   UNL     1       2.283  -2.583  -1.345  1.00  0.00     0.345 HD
ENDBRANCH   5   6
BRANCH   5  10
ATOM     10  C   UNL     1       0.797  -0.739   0.001  1.00  0.00     0.147 C 
BRANCH  10  11
ATOM     11  S   UNL     1       0.176  -1.439   1.601  1.00  0.00    -0.141 SA
BRANCH  11  12
ATOM     12  C   UNL     1      -1.285  -0.420   2.024  1.00  0.00     0.146 C 
ATOM     13  C   UNL     1      -1.600   0.697   1.090  1.00  0.00     0.125 C 
ATOM     14  C   UNL     1      -1.283   0.345   3.343  1.00  0.00     0.247 C 
ATOM     15  C   UNL     1      -2.538   1.536   1.855  1.00  0.00     0.235 C 
ATOM     16  N   UNL     1      -2.154   1.425   3.171  1.00  0.00    -0.250 N 
ATOM     17  O   UNL     1      -0.718  -0.013   4.366  1.00  0.00    -0.273 OA
ATOM     18  O   UNL     1      -3.366   2.244   1.306  1.00  0.00    -0.274 OA
BRANCH  16  19
ATOM     19  C   UNL     1      -2.511   2.415   4.125  1.00  0.00     0.052 A 
ATOM     20  C   UNL     1      -3.667   3.194   3.945  1.00  0.00     0.027 A 
ATOM     21  C   UNL     1      -1.649   2.747   5.174  1.00  0.00     0.035 A 
ATOM     22  C   UNL     1      -3.919   4.320   4.726  1.00  0.00     0.011 A 
ATOM     23  C   UNL     1      -1.869   3.902   5.948  1.00  0.00    -0.016 A 
ATOM     24  C   UNL     1      -3.010   4.703   5.711  1.00  0.00    -0.018 A 
ATOM     25  C   UNL     1      -0.945   4.314   6.919  1.00  0.00     0.009 A 
ATOM     26  C   UNL     1      -3.201   5.885   6.439  1.00  0.00     0.009 A 
ATOM     27  C   UNL     1      -1.139   5.501   7.628  1.00  0.00     0.001 A 
ATOM     28  C   UNL     1      -2.264   6.285   7.389  1.00  0.00     0.001 A 
ENDBRANCH  16  19
ENDBRANCH  11  12
ENDBRANCH  10  11
ENDBRANCH   5  10
ENDBRANCH   3   5
ENDBRANCH   2   3
ENDBRANCH   1   2
BRANCH   1  29
ATOM     29  C   UNL     1      -3.844   0.098  -1.635  1.00  0.00     0.275 C 
BRANCH  29  30
ATOM     30  O   UNL     1      -3.310   1.260  -2.316  1.00  0.00    -0.458 OA
BRANCH  30  31
ATOM     31  C   UNL     1      -2.021   1.591  -2.146  1.00  0.00     0.338 C 
ATOM     32  O   UNL     1      -1.133   0.936  -1.616  1.00  0.00    -0.246 OA
BRANCH  31  33
ATOM     33  C   UNL     1      -1.644   2.902  -2.644  1.00  0.00     0.060 A 
ATOM     34  C   UNL     1      -0.357   2.989  -3.198  1.00  0.00     0.016 A 
ATOM     35  C   UNL     1      -2.426   4.035  -2.426  1.00  0.00     0.016 A 
ATOM     36  C   UNL     1       0.146   4.217  -3.575  1.00  0.00     0.010 A 
ATOM     37  C   UNL     1      -1.933   5.267  -2.840  1.00  0.00     0.010 A 
ATOM     38  C   UNL     1      -0.663   5.349  -3.441  1.00  0.00    -0.014 A 
BRANCH  38  39
ATOM     39  C   UNL     1      -0.261   6.584  -4.127  1.00  0.00     0.031 A 
ATOM     40  C   UNL     1       0.249   7.755  -3.362  1.00  0.00     0.074 A 
ATOM     41  C   UNL     1      -0.432   6.602  -5.461  1.00  0.00     0.049 A 
ATOM     42  N   UNL     1       0.522   8.954  -3.796  1.00  0.00    -0.248 NA
ATOM     43  C   UNL     1       0.477   7.560  -1.923  1.00  0.00     0.031 C 
ATOM     44  C   UNL     1      -0.917   5.466  -6.257  1.00  0.00     0.029 A 
ATOM     45  N   UNL     1      -0.248   7.596  -6.378  1.00  0.00    -0.354 N 
ATOM     46  C   UNL     1       0.933   9.672  -2.682  1.00  0.00     0.074 A 
ATOM     47  C   UNL     1       0.871   8.771  -1.550  1.00  0.00     0.031 C 
ATOM     48  C   UNL     1      -1.015   5.837  -7.539  1.00  0.00     0.029 A 
ATOM     49  C   UNL     1      -0.655   7.243  -7.641  1.00  0.00     0.049 A 
ATOM     50  H   UNL     1       0.136   8.475  -6.156  1.00  0.00     0.167 HD
ATOM     51  C   UNL     1       1.311  10.971  -2.631  1.00  0.00     0.037 A 
ATOM     52  C   UNL     1      -0.773   7.992  -8.751  1.00  0.00     0.037 A 
ATOM     53  C   UNL     1       1.330  11.829  -3.790  1.00  0.00     0.049 A 
ATOM     54  C   UNL     1      -0.371   9.430  -8.665  1.00  0.00     0.074 A 
ATOM     55  C   UNL     1       1.702  13.157  -3.879  1.00  0.00     0.029 A 
ATOM     56  N   UNL     1       0.945  11.435  -5.068  1.00  0.00    -0.354 N 
ATOM     57  N   UNL     1       0.036  10.100  -7.612  1.00  0.00    -0.248 NA
ATOM     58  C   UNL     1      -0.431  10.212  -9.901  1.00  0.00     0.031 C 
ATOM     59  C   UNL     1       1.503  13.576  -5.200  1.00  0.00     0.029 A 
ATOM     60  C   UNL     1       1.052  12.498  -5.949  1.00  0.00     0.049 A 
ATOM     61  H   UNL     1       0.639  10.531  -5.311  1.00  0.00     0.167 HD
ATOM     62  C   UNL     1       0.302  11.384  -8.059  1.00  0.00     0.074 A 
ATOM     63  C   UNL     1       0.011  11.392  -9.482  1.00  0.00     0.031 C 
ATOM     64  C   UNL     1       0.750  12.457  -7.361  1.00  0.00     0.037 A 
BRANCH  51  65
ATOM     65  C   UNL     1       1.670  11.536  -1.284  1.00  0.00     0.058 A 
ATOM     66  C   UNL     1       2.840  11.157  -0.605  1.00  0.00     0.135 A 
ATOM     67  C   UNL     1       0.821  12.457  -0.649  1.00  0.00     0.135 A 
ATOM     68  F   UNL     1       3.683  10.268  -1.155  1.00  0.00    -0.206 F 
ATOM     69  C   UNL     1       3.133  11.636   0.670  1.00  0.00     0.059 A 
ATOM     70  C   UNL     1       1.105  12.968   0.615  1.00  0.00     0.059 A 
ATOM     71  F   UNL     1      -0.312  12.855  -1.249  1.00  0.00    -0.206 F 
ATOM     72  C   UNL     1       2.252  12.534   1.276  1.00  0.00     0.060 A 
BRANCH  72  73
ATOM     73  S   UNL     1       2.618  13.114   2.947  1.00  0.00     0.124 S 
ATOM     74  O   UNL     1       2.261  11.945   3.745  1.00  0.00    -0.237 OA
ATOM     75  O   UNL     1       4.043  13.417   2.871  1.00  0.00    -0.237 OA
ATOM     76  O   UNL     1       1.742  14.272   3.104  1.00  0.00    -0.744 OA
ENDBRANCH  72  73
ENDBRANCH  51  65
BRANCH  52  77
ATOM     77  C   UNL     1      -1.297   7.362  -9.988  1.00  0.00     0.058 A 
ATOM     78  C   UNL     1      -0.438   7.010 -11.037  1.00  0.00     0.135 A 
ATOM     79  C   UNL     1      -2.643   6.970 -10.082  1.00  0.00     0.135 A 
ATOM     80  F   UNL     1       0.857   7.355 -10.986  1.00  0.00    -0.206 F 
ATOM     81  C   UNL     1      -0.891   6.280 -12.131  1.00  0.00     0.059 A 
ATOM     82  C   UNL     1      -3.115   6.222 -11.155  1.00  0.00     0.059 A 
ATOM     83  F   UNL     1      -3.497   7.256  -9.086  1.00  0.00    -0.206 F 
ATOM     84  C   UNL     1      -2.228   5.880 -12.175  1.00  0.00     0.060 A 
BRANCH  84  85
ATOM     85  S   UNL     1      -2.777   4.840 -13.547  1.00  0.00     0.124 S 
ATOM     86  O   UNL     1      -2.823   5.800 -14.643  1.00  0.00    -0.237 OA
ATOM     87  O   UNL     1      -1.716   3.840 -13.618  1.00  0.00    -0.237 OA
ATOM     88  O   UNL     1      -4.070   4.337 -13.092  1.00  0.00    -0.744 OA
ENDBRANCH  84  85
ENDBRANCH  52  77
BRANCH  64  89
ATOM     89  C   UNL     1       0.982  13.715  -8.144  1.00  0.00     0.058 A 
ATOM     90  C   UNL     1      -0.082  14.533  -8.549  1.00  0.00     0.135 A 
ATOM     91  C   UNL     1       2.290  14.131  -8.434  1.00  0.00     0.135 A 
ATOM     92  F   UNL     1      -1.350  14.166  -8.304  1.00  0.00    -0.206 F 
ATOM     93  C   UNL     1       0.144  15.724  -9.227  1.00  0.00     0.059 A 
ATOM     94  C   UNL     1       2.539  15.329  -9.091  1.00  0.00     0.059 A 
ATOM     95  F   UNL     1       3.338  13.379  -8.061  1.00  0.00    -0.206 F 
ATOM     96  C   UNL     1       1.459  16.116  -9.489  1.00  0.00     0.060 A 
BRANCH  96  97
ATOM     97  S   UNL     1       1.743  17.693 -10.318  1.00  0.00     0.124 S 
ATOM     98  O   UNL     1       1.399  17.364 -11.697  1.00  0.00    -0.237 OA
ATOM     99  O   UNL     1       0.814  18.582  -9.627  1.00  0.00    -0.237 OA
ATOM    100  O   UNL     1       3.156  17.957 -10.067  1.00  0.00    -0.744 OA
ENDBRANCH  96  97
ENDBRANCH  64  89
ENDBRANCH  38  39
ENDBRANCH  31  33
ENDBRANCH  30  31
ENDBRANCH  29  30
ENDBRANCH   1  29
TORSDOF 19
