REMARK SMILES O=C(OCCOC(=O)c1cccc2c(=O)oc(=O)[nH]c12)c1ccc(-c2c3nc(c(-c4c(F)cc(S(=O)(=O)[O-])cc4F)c4ccc([nH]4)c(-c4c(F)cc(S(=O)(=O)[O-])cc4F)c4nc(c(-c5c(F)cc(S(=O)(=O)[O-])cc5F)c5ccc2[nH]5)C=C4)C=C3)cc1
REMARK SMILES IDX 3 1 2 2 1 3 21 4 22 5 86 6 23 7 85 8 24 9 25 10 26 11 79 12
REMARK SMILES IDX 27 13 84 14 78 15 80 16 28 17 83 18 77 19 76 20 29 22 63 23
REMARK SMILES IDX 42 24 62 25 43 26 46 27 61 28 81 29 44 30 45 31 60 33 82 34
REMARK SMILES IDX 47 35 30 36 31 37 40 38 32 39 33 40 39 41 41 42 34 43 35 44
REMARK SMILES IDX 36 45 37 46 38 47 64 48 65 49 74 50 66 51 67 52 73 53 75 54
REMARK SMILES IDX 68 55 69 56 70 57 71 58 72 59 48 60 49 61 58 62 50 63 51 64
REMARK SMILES IDX 57 65 59 66 52 67 53 68 54 69 55 70 56 71 4 72 5 73 6 74
REMARK SMILES IDX 7 75 8 76 9 77 10 78 20 79 11 80 13 81 19 82 12 83 14 84
REMARK SMILES IDX 17 85 15 87 16 88 18 89
REMARK H PARENT 80 21 46 32 19 86
REMARK Flexibility Score: inf
ROOT
ATOM      1  O   UNL     1       3.401   1.219  -0.121  1.00  0.00    -0.458 OA
ENDROOT
BRANCH   1   2
ATOM      2  C   UNL     1       3.251   0.488  -1.250  1.00  0.00     0.338 C 
ATOM      3  O   UNL     1       2.492   0.903  -2.123  1.00  0.00    -0.246 OA
BRANCH   2   4
ATOM      4  C   UNL     1       3.820  -0.886  -1.415  1.00  0.00     0.060 A 
ATOM      5  C   UNL     1       3.070  -1.771  -2.205  1.00  0.00     0.016 A 
ATOM      6  C   UNL     1       5.000  -1.364  -0.843  1.00  0.00     0.016 A 
ATOM      7  C   UNL     1       3.398  -3.125  -2.280  1.00  0.00     0.010 A 
ATOM      8  C   UNL     1       5.352  -2.716  -0.938  1.00  0.00     0.010 A 
ATOM      9  C   UNL     1       4.542  -3.613  -1.634  1.00  0.00    -0.014 A 
BRANCH   9  10
ATOM     10  C   UNL     1       5.015  -4.989  -1.904  1.00  0.00     0.031 A 
ATOM     11  C   UNL     1       5.040  -6.065  -0.858  1.00  0.00     0.074 A 
ATOM     12  C   UNL     1       5.460  -5.232  -3.150  1.00  0.00     0.049 A 
ATOM     13  N   UNL     1       5.231  -7.349  -1.016  1.00  0.00    -0.248 NA
ATOM     14  C   UNL     1       4.800  -5.673   0.538  1.00  0.00     0.031 C 
ATOM     15  C   UNL     1       5.524  -4.237  -4.228  1.00  0.00     0.029 A 
ATOM     16  N   UNL     1       5.955  -6.370  -3.720  1.00  0.00    -0.354 N 
ATOM     17  C   UNL     1       5.018  -7.928   0.230  1.00  0.00     0.074 A 
ATOM     18  C   UNL     1       4.756  -6.850   1.156  1.00  0.00     0.031 C 
ATOM     19  C   UNL     1       6.025  -4.811  -5.327  1.00  0.00     0.029 A 
ATOM     20  C   UNL     1       6.363  -6.192  -5.019  1.00  0.00     0.049 A 
ATOM     21  H   UNL     1       6.014  -7.232  -3.247  1.00  0.00     0.167 HD
ATOM     22  C   UNL     1       5.044  -9.242   0.556  1.00  0.00     0.037 A 
ATOM     23  C   UNL     1       6.973  -7.044  -5.859  1.00  0.00     0.037 A 
ATOM     24  C   UNL     1       5.535 -10.266  -0.331  1.00  0.00     0.049 A 
ATOM     25  C   UNL     1       7.219  -8.446  -5.393  1.00  0.00     0.074 A 
ATOM     26  C   UNL     1       5.696 -11.618  -0.083  1.00  0.00     0.029 A 
ATOM     27  N   UNL     1       6.021 -10.033  -1.611  1.00  0.00    -0.354 N 
ATOM     28  N   UNL     1       6.874  -9.004  -4.256  1.00  0.00    -0.248 NA
ATOM     29  C   UNL     1       7.931  -9.334  -6.316  1.00  0.00     0.031 C 
ATOM     30  C   UNL     1       6.372 -12.179  -1.172  1.00  0.00     0.029 A 
ATOM     31  C   UNL     1       6.555 -11.198  -2.133  1.00  0.00     0.049 A 
ATOM     32  H   UNL     1       5.990  -9.167  -2.078  1.00  0.00     0.167 HD
ATOM     33  C   UNL     1       7.299 -10.323  -4.340  1.00  0.00     0.074 A 
ATOM     34  C   UNL     1       7.920 -10.476  -5.642  1.00  0.00     0.031 C 
ATOM     35  C   UNL     1       7.180 -11.319  -3.428  1.00  0.00     0.037 A 
BRANCH  22  36
ATOM     36  C   UNL     1       4.564  -9.663   1.919  1.00  0.00     0.058 A 
ATOM     37  C   UNL     1       3.190  -9.757   2.196  1.00  0.00     0.135 A 
ATOM     38  C   UNL     1       5.458 -10.116   2.901  1.00  0.00     0.135 A 
ATOM     39  F   UNL     1       2.289  -9.322   1.300  1.00  0.00    -0.206 F 
ATOM     40  C   UNL     1       2.720 -10.306   3.387  1.00  0.00     0.059 A 
ATOM     41  C   UNL     1       5.012 -10.678   4.096  1.00  0.00     0.059 A 
ATOM     42  F   UNL     1       6.782 -10.040   2.693  1.00  0.00    -0.206 F 
ATOM     43  C   UNL     1       3.640 -10.776   4.327  1.00  0.00     0.060 A 
BRANCH  43  44
ATOM     44  S   UNL     1       3.010 -11.524   5.847  1.00  0.00     0.124 S 
ATOM     45  O   UNL     1       2.329 -10.393   6.469  1.00  0.00    -0.237 OA
ATOM     46  O   UNL     1       2.146 -12.582   5.334  1.00  0.00    -0.237 OA
ATOM     47  O   UNL     1       4.218 -11.977   6.530  1.00  0.00    -0.744 OA
ENDBRANCH  43  44
ENDBRANCH  22  36
BRANCH  23  48
ATOM     48  C   UNL     1       7.394  -6.568  -7.200  1.00  0.00     0.058 A 
ATOM     49  C   UNL     1       6.786  -7.051  -8.365  1.00  0.00     0.135 A 
ATOM     50  C   UNL     1       8.387  -5.582  -7.337  1.00  0.00     0.135 A 
ATOM     51  F   UNL     1       5.829  -7.988  -8.283  1.00  0.00    -0.206 F 
ATOM     52  C   UNL     1       7.159  -6.589  -9.622  1.00  0.00     0.059 A 
ATOM     53  C   UNL     1       8.754  -5.082  -8.580  1.00  0.00     0.059 A 
ATOM     54  F   UNL     1       8.982  -5.067  -6.249  1.00  0.00    -0.206 F 
ATOM     55  C   UNL     1       8.144  -5.604  -9.719  1.00  0.00     0.060 A 
BRANCH  55  56
ATOM     56  S   UNL     1       8.610  -5.003 -11.355  1.00  0.00     0.124 S 
ATOM     57  O   UNL     1       9.310  -6.159 -11.901  1.00  0.00    -0.237 OA
ATOM     58  O   UNL     1       7.312  -4.701 -11.950  1.00  0.00    -0.237 OA
ATOM     59  O   UNL     1       9.444  -3.841 -11.062  1.00  0.00    -0.744 OA
ENDBRANCH  55  56
ENDBRANCH  23  48
BRANCH  35  60
ATOM     60  C   UNL     1       7.718 -12.665  -3.816  1.00  0.00     0.058 A 
ATOM     61  C   UNL     1       9.097 -12.908  -3.905  1.00  0.00     0.135 A 
ATOM     62  C   UNL     1       6.841 -13.735  -4.055  1.00  0.00     0.135 A 
ATOM     63  F   UNL     1       9.975 -11.915  -3.694  1.00  0.00    -0.206 F 
ATOM     64  C   UNL     1       9.588 -14.162  -4.245  1.00  0.00     0.059 A 
ATOM     65  C   UNL     1       7.311 -15.005  -4.362  1.00  0.00     0.059 A 
ATOM     66  F   UNL     1       5.513 -13.554  -3.971  1.00  0.00    -0.206 F 
ATOM     67  C   UNL     1       8.687 -15.206  -4.467  1.00  0.00     0.060 A 
BRANCH  67  68
ATOM     68  S   UNL     1       9.343 -16.836  -4.873  1.00  0.00     0.124 S 
ATOM     69  O   UNL     1       9.846 -16.621  -6.226  1.00  0.00    -0.237 OA
ATOM     70  O   UNL     1      10.359 -17.026  -3.842  1.00  0.00    -0.237 OA
ATOM     71  O   UNL     1       8.178 -17.709  -4.767  1.00  0.00    -0.744 OA
ENDBRANCH  67  68
ENDBRANCH  35  60
ENDBRANCH   9  10
ENDBRANCH   2   4
ENDBRANCH   1   2
BRANCH   1  72
ATOM     72  C   UNL     1       4.269   1.018   1.006  1.00  0.00     0.275 C 
BRANCH  72  73
ATOM     73  C   UNL     1       3.750   0.054   2.078  1.00  0.00     0.275 C 
BRANCH  73  74
ATOM     74  O   UNL     1       3.209  -1.181   1.583  1.00  0.00    -0.458 OA
BRANCH  74  75
ATOM     75  C   UNL     1       1.872  -1.184   1.343  1.00  0.00     0.340 C 
ATOM     76  O   UNL     1       1.116  -0.231   1.442  1.00  0.00    -0.246 OA
BRANCH  75  77
ATOM     77  C   UNL     1       1.450  -2.497   0.806  1.00  0.00     0.084 A 
ATOM     78  C   UNL     1       1.936  -3.676   1.386  1.00  0.00     0.018 A 
ATOM     79  C   UNL     1       0.590  -2.570  -0.304  1.00  0.00     0.073 A 
ATOM     80  C   UNL     1       1.584  -4.916   0.848  1.00  0.00     0.002 A 
ATOM     81  C   UNL     1       0.280  -3.804  -0.854  1.00  0.00     0.085 A 
ATOM     82  N   UNL     1       0.078  -1.442  -0.938  1.00  0.00    -0.289 N 
ATOM     83  C   UNL     1       0.778  -4.982  -0.286  1.00  0.00     0.018 A 
ATOM     84  C   UNL     1      -0.544  -3.852  -2.070  1.00  0.00     0.349 A 
ATOM     85  C   UNL     1      -0.671  -1.486  -2.077  1.00  0.00     0.419 A 
ATOM     86  H   UNL     1       0.267  -0.561  -0.541  1.00  0.00     0.173 HD
ATOM     87  O   UNL     1      -0.840  -4.934  -2.565  1.00  0.00    -0.246 OA
ATOM     88  O   UNL     1      -0.952  -2.692  -2.626  1.00  0.00    -0.372 OA
ATOM     89  O   UNL     1      -1.076  -0.447  -2.596  1.00  0.00    -0.224 OA
ENDBRANCH  75  77
ENDBRANCH  74  75
ENDBRANCH  73  74
ENDBRANCH  72  73
ENDBRANCH   1  72
TORSDOF 14
