REMARK SMILES CCCCN1C(=O)[C@H]2[C@H](CCC(=O)OCCOC(=O)c3ccc(-c4c5nc(c(-c6c(F)cc(S(=O)(=O)[O-])cc6F)c6ccc([nH]6)c(-c6c(F)cc(S(=O)(=O)[O-])cc6F)c6nc(c(-c7c(F)cc(S(=O)(=O)[O-])cc7F)c7ccc4[nH]7)C=C6)C=C5)cc3)[NH2+][C@@]3(C(=O)Nc4c(CC)cccc43)[C@H]2C1=O
REMARK SMILES IDX 15 1 14 2 12 3 13 4 11 5 10 6 9 7 5 8 6 9 100 10 8 11 7 12
REMARK SMILES IDX 99 13 101 14 87 15 86 16 88 17 98 18 90 21 89 22 91 23 97 24
REMARK SMILES IDX 92 26 96 27 95 28 4 29 3 30 2 31 1 32 93 33 94 34 16 35
REMARK SMILES IDX 17 36 18 37 19 38 20 39 21 40 85 41 22 42 84 43 23 44 24 45
REMARK SMILES IDX 25 46 78 47 26 48 83 49 77 50 79 51 27 52 82 53 76 54 75 55
REMARK SMILES IDX 28 57 62 58 41 59 61 60 42 61 45 62 60 63 80 64 43 65 44 66
REMARK SMILES IDX 59 68 81 69 46 70 29 71 30 72 39 73 31 74 32 75 38 76 40 77
REMARK SMILES IDX 33 78 34 79 35 80 36 81 37 82 63 83 64 84 73 85 65 86 66 87
REMARK SMILES IDX 72 88 74 89 67 90 68 91 69 92 70 93 71 94 47 95 48 96 57 97
REMARK SMILES IDX 49 98 50 99 56 100 58 101 51 102 52 103 53 104 54 105 55 106
REMARK H PARENT 86 19 86 20 90 25 79 56 45 67
REMARK Flexibility Score: inf
ROOT
ATOM      1  C   UNL     1      -7.068  -4.241   3.025  1.00  0.00     0.274 C 
ENDROOT
BRANCH   1   2
ATOM      2  O   UNL     1      -5.885  -3.964   2.250  1.00  0.00    -0.462 OA
BRANCH   2   3
ATOM      3  C   UNL     1      -5.995  -4.111   0.905  1.00  0.00     0.306 C 
ATOM      4  O   UNL     1      -6.936  -4.644   0.333  1.00  0.00    -0.252 OA
BRANCH   3   5
ATOM      5  C   UNL     1      -4.784  -3.581   0.175  1.00  0.00     0.129 C 
BRANCH   5   6
ATOM      6  C   UNL     1      -4.454  -2.105   0.406  1.00  0.00     0.077 C 
BRANCH   6   7
ATOM      7  C   UNL     1      -3.821  -1.817   1.774  1.00  0.00     0.197 C 
ATOM      8  N   UNL     1      -1.047   0.081   2.781  1.00  0.00    -0.282 N 
ATOM      9  C   UNL     1      -1.584  -0.877   1.984  1.00  0.00     0.239 C 
ATOM     10  C   UNL     1      -2.028   0.666   3.550  1.00  0.00     0.240 C 
ATOM     11  C   UNL     1      -3.021  -0.536   1.781  1.00  0.00     0.157 C 
ATOM     12  O   UNL     1      -1.053  -1.875   1.525  1.00  0.00    -0.274 OA
ATOM     13  C   UNL     1      -3.390   0.267   3.031  1.00  0.00     0.174 C 
ATOM     14  O   UNL     1      -1.854   1.418   4.499  1.00  0.00    -0.274 OA
ATOM     15  C   UNL     1      -4.263  -0.677   3.838  1.00  0.00     0.216 C 
ATOM     16  N   UNL     1      -4.829  -1.548   2.771  1.00  0.00    -0.326 N 
ATOM     17  C   UNL     1      -3.583  -1.579   4.909  1.00  0.00     0.291 C 
ATOM     18  C   UNL     1      -5.476  -0.197   4.608  1.00  0.00     0.047 A 
ATOM     19  H   UNL     1      -5.141  -2.427   3.183  1.00  0.00     0.347 HD
ATOM     20  H   UNL     1      -5.618  -1.074   2.333  1.00  0.00     0.347 HD
ATOM     21  N   UNL     1      -4.553  -1.844   5.876  1.00  0.00    -0.320 N 
ATOM     22  O   UNL     1      -2.465  -2.066   4.870  1.00  0.00    -0.267 OA
ATOM     23  C   UNL     1      -5.701  -1.076   5.687  1.00  0.00     0.054 A 
ATOM     24  C   UNL     1      -6.434   0.729   4.228  1.00  0.00     0.013 A 
ATOM     25  H   UNL     1      -4.440  -2.495   6.606  1.00  0.00     0.170 HD
ATOM     26  C   UNL     1      -6.931  -1.154   6.331  1.00  0.00    -0.024 A 
ATOM     27  C   UNL     1      -7.644   0.738   4.917  1.00  0.00     0.001 A 
ATOM     28  C   UNL     1      -7.893  -0.197   5.936  1.00  0.00     0.006 A 
BRANCH   8  29
ATOM     29  C   UNL     1       0.372   0.360   2.952  1.00  0.00     0.128 C 
BRANCH  29  30
ATOM     30  C   UNL     1       1.398  -0.546   2.248  1.00  0.00     0.022 C 
BRANCH  30  31
ATOM     31  C   UNL     1       1.419  -0.587   0.709  1.00  0.00    -0.002 C 
ATOM     32  C   UNL     1       1.697   0.735   0.023  1.00  0.00     0.004 C 
ENDBRANCH  30  31
ENDBRANCH  29  30
ENDBRANCH   8  29
BRANCH  26  33
ATOM     33  C   UNL     1      -7.400  -2.207   7.308  1.00  0.00     0.034 C 
ATOM     34  C   UNL     1      -6.611  -3.502   7.431  1.00  0.00     0.009 C 
ENDBRANCH  26  33
ENDBRANCH   6   7
ENDBRANCH   5   6
ENDBRANCH   3   5
ENDBRANCH   2   3
ENDBRANCH   1   2
BRANCH   1  35
ATOM     35  C   UNL     1      -7.927  -2.983   3.170  1.00  0.00     0.275 C 
BRANCH  35  36
ATOM     36  O   UNL     1      -8.575  -2.700   1.927  1.00  0.00    -0.458 OA
BRANCH  36  37
ATOM     37  C   UNL     1      -8.298  -1.524   1.309  1.00  0.00     0.338 C 
ATOM     38  O   UNL     1      -7.614  -0.600   1.648  1.00  0.00    -0.246 OA
BRANCH  37  39
ATOM     39  C   UNL     1      -9.087  -1.585   0.079  1.00  0.00     0.060 A 
ATOM     40  C   UNL     1     -10.420  -1.182   0.146  1.00  0.00     0.016 A 
ATOM     41  C   UNL     1      -8.555  -2.217  -1.048  1.00  0.00     0.016 A 
ATOM     42  C   UNL     1     -11.264  -1.517  -0.899  1.00  0.00     0.010 A 
ATOM     43  C   UNL     1      -9.401  -2.535  -2.100  1.00  0.00     0.010 A 
ATOM     44  C   UNL     1     -10.764  -2.229  -2.001  1.00  0.00    -0.014 A 
BRANCH  44  45
ATOM     45  C   UNL     1     -11.699  -2.684  -3.042  1.00  0.00     0.031 A 
ATOM     46  C   UNL     1     -12.150  -4.115  -3.067  1.00  0.00     0.074 A 
ATOM     47  C   UNL     1     -12.145  -1.777  -3.926  1.00  0.00     0.049 A 
ATOM     48  N   UNL     1     -13.017  -4.684  -3.860  1.00  0.00    -0.248 NA
ATOM     49  C   UNL     1     -11.549  -5.029  -2.079  1.00  0.00     0.031 C 
ATOM     50  C   UNL     1     -11.724  -0.374  -3.970  1.00  0.00     0.029 A 
ATOM     51  N   UNL     1     -13.043  -1.893  -4.948  1.00  0.00    -0.354 N 
ATOM     52  C   UNL     1     -13.075  -6.015  -3.466  1.00  0.00     0.074 A 
ATOM     53  C   UNL     1     -12.131  -6.182  -2.384  1.00  0.00     0.031 C 
ATOM     54  C   UNL     1     -12.373   0.244  -4.968  1.00  0.00     0.029 A 
ATOM     55  C   UNL     1     -13.236  -0.722  -5.639  1.00  0.00     0.049 A 
ATOM     56  H   UNL     1     -13.507  -2.733  -5.168  1.00  0.00     0.167 HD
ATOM     57  C   UNL     1     -13.861  -6.997  -3.965  1.00  0.00     0.037 A 
ATOM     58  C   UNL     1     -14.023  -0.468  -6.699  1.00  0.00     0.037 A 
ATOM     59  C   UNL     1     -14.797  -6.792  -5.040  1.00  0.00     0.049 A 
ATOM     60  C   UNL     1     -14.886  -1.577  -7.226  1.00  0.00     0.074 A 
ATOM     61  C   UNL     1     -15.679  -7.699  -5.599  1.00  0.00     0.029 A 
ATOM     62  N   UNL     1     -14.969  -5.594  -5.720  1.00  0.00    -0.354 N 
ATOM     63  N   UNL     1     -14.977  -2.817  -6.805  1.00  0.00    -0.248 NA
ATOM     64  C   UNL     1     -15.760  -1.258  -8.361  1.00  0.00     0.031 C 
ATOM     65  C   UNL     1     -16.357  -7.060  -6.642  1.00  0.00     0.029 A 
ATOM     66  C   UNL     1     -15.928  -5.743  -6.706  1.00  0.00     0.049 A 
ATOM     67  H   UNL     1     -14.480  -4.761  -5.529  1.00  0.00     0.167 HD
ATOM     68  C   UNL     1     -15.924  -3.425  -7.617  1.00  0.00     0.074 A 
ATOM     69  C   UNL     1     -16.394  -2.409  -8.539  1.00  0.00     0.031 C 
ATOM     70  C   UNL     1     -16.365  -4.707  -7.608  1.00  0.00     0.037 A 
BRANCH  57  71
ATOM     71  C   UNL     1     -13.767  -8.371  -3.364  1.00  0.00     0.058 A 
ATOM     72  C   UNL     1     -14.341  -8.663  -2.116  1.00  0.00     0.135 A 
ATOM     73  C   UNL     1     -13.202  -9.432  -4.089  1.00  0.00     0.135 A 
ATOM     74  F   UNL     1     -14.879  -7.683  -1.373  1.00  0.00    -0.206 F 
ATOM     75  C   UNL     1     -14.369  -9.961  -1.615  1.00  0.00     0.059 A 
ATOM     76  C   UNL     1     -13.235 -10.742  -3.615  1.00  0.00     0.059 A 
ATOM     77  F   UNL     1     -12.633  -9.206  -5.283  1.00  0.00    -0.206 F 
ATOM     78  C   UNL     1     -13.825 -10.996  -2.377  1.00  0.00     0.060 A 
BRANCH  78  79
ATOM     79  S   UNL     1     -13.941 -12.684  -1.744  1.00  0.00     0.124 S 
ATOM     80  O   UNL     1     -13.006 -12.642  -0.623  1.00  0.00    -0.237 OA
ATOM     81  O   UNL     1     -15.352 -12.785  -1.387  1.00  0.00    -0.237 OA
ATOM     82  O   UNL     1     -13.523 -13.504  -2.877  1.00  0.00    -0.744 OA
ENDBRANCH  78  79
ENDBRANCH  57  71
BRANCH  58  83
ATOM     83  C   UNL     1     -14.026   0.886  -7.305  1.00  0.00     0.058 A 
ATOM     84  C   UNL     1     -15.126   1.743  -7.165  1.00  0.00     0.135 A 
ATOM     85  C   UNL     1     -12.906   1.364  -8.005  1.00  0.00     0.135 A 
ATOM     86  F   UNL     1     -16.215   1.332  -6.499  1.00  0.00    -0.206 F 
ATOM     87  C   UNL     1     -15.125   3.021  -7.714  1.00  0.00     0.059 A 
ATOM     88  C   UNL     1     -12.873   2.646  -8.543  1.00  0.00     0.059 A 
ATOM     89  F   UNL     1     -11.819   0.590  -8.144  1.00  0.00    -0.206 F 
ATOM     90  C   UNL     1     -13.993   3.463  -8.401  1.00  0.00     0.060 A 
BRANCH  90  91
ATOM     91  S   UNL     1     -13.988   5.138  -9.076  1.00  0.00     0.124 S 
ATOM     92  O   UNL     1     -14.873   4.993 -10.226  1.00  0.00    -0.237 OA
ATOM     93  O   UNL     1     -14.511   5.921  -7.961  1.00  0.00    -0.237 OA
ATOM     94  O   UNL     1     -12.580   5.369  -9.387  1.00  0.00    -0.744 OA
ENDBRANCH  90  91
ENDBRANCH  58  83
BRANCH  70  95
ATOM     95  C   UNL     1     -17.403  -5.076  -8.625  1.00  0.00     0.058 A 
ATOM     96  C   UNL     1     -17.064  -5.267  -9.973  1.00  0.00     0.135 A 
ATOM     97  C   UNL     1     -18.733  -5.299  -8.238  1.00  0.00     0.135 A 
ATOM     98  F   UNL     1     -15.805  -5.058 -10.389  1.00  0.00    -0.206 F 
ATOM     99  C   UNL     1     -18.015  -5.652 -10.909  1.00  0.00     0.059 A 
ATOM    100  C   UNL     1     -19.696  -5.708  -9.153  1.00  0.00     0.059 A 
ATOM    101  F   UNL     1     -19.102  -5.138  -6.957  1.00  0.00    -0.206 F 
ATOM    102  C   UNL     1     -19.328  -5.873 -10.488  1.00  0.00     0.060 A 
BRANCH 102 103
ATOM    103  S   UNL     1     -20.544  -6.410 -11.708  1.00  0.00     0.124 S 
ATOM    104  O   UNL     1     -20.776  -5.177 -12.453  1.00  0.00    -0.237 OA
ATOM    105  O   UNL     1     -19.826  -7.459 -12.425  1.00  0.00    -0.237 OA
ATOM    106  O   UNL     1     -21.664  -6.871 -10.892  1.00  0.00    -0.744 OA
ENDBRANCH 102 103
ENDBRANCH  70  95
ENDBRANCH  44  45
ENDBRANCH  37  39
ENDBRANCH  36  37
ENDBRANCH  35  36
ENDBRANCH   1  35
TORSDOF 20
