REMARK SMILES O=C(OCCOC(=O)c1ccc(-c2c3nc(c(-c4c(F)cc(S(=O)(=O)[O-])cc4F)c4ccc([nH]4)c(-c4c(F)cc(S(=O)(=O)[O-])cc4F)c4nc(c(-c5c(F)cc(S(=O)(=O)[O-])cc5F)c5ccc2[nH]5)C=C4)C=C3)cc1)C1=Cc2cc(S(F)(F)(F)(F)F)ccc2O[C@@H]1C(F)(F)F
REMARK SMILES IDX 5 1 4 2 3 3 2 4 1 5 75 6 76 7 90 8 77 9 89 10 78 11 88 12
REMARK SMILES IDX 79 13 87 14 86 15 91 16 92 17 93 18 94 19 80 20 81 21 82 22
REMARK SMILES IDX 83 23 84 24 85 25 6 26 7 27 8 28 9 29 10 30 74 31 11 32
REMARK SMILES IDX 73 33 12 34 13 35 14 36 67 37 15 38 72 39 66 40 68 41 16 42
REMARK SMILES IDX 71 43 65 44 64 45 17 47 51 48 30 49 50 50 31 51 34 52 49 53
REMARK SMILES IDX 69 54 32 55 33 56 48 58 70 59 35 60 18 61 19 62 28 63 20 64
REMARK SMILES IDX 21 65 27 66 29 67 22 68 23 69 24 70 25 71 26 72 52 73 53 74
REMARK SMILES IDX 62 75 54 76 55 77 61 78 63 79 56 80 57 81 58 82 59 83 60 84
REMARK SMILES IDX 36 85 37 86 46 87 38 88 39 89 45 90 47 91 40 92 41 93 42 94
REMARK SMILES IDX 43 95 44 96
REMARK H PARENT 68 46 34 57
REMARK Flexibility Score: inf
ROOT
ATOM      1  C   UNL     1       4.983  -0.716   1.089  1.00  0.00     0.275 C 
ENDROOT
BRANCH   1   2
ATOM      2  C   UNL     1       4.476   0.716   1.041  1.00  0.00     0.275 C 
BRANCH   2   3
ATOM      3  O   UNL     1       3.056   0.716   1.041  1.00  0.00    -0.459 OA
BRANCH   3   4
ATOM      4  C   UNL     1       2.346   0.066  -0.003  1.00  0.00     0.338 C 
ATOM      5  O   UNL     1       1.075   0.066  -0.003  1.00  0.00    -0.246 OA
BRANCH   4   6
ATOM      6  C   UNL     1       3.106  -0.630  -1.120  1.00  0.00     0.087 C 
ATOM      7  C   UNL     1       4.466  -0.630  -1.120  1.00  0.00     0.027 C 
ATOM      8  C   UNL     1       2.346  -1.326  -2.237  1.00  0.00     0.316 C 
ATOM      9  C   UNL     1       5.226   0.066  -0.003  1.00  0.00     0.019 A 
ATOM     10  O   UNL     1       3.545  -0.746   1.468  1.00  0.00    -0.475 OA
ATOM     11  C   UNL     1       6.379   0.789  -0.263  1.00  0.00     0.036 A 
ATOM     12  C   UNL     1       4.810  -0.142   1.241  1.00  0.00     0.128 A 
ATOM     13  C   UNL     1       7.187   1.010   0.877  1.00  0.00     0.107 A 
ATOM     14  C   UNL     1       5.592   0.223   2.311  1.00  0.00     0.048 A 
ATOM     15  C   UNL     1       6.771   0.888   2.125  1.00  0.00     0.028 A 
BRANCH   8  16
ATOM     16  C   UNL     1       2.713  -2.801  -2.258  1.00  0.00     0.430 C 
ATOM     17  F   UNL     1       2.392  -3.354  -1.092  1.00  0.00    -0.167 F 
ATOM     18  F   UNL     1       2.048  -3.410  -3.236  1.00  0.00    -0.167 F 
ATOM     19  F   UNL     1       4.021  -2.929  -2.464  1.00  0.00    -0.167 F 
ENDBRANCH   8  16
BRANCH  13  20
ATOM     20  S   UNL     1       8.910   1.493   0.607  1.00  0.00     0.310 S 
ATOM     21  F   UNL     1       9.219   1.504   2.163  1.00  0.00    -0.094 F 
ATOM     22  F   UNL     1       8.477   3.001   0.752  1.00  0.00    -0.094 F 
ATOM     23  F   UNL     1      10.389   1.911   0.373  1.00  0.00    -0.094 F 
ATOM     24  F   UNL     1       9.348  -0.025   0.605  1.00  0.00    -0.094 F 
ATOM     25  F   UNL     1       7.433   1.052   0.956  1.00  0.00    -0.094 F 
ENDBRANCH  13  20
ENDBRANCH   4   6
ENDBRANCH   3   4
ENDBRANCH   2   3
ENDBRANCH   1   2
BRANCH   1  26
ATOM     26  O   UNL     1       4.510  -1.424  -0.047  1.00  0.00    -0.458 OA
BRANCH  26  27
ATOM     27  C   UNL     1       3.113  -1.561  -0.268  1.00  0.00     0.338 C 
ATOM     28  O   UNL     1       2.288  -1.051   0.552  1.00  0.00    -0.246 OA
BRANCH  27  29
ATOM     29  C   UNL     1       2.607  -2.319  -1.484  1.00  0.00     0.060 A 
ATOM     30  C   UNL     1       1.681  -1.778  -2.360  1.00  0.00     0.016 A 
ATOM     31  C   UNL     1       3.207  -3.474  -1.744  1.00  0.00     0.016 A 
ATOM     32  C   UNL     1       1.237  -2.680  -3.356  1.00  0.00     0.010 A 
ATOM     33  C   UNL     1       2.815  -4.242  -2.814  1.00  0.00     0.010 A 
ATOM     34  C   UNL     1       1.862  -3.795  -3.687  1.00  0.00    -0.014 A 
BRANCH  34  35
ATOM     35  C   UNL     1       1.541  -4.542  -4.972  1.00  0.00     0.031 A 
ATOM     36  C   UNL     1       1.089  -5.854  -4.822  1.00  0.00     0.074 A 
ATOM     37  C   UNL     1       1.840  -3.961  -6.192  1.00  0.00     0.049 A 
ATOM     38  N   UNL     1       0.838  -6.743  -5.785  1.00  0.00    -0.248 NA
ATOM     39  C   UNL     1       0.803  -6.485  -3.525  1.00  0.00     0.031 C 
ATOM     40  C   UNL     1       2.288  -2.635  -6.352  1.00  0.00     0.029 A 
ATOM     41  N   UNL     1       1.764  -4.533  -7.442  1.00  0.00    -0.354 N 
ATOM     42  C   UNL     1       0.401  -7.887  -5.253  1.00  0.00     0.074 A 
ATOM     43  C   UNL     1       0.379  -7.739  -3.792  1.00  0.00     0.031 C 
ATOM     44  C   UNL     1       2.491  -2.415  -7.677  1.00  0.00     0.029 A 
ATOM     45  C   UNL     1       2.172  -3.599  -8.369  1.00  0.00     0.049 A 
ATOM     46  H   UNL     1       1.469  -5.452  -7.639  1.00  0.00     0.167 HD
ATOM     47  C   UNL     1       0.020  -9.046  -5.931  1.00  0.00     0.037 A 
ATOM     48  C   UNL     1       2.269  -3.753  -9.742  1.00  0.00     0.037 A 
ATOM     49  C   UNL     1       0.076  -9.185  -7.308  1.00  0.00     0.049 A 
ATOM     50  C   UNL     1       1.943  -4.933 -10.416  1.00  0.00     0.074 A 
ATOM     51  C   UNL     1      -0.312 -10.345  -8.007  1.00  0.00     0.029 A 
ATOM     52  N   UNL     1       0.507  -8.260  -8.233  1.00  0.00    -0.354 N 
ATOM     53  N   UNL     1       1.469  -6.063  -9.888  1.00  0.00    -0.248 NA
ATOM     54  C   UNL     1       2.073  -5.118 -11.867  1.00  0.00     0.031 C 
ATOM     55  C   UNL     1      -0.109 -10.125  -9.334  1.00  0.00     0.029 A 
ATOM     56  C   UNL     1       0.410  -8.825  -9.485  1.00  0.00     0.049 A 
ATOM     57  H   UNL     1       0.830  -7.351  -8.033  1.00  0.00     0.167 HD
ATOM     58  C   UNL     1       1.258  -6.965 -10.848  1.00  0.00     0.074 A 
ATOM     59  C   UNL     1       1.650  -6.373 -12.134  1.00  0.00     0.031 C 
ATOM     60  C   UNL     1       0.751  -8.258 -10.703  1.00  0.00     0.037 A 
BRANCH  47  61
ATOM     61  C   UNL     1      -0.486 -10.222  -5.111  1.00  0.00     0.058 A 
ATOM     62  C   UNL     1      -1.506 -10.066  -4.186  1.00  0.00     0.135 A 
ATOM     63  C   UNL     1       0.190 -11.361  -5.205  1.00  0.00     0.135 A 
ATOM     64  F   UNL     1      -2.368  -9.055  -4.222  1.00  0.00    -0.206 F 
ATOM     65  C   UNL     1      -1.546 -11.081  -3.201  1.00  0.00     0.059 A 
ATOM     66  C   UNL     1       0.002 -12.364  -4.285  1.00  0.00     0.059 A 
ATOM     67  F   UNL     1       1.058 -11.532  -6.199  1.00  0.00    -0.206 F 
ATOM     68  C   UNL     1      -0.948 -12.253  -3.308  1.00  0.00     0.060 A 
BRANCH  68  69
ATOM     69  S   UNL     1      -1.363 -13.639  -2.220  1.00  0.00     0.124 S 
ATOM     70  O   UNL     1      -1.091 -13.245  -0.766  1.00  0.00    -0.237 OA
ATOM     71  O   UNL     1      -2.843 -13.991  -2.384  1.00  0.00    -0.237 OA
ATOM     72  O   UNL     1      -0.405 -14.994  -2.632  1.00  0.00    -0.744 OA
ENDBRANCH  68  69
ENDBRANCH  47  61
BRANCH  48  73
ATOM     73  C   UNL     1       2.759  -2.571 -10.563  1.00  0.00     0.058 A 
ATOM     74  C   UNL     1       1.977  -1.888 -11.479  1.00  0.00     0.135 A 
ATOM     75  C   UNL     1       3.978  -2.150 -10.249  1.00  0.00     0.135 A 
ATOM     76  F   UNL     1       0.676  -2.119 -11.637  1.00  0.00    -0.206 F 
ATOM     77  C   UNL     1       2.686  -0.923 -12.232  1.00  0.00     0.059 A 
ATOM     78  C   UNL     1       4.559  -1.111 -10.937  1.00  0.00     0.059 A 
ATOM     79  F   UNL     1       4.644  -2.738  -9.259  1.00  0.00    -0.206 F 
ATOM     80  C   UNL     1       3.864  -0.429 -11.897  1.00  0.00     0.060 A 
BRANCH  80  81
ATOM     81  S   UNL     1       4.524   1.071 -12.666  1.00  0.00     0.124 S 
ATOM     82  O   UNL     1       4.659   0.853 -14.175  1.00  0.00    -0.237 OA
ATOM     83  O   UNL     1       3.572   2.240 -12.402  1.00  0.00    -0.237 OA
ATOM     84  O   UNL     1       6.059   1.425 -12.001  1.00  0.00    -0.744 OA
ENDBRANCH  80  81
ENDBRANCH  48  73
BRANCH  60  85
ATOM     85  C   UNL     1       0.560  -9.094 -11.958  1.00  0.00     0.058 A 
ATOM     86  C   UNL     1       1.629  -9.498 -12.741  1.00  0.00     0.135 A 
ATOM     87  C   UNL     1      -0.676  -9.505 -12.216  1.00  0.00     0.135 A 
ATOM     88  F   UNL     1       2.897  -9.324 -12.381  1.00  0.00    -0.206 F 
ATOM     89  C   UNL     1       1.249 -10.111 -13.958  1.00  0.00     0.059 A 
ATOM     90  C   UNL     1      -0.953 -10.218 -13.357  1.00  0.00     0.059 A 
ATOM     91  F   UNL     1      -1.656  -9.224 -11.361  1.00  0.00    -0.206 F 
ATOM     92  C   UNL     1       0.048 -10.600 -14.207  1.00  0.00     0.060 A 
BRANCH  92  93
ATOM     93  S   UNL     1      -0.258 -11.716 -15.599  1.00  0.00     0.124 S 
ATOM     94  O   UNL     1       0.105 -11.011 -16.908  1.00  0.00    -0.237 OA
ATOM     95  O   UNL     1       0.601 -12.974 -15.442  1.00  0.00    -0.237 OA
ATOM     96  O   UNL     1      -1.910 -12.154 -15.626  1.00  0.00    -0.744 OA
ENDBRANCH  92  93
ENDBRANCH  60  85
ENDBRANCH  34  35
ENDBRANCH  27  29
ENDBRANCH  26  27
ENDBRANCH   1  26
TORSDOF 16
