REMARK SMILES Nc1c(N2CCC(C(=O)OCCOC(=O)c3ccc(-c4c5nc(c(-c6c(F)cc(S(=O)(=O)[O-])cc6F)c6ccc([nH]6)c(-c6c(F)cc(S(=O)(=O)[O-])cc6F)c6nc(c(-c7c(F)cc(S(=O)(=O)[O-])cc7F)c7ccc4[nH]7)C=C6)C=C5)cc3)CC2)ncnc1N1CCN(c2ccccc2)CC1
REMARK SMILES IDX 11 1 10 2 8 3 9 4 7 5 4 6 5 7 83 8 6 9 82 10 3 11 2 12 87 13
REMARK SMILES IDX 84 14 86 15 85 16 1 17 88 20 89 21 99 22 90 23 98 24 91 25
REMARK SMILES IDX 92 26 93 27 97 28 94 29 96 30 95 31 12 32 13 33 14 34 15 35
REMARK SMILES IDX 16 36 17 37 81 38 18 39 80 40 19 41 20 42 21 43 74 44 22 45
REMARK SMILES IDX 79 46 73 47 75 48 23 49 78 50 72 51 71 52 24 54 58 55 37 56
REMARK SMILES IDX 57 57 38 58 41 59 56 60 76 61 39 62 40 63 55 65 77 66 42 67
REMARK SMILES IDX 25 68 26 69 35 70 27 71 28 72 34 73 36 74 29 75 30 76 31 77
REMARK SMILES IDX 32 78 33 79 59 80 60 81 69 82 61 83 62 84 68 85 70 86 63 87
REMARK SMILES IDX 64 88 65 89 66 90 67 91 43 92 44 93 53 94 45 95 46 96 52 97
REMARK SMILES IDX 54 98 47 99 48 100 49 101 50 102 51 103
REMARK H PARENT 1 18 1 19 75 53 41 64
REMARK Flexibility Score: inf
ROOT
ATOM      1  C   UNL     1      -3.425  -5.514  -5.090  1.00  0.00     0.274 C 
ENDROOT
BRANCH   1   2
ATOM      2  O   UNL     1      -2.998  -4.561  -4.101  1.00  0.00    -0.462 OA
BRANCH   2   3
ATOM      3  C   UNL     1      -2.024  -3.703  -4.490  1.00  0.00     0.309 C 
ATOM      4  O   UNL     1      -1.427  -3.760  -5.559  1.00  0.00    -0.252 OA
BRANCH   3   5
ATOM      5  C   UNL     1      -1.746  -2.619  -3.478  1.00  0.00     0.103 C 
ATOM      6  N   UNL     1      -1.002  -1.222  -1.132  1.00  0.00    -0.355 N 
ATOM      7  C   UNL     1      -2.412  -1.256  -1.498  1.00  0.00     0.119 C 
ATOM      8  C   UNL     1       0.010  -1.476  -2.158  1.00  0.00     0.119 C 
ATOM      9  C   UNL     1      -2.738  -2.498  -2.321  1.00  0.00     0.037 C 
ATOM     10  C   UNL     1      -0.325  -2.740  -2.938  1.00  0.00     0.037 C 
BRANCH   6  11
ATOM     11  C   UNL     1      -0.654  -1.557   0.177  1.00  0.00     0.157 A 
ATOM     12  C   UNL     1       0.381  -0.846   0.798  1.00  0.00     0.118 A 
ATOM     13  C   UNL     1       0.764  -1.284   2.073  1.00  0.00     0.157 A 
ATOM     14  N   UNL     1      -1.274  -2.586   0.779  1.00  0.00    -0.217 NA
ATOM     15  N   UNL     1       0.208  -2.357   2.659  1.00  0.00    -0.217 NA
ATOM     16  C   UNL     1      -0.803  -2.929   1.987  1.00  0.00     0.226 A 
BRANCH  12  17
ATOM     17  N   UNL     1       0.957   0.291   0.201  1.00  0.00    -0.393 N 
ATOM     18  H   UNL     1       0.668   0.576  -0.696  1.00  0.00     0.156 HD
ATOM     19  H   UNL     1       1.649   0.802   0.680  1.00  0.00     0.156 HD
ENDBRANCH  12  17
BRANCH  13  20
ATOM     20  N   UNL     1       1.784  -0.613   2.718  1.00  0.00    -0.351 N 
ATOM     21  C   UNL     1       2.838  -1.346   3.406  1.00  0.00     0.139 C 
ATOM     22  C   UNL     1       1.541   0.752   3.197  1.00  0.00     0.139 C 
ATOM     23  C   UNL     1       4.159  -0.549   3.254  1.00  0.00     0.138 C 
ATOM     24  C   UNL     1       2.842   1.572   3.076  1.00  0.00     0.138 C 
ATOM     25  N   UNL     1       3.974   0.848   3.697  1.00  0.00    -0.368 N 
BRANCH  25  26
ATOM     26  C   UNL     1       5.052   1.608   4.113  1.00  0.00     0.037 A 
ATOM     27  C   UNL     1       6.328   1.495   3.551  1.00  0.00     0.026 A 
ATOM     28  C   UNL     1       4.876   2.528   5.156  1.00  0.00     0.026 A 
ATOM     29  C   UNL     1       7.393   2.272   4.019  1.00  0.00     0.002 A 
ATOM     30  C   UNL     1       5.935   3.296   5.638  1.00  0.00     0.002 A 
ATOM     31  C   UNL     1       7.197   3.167   5.068  1.00  0.00     0.000 A 
ENDBRANCH  25  26
ENDBRANCH  13  20
ENDBRANCH   6  11
ENDBRANCH   3   5
ENDBRANCH   2   3
ENDBRANCH   1   2
BRANCH   1  32
ATOM     32  C   UNL     1      -4.757  -5.090  -5.710  1.00  0.00     0.275 C 
BRANCH  32  33
ATOM     33  O   UNL     1      -4.625  -3.880  -6.480  1.00  0.00    -0.458 OA
BRANCH  33  34
ATOM     34  C   UNL     1      -4.989  -2.745  -5.837  1.00  0.00     0.338 C 
ATOM     35  O   UNL     1      -5.412  -2.642  -4.699  1.00  0.00    -0.246 OA
BRANCH  34  36
ATOM     36  C   UNL     1      -4.718  -1.579  -6.689  1.00  0.00     0.060 A 
ATOM     37  C   UNL     1      -3.606  -0.788  -6.397  1.00  0.00     0.016 A 
ATOM     38  C   UNL     1      -5.619  -1.194  -7.682  1.00  0.00     0.016 A 
ATOM     39  C   UNL     1      -3.398   0.409  -7.075  1.00  0.00     0.010 A 
ATOM     40  C   UNL     1      -5.399  -0.001  -8.379  1.00  0.00     0.010 A 
ATOM     41  C   UNL     1      -4.298   0.817  -8.066  1.00  0.00    -0.014 A 
BRANCH  41  42
ATOM     42  C   UNL     1      -4.111   2.127  -8.735  1.00  0.00     0.031 A 
ATOM     43  C   UNL     1      -5.030   3.269  -8.409  1.00  0.00     0.074 A 
ATOM     44  C   UNL     1      -3.099   2.297  -9.607  1.00  0.00     0.049 A 
ATOM     45  N   UNL     1      -5.103   4.453  -8.960  1.00  0.00    -0.248 NA
ATOM     46  C   UNL     1      -5.991   3.053  -7.315  1.00  0.00     0.031 C 
ATOM     47  C   UNL     1      -2.102   1.282  -9.953  1.00  0.00     0.029 A 
ATOM     48  N   UNL     1      -2.740   3.387 -10.358  1.00  0.00    -0.354 N 
ATOM     49  C   UNL     1      -6.129   5.116  -8.297  1.00  0.00     0.074 A 
ATOM     50  C   UNL     1      -6.657   4.200  -7.309  1.00  0.00     0.031 C 
ATOM     51  C   UNL     1      -1.242   1.799 -10.845  1.00  0.00     0.029 A 
ATOM     52  C   UNL     1      -1.657   3.160 -11.173  1.00  0.00     0.049 A 
ATOM     53  H   UNL     1      -3.214   4.249 -10.319  1.00  0.00     0.167 HD
ATOM     54  C   UNL     1      -6.584   6.376  -8.496  1.00  0.00     0.037 A 
ATOM     55  C   UNL     1      -1.084   3.949 -12.102  1.00  0.00     0.037 A 
ATOM     56  C   UNL     1      -6.042   7.286  -9.471  1.00  0.00     0.049 A 
ATOM     57  C   UNL     1      -1.654   5.317 -12.356  1.00  0.00     0.074 A 
ATOM     58  C   UNL     1      -6.444   8.579  -9.759  1.00  0.00     0.029 A 
ATOM     59  N   UNL     1      -4.977   7.002 -10.312  1.00  0.00    -0.354 N 
ATOM     60  N   UNL     1      -2.658   5.914 -11.759  1.00  0.00    -0.248 NA
ATOM     61  C   UNL     1      -1.027   6.112 -13.421  1.00  0.00     0.031 C 
ATOM     62  C   UNL     1      -5.640   9.066 -10.796  1.00  0.00     0.029 A 
ATOM     63  C   UNL     1      -4.715   8.089 -11.129  1.00  0.00     0.049 A 
ATOM     64  H   UNL     1      -4.480   6.152 -10.327  1.00  0.00     0.167 HD
ATOM     65  C   UNL     1      -2.778   7.157 -12.369  1.00  0.00     0.074 A 
ATOM     66  C   UNL     1      -1.735   7.233 -13.372  1.00  0.00     0.031 C 
ATOM     67  C   UNL     1      -3.674   8.144 -12.124  1.00  0.00     0.037 A 
BRANCH  54  68
ATOM     68  C   UNL     1      -7.741   6.839  -7.659  1.00  0.00     0.058 A 
ATOM     69  C   UNL     1      -7.577   7.207  -6.315  1.00  0.00     0.135 A 
ATOM     70  C   UNL     1      -9.022   6.959  -8.222  1.00  0.00     0.135 A 
ATOM     71  F   UNL     1      -6.377   7.092  -5.725  1.00  0.00    -0.206 F 
ATOM     72  C   UNL     1      -8.646   7.668  -5.553  1.00  0.00     0.059 A 
ATOM     73  C   UNL     1     -10.102   7.435  -7.484  1.00  0.00     0.059 A 
ATOM     74  F   UNL     1      -9.232   6.614  -9.502  1.00  0.00    -0.206 F 
ATOM     75  C   UNL     1      -9.906   7.779  -6.147  1.00  0.00     0.060 A 
BRANCH  75  76
ATOM     76  S   UNL     1     -11.280   8.391  -5.149  1.00  0.00     0.124 S 
ATOM     77  O   UNL     1     -11.540   7.249  -4.279  1.00  0.00    -0.237 OA
ATOM     78  O   UNL     1     -10.698   9.562  -4.501  1.00  0.00    -0.237 OA
ATOM     79  O   UNL     1     -12.317   8.675  -6.136  1.00  0.00    -0.744 OA
ENDBRANCH  75  76
ENDBRANCH  54  68
BRANCH  55  80
ATOM     80  C   UNL     1       0.078   3.449 -12.882  1.00  0.00     0.058 A 
ATOM     81  C   UNL     1       1.365   3.960 -12.666  1.00  0.00     0.135 A 
ATOM     82  C   UNL     1      -0.074   2.436 -13.842  1.00  0.00     0.135 A 
ATOM     83  F   UNL     1       1.557   4.938 -11.768  1.00  0.00    -0.206 F 
ATOM     84  C   UNL     1       2.464   3.487 -13.377  1.00  0.00     0.059 A 
ATOM     85  C   UNL     1       1.012   1.931 -14.549  1.00  0.00     0.059 A 
ATOM     86  F   UNL     1      -1.285   1.909 -14.078  1.00  0.00    -0.206 F 
ATOM     87  C   UNL     1       2.277   2.468 -14.313  1.00  0.00     0.060 A 
BRANCH  87  88
ATOM     88  S   UNL     1       3.719   1.815 -15.184  1.00  0.00     0.124 S 
ATOM     89  O   UNL     1       3.995   2.884 -16.137  1.00  0.00    -0.237 OA
ATOM     90  O   UNL     1       4.686   1.658 -14.102  1.00  0.00    -0.237 OA
ATOM     91  O   UNL     1       3.226   0.567 -15.759  1.00  0.00    -0.744 OA
ENDBRANCH  87  88
ENDBRANCH  55  80
BRANCH  67  92
ATOM     92  C   UNL     1      -3.561   9.396 -12.945  1.00  0.00     0.058 A 
ATOM     93  C   UNL     1      -4.014   9.441 -14.272  1.00  0.00     0.135 A 
ATOM     94  C   UNL     1      -3.051  10.576 -12.382  1.00  0.00     0.135 A 
ATOM     95  F   UNL     1      -4.503   8.336 -14.857  1.00  0.00    -0.206 F 
ATOM     96  C   UNL     1      -3.952  10.613 -15.019  1.00  0.00     0.059 A 
ATOM     97  C   UNL     1      -2.998  11.764 -13.104  1.00  0.00     0.059 A 
ATOM     98  F   UNL     1      -2.613  10.584 -11.112  1.00  0.00    -0.206 F 
ATOM     99  C   UNL     1      -3.443  11.770 -14.425  1.00  0.00     0.060 A 
BRANCH  99 100
ATOM    100  S   UNL     1      -3.405  13.294 -15.392  1.00  0.00     0.124 S 
ATOM    101  O   UNL     1      -2.277  13.048 -16.284  1.00  0.00    -0.237 OA
ATOM    102  O   UNL     1      -4.722  13.299 -16.022  1.00  0.00    -0.237 OA
ATOM    103  O   UNL     1      -3.196  14.330 -14.384  1.00  0.00    -0.744 OA
ENDBRANCH  99 100
ENDBRANCH  67  92
ENDBRANCH  41  42
ENDBRANCH  34  36
ENDBRANCH  33  34
ENDBRANCH  32  33
ENDBRANCH   1  32
TORSDOF 18
