REMARK SMILES Cc1csc(CNC(=O)NC[C@H]2CC[C@@H](C(=O)OCCOC(=O)c3ccc(-c4c5nc(c(-c6c(F)cc(S(=O)(=O)[O-])cc6F)c6ccc([nH]6)c(-c6c(F)cc(S(=O)(=O)[O-])cc6F)c6nc(c(-c7c(F)cc(S(=O)(=O)[O-])cc7F)c7ccc4[nH]7)C=C6)C=C5)cc3)CC2)n1
REMARK SMILES IDX 19 1 18 2 16 3 17 4 15 5 12 6 13 7 91 8 14 9 90 10 11 11
REMARK SMILES IDX 10 12 7 13 8 14 9 16 6 18 5 19 1 20 2 21 3 22 92 23 4 24
REMARK SMILES IDX 20 25 21 26 22 27 23 28 24 29 25 30 89 31 26 32 88 33 27 34
REMARK SMILES IDX 28 35 29 36 82 37 30 38 87 39 81 40 83 41 31 42 86 43 80 44
REMARK SMILES IDX 79 45 32 47 66 48 45 49 65 50 46 51 49 52 64 53 84 54 47 55
REMARK SMILES IDX 48 56 63 58 85 59 50 60 33 61 34 62 43 63 35 64 36 65 42 66
REMARK SMILES IDX 44 67 37 68 38 69 39 70 40 71 41 72 67 73 68 74 77 75 69 76
REMARK SMILES IDX 70 77 76 78 78 79 71 80 72 81 73 82 74 83 75 84 51 85 52 86
REMARK SMILES IDX 61 87 53 88 54 89 60 90 62 91 55 92 56 93 57 94 58 95 59 96
REMARK H PARENT 7 15 10 17 83 46 49 57
REMARK Flexibility Score: inf
ROOT
ATOM      1  C   UNL     1      -1.465   6.428   5.580  1.00  0.00     0.274 C 
ENDROOT
BRANCH   1   2
ATOM      2  O   UNL     1      -0.189   6.229   4.943  1.00  0.00    -0.462 OA
BRANCH   2   3
ATOM      3  C   UNL     1       0.674   7.276   4.927  1.00  0.00     0.309 C 
ATOM      4  O   UNL     1       0.425   8.386   5.381  1.00  0.00    -0.252 OA
BRANCH   3   5
ATOM      5  C   UNL     1       1.984   6.957   4.208  1.00  0.00     0.099 C 
ATOM      6  C   UNL     1       1.326   5.154   1.915  1.00  0.00     0.008 C 
ATOM      7  C   UNL     1       1.014   6.662   1.905  1.00  0.00     0.006 C 
ATOM      8  C   UNL     1       1.603   4.581   3.314  1.00  0.00     0.006 C 
ATOM      9  C   UNL     1       1.951   7.483   2.778  1.00  0.00     0.015 C 
ATOM     10  C   UNL     1       2.424   5.492   4.224  1.00  0.00     0.015 C 
BRANCH   6  11
ATOM     11  C   UNL     1       0.155   4.379   1.279  1.00  0.00     0.121 C 
BRANCH  11  12
ATOM     12  N   UNL     1      -0.030   4.726  -0.114  1.00  0.00    -0.338 N 
ATOM     13  N   UNL     1       1.225   3.174  -1.373  1.00  0.00    -0.332 N 
ATOM     14  C   UNL     1       0.418   4.230  -1.269  1.00  0.00     0.315 C 
ATOM     15  H   UNL     1       1.505   2.994  -2.300  1.00  0.00     0.165 HD
ATOM     16  O   UNL     1       0.076   4.797  -2.310  1.00  0.00    -0.249 OA
ATOM     17  H   UNL     1      -0.622   5.503  -0.237  1.00  0.00     0.165 HD
BRANCH  13  18
ATOM     18  C   UNL     1       1.780   2.232  -0.423  1.00  0.00     0.185 C 
BRANCH  18  19
ATOM     19  C   UNL     1       0.857   1.057  -0.244  1.00  0.00     0.112 A 
ATOM     20  C   UNL     1      -2.474  -0.297   0.010  1.00  0.00     0.067 C 
ATOM     21  C   UNL     1      -0.997  -0.154  -0.043  1.00  0.00     0.049 A 
ATOM     22  C   UNL     1      -0.064  -1.168   0.040  1.00  0.00     0.090 A 
ATOM     23  N   UNL     1      -0.460   1.113  -0.192  1.00  0.00    -0.245 NA
ATOM     24  S   UNL     1       1.519  -0.525  -0.074  1.00  0.00    -0.125 S 
ENDBRANCH  18  19
ENDBRANCH  13  18
ENDBRANCH  11  12
ENDBRANCH   6  11
ENDBRANCH   3   5
ENDBRANCH   2   3
ENDBRANCH   1   2
BRANCH   1  25
ATOM     25  C   UNL     1      -1.513   5.742   6.946  1.00  0.00     0.275 C 
BRANCH  25  26
ATOM     26  O   UNL     1      -0.630   6.387   7.879  1.00  0.00    -0.458 OA
BRANCH  26  27
ATOM     27  C   UNL     1       0.609   5.852   7.950  1.00  0.00     0.338 C 
ATOM     28  O   UNL     1       1.014   4.845   7.384  1.00  0.00    -0.246 OA
BRANCH  27  29
ATOM     29  C   UNL     1       1.490   6.751   8.706  1.00  0.00     0.060 A 
ATOM     30  C   UNL     1       2.576   7.317   8.034  1.00  0.00     0.016 A 
ATOM     31  C   UNL     1       1.304   6.970  10.071  1.00  0.00     0.016 A 
ATOM     32  C   UNL     1       3.495   8.098   8.725  1.00  0.00     0.010 A 
ATOM     33  C   UNL     1       2.232   7.749  10.768  1.00  0.00     0.010 A 
ATOM     34  C   UNL     1       3.342   8.298  10.102  1.00  0.00    -0.014 A 
BRANCH  34  35
ATOM     35  C   UNL     1       4.415   8.987  10.855  1.00  0.00     0.031 A 
ATOM     36  C   UNL     1       5.375   8.169  11.672  1.00  0.00     0.074 A 
ATOM     37  C   UNL     1       4.561  10.320  10.761  1.00  0.00     0.049 A 
ATOM     38  N   UNL     1       6.353   8.565  12.444  1.00  0.00    -0.248 NA
ATOM     39  C   UNL     1       5.211   6.708  11.607  1.00  0.00     0.031 C 
ATOM     40  C   UNL     1       3.732  11.205   9.942  1.00  0.00     0.029 A 
ATOM     41  N   UNL     1       5.468  11.161  11.352  1.00  0.00    -0.354 N 
ATOM     42  C   UNL     1       6.908   7.407  12.974  1.00  0.00     0.074 A 
ATOM     43  C   UNL     1       6.147   6.294  12.448  1.00  0.00     0.031 C 
ATOM     44  C   UNL     1       4.178  12.466  10.074  1.00  0.00     0.029 A 
ATOM     45  C   UNL     1       5.294  12.482  11.016  1.00  0.00     0.049 A 
ATOM     46  H   UNL     1       6.177  10.849  11.959  1.00  0.00     0.167 HD
ATOM     47  C   UNL     1       7.959   7.284  13.820  1.00  0.00     0.037 A 
ATOM     48  C   UNL     1       5.951  13.579  11.437  1.00  0.00     0.037 A 
ATOM     49  C   UNL     1       8.715   8.398  14.330  1.00  0.00     0.049 A 
ATOM     50  C   UNL     1       7.075  13.424  12.427  1.00  0.00     0.074 A 
ATOM     51  C   UNL     1       9.786   8.387  15.207  1.00  0.00     0.029 A 
ATOM     52  N   UNL     1       8.479   9.726  14.004  1.00  0.00    -0.354 N 
ATOM     53  N   UNL     1       7.567  12.326  12.950  1.00  0.00    -0.248 NA
ATOM     54  C   UNL     1       7.726  14.657  12.888  1.00  0.00     0.031 C 
ATOM     55  C   UNL     1      10.178   9.712  15.433  1.00  0.00     0.029 A 
ATOM     56  C   UNL     1       9.377  10.545  14.668  1.00  0.00     0.049 A 
ATOM     57  H   UNL     1       7.777  10.040  13.390  1.00  0.00     0.167 HD
ATOM     58  C   UNL     1       8.604  12.734  13.783  1.00  0.00     0.074 A 
ATOM     59  C   UNL     1       8.669  14.179  13.689  1.00  0.00     0.031 C 
ATOM     60  C   UNL     1       9.428  11.981  14.553  1.00  0.00     0.037 A 
BRANCH  47  61
ATOM     61  C   UNL     1       8.314   5.896  14.271  1.00  0.00     0.058 A 
ATOM     62  C   UNL     1       8.930   4.972  13.411  1.00  0.00     0.135 A 
ATOM     63  C   UNL     1       8.012   5.474  15.575  1.00  0.00     0.135 A 
ATOM     64  F   UNL     1       9.222   5.317  12.146  1.00  0.00    -0.206 F 
ATOM     65  C   UNL     1       9.194   3.667  13.814  1.00  0.00     0.059 A 
ATOM     66  C   UNL     1       8.289   4.181  16.008  1.00  0.00     0.059 A 
ATOM     67  F   UNL     1       7.421   6.316  16.438  1.00  0.00    -0.206 F 
ATOM     68  C   UNL     1       8.859   3.278  15.112  1.00  0.00     0.060 A 
BRANCH  68  69
ATOM     69  S   UNL     1       9.167   1.571  15.614  1.00  0.00     0.124 S 
ATOM     70  O   UNL     1       8.061   0.875  14.964  1.00  0.00    -0.237 OA
ATOM     71  O   UNL     1      10.491   1.311  15.059  1.00  0.00    -0.237 OA
ATOM     72  O   UNL     1       9.102   1.629  17.071  1.00  0.00    -0.744 OA
ENDBRANCH  68  69
ENDBRANCH  47  61
BRANCH  48  73
ATOM     73  C   UNL     1       5.563  14.919  10.925  1.00  0.00     0.058 A 
ATOM     74  C   UNL     1       6.396  15.620  10.040  1.00  0.00     0.135 A 
ATOM     75  C   UNL     1       4.348  15.517  11.293  1.00  0.00     0.135 A 
ATOM     76  F   UNL     1       7.572  15.094   9.668  1.00  0.00    -0.206 F 
ATOM     77  C   UNL     1       6.042  16.870   9.543  1.00  0.00     0.059 A 
ATOM     78  C   UNL     1       3.962  16.756  10.793  1.00  0.00     0.059 A 
ATOM     79  F   UNL     1       3.513  14.882  12.130  1.00  0.00    -0.206 F 
ATOM     80  C   UNL     1       4.820  17.429   9.923  1.00  0.00     0.060 A 
BRANCH  80  81
ATOM     81  S   UNL     1       4.341  19.026   9.228  1.00  0.00     0.124 S 
ATOM     82  O   UNL     1       5.182  19.941   9.990  1.00  0.00    -0.237 OA
ATOM     83  O   UNL     1       4.686  18.865   7.819  1.00  0.00    -0.237 OA
ATOM     84  O   UNL     1       2.910  19.098   9.510  1.00  0.00    -0.744 OA
ENDBRANCH  80  81
ENDBRANCH  48  73
BRANCH  60  85
ATOM     85  C   UNL     1      10.497  12.705  15.322  1.00  0.00     0.058 A 
ATOM     86  C   UNL     1      10.202  13.441  16.480  1.00  0.00     0.135 A 
ATOM     87  C   UNL     1      11.838  12.630  14.913  1.00  0.00     0.135 A 
ATOM     88  F   UNL     1       8.934  13.548  16.908  1.00  0.00    -0.206 F 
ATOM     89  C   UNL     1      11.199  14.098  17.194  1.00  0.00     0.059 A 
ATOM     90  C   UNL     1      12.853  13.261  15.624  1.00  0.00     0.059 A 
ATOM     91  F   UNL     1      12.172  11.931  13.817  1.00  0.00    -0.206 F 
ATOM     92  C   UNL     1      12.521  14.004  16.756  1.00  0.00     0.060 A 
BRANCH  92  93
ATOM     93  S   UNL     1      13.813  14.839  17.703  1.00  0.00     0.124 S 
ATOM     94  O   UNL     1      13.642  16.223  17.274  1.00  0.00    -0.237 OA
ATOM     95  O   UNL     1      13.430  14.551  19.082  1.00  0.00    -0.237 OA
ATOM     96  O   UNL     1      15.038  14.187  17.252  1.00  0.00    -0.744 OA
ENDBRANCH  92  93
ENDBRANCH  60  85
ENDBRANCH  34  35
ENDBRANCH  27  29
ENDBRANCH  26  27
ENDBRANCH  25  26
ENDBRANCH   1  25
TORSDOF 18
