REMARK SMILES O=C(OCCOC(=O)[C@H]1C[C@H]1c1ccc(C2CC2)cc1)c1ccc(-c2c3nc(c(-c4c(F)cc(S(=O)(=O)[O-])cc4F)c4ccc([nH]4)c(-c4c(F)cc(S(=O)(=O)[O-])cc4F)c4nc(c(-c5c(F)cc(S(=O)(=O)[O-])cc5F)c5ccc2[nH]5)C=C4)C=C3)cc1
REMARK SMILES IDX 4 1 3 2 2 3 1 4 21 5 22 6 86 7 23 8 85 9 24 10 25 11 26 12
REMARK SMILES IDX 79 13 27 14 84 15 78 16 80 17 28 18 83 19 77 20 76 21 29 23
REMARK SMILES IDX 63 24 42 25 62 26 43 27 46 28 61 29 81 30 44 31 45 32 60 34
REMARK SMILES IDX 82 35 47 36 30 37 31 38 40 39 32 40 33 41 39 42 41 43 34 44
REMARK SMILES IDX 35 45 36 46 37 47 38 48 64 49 65 50 74 51 66 52 67 53 73 54
REMARK SMILES IDX 75 55 68 56 69 57 70 58 71 59 72 60 48 61 49 62 58 63 50 64
REMARK SMILES IDX 51 65 57 66 59 67 52 68 53 69 54 70 55 71 56 72 5 73 6 74
REMARK SMILES IDX 7 75 8 76 9 77 10 78 11 79 12 80 13 81 20 82 14 83 19 84
REMARK SMILES IDX 15 85 16 86 17 87 18 88
REMARK H PARENT 80 22 46 33
REMARK Flexibility Score: inf
ROOT
ATOM      1  C   UNL     1       2.580   1.137   3.819  1.00  0.00     0.275 C 
ENDROOT
BRANCH   1   2
ATOM      2  O   UNL     1       2.477   0.142   2.784  1.00  0.00    -0.458 OA
BRANCH   2   3
ATOM      3  C   UNL     1       1.696   0.112   1.677  1.00  0.00     0.338 C 
ATOM      4  O   UNL     1       1.733  -0.892   0.966  1.00  0.00    -0.246 OA
BRANCH   3   5
ATOM      5  C   UNL     1       0.868   1.266   1.201  1.00  0.00     0.060 A 
ATOM      6  C   UNL     1       0.274   2.238   2.011  1.00  0.00     0.016 A 
ATOM      7  C   UNL     1       0.658   1.352  -0.188  1.00  0.00     0.016 A 
ATOM      8  C   UNL     1      -0.427   3.314   1.454  1.00  0.00     0.010 A 
ATOM      9  C   UNL     1      -0.054   2.418  -0.751  1.00  0.00     0.010 A 
ATOM     10  C   UNL     1      -0.590   3.415   0.071  1.00  0.00    -0.014 A 
BRANCH  10  11
ATOM     11  C   UNL     1      -1.432   4.493  -0.493  1.00  0.00     0.031 A 
ATOM     12  C   UNL     1      -2.847   4.172  -0.867  1.00  0.00     0.074 A 
ATOM     13  C   UNL     1      -0.959   5.746  -0.628  1.00  0.00     0.049 A 
ATOM     14  N   UNL     1      -3.794   4.975  -1.274  1.00  0.00    -0.248 NA
ATOM     15  C   UNL     1      -3.258   2.764  -0.738  1.00  0.00     0.031 C 
ATOM     16  C   UNL     1       0.375   6.196  -0.237  1.00  0.00     0.029 A 
ATOM     17  N   UNL     1      -1.552   6.875  -1.135  1.00  0.00    -0.354 N 
ATOM     18  C   UNL     1      -4.927   4.182  -1.392  1.00  0.00     0.074 A 
ATOM     19  C   UNL     1      -4.530   2.822  -1.100  1.00  0.00     0.031 C 
ATOM     20  C   UNL     1       0.514   7.493  -0.560  1.00  0.00     0.029 A 
ATOM     21  C   UNL     1      -0.717   7.966  -1.179  1.00  0.00     0.049 A 
ATOM     22  H   UNL     1      -2.488   6.902  -1.440  1.00  0.00     0.167 HD
ATOM     23  C   UNL     1      -6.194   4.562  -1.674  1.00  0.00     0.037 A 
ATOM     24  C   UNL     1      -0.920   9.208  -1.657  1.00  0.00     0.037 A 
ATOM     25  C   UNL     1      -6.569   5.907  -2.012  1.00  0.00     0.049 A 
ATOM     26  C   UNL     1      -2.299   9.576  -2.130  1.00  0.00     0.074 A 
ATOM     27  C   UNL     1      -7.820   6.407  -2.321  1.00  0.00     0.029 A 
ATOM     28  N   UNL     1      -5.677   6.968  -2.109  1.00  0.00    -0.354 N 
ATOM     29  N   UNL     1      -3.380   8.834  -2.162  1.00  0.00    -0.248 NA
ATOM     30  C   UNL     1      -2.501  10.958  -2.584  1.00  0.00     0.031 C 
ATOM     31  C   UNL     1      -7.678   7.762  -2.647  1.00  0.00     0.029 A 
ATOM     32  C   UNL     1      -6.345   8.115  -2.499  1.00  0.00     0.049 A 
ATOM     33  H   UNL     1      -4.711   6.911  -1.927  1.00  0.00     0.167 HD
ATOM     34  C   UNL     1      -4.408   9.676  -2.568  1.00  0.00     0.074 A 
ATOM     35  C   UNL     1      -3.810  10.976  -2.802  1.00  0.00     0.031 C 
ATOM     36  C   UNL     1      -5.730   9.405  -2.703  1.00  0.00     0.037 A 
BRANCH  23  37
ATOM     37  C   UNL     1      -7.235   3.482  -1.631  1.00  0.00     0.058 A 
ATOM     38  C   UNL     1      -7.643   2.915  -0.411  1.00  0.00     0.135 A 
ATOM     39  C   UNL     1      -7.767   2.950  -2.814  1.00  0.00     0.135 A 
ATOM     40  F   UNL     1      -7.143   3.373   0.748  1.00  0.00    -0.206 F 
ATOM     41  C   UNL     1      -8.498   1.820  -0.369  1.00  0.00     0.059 A 
ATOM     42  C   UNL     1      -8.642   1.868  -2.794  1.00  0.00     0.059 A 
ATOM     43  F   UNL     1      -7.405   3.452  -4.004  1.00  0.00    -0.206 F 
ATOM     44  C   UNL     1      -8.978   1.292  -1.568  1.00  0.00     0.060 A 
BRANCH  44  45
ATOM     45  S   UNL     1     -10.023  -0.179  -1.506  1.00  0.00     0.124 S 
ATOM     46  O   UNL     1      -9.038  -1.220  -1.225  1.00  0.00    -0.237 OA
ATOM     47  O   UNL     1     -10.942   0.133  -0.417  1.00  0.00    -0.237 OA
ATOM     48  O   UNL     1     -10.622  -0.224  -2.836  1.00  0.00    -0.744 OA
ENDBRANCH  44  45
ENDBRANCH  23  37
BRANCH  24  49
ATOM     49  C   UNL     1       0.192  10.196  -1.672  1.00  0.00     0.058 A 
ATOM     50  C   UNL     1       0.221  11.277  -0.779  1.00  0.00     0.135 A 
ATOM     51  C   UNL     1       1.254  10.073  -2.582  1.00  0.00     0.135 A 
ATOM     52  F   UNL     1      -0.771  11.439   0.108  1.00  0.00    -0.206 F 
ATOM     53  C   UNL     1       1.253  12.211  -0.798  1.00  0.00     0.059 A 
ATOM     54  C   UNL     1       2.305  10.986  -2.611  1.00  0.00     0.059 A 
ATOM     55  F   UNL     1       1.283   9.048  -3.447  1.00  0.00    -0.206 F 
ATOM     56  C   UNL     1       2.291  12.058  -1.720  1.00  0.00     0.060 A 
BRANCH  56  57
ATOM     57  S   UNL     1       3.636  13.264  -1.715  1.00  0.00     0.124 S 
ATOM     58  O   UNL     1       2.980  14.440  -2.273  1.00  0.00    -0.237 OA
ATOM     59  O   UNL     1       3.977  13.335  -0.297  1.00  0.00    -0.237 OA
ATOM     60  O   UNL     1       4.647  12.641  -2.564  1.00  0.00    -0.744 OA
ENDBRANCH  56  57
ENDBRANCH  24  49
BRANCH  36  61
ATOM     61  C   UNL     1      -6.632  10.555  -3.043  1.00  0.00     0.058 A 
ATOM     62  C   UNL     1      -6.683  11.105  -4.332  1.00  0.00     0.135 A 
ATOM     63  C   UNL     1      -7.492  11.081  -2.066  1.00  0.00     0.135 A 
ATOM     64  F   UNL     1      -5.873  10.643  -5.297  1.00  0.00    -0.206 F 
ATOM     65  C   UNL     1      -7.545  12.153  -4.636  1.00  0.00     0.059 A 
ATOM     66  C   UNL     1      -8.380  12.110  -2.354  1.00  0.00     0.059 A 
ATOM     67  F   UNL     1      -7.485  10.582  -0.819  1.00  0.00    -0.206 F 
ATOM     68  C   UNL     1      -8.390  12.648  -3.640  1.00  0.00     0.060 A 
BRANCH  68  69
ATOM     69  S   UNL     1      -9.536  13.980  -4.054  1.00  0.00     0.124 S 
ATOM     70  O   UNL     1      -8.652  15.141  -4.041  1.00  0.00    -0.237 OA
ATOM     71  O   UNL     1     -10.031  13.574  -5.366  1.00  0.00    -0.237 OA
ATOM     72  O   UNL     1     -10.520  13.925  -2.977  1.00  0.00    -0.744 OA
ENDBRANCH  68  69
ENDBRANCH  36  61
ENDBRANCH  10  11
ENDBRANCH   3   5
ENDBRANCH   2   3
ENDBRANCH   1   2
BRANCH   1  73
ATOM     73  C   UNL     1       3.441   2.349   3.464  1.00  0.00     0.274 C 
BRANCH  73  74
ATOM     74  O   UNL     1       3.353   2.688   2.075  1.00  0.00    -0.462 OA
BRANCH  74  75
ATOM     75  C   UNL     1       4.489   2.502   1.351  1.00  0.00     0.309 C 
ATOM     76  O   UNL     1       5.573   2.151   1.798  1.00  0.00    -0.252 OA
BRANCH  75  77
ATOM     77  C   UNL     1       4.301   2.687  -0.102  1.00  0.00     0.107 C 
ATOM     78  C   UNL     1       3.150   3.412  -0.725  1.00  0.00     0.025 C 
ATOM     79  C   UNL     1       4.533   4.014  -0.798  1.00  0.00     0.034 C 
BRANCH  79  80
ATOM     80  C   UNL     1       4.669   5.377  -0.160  1.00  0.00    -0.044 A 
ATOM     81  C   UNL     1       4.124   6.497  -0.809  1.00  0.00     0.004 A 
ATOM     82  C   UNL     1       5.329   5.611   1.050  1.00  0.00     0.004 A 
ATOM     83  C   UNL     1       4.217   7.782  -0.264  1.00  0.00     0.004 A 
ATOM     84  C   UNL     1       5.388   6.892   1.614  1.00  0.00     0.004 A 
ATOM     85  C   UNL     1       4.835   8.007   0.970  1.00  0.00    -0.045 A 
BRANCH  85  86
ATOM     86  C   UNL     1       4.865   9.393   1.562  1.00  0.00     0.019 C 
ATOM     87  C   UNL     1       6.042   9.892   2.366  1.00  0.00     0.009 C 
ATOM     88  C   UNL     1       5.816  10.412   0.979  1.00  0.00     0.009 C 
ENDBRANCH  85  86
ENDBRANCH  79  80
ENDBRANCH  75  77
ENDBRANCH  74  75
ENDBRANCH  73  74
ENDBRANCH   1  73
TORSDOF 16
