REMARK SMILES Nc1cc([N+](=O)[O-])ccc1[C@H]([NH3+])C(=O)OCCOC(=O)c1ccc(-c2c3nc(c(-c4c(F)cc(S(=O)(=O)[O-])cc4F)c4ccc([nH]4)c(-c4c(F)cc(S(=O)(=O)[O-])cc4F)c4nc(c(-c5c(F)cc(S(=O)(=O)[O-])cc5F)c5ccc2[nH]5)C=C4)C=C3)cc1
REMARK SMILES IDX 17 1 16 2 15 3 13 4 14 5 11 6 10 7 2 8 3 9 4 10 9 11 8 12
REMARK SMILES IDX 1 13 5 16 6 17 7 18 12 19 18 23 19 24 20 25 21 26 22 27
REMARK SMILES IDX 86 28 23 29 85 30 24 31 25 32 26 33 79 34 27 35 84 36 78 37
REMARK SMILES IDX 80 38 28 39 83 40 77 41 76 42 29 44 63 45 42 46 62 47 43 48
REMARK SMILES IDX 46 49 61 50 81 51 44 52 45 53 60 55 82 56 47 57 30 58 31 59
REMARK SMILES IDX 40 60 32 61 33 62 39 63 41 64 34 65 35 66 36 67 37 68 38 69
REMARK SMILES IDX 64 70 65 71 74 72 66 73 67 74 73 75 75 76 68 77 69 78 70 79
REMARK SMILES IDX 71 80 72 81 48 82 49 83 58 84 50 85 51 86 57 87 59 88 52 89
REMARK SMILES IDX 53 90 54 91 55 92 56 93
REMARK H PARENT 1 14 1 15 12 20 12 21 12 22 80 43 46 54
REMARK Flexibility Score: inf
ROOT
ATOM      1  C   UNL     1      -0.417   3.537   4.033  1.00  0.00     0.275 C 
ENDROOT
BRANCH   1   2
ATOM      2  C   UNL     1      -0.793   4.417   2.836  1.00  0.00     0.274 C 
BRANCH   2   3
ATOM      3  O   UNL     1      -0.793   3.665   1.612  1.00  0.00    -0.457 OA
BRANCH   3   4
ATOM      4  C   UNL     1       0.338   3.713   0.849  1.00  0.00     0.369 C 
ATOM      5  O   UNL     1       1.314   4.407   1.119  1.00  0.00    -0.245 OA
BRANCH   4   6
ATOM      6  C   UNL     1       0.270   2.773  -0.388  1.00  0.00     0.325 C 
BRANCH   6   7
ATOM      7  C   UNL     1       0.287   3.483  -1.747  1.00  0.00     0.044 A 
ATOM      8  C   UNL     1       0.184   2.754  -2.958  1.00  0.00     0.048 A 
ATOM      9  C   UNL     1       0.044   3.443  -4.173  1.00  0.00     0.111 A 
ATOM     10  C   UNL     1       0.150   4.837  -4.213  1.00  0.00     0.271 A 
ATOM     11  C   UNL     1       0.436   4.885  -1.827  1.00  0.00     0.020 A 
ATOM     12  C   UNL     1       0.384   5.560  -3.047  1.00  0.00     0.086 A 
BRANCH   8  13
ATOM     13  N   UNL     1       0.118   1.359  -2.985  1.00  0.00    -0.398 N 
ATOM     14  H   UNL     1       0.047   0.885  -3.845  1.00  0.00     0.156 HD
ATOM     15  H   UNL     1       0.143   0.849  -2.143  1.00  0.00     0.156 HD
ENDBRANCH   8  13
BRANCH  10  16
ATOM     16  N   UNL     1       0.011   5.542  -5.491  1.00  0.00     0.062 N 
ATOM     17  O   UNL     1      -0.228   4.864  -6.502  1.00  0.00    -0.258 OA
ATOM     18  O   UNL     1       0.122   6.776  -5.487  1.00  0.00    -0.258 OA
ENDBRANCH  10  16
ENDBRANCH   6   7
BRANCH   6  19
ATOM     19  N   UNL     1      -0.888   1.852  -0.262  1.00  0.00    -0.342 N 
ATOM     20  H   UNL     1      -1.754   2.390  -0.270  1.00  0.00     0.345 HD
ATOM     21  H   UNL     1      -0.818   1.335   0.614  1.00  0.00     0.345 HD
ATOM     22  H   UNL     1      -0.887   1.197  -1.044  1.00  0.00     0.345 HD
ENDBRANCH   6  19
ENDBRANCH   4   6
ENDBRANCH   3   4
ENDBRANCH   2   3
ENDBRANCH   1   2
BRANCH   1  23
ATOM     23  O   UNL     1       0.993   3.245   4.070  1.00  0.00    -0.458 OA
BRANCH  23  24
ATOM     24  C   UNL     1       1.378   2.152   3.369  1.00  0.00     0.338 C 
ATOM     25  O   UNL     1       0.660   1.381   2.752  1.00  0.00    -0.246 OA
BRANCH  24  26
ATOM     26  C   UNL     1       2.848   2.094   3.304  1.00  0.00     0.060 A 
ATOM     27  C   UNL     1       3.433   1.986   2.038  1.00  0.00     0.016 A 
ATOM     28  C   UNL     1       3.640   2.077   4.453  1.00  0.00     0.016 A 
ATOM     29  C   UNL     1       4.809   1.842   1.912  1.00  0.00     0.010 A 
ATOM     30  C   UNL     1       5.026   1.934   4.326  1.00  0.00     0.010 A 
ATOM     31  C   UNL     1       5.614   1.800   3.055  1.00  0.00    -0.014 A 
BRANCH  31  32
ATOM     32  C   UNL     1       7.067   1.552   2.908  1.00  0.00     0.031 A 
ATOM     33  C   UNL     1       7.627   0.202   3.248  1.00  0.00     0.074 A 
ATOM     34  C   UNL     1       7.868   2.524   2.436  1.00  0.00     0.049 A 
ATOM     35  N   UNL     1       8.870  -0.200   3.253  1.00  0.00    -0.248 NA
ATOM     36  C   UNL     1       6.655  -0.834   3.634  1.00  0.00     0.031 C 
ATOM     37  C   UNL     1       7.425   3.859   2.032  1.00  0.00     0.029 A 
ATOM     38  N   UNL     1       9.222   2.539   2.223  1.00  0.00    -0.354 N 
ATOM     39  C   UNL     1       8.837  -1.527   3.662  1.00  0.00     0.074 A 
ATOM     40  C   UNL     1       7.449  -1.858   3.909  1.00  0.00     0.031 C 
ATOM     41  C   UNL     1       8.492   4.569   1.631  1.00  0.00     0.029 A 
ATOM     42  C   UNL     1       9.694   3.755   1.789  1.00  0.00     0.049 A 
ATOM     43  H   UNL     1       9.801   1.756   2.367  1.00  0.00     0.167 HD
ATOM     44  C   UNL     1       9.871  -2.389   3.814  1.00  0.00     0.037 A 
ATOM     45  C   UNL     1      10.957   4.174   1.577  1.00  0.00     0.037 A 
ATOM     46  C   UNL     1      11.247  -2.051   3.560  1.00  0.00     0.049 A 
ATOM     47  C   UNL     1      12.093   3.214   1.793  1.00  0.00     0.074 A 
ATOM     48  C   UNL     1      12.369  -2.851   3.680  1.00  0.00     0.029 A 
ATOM     49  N   UNL     1      11.688  -0.805   3.134  1.00  0.00    -0.354 N 
ATOM     50  N   UNL     1      12.050   1.964   2.188  1.00  0.00    -0.248 NA
ATOM     51  C   UNL     1      13.448   3.720   1.537  1.00  0.00     0.031 C 
ATOM     52  C   UNL     1      13.493  -2.079   3.361  1.00  0.00     0.029 A 
ATOM     53  C   UNL     1      13.067  -0.809   3.003  1.00  0.00     0.049 A 
ATOM     54  H   UNL     1      11.107  -0.032   2.952  1.00  0.00     0.167 HD
ATOM     55  C   UNL     1      13.370   1.529   2.220  1.00  0.00     0.074 A 
ATOM     56  C   UNL     1      14.187   2.646   1.787  1.00  0.00     0.031 C 
ATOM     57  C   UNL     1      13.862   0.316   2.575  1.00  0.00     0.037 A 
BRANCH  44  58
ATOM     58  C   UNL     1       9.546  -3.768   4.317  1.00  0.00     0.058 A 
ATOM     59  C   UNL     1       8.907  -4.720   3.507  1.00  0.00     0.135 A 
ATOM     60  C   UNL     1       9.870  -4.138   5.633  1.00  0.00     0.135 A 
ATOM     61  F   UNL     1       8.558  -4.411   2.248  1.00  0.00    -0.206 F 
ATOM     62  C   UNL     1       8.565  -5.977   3.996  1.00  0.00     0.059 A 
ATOM     63  C   UNL     1       9.559  -5.398   6.135  1.00  0.00     0.059 A 
ATOM     64  F   UNL     1      10.480  -3.264   6.449  1.00  0.00    -0.206 F 
ATOM     65  C   UNL     1       8.887  -6.303   5.314  1.00  0.00     0.060 A 
BRANCH  65  66
ATOM     66  S   UNL     1       8.409  -7.925   5.949  1.00  0.00     0.124 S 
ATOM     67  O   UNL     1       6.978  -7.737   6.171  1.00  0.00    -0.237 OA
ATOM     68  O   UNL     1       8.767  -8.812   4.847  1.00  0.00    -0.237 OA
ATOM     69  O   UNL     1       9.218  -8.069   7.155  1.00  0.00    -0.744 OA
ENDBRANCH  65  66
ENDBRANCH  44  58
BRANCH  45  70
ATOM     70  C   UNL     1      11.199   5.581   1.168  1.00  0.00     0.058 A 
ATOM     71  C   UNL     1      11.602   5.902  -0.135  1.00  0.00     0.135 A 
ATOM     72  C   UNL     1      10.986   6.638   2.068  1.00  0.00     0.135 A 
ATOM     73  F   UNL     1      11.828   4.926  -1.027  1.00  0.00    -0.206 F 
ATOM     74  C   UNL     1      11.784   7.222  -0.535  1.00  0.00     0.059 A 
ATOM     75  C   UNL     1      11.139   7.966   1.686  1.00  0.00     0.059 A 
ATOM     76  F   UNL     1      10.588   6.381   3.324  1.00  0.00    -0.206 F 
ATOM     77  C   UNL     1      11.543   8.248   0.382  1.00  0.00     0.060 A 
BRANCH  77  78
ATOM     78  S   UNL     1      11.703   9.962  -0.167  1.00  0.00     0.124 S 
ATOM     79  O   UNL     1      13.151  10.128  -0.192  1.00  0.00    -0.237 OA
ATOM     80  O   UNL     1      11.041   9.932  -1.467  1.00  0.00    -0.237 OA
ATOM     81  O   UNL     1      10.998  10.711   0.869  1.00  0.00    -0.744 OA
ENDBRANCH  77  78
ENDBRANCH  45  70
BRANCH  57  82
ATOM     82  C   UNL     1      15.351   0.128   2.496  1.00  0.00     0.058 A 
ATOM     83  C   UNL     1      16.212   0.682   3.455  1.00  0.00     0.135 A 
ATOM     84  C   UNL     1      15.916  -0.654   1.477  1.00  0.00     0.135 A 
ATOM     85  F   UNL     1      15.720   1.444   4.445  1.00  0.00    -0.206 F 
ATOM     86  C   UNL     1      17.587   0.482   3.397  1.00  0.00     0.059 A 
ATOM     87  C   UNL     1      17.287  -0.886   1.412  1.00  0.00     0.059 A 
ATOM     88  F   UNL     1      15.134  -1.214   0.541  1.00  0.00    -0.206 F 
ATOM     89  C   UNL     1      18.115  -0.304   2.371  1.00  0.00     0.060 A 
BRANCH  89  90
ATOM     90  S   UNL     1      19.898  -0.587   2.324  1.00  0.00     0.124 S 
ATOM     91  O   UNL     1      20.382   0.683   1.793  1.00  0.00    -0.237 OA
ATOM     92  O   UNL     1      20.213  -0.851   3.724  1.00  0.00    -0.237 OA
ATOM     93  O   UNL     1      20.035  -1.735   1.431  1.00  0.00    -0.744 OA
ENDBRANCH  89  90
ENDBRANCH  57  82
ENDBRANCH  31  32
ENDBRANCH  24  26
ENDBRANCH  23  24
ENDBRANCH   1  23
TORSDOF 18
