REMARK SMILES CC(C)C[C@H](NC(=O)CNC(=O)[C@@H](NC(=O)OCc1ccccc1)C(C)C)C(=O)N[C@@H](C)C(=O)OCCOC(=O)c1ccc(-c2c3nc(c(-c4c(F)cc(S(=O)(=O)[O-])cc4F)c4ccc([nH]4)c(-c4c(F)cc(S(=O)(=O)[O-])cc4F)c4nc(c(-c5c(F)cc(S(=O)(=O)[O-])cc5F)c5ccc2[nH]5)C=C4)C=C3)cc1
REMARK SMILES IDX 31 1 32 2 30 3 28 4 29 5 5 7 4 8 2 9 1 10 3 11 6 12 7 13
REMARK SMILES IDX 8 15 9 16 10 17 11 18 12 20 13 21 14 22 15 23 16 25 17 26
REMARK SMILES IDX 18 27 19 28 20 29 24 30 21 31 23 32 22 33 25 34 26 35 27 36
REMARK SMILES IDX 33 37 34 38 35 39 36 40 37 41 38 42 39 43 40 44 41 45 42 46
REMARK SMILES IDX 106 47 43 48 105 49 44 50 45 51 46 52 99 53 47 54 104 55
REMARK SMILES IDX 98 56 100 57 48 58 103 59 97 60 96 61 49 63 83 64 62 65
REMARK SMILES IDX 82 66 63 67 66 68 81 69 101 70 64 71 65 72 80 74 102 75
REMARK SMILES IDX 67 76 50 77 51 78 60 79 52 80 53 81 59 82 61 83 54 84 55 85
REMARK SMILES IDX 56 86 57 87 58 88 84 89 85 90 94 91 86 92 87 93 93 94 95 95
REMARK SMILES IDX 88 96 89 97 90 98 91 99 92 100 68 101 69 102 78 103 70 104
REMARK SMILES IDX 71 105 77 106 79 107 72 108 73 109 74 110 75 111 76 112
REMARK H PARENT 30 6 6 14 10 19 14 24 100 62 66 73
REMARK Flexibility Score: inf
ROOT
ATOM      1  C   UNL     1      -3.132  -1.921  -3.159  1.00  0.00     0.189 C 
ATOM      2  C   UNL     1      -3.466  -3.183  -2.371  1.00  0.00     0.043 C 
ENDROOT
BRANCH   1   3
ATOM      3  N   UNL     1      -3.775  -0.757  -2.562  1.00  0.00    -0.341 N 
ATOM      4  C   UNL     1      -3.310   0.286  -1.832  1.00  0.00     0.243 C 
ATOM      5  O   UNL     1      -4.133   1.175  -1.556  1.00  0.00    -0.273 OA
ATOM      6  H   UNL     1      -4.746  -0.721  -2.722  1.00  0.00     0.164 HD
BRANCH   4   7
ATOM      7  C   UNL     1      -1.828   0.504  -1.412  1.00  0.00     0.171 C 
BRANCH   7   8
ATOM      8  C   UNL     1      -1.045   1.230  -2.504  1.00  0.00     0.038 C 
BRANCH   8   9
ATOM      9  C   UNL     1      -1.136   2.774  -2.412  1.00  0.00    -0.015 C 
ATOM     10  C   UNL     1       0.132   3.351  -1.786  1.00  0.00     0.007 C 
ATOM     11  C   UNL     1      -1.337   3.406  -3.789  1.00  0.00     0.007 C 
ENDBRANCH   8   9
ENDBRANCH   7   8
BRANCH   7  12
ATOM     12  N   UNL     1      -1.115  -0.661  -0.903  1.00  0.00    -0.343 N 
ATOM     13  C   UNL     1      -0.563  -0.904   0.316  1.00  0.00     0.240 C 
ATOM     14  H   UNL     1      -1.017  -1.396  -1.551  1.00  0.00     0.164 HD
ATOM     15  O   UNL     1      -0.156  -2.058   0.502  1.00  0.00    -0.273 OA
BRANCH  13  16
ATOM     16  C   UNL     1      -0.532   0.098   1.495  1.00  0.00     0.216 C 
BRANCH  16  17
ATOM     17  N   UNL     1      -0.551   1.529   1.278  1.00  0.00    -0.345 N 
ATOM     18  C   UNL     1      -1.511   2.476   1.451  1.00  0.00     0.243 C 
ATOM     19  H   UNL     1       0.301   1.888   0.939  1.00  0.00     0.164 HD
ATOM     20  O   UNL     1      -1.161   3.650   1.279  1.00  0.00    -0.273 OA
BRANCH  18  21
ATOM     21  C   UNL     1      -2.951   2.187   1.948  1.00  0.00     0.177 C 
BRANCH  21  22
ATOM     22  N   UNL     1      -3.588   1.072   1.244  1.00  0.00    -0.309 N 
ATOM     23  C   UNL     1      -3.759  -0.244   1.536  1.00  0.00     0.408 C 
ATOM     24  H   UNL     1      -3.973   1.331   0.375  1.00  0.00     0.167 HD
ATOM     25  O   UNL     1      -4.036  -1.055   0.672  1.00  0.00    -0.225 OA
BRANCH  23  26
ATOM     26  O   UNL     1      -3.692  -0.517   2.858  1.00  0.00    -0.445 OA
BRANCH  26  27
ATOM     27  C   UNL     1      -4.160  -1.825   3.214  1.00  0.00     0.270 C 
BRANCH  27  28
ATOM     28  C   UNL     1      -5.673  -1.959   3.254  1.00  0.00    -0.011 A 
ATOM     29  C   UNL     1      -6.547  -1.061   2.618  1.00  0.00     0.007 A 
ATOM     30  C   UNL     1      -6.232  -3.074   3.897  1.00  0.00     0.007 A 
ATOM     31  C   UNL     1      -7.926  -1.268   2.615  1.00  0.00     0.000 A 
ATOM     32  C   UNL     1      -7.615  -3.277   3.903  1.00  0.00     0.000 A 
ATOM     33  C   UNL     1      -8.461  -2.377   3.258  1.00  0.00     0.000 A 
ENDBRANCH  27  28
ENDBRANCH  26  27
ENDBRANCH  23  26
ENDBRANCH  21  22
BRANCH  21  34
ATOM     34  C   UNL     1      -3.061   2.225   3.486  1.00  0.00     0.015 C 
ATOM     35  C   UNL     1      -2.365   3.462   4.076  1.00  0.00     0.010 C 
ATOM     36  C   UNL     1      -4.529   2.265   3.930  1.00  0.00     0.010 C 
ENDBRANCH  21  34
ENDBRANCH  18  21
ENDBRANCH  16  17
ENDBRANCH  13  16
ENDBRANCH   7  12
ENDBRANCH   4   7
ENDBRANCH   1   3
BRANCH   1  37
ATOM     37  C   UNL     1      -3.545  -2.148  -4.629  1.00  0.00     0.328 C 
ATOM     38  O   UNL     1      -2.994  -2.970  -5.353  1.00  0.00    -0.250 OA
BRANCH  37  39
ATOM     39  O   UNL     1      -4.590  -1.361  -5.011  1.00  0.00    -0.461 OA
BRANCH  39  40
ATOM     40  C   UNL     1      -4.949  -1.401  -6.407  1.00  0.00     0.274 C 
BRANCH  40  41
ATOM     41  C   UNL     1      -4.437  -0.165  -7.157  1.00  0.00     0.275 C 
BRANCH  41  42
ATOM     42  O   UNL     1      -2.996  -0.135  -7.238  1.00  0.00    -0.458 OA
BRANCH  42  43
ATOM     43  C   UNL     1      -2.426   0.511  -6.198  1.00  0.00     0.338 C 
ATOM     44  O   UNL     1      -3.022   1.019  -5.261  1.00  0.00    -0.246 OA
BRANCH  43  45
ATOM     45  C   UNL     1      -0.954   0.473  -6.221  1.00  0.00     0.060 A 
ATOM     46  C   UNL     1      -0.326  -0.391  -5.325  1.00  0.00     0.016 A 
ATOM     47  C   UNL     1      -0.229   1.502  -6.822  1.00  0.00     0.016 A 
ATOM     48  C   UNL     1       0.979  -0.130  -4.912  1.00  0.00     0.010 A 
ATOM     49  C   UNL     1       1.122   1.692  -6.482  1.00  0.00     0.010 A 
ATOM     50  C   UNL     1       1.727   0.913  -5.483  1.00  0.00    -0.014 A 
BRANCH  50  51
ATOM     51  C   UNL     1       3.148   1.109  -5.068  1.00  0.00     0.031 A 
ATOM     52  C   UNL     1       3.647   2.382  -4.422  1.00  0.00     0.074 A 
ATOM     53  C   UNL     1       4.005   0.084  -5.247  1.00  0.00     0.049 A 
ATOM     54  N   UNL     1       4.840   2.658  -3.951  1.00  0.00    -0.248 NA
ATOM     55  C   UNL     1       2.685   3.478  -4.252  1.00  0.00     0.031 C 
ATOM     56  C   UNL     1       3.654  -1.218  -5.822  1.00  0.00     0.029 A 
ATOM     57  N   UNL     1       5.343  -0.030  -4.968  1.00  0.00    -0.354 N 
ATOM     58  C   UNL     1       4.758   3.934  -3.398  1.00  0.00     0.074 A 
ATOM     59  C   UNL     1       3.400   4.387  -3.600  1.00  0.00     0.031 C 
ATOM     60  C   UNL     1       4.737  -2.003  -5.832  1.00  0.00     0.029 A 
ATOM     61  C   UNL     1       5.879  -1.232  -5.361  1.00  0.00     0.049 A 
ATOM     62  H   UNL     1       5.867   0.679  -4.529  1.00  0.00     0.167 HD
ATOM     63  C   UNL     1       5.726   4.668  -2.795  1.00  0.00     0.037 A 
ATOM     64  C   UNL     1       7.154  -1.656  -5.403  1.00  0.00     0.037 A 
ATOM     65  C   UNL     1       7.107   4.261  -2.700  1.00  0.00     0.049 A 
ATOM     66  C   UNL     1       8.241  -0.743  -4.929  1.00  0.00     0.074 A 
ATOM     67  C   UNL     1       8.173   4.946  -2.139  1.00  0.00     0.029 A 
ATOM     68  N   UNL     1       7.624   3.089  -3.231  1.00  0.00    -0.354 N 
ATOM     69  N   UNL     1       8.136   0.442  -4.377  1.00  0.00    -0.248 NA
ATOM     70  C   UNL     1       9.620  -1.213  -5.102  1.00  0.00     0.031 C 
ATOM     71  C   UNL     1       9.345   4.227  -2.409  1.00  0.00     0.029 A 
ATOM     72  C   UNL     1       9.001   3.062  -3.076  1.00  0.00     0.049 A 
ATOM     73  H   UNL     1       7.091   2.380  -3.657  1.00  0.00     0.167 HD
ATOM     74  C   UNL     1       9.436   0.854  -4.118  1.00  0.00     0.074 A 
ATOM     75  C   UNL     1      10.309  -0.213  -4.568  1.00  0.00     0.031 C 
ATOM     76  C   UNL     1       9.864   2.008  -3.550  1.00  0.00     0.037 A 
BRANCH  63  77
ATOM     77  C   UNL     1       5.354   6.028  -2.259  1.00  0.00     0.058 A 
ATOM     78  C   UNL     1       4.627   6.186  -1.068  1.00  0.00     0.135 A 
ATOM     79  C   UNL     1       5.775   7.192  -2.923  1.00  0.00     0.135 A 
ATOM     80  F   UNL     1       4.194   5.109  -0.393  1.00  0.00    -0.206 F 
ATOM     81  C   UNL     1       4.317   7.449  -0.565  1.00  0.00     0.059 A 
ATOM     82  C   UNL     1       5.492   8.463  -2.430  1.00  0.00     0.059 A 
ATOM     83  F   UNL     1       6.474   7.100  -4.066  1.00  0.00    -0.206 F 
ATOM     84  C   UNL     1       4.751   8.582  -1.256  1.00  0.00     0.060 A 
BRANCH  84  85
ATOM     85  S   UNL     1       4.334  10.216  -0.602  1.00  0.00     0.124 S 
ATOM     86  O   UNL     1       2.902  10.283  -0.876  1.00  0.00    -0.237 OA
ATOM     87  O   UNL     1       4.706  10.095   0.804  1.00  0.00    -0.237 OA
ATOM     88  O   UNL     1       5.165  11.121  -1.391  1.00  0.00    -0.744 OA
ENDBRANCH  84  85
ENDBRANCH  63  77
BRANCH  64  89
ATOM     89  C   UNL     1       7.449  -2.993  -5.977  1.00  0.00     0.058 A 
ATOM     90  C   UNL     1       7.876  -4.051  -5.166  1.00  0.00     0.135 A 
ATOM     91  C   UNL     1       7.230  -3.255  -7.341  1.00  0.00     0.135 A 
ATOM     92  F   UNL     1       8.107  -3.845  -3.861  1.00  0.00    -0.206 F 
ATOM     93  C   UNL     1       8.063  -5.329  -5.682  1.00  0.00     0.059 A 
ATOM     94  C   UNL     1       7.381  -4.529  -7.873  1.00  0.00     0.059 A 
ATOM     95  F   UNL     1       6.806  -2.275  -8.155  1.00  0.00    -0.206 F 
ATOM     96  C   UNL     1       7.801  -5.560  -7.035  1.00  0.00     0.060 A 
BRANCH  96  97
ATOM     97  S   UNL     1       7.954  -7.241  -7.675  1.00  0.00     0.124 S 
ATOM     98  O   UNL     1       9.402  -7.397  -7.741  1.00  0.00    -0.237 OA
ATOM     99  O   UNL     1       7.271  -8.023  -6.650  1.00  0.00    -0.237 OA
ATOM    100  O   UNL     1       7.266  -7.173  -8.961  1.00  0.00    -0.744 OA
ENDBRANCH  96  97
ENDBRANCH  64  89
BRANCH  76 101
ATOM    101  C   UNL     1      11.347   2.167  -3.370  1.00  0.00     0.058 A 
ATOM    102  C   UNL     1      12.201   2.405  -4.458  1.00  0.00     0.135 A 
ATOM    103  C   UNL     1      11.919   2.091  -2.090  1.00  0.00     0.135 A 
ATOM    104  F   UNL     1      11.705   2.474  -5.704  1.00  0.00    -0.206 F 
ATOM    105  C   UNL     1      13.575   2.530  -4.288  1.00  0.00     0.059 A 
ATOM    106  C   UNL     1      13.288   2.241  -1.893  1.00  0.00     0.059 A 
ATOM    107  F   UNL     1      11.146   1.871  -1.015  1.00  0.00    -0.206 F 
ATOM    108  C   UNL     1      14.110   2.444  -3.001  1.00  0.00     0.060 A 
BRANCH 108 109
ATOM    109  S   UNL     1      15.893   2.620  -2.789  1.00  0.00     0.124 S 
ATOM    110  O   UNL     1      16.374   1.329  -3.272  1.00  0.00    -0.237 OA
ATOM    111  O   UNL     1      16.198   3.768  -3.638  1.00  0.00    -0.237 OA
ATOM    112  O   UNL     1      16.044   2.850  -1.356  1.00  0.00    -0.744 OA
ENDBRANCH 108 109
ENDBRANCH  76 101
ENDBRANCH  50  51
ENDBRANCH  43  45
ENDBRANCH  42  43
ENDBRANCH  41  42
ENDBRANCH  40  41
ENDBRANCH  39  40
ENDBRANCH  37  39
ENDBRANCH   1  37
TORSDOF 27
