REMARK SMILES O=C(OCCOC(=O)c1cnc2c(C(F)(F)F)cccc2c1Nc1cccc(O)c1)c1ccc(-c2c3nc(c(-c4c(F)cc(S(=O)(=O)[O-])cc4F)c4ccc([nH]4)c(-c4c(F)cc(S(=O)(=O)[O-])cc4F)c4nc(c(-c5c(F)cc(S(=O)(=O)[O-])cc5F)c5ccc2[nH]5)C=C4)C=C3)cc1
REMARK SMILES IDX 4 1 3 2 2 3 1 4 31 5 32 6 96 7 33 8 95 9 34 10 35 11 36 12
REMARK SMILES IDX 89 13 37 14 94 15 88 16 90 17 38 18 93 19 87 20 86 21 39 23
REMARK SMILES IDX 73 24 52 25 72 26 53 27 56 28 71 29 91 30 54 31 55 32 70 34
REMARK SMILES IDX 92 35 57 36 40 37 41 38 50 39 42 40 43 41 49 42 51 43 44 44
REMARK SMILES IDX 45 45 46 46 47 47 48 48 74 49 75 50 84 51 76 52 77 53 83 54
REMARK SMILES IDX 85 55 78 56 79 57 80 58 81 59 82 60 58 61 59 62 68 63 60 64
REMARK SMILES IDX 61 65 67 66 69 67 62 68 63 69 64 70 65 71 66 72 5 73 6 74
REMARK SMILES IDX 7 75 8 76 9 77 10 78 22 79 11 80 21 81 12 82 20 83 13 84
REMARK SMILES IDX 19 85 18 86 23 87 24 89 25 90 30 91 26 92 28 93 27 94 29 95
REMARK SMILES IDX 14 97 15 98 16 99 17 100
REMARK H PARENT 90 22 56 33 23 88 29 96
REMARK Flexibility Score: inf
ROOT
ATOM      1  C   UNL     1       4.754   1.597   1.660  1.00  0.00     0.275 C 
ENDROOT
BRANCH   1   2
ATOM      2  O   UNL     1       5.395   0.735   0.722  1.00  0.00    -0.458 OA
BRANCH   2   3
ATOM      3  C   UNL     1       4.566   0.249  -0.240  1.00  0.00     0.338 C 
ATOM      4  O   UNL     1       3.609   0.824  -0.718  1.00  0.00    -0.246 OA
BRANCH   3   5
ATOM      5  C   UNL     1       4.863  -1.197  -0.374  1.00  0.00     0.060 A 
ATOM      6  C   UNL     1       6.078  -1.699   0.099  1.00  0.00     0.016 A 
ATOM      7  C   UNL     1       3.852  -2.071  -0.794  1.00  0.00     0.016 A 
ATOM      8  C   UNL     1       6.267  -3.063   0.190  1.00  0.00     0.010 A 
ATOM      9  C   UNL     1       4.030  -3.448  -0.682  1.00  0.00     0.010 A 
ATOM     10  C   UNL     1       5.243  -3.938  -0.190  1.00  0.00    -0.014 A 
BRANCH  10  11
ATOM     11  C   UNL     1       5.558  -5.372  -0.151  1.00  0.00     0.031 A 
ATOM     12  C   UNL     1       6.032  -6.010  -1.415  1.00  0.00     0.074 A 
ATOM     13  C   UNL     1       5.595  -5.995   1.039  1.00  0.00     0.049 A 
ATOM     14  N   UNL     1       6.672  -7.133  -1.575  1.00  0.00    -0.248 NA
ATOM     15  C   UNL     1       5.789  -5.266  -2.664  1.00  0.00     0.031 C 
ATOM     16  C   UNL     1       5.152  -5.414   2.309  1.00  0.00     0.029 A 
ATOM     17  N   UNL     1       6.046  -7.239   1.382  1.00  0.00    -0.354 N 
ATOM     18  C   UNL     1       6.970  -7.197  -2.928  1.00  0.00     0.074 A 
ATOM     19  C   UNL     1       6.370  -6.046  -3.561  1.00  0.00     0.031 C 
ATOM     20  C   UNL     1       5.337  -6.309   3.293  1.00  0.00     0.029 A 
ATOM     21  C   UNL     1       5.931  -7.513   2.724  1.00  0.00     0.049 A 
ATOM     22  H   UNL     1       6.417  -7.877   0.731  1.00  0.00     0.167 HD
ATOM     23  C   UNL     1       7.723  -8.120  -3.565  1.00  0.00     0.037 A 
ATOM     24  C   UNL     1       6.288  -8.616   3.406  1.00  0.00     0.037 A 
ATOM     25  C   UNL     1       8.266  -9.271  -2.899  1.00  0.00     0.049 A 
ATOM     26  C   UNL     1       7.038  -9.681   2.655  1.00  0.00     0.074 A 
ATOM     27  C   UNL     1       9.027 -10.297  -3.422  1.00  0.00     0.029 A 
ATOM     28  N   UNL     1       8.081  -9.550  -1.548  1.00  0.00    -0.354 N 
ATOM     29  N   UNL     1       7.384  -9.702   1.387  1.00  0.00    -0.248 NA
ATOM     30  C   UNL     1       7.483 -10.849   3.422  1.00  0.00     0.031 C 
ATOM     31  C   UNL     1       9.267 -11.219  -2.395  1.00  0.00     0.029 A 
ATOM     32  C   UNL     1       8.693 -10.745  -1.223  1.00  0.00     0.049 A 
ATOM     33  H   UNL     1       7.587  -8.979  -0.917  1.00  0.00     0.167 HD
ATOM     34  C   UNL     1       8.118 -10.866   1.209  1.00  0.00     0.074 A 
ATOM     35  C   UNL     1       8.165 -11.522   2.504  1.00  0.00     0.031 C 
ATOM     36  C   UNL     1       8.711 -11.348   0.088  1.00  0.00     0.037 A 
BRANCH  23  37
ATOM     37  C   UNL     1       7.972  -7.904  -5.029  1.00  0.00     0.058 A 
ATOM     38  C   UNL     1       8.822  -6.879  -5.481  1.00  0.00     0.135 A 
ATOM     39  C   UNL     1       7.331  -8.694  -5.993  1.00  0.00     0.135 A 
ATOM     40  F   UNL     1       9.437  -6.072  -4.602  1.00  0.00    -0.206 F 
ATOM     41  C   UNL     1       9.002  -6.627  -6.838  1.00  0.00     0.059 A 
ATOM     42  C   UNL     1       7.512  -8.474  -7.356  1.00  0.00     0.059 A 
ATOM     43  F   UNL     1       6.496  -9.675  -5.615  1.00  0.00    -0.206 F 
ATOM     44  C   UNL     1       8.336  -7.426  -7.768  1.00  0.00     0.060 A 
BRANCH  44  45
ATOM     45  S   UNL     1       8.557  -7.072  -9.525  1.00  0.00     0.124 S 
ATOM     46  O   UNL     1       7.770  -5.852  -9.677  1.00  0.00    -0.237 OA
ATOM     47  O   UNL     1      10.004  -6.909  -9.632  1.00  0.00    -0.237 OA
ATOM     48  O   UNL     1       8.012  -8.256 -10.181  1.00  0.00    -0.744 OA
ENDBRANCH  44  45
ENDBRANCH  23  37
BRANCH  24  49
ATOM     49  C   UNL     1       5.975  -8.733   4.854  1.00  0.00     0.058 A 
ATOM     50  C   UNL     1       6.972  -8.649   5.836  1.00  0.00     0.135 A 
ATOM     51  C   UNL     1       4.649  -8.904   5.288  1.00  0.00     0.135 A 
ATOM     52  F   UNL     1       8.254  -8.483   5.477  1.00  0.00    -0.206 F 
ATOM     53  C   UNL     1       6.672  -8.749   7.193  1.00  0.00     0.059 A 
ATOM     54  C   UNL     1       4.321  -8.986   6.639  1.00  0.00     0.059 A 
ATOM     55  F   UNL     1       3.653  -8.980   4.391  1.00  0.00    -0.206 F 
ATOM     56  C   UNL     1       5.342  -8.918   7.585  1.00  0.00     0.060 A 
BRANCH  56  57
ATOM     57  S   UNL     1       4.963  -9.016   9.349  1.00  0.00     0.124 S 
ATOM     58  O   UNL     1       5.474 -10.339   9.688  1.00  0.00    -0.237 OA
ATOM     59  O   UNL     1       5.714  -7.886   9.889  1.00  0.00    -0.237 OA
ATOM     60  O   UNL     1       3.511  -8.871   9.392  1.00  0.00    -0.744 OA
ENDBRANCH  56  57
ENDBRANCH  24  49
BRANCH  36  61
ATOM     61  C   UNL     1       9.477 -12.628   0.231  1.00  0.00     0.058 A 
ATOM     62  C   UNL     1       8.823 -13.864   0.332  1.00  0.00     0.135 A 
ATOM     63  C   UNL     1      10.880 -12.617   0.197  1.00  0.00     0.135 A 
ATOM     64  F   UNL     1       7.482 -13.918   0.373  1.00  0.00    -0.206 F 
ATOM     65  C   UNL     1       9.538 -15.052   0.411  1.00  0.00     0.059 A 
ATOM     66  C   UNL     1      11.614 -13.795   0.249  1.00  0.00     0.059 A 
ATOM     67  F   UNL     1      11.546 -11.457   0.089  1.00  0.00    -0.206 F 
ATOM     68  C   UNL     1      10.933 -15.007   0.366  1.00  0.00     0.060 A 
BRANCH  68  69
ATOM     69  S   UNL     1      11.850 -16.559   0.418  1.00  0.00     0.124 S 
ATOM     70  O   UNL     1      11.773 -16.896   1.836  1.00  0.00    -0.237 OA
ATOM     71  O   UNL     1      11.077 -17.412  -0.480  1.00  0.00    -0.237 OA
ATOM     72  O   UNL     1      13.175 -16.186  -0.069  1.00  0.00    -0.744 OA
ENDBRANCH  68  69
ENDBRANCH  36  61
ENDBRANCH  10  11
ENDBRANCH   3   5
ENDBRANCH   2   3
ENDBRANCH   1   2
BRANCH   1  73
ATOM     73  C   UNL     1       3.905   0.807   2.673  1.00  0.00     0.275 C 
BRANCH  73  74
ATOM     74  O   UNL     1       3.293  -0.375   2.110  1.00  0.00    -0.458 OA
BRANCH  74  75
ATOM     75  C   UNL     1       1.948  -0.528   2.216  1.00  0.00     0.341 C 
ATOM     76  O   UNL     1       1.168   0.267   2.707  1.00  0.00    -0.246 OA
BRANCH  75  77
ATOM     77  C   UNL     1       1.606  -1.923   1.861  1.00  0.00     0.102 A 
ATOM     78  C   UNL     1       2.172  -2.875   2.696  1.00  0.00     0.129 A 
ATOM     79  C   UNL     1       0.689  -2.370   0.897  1.00  0.00     0.064 A 
ATOM     80  N   UNL     1       1.936  -4.205   2.628  1.00  0.00    -0.255 NA
ATOM     81  C   UNL     1       0.486  -3.799   0.764  1.00  0.00     0.025 A 
ATOM     82  C   UNL     1       1.120  -4.679   1.682  1.00  0.00     0.085 A 
ATOM     83  C   UNL     1      -0.297  -4.381  -0.269  1.00  0.00     0.012 A 
ATOM     84  C   UNL     1       0.899  -6.058   1.587  1.00  0.00     0.082 A 
ATOM     85  C   UNL     1      -0.482  -5.756  -0.378  1.00  0.00     0.001 A 
ATOM     86  C   UNL     1       0.109  -6.590   0.551  1.00  0.00     0.015 A 
BRANCH  79  87
ATOM     87  N   UNL     1       0.007  -1.540  -0.033  1.00  0.00    -0.354 N 
ATOM     88  H   UNL     1      -0.822  -1.940  -0.382  1.00  0.00     0.167 HD
BRANCH  87  89
ATOM     89  C   UNL     1       0.277  -0.268  -0.554  1.00  0.00     0.042 A 
ATOM     90  C   UNL     1       0.788  -0.152  -1.855  1.00  0.00     0.026 A 
ATOM     91  C   UNL     1      -0.171   0.886   0.085  1.00  0.00     0.072 A 
ATOM     92  C   UNL     1       0.993   1.101  -2.439  1.00  0.00     0.006 A 
ATOM     93  C   UNL     1       0.043   2.133  -0.493  1.00  0.00     0.117 A 
ATOM     94  C   UNL     1       0.638   2.253  -1.744  1.00  0.00     0.046 A 
BRANCH  93  95
ATOM     95  O   UNL     1      -0.347   3.239   0.206  1.00  0.00    -0.508 OA
ATOM     96  H   UNL     1      -0.216   4.093  -0.157  1.00  0.00     0.293 HD
ENDBRANCH  93  95
ENDBRANCH  87  89
ENDBRANCH  79  87
BRANCH  84  97
ATOM     97  C   UNL     1       1.542  -7.029   2.550  1.00  0.00     0.418 C 
ATOM     98  F   UNL     1       2.741  -7.476   2.100  1.00  0.00    -0.166 F 
ATOM     99  F   UNL     1       1.728  -6.568   3.814  1.00  0.00    -0.166 F 
ATOM    100  F   UNL     1       0.776  -8.156   2.701  1.00  0.00    -0.166 F 
ENDBRANCH  84  97
ENDBRANCH  75  77
ENDBRANCH  74  75
ENDBRANCH  73  74
ENDBRANCH   1  73
TORSDOF 18
