REMARK SMILES O=C(OCCOC(=O)c1ccc(-c2c3nc(c(-c4c(F)cc(S(=O)(=O)[O-])cc4F)c4ccc([nH]4)c(-c4c(F)cc(S(=O)(=O)[O-])cc4F)c4nc(c(-c5c(F)cc(S(=O)(=O)[O-])cc5F)c5ccc2[nH]5)C=C4)C=C3)cc1)C1=Cc2cc(Cl)cc(Cl)c2O[C@@H]1C(F)(F)F
REMARK SMILES IDX 5 1 4 2 3 3 2 4 1 5 75 6 76 7 86 8 77 9 85 10 78 11 84 12
REMARK SMILES IDX 79 13 82 14 80 15 81 16 83 17 87 18 88 19 89 20 90 21 6 22
REMARK SMILES IDX 7 23 8 24 9 25 10 26 74 27 11 28 73 29 12 30 13 31 14 32
REMARK SMILES IDX 67 33 15 34 72 35 66 36 68 37 16 38 71 39 65 40 64 41 17 43
REMARK SMILES IDX 51 44 30 45 50 46 31 47 34 48 49 49 69 50 32 51 33 52 48 54
REMARK SMILES IDX 70 55 35 56 18 57 19 58 28 59 20 60 21 61 27 62 29 63 22 64
REMARK SMILES IDX 23 65 24 66 25 67 26 68 52 69 53 70 62 71 54 72 55 73 61 74
REMARK SMILES IDX 63 75 56 76 57 77 58 78 59 79 60 80 36 81 37 82 46 83 38 84
REMARK SMILES IDX 39 85 45 86 47 87 40 88 41 89 42 90 43 91 44 92
REMARK H PARENT 68 42 34 53
REMARK Flexibility Score: inf
ROOT
ATOM      1  C   UNL     1       4.817  -0.797  -0.214  1.00  0.00     0.275 C 
ENDROOT
BRANCH   1   2
ATOM      2  C   UNL     1       4.027   1.216  -0.245  1.00  0.00     0.275 C 
BRANCH   2   3
ATOM      3  O   UNL     1       3.238   1.880  -1.411  1.00  0.00    -0.459 OA
BRANCH   3   4
ATOM      4  C   UNL     1       3.497   1.332  -2.604  1.00  0.00     0.338 C 
ATOM      5  O   UNL     1       2.988   1.529  -3.677  1.00  0.00    -0.246 OA
BRANCH   4   6
ATOM      6  C   UNL     1       4.290   0.250  -2.079  1.00  0.00     0.087 C 
ATOM      7  C   UNL     1       5.647   0.695  -1.721  1.00  0.00     0.027 C 
ATOM      8  C   UNL     1       2.964  -0.398  -0.835  1.00  0.00     0.316 C 
ATOM      9  C   UNL     1       6.213   0.864  -0.018  1.00  0.00     0.020 A 
ATOM     10  O   UNL     1       3.533  -0.160   0.994  1.00  0.00    -0.474 OA
ATOM     11  C   UNL     1       7.443   1.418   0.201  1.00  0.00     0.032 A 
ATOM     12  C   UNL     1       5.179   0.544   1.341  1.00  0.00     0.146 A 
ATOM     13  C   UNL     1       7.740   1.675   1.548  1.00  0.00     0.043 A 
ATOM     14  C   UNL     1       5.566   0.834   2.622  1.00  0.00     0.085 A 
ATOM     15  Cl  UNL     1       9.282   2.406   1.868  1.00  0.00    -0.084 Cl
ATOM     16  C   UNL     1       6.862   1.408   2.685  1.00  0.00     0.045 A 
ATOM     17  Cl  UNL     1       4.622   0.611   4.014  1.00  0.00    -0.080 Cl
BRANCH   8  18
ATOM     18  C   UNL     1       2.520  -1.657  -1.678  1.00  0.00     0.430 C 
ATOM     19  F   UNL     1       1.284  -2.060  -1.363  1.00  0.00    -0.167 F 
ATOM     20  F   UNL     1       2.417  -1.271  -2.988  1.00  0.00    -0.167 F 
ATOM     21  F   UNL     1       3.376  -2.692  -1.736  1.00  0.00    -0.167 F 
ENDBRANCH   8  18
ENDBRANCH   4   6
ENDBRANCH   3   4
ENDBRANCH   2   3
ENDBRANCH   1   2
BRANCH   1  22
ATOM     22  O   UNL     1       3.991  -2.192   0.372  1.00  0.00    -0.458 OA
BRANCH  22  23
ATOM     23  C   UNL     1       3.067  -2.634   1.290  1.00  0.00     0.338 C 
ATOM     24  O   UNL     1       2.542  -2.048   2.217  1.00  0.00    -0.246 OA
BRANCH  23  25
ATOM     25  C   UNL     1       2.503  -3.882   0.700  1.00  0.00     0.060 A 
ATOM     26  C   UNL     1       1.166  -3.878   0.265  1.00  0.00     0.016 A 
ATOM     27  C   UNL     1       3.384  -4.857   0.241  1.00  0.00     0.016 A 
ATOM     28  C   UNL     1       0.794  -4.674  -0.831  1.00  0.00     0.010 A 
ATOM     29  C   UNL     1       2.996  -5.678  -0.814  1.00  0.00     0.010 A 
ATOM     30  C   UNL     1       1.732  -5.537  -1.413  1.00  0.00    -0.014 A 
BRANCH  30  31
ATOM     31  C   UNL     1       1.361  -6.524  -2.456  1.00  0.00     0.031 A 
ATOM     32  C   UNL     1       0.850  -7.829  -1.933  1.00  0.00     0.074 A 
ATOM     33  C   UNL     1       1.637  -6.363  -3.767  1.00  0.00     0.049 A 
ATOM     34  N   UNL     1       0.721  -8.977  -2.534  1.00  0.00    -0.248 NA
ATOM     35  C   UNL     1       0.510  -7.844  -0.499  1.00  0.00     0.031 C 
ATOM     36  C   UNL     1       2.147  -5.144  -4.396  1.00  0.00     0.029 A 
ATOM     37  N   UNL     1       1.565  -7.263  -4.807  1.00  0.00    -0.354 N 
ATOM     38  C   UNL     1       0.326  -9.859  -1.539  1.00  0.00     0.074 A 
ATOM     39  C   UNL     1       0.294  -9.128  -0.295  1.00  0.00     0.031 C 
ATOM     40  C   UNL     1       2.365  -5.382  -5.705  1.00  0.00     0.029 A 
ATOM     41  C   UNL     1       2.045  -6.778  -6.006  1.00  0.00     0.049 A 
ATOM     42  H   UNL     1       1.202  -8.173  -4.705  1.00  0.00     0.167 HD
ATOM     43  C   UNL     1       0.009 -11.167  -1.648  1.00  0.00     0.037 A 
ATOM     44  C   UNL     1       2.222  -7.403  -7.192  1.00  0.00     0.037 A 
ATOM     45  C   UNL     1       0.070 -11.890  -2.881  1.00  0.00     0.049 A 
ATOM     46  C   UNL     1       1.869  -8.873  -7.301  1.00  0.00     0.074 A 
ATOM     47  C   UNL     1      -0.239 -13.214  -3.120  1.00  0.00     0.029 A 
ATOM     48  N   UNL     1       0.485 -11.342  -4.088  1.00  0.00    -0.354 N 
ATOM     49  N   UNL     1       1.438  -9.691  -6.367  1.00  0.00    -0.248 NA
ATOM     50  C   UNL     1       2.024  -9.509  -8.619  1.00  0.00     0.031 C 
ATOM     51  C   UNL     1       0.027 -13.479  -4.466  1.00  0.00     0.029 A 
ATOM     52  C   UNL     1       0.446 -12.304  -5.078  1.00  0.00     0.049 A 
ATOM     53  H   UNL     1       0.766 -10.408  -4.218  1.00  0.00     0.167 HD
ATOM     54  C   UNL     1       1.231 -10.919  -6.991  1.00  0.00     0.074 A 
ATOM     55  C   UNL     1       1.592 -10.742  -8.382  1.00  0.00     0.031 C 
ATOM     56  C   UNL     1       0.777 -12.085  -6.465  1.00  0.00     0.037 A 
BRANCH  43  57
ATOM     57  C   UNL     1      -0.378 -11.858  -0.373  1.00  0.00     0.058 A 
ATOM     58  C   UNL     1      -1.547 -11.505   0.323  1.00  0.00     0.135 A 
ATOM     59  C   UNL     1       0.492 -12.780   0.225  1.00  0.00     0.135 A 
ATOM     60  F   UNL     1      -2.393 -10.595  -0.189  1.00  0.00    -0.206 F 
ATOM     61  C   UNL     1      -1.799 -11.982   1.603  1.00  0.00     0.059 A 
ATOM     62  C   UNL     1       0.238 -13.303   1.488  1.00  0.00     0.059 A 
ATOM     63  F   UNL     1       1.628 -13.142  -0.393  1.00  0.00    -0.206 F 
ATOM     64  C   UNL     1      -0.892 -12.871   2.182  1.00  0.00     0.060 A 
BRANCH  64  65
ATOM     65  S   UNL     1      -1.195 -13.429   3.869  1.00  0.00     0.124 S 
ATOM     66  O   UNL     1      -0.815 -12.248   4.638  1.00  0.00    -0.237 OA
ATOM     67  O   UNL     1      -2.622 -13.736   3.846  1.00  0.00    -0.237 OA
ATOM     68  O   UNL     1      -0.311 -14.581   4.008  1.00  0.00    -0.744 OA
ENDBRANCH  64  65
ENDBRANCH  43  57
BRANCH  44  69
ATOM     69  C   UNL     1       2.743  -6.662  -8.381  1.00  0.00     0.058 A 
ATOM     70  C   UNL     1       1.910  -6.375  -9.477  1.00  0.00     0.135 A 
ATOM     71  C   UNL     1       4.077  -6.232  -8.462  1.00  0.00     0.135 A 
ATOM     72  F   UNL     1       0.632  -6.786  -9.470  1.00  0.00    -0.206 F 
ATOM     73  C   UNL     1       2.376  -5.695 -10.601  1.00  0.00     0.059 A 
ATOM     74  C   UNL     1       4.562  -5.531  -9.567  1.00  0.00     0.059 A 
ATOM     75  F   UNL     1       4.925  -6.481  -7.452  1.00  0.00    -0.206 F 
ATOM     76  C   UNL     1       3.704  -5.268 -10.634  1.00  0.00     0.060 A 
BRANCH  76  77
ATOM     77  S   UNL     1       4.275  -4.321 -12.066  1.00  0.00     0.124 S 
ATOM     78  O   UNL     1       4.288  -5.338 -13.111  1.00  0.00    -0.237 OA
ATOM     79  O   UNL     1       3.242  -3.297 -12.186  1.00  0.00    -0.237 OA
ATOM     80  O   UNL     1       5.585  -3.833 -11.646  1.00  0.00    -0.744 OA
ENDBRANCH  76  77
ENDBRANCH  44  69
BRANCH  56  81
ATOM     81  C   UNL     1       0.563 -13.253  -7.388  1.00  0.00     0.058 A 
ATOM     82  C   UNL     1       1.629 -14.023  -7.873  1.00  0.00     0.135 A 
ATOM     83  C   UNL     1      -0.744 -13.696  -7.655  1.00  0.00     0.135 A 
ATOM     84  F   UNL     1       2.897 -13.643  -7.647  1.00  0.00    -0.206 F 
ATOM     85  C   UNL     1       1.407 -15.199  -8.585  1.00  0.00     0.059 A 
ATOM     86  C   UNL     1      -0.989 -14.880  -8.339  1.00  0.00     0.059 A 
ATOM     87  F   UNL     1      -1.799 -13.001  -7.199  1.00  0.00    -0.206 F 
ATOM     88  C   UNL     1       0.094 -15.627  -8.799  1.00  0.00     0.060 A 
BRANCH  88  89
ATOM     89  S   UNL     1      -0.178 -17.203  -9.636  1.00  0.00     0.124 S 
ATOM     90  O   UNL     1       0.172 -16.871 -11.013  1.00  0.00    -0.237 OA
ATOM     91  O   UNL     1       0.751 -18.089  -8.941  1.00  0.00    -0.237 OA
ATOM     92  O   UNL     1      -1.592 -17.477  -9.396  1.00  0.00    -0.744 OA
ENDBRANCH  88  89
ENDBRANCH  56  81
ENDBRANCH  30  31
ENDBRANCH  23  25
ENDBRANCH  22  23
ENDBRANCH   1  22
TORSDOF 15
