REMARK SMILES O=C(OCCOC(=O)[C@H]1C[N@H+](Cc2ccc(Cl)c(Cl)c2)CC12CCCCC2)c1ccc(-c2c3nc(c(-c4c(F)cc(S(=O)(=O)[O-])cc4F)c4ccc([nH]4)c(-c4c(F)cc(S(=O)(=O)[O-])cc4F)c4nc(c(-c5c(F)cc(S(=O)(=O)[O-])cc5F)c5ccc2[nH]5)C=C4)C=C3)cc1
REMARK SMILES IDX 4 1 3 2 2 3 1 4 28 5 29 6 93 7 30 8 92 9 31 10 32 11 33 12
REMARK SMILES IDX 86 13 34 14 91 15 85 16 87 17 35 18 90 19 84 20 83 21 36 23
REMARK SMILES IDX 70 24 49 25 69 26 50 27 53 28 68 29 88 30 51 31 52 32 67 34
REMARK SMILES IDX 89 35 54 36 37 37 38 38 47 39 39 40 40 41 46 42 48 43 41 44
REMARK SMILES IDX 42 45 43 46 44 47 45 48 71 49 72 50 81 51 73 52 74 53 80 54
REMARK SMILES IDX 82 55 75 56 76 57 77 58 78 59 79 60 55 61 56 62 65 63 57 64
REMARK SMILES IDX 58 65 64 66 66 67 59 68 60 69 61 70 62 71 63 72 5 73 6 74
REMARK SMILES IDX 7 75 8 76 9 77 10 78 22 79 11 80 21 81 23 82 27 83 24 85
REMARK SMILES IDX 26 86 25 87 12 88 13 89 14 90 20 91 15 92 18 93 16 94 19 95
REMARK SMILES IDX 17 96
REMARK H PARENT 87 22 53 33 11 84
REMARK Flexibility Score: inf
ROOT
ATOM      1  C   UNL     1       4.261   2.138  -0.772  1.00  0.00     0.275 C 
ENDROOT
BRANCH   1   2
ATOM      2  O   UNL     1       3.727   1.055  -1.544  1.00  0.00    -0.458 OA
BRANCH   2   3
ATOM      3  C   UNL     1       3.825  -0.277  -1.334  1.00  0.00     0.338 C 
ATOM      4  O   UNL     1       3.118  -1.021  -2.013  1.00  0.00    -0.246 OA
BRANCH   3   5
ATOM      5  C   UNL     1       4.695  -0.902  -0.285  1.00  0.00     0.060 A 
ATOM      6  C   UNL     1       5.795  -0.332   0.361  1.00  0.00     0.016 A 
ATOM      7  C   UNL     1       4.349  -2.205   0.084  1.00  0.00     0.016 A 
ATOM      8  C   UNL     1       6.479  -1.008   1.381  1.00  0.00     0.010 A 
ATOM      9  C   UNL     1       4.978  -2.849   1.155  1.00  0.00     0.010 A 
ATOM     10  C   UNL     1       6.064  -2.267   1.813  1.00  0.00    -0.014 A 
BRANCH  10  11
ATOM     11  C   UNL     1       6.786  -3.004   2.886  1.00  0.00     0.031 A 
ATOM     12  C   UNL     1       7.232  -4.426   2.625  1.00  0.00     0.074 A 
ATOM     13  C   UNL     1       6.929  -2.458   4.114  1.00  0.00     0.049 A 
ATOM     14  N   UNL     1       7.710  -5.313   3.458  1.00  0.00    -0.248 NA
ATOM     15  C   UNL     1       7.041  -4.941   1.257  1.00  0.00     0.031 C 
ATOM     16  C   UNL     1       6.394  -1.157   4.543  1.00  0.00     0.029 A 
ATOM     17  N   UNL     1       7.471  -2.975   5.266  1.00  0.00    -0.354 N 
ATOM     18  C   UNL     1       7.836  -6.486   2.717  1.00  0.00     0.074 A 
ATOM     19  C   UNL     1       7.250  -6.236   1.423  1.00  0.00     0.031 C 
ATOM     20  C   UNL     1       6.587  -1.008   5.865  1.00  0.00     0.029 A 
ATOM     21  C   UNL     1       7.261  -2.192   6.381  1.00  0.00     0.049 A 
ATOM     22  H   UNL     1       7.963  -3.828   5.293  1.00  0.00     0.167 HD
ATOM     23  C   UNL     1       8.467  -7.640   3.043  1.00  0.00     0.037 A 
ATOM     24  C   UNL     1       7.566  -2.416   7.673  1.00  0.00     0.037 A 
ATOM     25  C   UNL     1       9.114  -7.841   4.310  1.00  0.00     0.049 A 
ATOM     26  C   UNL     1       8.340  -3.662   8.011  1.00  0.00     0.074 A 
ATOM     27  C   UNL     1       9.908  -8.894   4.725  1.00  0.00     0.029 A 
ATOM     28  N   UNL     1       9.046  -6.945   5.367  1.00  0.00    -0.354 N 
ATOM     29  N   UNL     1       8.598  -4.700   7.252  1.00  0.00    -0.248 NA
ATOM     30  C   UNL     1       8.927  -3.734   9.354  1.00  0.00     0.031 C 
ATOM     31  C   UNL     1      10.312  -8.638   6.040  1.00  0.00     0.029 A 
ATOM     32  C   UNL     1       9.805  -7.406   6.426  1.00  0.00     0.049 A 
ATOM     33  H   UNL     1       8.534  -6.104   5.363  1.00  0.00     0.167 HD
ATOM     34  C   UNL     1       9.435  -5.518   8.002  1.00  0.00     0.074 A 
ATOM     35  C   UNL     1       9.631  -4.853   9.275  1.00  0.00     0.031 C 
ATOM     36  C   UNL     1      10.008  -6.701   7.666  1.00  0.00     0.037 A 
BRANCH  23  37
ATOM     37  C   UNL     1       8.561  -8.709   1.982  1.00  0.00     0.058 A 
ATOM     38  C   UNL     1       9.253  -8.481   0.777  1.00  0.00     0.135 A 
ATOM     39  C   UNL     1       7.966  -9.968   2.155  1.00  0.00     0.135 A 
ATOM     40  F   UNL     1       9.843  -7.296   0.547  1.00  0.00    -0.206 F 
ATOM     41  C   UNL     1       9.297  -9.430  -0.237  1.00  0.00     0.059 A 
ATOM     42  C   UNL     1       8.035 -10.952   1.169  1.00  0.00     0.059 A 
ATOM     43  F   UNL     1       7.301 -10.254   3.285  1.00  0.00    -0.206 F 
ATOM     44  C   UNL     1       8.685 -10.665  -0.032  1.00  0.00     0.060 A 
BRANCH  44  45
ATOM     45  S   UNL     1       8.779 -11.893  -1.351  1.00  0.00     0.124 S 
ATOM     46  O   UNL     1       7.829 -11.354  -2.321  1.00  0.00    -0.237 OA
ATOM     47  O   UNL     1      10.184 -11.825  -1.740  1.00  0.00    -0.237 OA
ATOM     48  O   UNL     1       8.373 -13.131  -0.694  1.00  0.00    -0.744 OA
ENDBRANCH  44  45
ENDBRANCH  23  37
BRANCH  24  49
ATOM     49  C   UNL     1       7.243  -1.414   8.725  1.00  0.00     0.058 A 
ATOM     50  C   UNL     1       8.248  -0.589   9.253  1.00  0.00     0.135 A 
ATOM     51  C   UNL     1       5.947  -1.273   9.243  1.00  0.00     0.135 A 
ATOM     52  F   UNL     1       9.502  -0.681   8.785  1.00  0.00    -0.206 F 
ATOM     53  C   UNL     1       7.994   0.305  10.287  1.00  0.00     0.059 A 
ATOM     54  C   UNL     1       5.662  -0.370  10.267  1.00  0.00     0.059 A 
ATOM     55  F   UNL     1       4.941  -2.013   8.749  1.00  0.00    -0.206 F 
ATOM     56  C   UNL     1       6.697   0.403  10.793  1.00  0.00     0.060 A 
BRANCH  56  57
ATOM     57  S   UNL     1       6.389   1.577  12.132  1.00  0.00     0.124 S 
ATOM     58  O   UNL     1       7.107   0.958  13.240  1.00  0.00    -0.237 OA
ATOM     59  O   UNL     1       6.975   2.803  11.598  1.00  0.00    -0.237 OA
ATOM     60  O   UNL     1       4.934   1.584  12.246  1.00  0.00    -0.744 OA
ENDBRANCH  56  57
ENDBRANCH  24  49
BRANCH  36  61
ATOM     61  C   UNL     1      10.974  -7.296   8.647  1.00  0.00     0.058 A 
ATOM     62  C   UNL     1      10.553  -7.864   9.858  1.00  0.00     0.135 A 
ATOM     63  C   UNL     1      12.345  -7.325   8.344  1.00  0.00     0.135 A 
ATOM     64  F   UNL     1       9.254  -7.852  10.195  1.00  0.00    -0.206 F 
ATOM     65  C   UNL     1      11.464  -8.409  10.754  1.00  0.00     0.059 A 
ATOM     66  C   UNL     1      13.269  -7.896   9.210  1.00  0.00     0.059 A 
ATOM     67  F   UNL     1      12.796  -6.803   7.192  1.00  0.00    -0.206 F 
ATOM     68  C   UNL     1      12.820  -8.421  10.420  1.00  0.00     0.060 A 
BRANCH  68  69
ATOM     69  S   UNL     1      13.990  -9.151  11.583  1.00  0.00     0.124 S 
ATOM     70  O   UNL     1      14.041  -8.131  12.625  1.00  0.00    -0.237 OA
ATOM     71  O   UNL     1      13.329 -10.400  11.948  1.00  0.00    -0.237 OA
ATOM     72  O   UNL     1      15.207  -9.301  10.791  1.00  0.00    -0.744 OA
ENDBRANCH  68  69
ENDBRANCH  36  61
ENDBRANCH  10  11
ENDBRANCH   3   5
ENDBRANCH   2   3
ENDBRANCH   1   2
BRANCH   1  73
ATOM     73  C   UNL     1       3.552   2.383   0.562  1.00  0.00     0.274 C 
BRANCH  73  74
ATOM     74  O   UNL     1       3.296   1.187   1.324  1.00  0.00    -0.462 OA
BRANCH  74  75
ATOM     75  C   UNL     1       1.981   0.841   1.513  1.00  0.00     0.315 C 
ATOM     76  O   UNL     1       1.037   1.452   1.044  1.00  0.00    -0.252 OA
BRANCH  75  77
ATOM     77  C   UNL     1       1.868  -0.347   2.470  1.00  0.00     0.166 C 
ATOM     78  C   UNL     1       1.380   0.184   3.823  1.00  0.00     0.278 C 
ATOM     79  C   UNL     1       0.899  -1.522   2.089  1.00  0.00     0.038 C 
ATOM     80  N   UNL     1       0.374  -0.742   4.312  1.00  0.00    -0.330 N 
ATOM     81  C   UNL     1      -0.200  -1.445   3.173  1.00  0.00     0.270 C 
ATOM     82  C   UNL     1       0.329  -1.448   0.652  1.00  0.00     0.014 C 
ATOM     83  C   UNL     1       1.666  -2.858   2.198  1.00  0.00     0.014 C 
ATOM     84  H   UNL     1      -0.388  -0.211   4.733  1.00  0.00     0.348 HD
ATOM     85  C   UNL     1      -0.414  -2.712   0.199  1.00  0.00     0.001 C 
ATOM     86  C   UNL     1       0.914  -4.112   1.784  1.00  0.00     0.001 C 
ATOM     87  C   UNL     1       0.428  -3.973   0.354  1.00  0.00     0.000 C 
BRANCH  80  88
ATOM     88  C   UNL     1       0.610  -1.437   5.577  1.00  0.00     0.299 C 
BRANCH  88  89
ATOM     89  C   UNL     1       1.547  -2.624   5.567  1.00  0.00     0.008 A 
ATOM     90  C   UNL     1       2.934  -2.455   5.483  1.00  0.00     0.011 A 
ATOM     91  C   UNL     1       1.038  -3.937   5.588  1.00  0.00     0.031 A 
ATOM     92  C   UNL     1       3.766  -3.566   5.308  1.00  0.00     0.022 A 
ATOM     93  C   UNL     1       1.879  -5.046   5.414  1.00  0.00     0.060 A 
ATOM     94  C   UNL     1       3.247  -4.856   5.232  1.00  0.00     0.059 A 
ATOM     95  Cl  UNL     1       1.154  -6.613   5.382  1.00  0.00    -0.083 Cl
ATOM     96  Cl  UNL     1       4.332  -6.141   4.849  1.00  0.00    -0.083 Cl
ENDBRANCH  88  89
ENDBRANCH  80  88
ENDBRANCH  75  77
ENDBRANCH  74  75
ENDBRANCH  73  74
ENDBRANCH   1  73
TORSDOF 16
