REMARK SMILES CC(C)(C)OC(=O)N1C[C@@H](C(=O)OCCOC(=O)c2ccc(-c3c4nc(c(-c5c(F)cc(S(=O)(=O)[O-])cc5F)c5ccc([nH]5)c(-c5c(F)cc(S(=O)(=O)[O-])cc5F)c5nc(c(-c6c(F)cc(S(=O)(=O)[O-])cc6F)c6ccc3[nH]6)C=C5)C=C4)cc2)[C@@]2(C1)C(=O)Nc1ccccc12
REMARK SMILES IDX 14 1 13 2 11 3 12 4 10 5 8 6 9 7 86 8 85 9 87 10 95 11 88 12
REMARK SMILES IDX 89 13 90 14 94 15 91 17 93 18 92 19 6 20 7 21 5 22 2 23 1 24
REMARK SMILES IDX 3 25 4 26 15 27 16 28 17 29 18 30 19 31 20 32 84 33 21 34
REMARK SMILES IDX 83 35 22 36 23 37 24 38 77 39 25 40 82 41 76 42 78 43 26 44
REMARK SMILES IDX 81 45 75 46 74 47 27 49 61 50 40 51 60 52 41 53 44 54 59 55
REMARK SMILES IDX 79 56 42 57 43 58 58 60 80 61 45 62 28 63 29 64 38 65 30 66
REMARK SMILES IDX 31 67 37 68 39 69 32 70 33 71 34 72 35 73 36 74 62 75 63 76
REMARK SMILES IDX 72 77 64 78 65 79 71 80 73 81 66 82 67 83 68 84 69 85 70 86
REMARK SMILES IDX 46 87 47 88 56 89 48 90 49 91 55 92 57 93 50 94 51 95 52 96
REMARK SMILES IDX 53 97 54 98
REMARK H PARENT 89 16 78 48 44 59
REMARK Flexibility Score: inf
ROOT
ATOM      1  C   UNL     1       1.628   8.072  -3.619  1.00  0.00     0.274 C 
ENDROOT
BRANCH   1   2
ATOM      2  O   UNL     1       1.951   6.683  -3.858  1.00  0.00    -0.462 OA
BRANCH   2   3
ATOM      3  C   UNL     1       1.119   6.041  -4.704  1.00  0.00     0.312 C 
ATOM      4  O   UNL     1       0.092   6.547  -5.154  1.00  0.00    -0.252 OA
BRANCH   3   5
ATOM      5  C   UNL     1       1.506   4.632  -5.083  1.00  0.00     0.140 C 
ATOM      6  N   UNL     1       1.011   2.981  -3.456  1.00  0.00    -0.306 N 
ATOM      7  C   UNL     1       0.403   3.731  -4.535  1.00  0.00     0.140 C 
ATOM      8  C   UNL     1       2.432   3.290  -3.304  1.00  0.00     0.146 C 
ATOM      9  C   UNL     1       2.808   3.926  -4.641  1.00  0.00     0.109 C 
ATOM     10  C   UNL     1       3.031   2.797  -5.710  1.00  0.00     0.237 C 
ATOM     11  C   UNL     1       4.111   4.677  -4.785  1.00  0.00    -0.006 A 
ATOM     12  O   UNL     1       2.347   1.806  -5.904  1.00  0.00    -0.274 OA
ATOM     13  N   UNL     1       4.128   3.144  -6.471  1.00  0.00    -0.325 N 
ATOM     14  C   UNL     1       4.778   4.236  -5.935  1.00  0.00     0.045 A 
ATOM     15  C   UNL     1       4.696   5.671  -4.020  1.00  0.00     0.007 A 
ATOM     16  H   UNL     1       4.410   2.675  -7.290  1.00  0.00     0.169 HD
ATOM     17  C   UNL     1       5.944   4.798  -6.413  1.00  0.00     0.026 A 
ATOM     18  C   UNL     1       5.881   6.267  -4.484  1.00  0.00     0.000 A 
ATOM     19  C   UNL     1       6.489   5.847  -5.680  1.00  0.00     0.002 A 
BRANCH   6  20
ATOM     20  C   UNL     1       0.340   1.897  -2.951  1.00  0.00     0.410 C 
ATOM     21  O   UNL     1      -0.752   1.540  -3.390  1.00  0.00    -0.224 OA
BRANCH  20  22
ATOM     22  O   UNL     1       0.992   1.300  -1.927  1.00  0.00    -0.444 OA
BRANCH  22  23
ATOM     23  C   UNL     1       0.477   0.066  -1.358  1.00  0.00     0.106 C 
ATOM     24  C   UNL     1       1.155  -0.048   0.014  1.00  0.00     0.056 C 
ATOM     25  C   UNL     1       0.916  -1.102  -2.246  1.00  0.00     0.056 C 
ATOM     26  C   UNL     1      -1.044   0.046  -1.129  1.00  0.00     0.056 C 
ENDBRANCH  22  23
ENDBRANCH  20  22
ENDBRANCH   6  20
ENDBRANCH   3   5
ENDBRANCH   2   3
ENDBRANCH   1   2
BRANCH   1  27
ATOM     27  C   UNL     1       2.344   9.011  -4.597  1.00  0.00     0.275 C 
BRANCH  27  28
ATOM     28  O   UNL     1       1.888   8.829  -5.952  1.00  0.00    -0.458 OA
BRANCH  28  29
ATOM     29  C   UNL     1       2.677   8.019  -6.690  1.00  0.00     0.338 C 
ATOM     30  O   UNL     1       3.706   7.477  -6.330  1.00  0.00    -0.246 OA
BRANCH  29  31
ATOM     31  C   UNL     1       2.163   7.798  -8.040  1.00  0.00     0.060 A 
ATOM     32  C   UNL     1       1.372   6.676  -8.287  1.00  0.00     0.016 A 
ATOM     33  C   UNL     1       2.684   8.552  -9.089  1.00  0.00     0.016 A 
ATOM     34  C   UNL     1       1.141   6.266  -9.593  1.00  0.00     0.010 A 
ATOM     35  C   UNL     1       2.388   8.184 -10.400  1.00  0.00     0.010 A 
ATOM     36  C   UNL     1       1.628   7.031 -10.659  1.00  0.00    -0.014 A 
BRANCH  36  37
ATOM     37  C   UNL     1       1.281   6.666 -12.050  1.00  0.00     0.031 A 
ATOM     38  C   UNL     1       2.347   6.246 -13.017  1.00  0.00     0.074 A 
ATOM     39  C   UNL     1      -0.006   6.770 -12.430  1.00  0.00     0.049 A 
ATOM     40  N   UNL     1       2.259   6.060 -14.307  1.00  0.00    -0.248 NA
ATOM     41  C   UNL     1       3.692   6.016 -12.465  1.00  0.00     0.031 C 
ATOM     42  C   UNL     1      -1.117   7.147 -11.550  1.00  0.00     0.029 A 
ATOM     43  N   UNL     1      -0.598   6.588 -13.651  1.00  0.00    -0.354 N 
ATOM     44  C   UNL     1       3.538   5.719 -14.731  1.00  0.00     0.074 A 
ATOM     45  C   UNL     1       4.389   5.737 -13.560  1.00  0.00     0.031 C 
ATOM     46  C   UNL     1      -2.254   7.165 -12.258  1.00  0.00     0.029 A 
ATOM     47  C   UNL     1      -1.941   6.877 -13.651  1.00  0.00     0.049 A 
ATOM     48  H   UNL     1      -0.110   6.280 -14.448  1.00  0.00     0.167 HD
ATOM     49  C   UNL     1       3.952   5.425 -15.987  1.00  0.00     0.037 A 
ATOM     50  C   UNL     1      -2.816   6.951 -14.671  1.00  0.00     0.037 A 
ATOM     51  C   UNL     1       3.074   5.409 -17.131  1.00  0.00     0.049 A 
ATOM     52  C   UNL     1      -2.320   6.669 -16.058  1.00  0.00     0.074 A 
ATOM     53  C   UNL     1       3.379   5.109 -18.448  1.00  0.00     0.029 A 
ATOM     54  N   UNL     1       1.718   5.709 -17.095  1.00  0.00    -0.354 N 
ATOM     55  N   UNL     1      -1.108   6.354 -16.450  1.00  0.00    -0.248 NA
ATOM     56  C   UNL     1      -3.304   6.757 -17.143  1.00  0.00     0.031 C 
ATOM     57  C   UNL     1       2.219   5.274 -19.213  1.00  0.00     0.029 A 
ATOM     58  C   UNL     1       1.177   5.623 -18.367  1.00  0.00     0.049 A 
ATOM     59  H   UNL     1       1.215   5.948 -16.283  1.00  0.00     0.167 HD
ATOM     60  C   UNL     1      -1.186   6.182 -17.825  1.00  0.00     0.074 A 
ATOM     61  C   UNL     1      -2.569   6.418 -18.194  1.00  0.00     0.031 C 
ATOM     62  C   UNL     1      -0.206   5.859 -18.704  1.00  0.00     0.037 A 
BRANCH  49  63
ATOM     63  C   UNL     1       5.413   5.130 -16.197  1.00  0.00     0.058 A 
ATOM     64  C   UNL     1       6.007   3.945 -15.735  1.00  0.00     0.135 A 
ATOM     65  C   UNL     1       6.225   6.032 -16.907  1.00  0.00     0.135 A 
ATOM     66  F   UNL     1       5.285   3.054 -15.038  1.00  0.00    -0.206 F 
ATOM     67  C   UNL     1       7.357   3.676 -15.946  1.00  0.00     0.059 A 
ATOM     68  C   UNL     1       7.571   5.772 -17.151  1.00  0.00     0.059 A 
ATOM     69  F   UNL     1       5.712   7.182 -17.371  1.00  0.00    -0.206 F 
ATOM     70  C   UNL     1       8.132   4.597 -16.654  1.00  0.00     0.060 A 
BRANCH  70  71
ATOM     71  S   UNL     1       9.882   4.235 -16.914  1.00  0.00     0.124 S 
ATOM     72  O   UNL     1      10.422   4.435 -15.573  1.00  0.00    -0.237 OA
ATOM     73  O   UNL     1       9.849   2.854 -17.383  1.00  0.00    -0.237 OA
ATOM     74  O   UNL     1      10.291   5.223 -17.908  1.00  0.00    -0.744 OA
ENDBRANCH  70  71
ENDBRANCH  49  63
BRANCH  50  75
ATOM     75  C   UNL     1      -4.227   7.330 -14.404  1.00  0.00     0.058 A 
ATOM     76  C   UNL     1      -5.261   6.394 -14.536  1.00  0.00     0.135 A 
ATOM     77  C   UNL     1      -4.565   8.623 -13.971  1.00  0.00     0.135 A 
ATOM     78  F   UNL     1      -4.988   5.146 -14.948  1.00  0.00    -0.206 F 
ATOM     79  C   UNL     1      -6.583   6.728 -14.263  1.00  0.00     0.059 A 
ATOM     80  C   UNL     1      -5.875   8.972 -13.664  1.00  0.00     0.059 A 
ATOM     81  F   UNL     1      -3.608   9.550 -13.807  1.00  0.00    -0.206 F 
ATOM     82  C   UNL     1      -6.880   8.020 -13.824  1.00  0.00     0.060 A 
BRANCH  82  83
ATOM     83  S   UNL     1      -8.594   8.429 -13.431  1.00  0.00     0.124 S 
ATOM     84  O   UNL     1      -9.188   8.506 -14.761  1.00  0.00    -0.237 OA
ATOM     85  O   UNL     1      -9.002   7.291 -12.614  1.00  0.00    -0.237 OA
ATOM     86  O   UNL     1      -8.481   9.697 -12.716  1.00  0.00    -0.744 OA
ENDBRANCH  82  83
ENDBRANCH  50  75
BRANCH  62  87
ATOM     87  C   UNL     1      -0.606   5.706 -20.144  1.00  0.00     0.058 A 
ATOM     88  C   UNL     1      -0.913   6.815 -20.946  1.00  0.00     0.135 A 
ATOM     89  C   UNL     1      -0.638   4.434 -20.737  1.00  0.00     0.135 A 
ATOM     90  F   UNL     1      -0.908   8.051 -20.422  1.00  0.00    -0.206 F 
ATOM     91  C   UNL     1      -1.258   6.667 -22.285  1.00  0.00     0.059 A 
ATOM     92  C   UNL     1      -0.953   4.265 -22.081  1.00  0.00     0.059 A 
ATOM     93  F   UNL     1      -0.346   3.342 -20.013  1.00  0.00    -0.206 F 
ATOM     94  C   UNL     1      -1.271   5.388 -22.844  1.00  0.00     0.060 A 
BRANCH  94  95
ATOM     95  S   UNL     1      -1.680   5.213 -24.593  1.00  0.00     0.124 S 
ATOM     96  O   UNL     1      -3.120   5.448 -24.584  1.00  0.00    -0.237 OA
ATOM     97  O   UNL     1      -0.870   6.261 -25.208  1.00  0.00    -0.237 OA
ATOM     98  O   UNL     1      -1.267   3.848 -24.904  1.00  0.00    -0.744 OA
ENDBRANCH  94  95
ENDBRANCH  62  87
ENDBRANCH  36  37
ENDBRANCH  29  31
ENDBRANCH  28  29
ENDBRANCH  27  28
ENDBRANCH   1  27
TORSDOF 17
