REMARK SMILES O=C(OCCOC(=O)c1cncc(Nc2cccnc2)n1)c1ccc(-c2c3nc(c(-c4c(F)cc(S(=O)(=O)[O-])cc4F)c4ccc([nH]4)c(-c4c(F)cc(S(=O)(=O)[O-])cc4F)c4nc(c(-c5c(F)cc(S(=O)(=O)[O-])cc5F)c5ccc2[nH]5)C=C4)C=C3)cc1
REMARK SMILES IDX 4 1 3 2 2 3 1 4 22 5 23 6 87 7 24 8 86 9 25 10 26 11 27 12
REMARK SMILES IDX 80 13 28 14 85 15 79 16 81 17 29 18 84 19 78 20 77 21 30 23
REMARK SMILES IDX 64 24 43 25 63 26 44 27 47 28 62 29 82 30 45 31 46 32 61 34
REMARK SMILES IDX 83 35 48 36 31 37 32 38 41 39 33 40 34 41 40 42 42 43 35 44
REMARK SMILES IDX 36 45 37 46 38 47 39 48 65 49 66 50 75 51 67 52 68 53 74 54
REMARK SMILES IDX 76 55 69 56 70 57 71 58 72 59 73 60 49 61 50 62 59 63 51 64
REMARK SMILES IDX 52 65 58 66 60 67 53 68 54 69 55 70 56 71 57 72 5 73 6 74
REMARK SMILES IDX 7 75 8 76 9 77 10 78 21 79 11 80 13 81 12 82 14 83 15 85
REMARK SMILES IDX 16 86 20 87 17 88 19 89 18 90
REMARK H PARENT 81 22 47 33 14 84
REMARK Flexibility Score: inf
ROOT
ATOM      1  C   UNL     1       4.065  -1.456   0.452  1.00  0.00     0.275 C 
ENDROOT
BRANCH   1   2
ATOM      2  O   UNL     1       2.980  -0.660   0.954  1.00  0.00    -0.458 OA
BRANCH   2   3
ATOM      3  C   UNL     1       2.738   0.666   0.834  1.00  0.00     0.338 C 
ATOM      4  O   UNL     1       1.897   1.174   1.575  1.00  0.00    -0.246 OA
BRANCH   3   5
ATOM      5  C   UNL     1       3.351   1.540  -0.220  1.00  0.00     0.060 A 
ATOM      6  C   UNL     1       4.606   1.373  -0.815  1.00  0.00     0.016 A 
ATOM      7  C   UNL     1       2.587   2.655  -0.612  1.00  0.00     0.016 A 
ATOM      8  C   UNL     1       5.074   2.260  -1.790  1.00  0.00     0.010 A 
ATOM      9  C   UNL     1       3.051   3.550  -1.580  1.00  0.00     0.010 A 
ATOM     10  C   UNL     1       4.308   3.362  -2.163  1.00  0.00    -0.014 A 
BRANCH  10  11
ATOM     11  C   UNL     1       4.892   4.427  -3.005  1.00  0.00     0.031 A 
ATOM     12  C   UNL     1       5.414   5.650  -2.317  1.00  0.00     0.074 A 
ATOM     13  C   UNL     1       4.945   4.310  -4.342  1.00  0.00     0.049 A 
ATOM     14  N   UNL     1       5.899   6.745  -2.833  1.00  0.00    -0.248 NA
ATOM     15  C   UNL     1       5.404   5.624  -0.844  1.00  0.00     0.031 C 
ATOM     16  C   UNL     1       4.552   3.125  -5.095  1.00  0.00     0.029 A 
ATOM     17  N   UNL     1       5.313   5.211  -5.308  1.00  0.00    -0.354 N 
ATOM     18  C   UNL     1       6.269   7.532  -1.751  1.00  0.00     0.074 A 
ATOM     19  C   UNL     1       5.904   6.813  -0.551  1.00  0.00     0.031 C 
ATOM     20  C   UNL     1       4.603   3.398  -6.409  1.00  0.00     0.029 A 
ATOM     21  C   UNL     1       5.042   4.778  -6.585  1.00  0.00     0.049 A 
ATOM     22  H   UNL     1       5.729   6.080  -5.107  1.00  0.00     0.167 HD
ATOM     23  C   UNL     1       6.878   8.739  -1.764  1.00  0.00     0.037 A 
ATOM     24  C   UNL     1       5.115   5.437  -7.758  1.00  0.00     0.037 A 
ATOM     25  C   UNL     1       7.188   9.452  -2.972  1.00  0.00     0.049 A 
ATOM     26  C   UNL     1       5.669   6.835  -7.755  1.00  0.00     0.074 A 
ATOM     27  C   UNL     1       7.790  10.686  -3.118  1.00  0.00     0.029 A 
ATOM     28  N   UNL     1       6.889   8.994  -4.250  1.00  0.00    -0.354 N 
ATOM     29  N   UNL     1       6.057   7.559  -6.730  1.00  0.00    -0.248 NA
ATOM     30  C   UNL     1       5.832   7.497  -9.055  1.00  0.00     0.031 C 
ATOM     31  C   UNL     1       7.811  10.996  -4.482  1.00  0.00     0.029 A 
ATOM     32  C   UNL     1       7.273   9.931  -5.191  1.00  0.00     0.049 A 
ATOM     33  H   UNL     1       6.465   8.129  -4.455  1.00  0.00     0.167 HD
ATOM     34  C   UNL     1       6.561   8.738  -7.263  1.00  0.00     0.074 A 
ATOM     35  C   UNL     1       6.406   8.641  -8.702  1.00  0.00     0.031 C 
ATOM     36  C   UNL     1       7.124   9.792  -6.621  1.00  0.00     0.037 A 
BRANCH  23  37
ATOM     37  C   UNL     1       7.190   9.349  -0.428  1.00  0.00     0.058 A 
ATOM     38  C   UNL     1       8.171   8.804   0.419  1.00  0.00     0.135 A 
ATOM     39  C   UNL     1       6.449  10.442   0.047  1.00  0.00     0.135 A 
ATOM     40  F   UNL     1       8.891   7.742   0.024  1.00  0.00    -0.206 F 
ATOM     41  C   UNL     1       8.365   9.284   1.710  1.00  0.00     0.059 A 
ATOM     42  C   UNL     1       6.646  10.957   1.325  1.00  0.00     0.059 A 
ATOM     43  F   UNL     1       5.497  10.998  -0.719  1.00  0.00    -0.206 F 
ATOM     44  C   UNL     1       7.587  10.352   2.159  1.00  0.00     0.060 A 
BRANCH  44  45
ATOM     45  S   UNL     1       7.799  10.920   3.859  1.00  0.00     0.124 S 
ATOM     46  O   UNL     1       7.138   9.854   4.605  1.00  0.00    -0.237 OA
ATOM     47  O   UNL     1       9.251  10.978   3.991  1.00  0.00    -0.237 OA
ATOM     48  O   UNL     1       7.119  12.212   3.873  1.00  0.00    -0.744 OA
ENDBRANCH  44  45
ENDBRANCH  23  37
BRANCH  24  49
ATOM     49  C   UNL     1       4.661   4.768  -9.006  1.00  0.00     0.058 A 
ATOM     50  C   UNL     1       5.575   4.302  -9.961  1.00  0.00     0.135 A 
ATOM     51  C   UNL     1       3.296   4.524  -9.237  1.00  0.00     0.135 A 
ATOM     52  F   UNL     1       6.889   4.512  -9.789  1.00  0.00    -0.206 F 
ATOM     53  C   UNL     1       5.157   3.617 -11.099  1.00  0.00     0.059 A 
ATOM     54  C   UNL     1       2.854   3.828 -10.359  1.00  0.00     0.059 A 
ATOM     55  F   UNL     1       2.379   4.936  -8.348  1.00  0.00    -0.206 F 
ATOM     56  C   UNL     1       3.793   3.377 -11.286  1.00  0.00     0.060 A 
BRANCH  56  57
ATOM     57  S   UNL     1       3.272   2.423 -12.729  1.00  0.00     0.124 S 
ATOM     58  O   UNL     1       3.565   3.349 -13.817  1.00  0.00    -0.237 OA
ATOM     59  O   UNL     1       4.131   1.247 -12.642  1.00  0.00    -0.237 OA
ATOM     60  O   UNL     1       1.855   2.176 -12.476  1.00  0.00    -0.744 OA
ENDBRANCH  56  57
ENDBRANCH  24  49
BRANCH  36  61
ATOM     61  C   UNL     1       7.680  10.904  -7.463  1.00  0.00     0.058 A 
ATOM     62  C   UNL     1       6.853  11.859  -8.069  1.00  0.00     0.135 A 
ATOM     63  C   UNL     1       9.071  11.078  -7.556  1.00  0.00     0.135 A 
ATOM     64  F   UNL     1       5.518  11.729  -8.016  1.00  0.00    -0.206 F 
ATOM     65  C   UNL     1       7.386  12.958  -8.733  1.00  0.00     0.059 A 
ATOM     66  C   UNL     1       9.625  12.181  -8.193  1.00  0.00     0.059 A 
ATOM     67  F   UNL     1       9.903  10.192  -6.985  1.00  0.00    -0.206 F 
ATOM     68  C   UNL     1       8.774  13.117  -8.778  1.00  0.00     0.060 A 
BRANCH  68  69
ATOM     69  S   UNL     1       9.451  14.597  -9.559  1.00  0.00     0.124 S 
ATOM     70  O   UNL     1       9.251  14.300 -10.973  1.00  0.00    -0.237 OA
ATOM     71  O   UNL     1       8.610  15.654  -9.007  1.00  0.00    -0.237 OA
ATOM     72  O   UNL     1      10.840  14.612  -9.110  1.00  0.00    -0.744 OA
ENDBRANCH  68  69
ENDBRANCH  36  61
ENDBRANCH  10  11
ENDBRANCH   3   5
ENDBRANCH   2   3
ENDBRANCH   1   2
BRANCH   1  73
ATOM     73  C   UNL     1       3.803  -2.080  -0.918  1.00  0.00     0.275 C 
BRANCH  73  74
ATOM     74  O   UNL     1       3.344  -1.141  -1.903  1.00  0.00    -0.457 OA
BRANCH  74  75
ATOM     75  C   UNL     1       1.989  -1.038  -2.032  1.00  0.00     0.358 C 
ATOM     76  O   UNL     1       1.156  -1.670  -1.417  1.00  0.00    -0.244 OA
BRANCH  75  77
ATOM     77  C   UNL     1       1.691   0.011  -3.034  1.00  0.00     0.169 A 
ATOM     78  C   UNL     1       2.319  -0.029  -4.266  1.00  0.00     0.147 A 
ATOM     79  N   UNL     1       0.810   0.993  -2.682  1.00  0.00    -0.220 NA
ATOM     80  N   UNL     1       2.108   0.917  -5.201  1.00  0.00    -0.258 NA
ATOM     81  C   UNL     1       0.617   1.975  -3.591  1.00  0.00     0.149 A 
ATOM     82  C   UNL     1       1.274   1.922  -4.825  1.00  0.00     0.158 A 
BRANCH  81  83
ATOM     83  N   UNL     1      -0.190   3.046  -3.197  1.00  0.00    -0.338 N 
ATOM     84  H   UNL     1      -0.430   3.046  -2.243  1.00  0.00     0.168 HD
BRANCH  83  85
ATOM     85  C   UNL     1      -0.714   4.117  -3.928  1.00  0.00     0.058 A 
ATOM     86  C   UNL     1      -1.172   3.977  -5.240  1.00  0.00     0.029 A 
ATOM     87  C   UNL     1      -0.722   5.413  -3.409  1.00  0.00     0.137 A 
ATOM     88  C   UNL     1      -1.575   5.091  -5.972  1.00  0.00     0.022 A 
ATOM     89  N   UNL     1      -1.128   6.516  -4.085  1.00  0.00    -0.263 NA
ATOM     90  C   UNL     1      -1.522   6.331  -5.362  1.00  0.00     0.111 A 
ENDBRANCH  83  85
ENDBRANCH  81  83
ENDBRANCH  75  77
ENDBRANCH  74  75
ENDBRANCH  73  74
ENDBRANCH   1  73
TORSDOF 16
