REMARK SMILES O=C(OCCOC(=O)[C@H](CCc1ccccn1)c1ccccc1Br)c1ccc(-c2c3nc(c(-c4c(F)cc(S(=O)(=O)[O-])cc4F)c4ccc([nH]4)c(-c4c(F)cc(S(=O)(=O)[O-])cc4F)c4nc(c(-c5c(F)cc(S(=O)(=O)[O-])cc5F)c5ccc2[nH]5)C=C4)C=C3)cc1
REMARK SMILES IDX 4 1 3 2 2 3 1 4 25 5 26 6 90 7 27 8 89 9 28 10 29 11 30 12
REMARK SMILES IDX 83 13 31 14 88 15 82 16 84 17 32 18 87 19 81 20 80 21 33 23
REMARK SMILES IDX 67 24 46 25 66 26 47 27 50 28 65 29 85 30 48 31 49 32 64 34
REMARK SMILES IDX 86 35 51 36 34 37 35 38 44 39 36 40 37 41 43 42 45 43 38 44
REMARK SMILES IDX 39 45 40 46 41 47 42 48 68 49 69 50 78 51 70 52 71 53 77 54
REMARK SMILES IDX 79 55 72 56 73 57 74 58 75 59 76 60 52 61 53 62 62 63 54 64
REMARK SMILES IDX 55 65 61 66 63 67 56 68 57 69 58 70 59 71 60 72 5 73 6 74
REMARK SMILES IDX 7 75 8 76 9 77 18 78 19 79 23 80 20 81 22 82 24 83 21 84
REMARK SMILES IDX 10 85 11 86 12 87 13 88 17 89 14 90 16 91 15 92
REMARK H PARENT 84 22 50 33
REMARK Flexibility Score: inf
ROOT
ATOM      1  C   UNL     1       3.276   2.774   4.769  1.00  0.00     0.275 C 
ENDROOT
BRANCH   1   2
ATOM      2  O   UNL     1       2.462   1.663   4.362  1.00  0.00    -0.458 OA
BRANCH   2   3
ATOM      3  C   UNL     1       1.317   1.653   3.639  1.00  0.00     0.338 C 
ATOM      4  O   UNL     1       0.634   0.630   3.655  1.00  0.00    -0.246 OA
BRANCH   3   5
ATOM      5  C   UNL     1       0.902   2.756   2.710  1.00  0.00     0.060 A 
ATOM      6  C   UNL     1       1.098   4.125   2.889  1.00  0.00     0.016 A 
ATOM      7  C   UNL     1       0.201   2.356   1.560  1.00  0.00     0.016 A 
ATOM      8  C   UNL     1       0.660   5.048   1.926  1.00  0.00     0.010 A 
ATOM      9  C   UNL     1      -0.219   3.265   0.579  1.00  0.00     0.010 A 
ATOM     10  C   UNL     1      -0.008   4.628   0.768  1.00  0.00    -0.014 A 
BRANCH  10  11
ATOM     11  C   UNL     1      -0.700   5.650  -0.054  1.00  0.00     0.031 A 
ATOM     12  C   UNL     1      -2.116   5.973   0.306  1.00  0.00     0.074 A 
ATOM     13  C   UNL     1      -0.065   6.347  -1.014  1.00  0.00     0.049 A 
ATOM     14  N   UNL     1      -2.856   6.978  -0.073  1.00  0.00    -0.248 NA
ATOM     15  C   UNL     1      -2.795   5.020   1.199  1.00  0.00     0.031 C 
ATOM     16  C   UNL     1       1.262   6.040  -1.524  1.00  0.00     0.029 A 
ATOM     17  N   UNL     1      -0.425   7.482  -1.700  1.00  0.00    -0.354 N 
ATOM     18  C   UNL     1      -4.093   6.768   0.518  1.00  0.00     0.074 A 
ATOM     19  C   UNL     1      -4.010   5.535   1.268  1.00  0.00     0.031 C 
ATOM     20  C   UNL     1       1.665   7.029  -2.341  1.00  0.00     0.029 A 
ATOM     21  C   UNL     1       0.605   8.025  -2.441  1.00  0.00     0.049 A 
ATOM     22  H   UNL     1      -1.329   7.871  -1.666  1.00  0.00     0.167 HD
ATOM     23  C   UNL     1      -5.205   7.531   0.429  1.00  0.00     0.037 A 
ATOM     24  C   UNL     1       0.685   9.204  -3.094  1.00  0.00     0.037 A 
ATOM     25  C   UNL     1      -5.280   8.733  -0.354  1.00  0.00     0.049 A 
ATOM     26  C   UNL     1      -0.541  10.084  -3.112  1.00  0.00     0.074 A 
ATOM     27  C   UNL     1      -6.362   9.569  -0.551  1.00  0.00     0.029 A 
ATOM     28  N   UNL     1      -4.223   9.260  -1.084  1.00  0.00    -0.354 N 
ATOM     29  N   UNL     1      -1.695   9.899  -2.513  1.00  0.00    -0.248 NA
ATOM     30  C   UNL     1      -0.469  11.313  -3.913  1.00  0.00     0.031 C 
ATOM     31  C   UNL     1      -5.971  10.579  -1.437  1.00  0.00     0.029 A 
ATOM     32  C   UNL     1      -4.629  10.407  -1.741  1.00  0.00     0.049 A 
ATOM     33  H   UNL     1      -3.318   8.875  -1.127  1.00  0.00     0.167 HD
ATOM     34  C   UNL     1      -2.486  10.985  -2.869  1.00  0.00     0.074 A 
ATOM     35  C   UNL     1      -1.664  11.844  -3.698  1.00  0.00     0.031 C 
ATOM     36  C   UNL     1      -3.782  11.241  -2.558  1.00  0.00     0.037 A 
BRANCH  23  37
ATOM     37  C   UNL     1      -6.426   7.025   1.139  1.00  0.00     0.058 A 
ATOM     38  C   UNL     1      -6.515   7.008   2.541  1.00  0.00     0.135 A 
ATOM     39  C   UNL     1      -7.494   6.486   0.406  1.00  0.00     0.135 A 
ATOM     40  F   UNL     1      -5.503   7.476   3.289  1.00  0.00    -0.206 F 
ATOM     41  C   UNL     1      -7.604   6.437   3.191  1.00  0.00     0.059 A 
ATOM     42  C   UNL     1      -8.605   5.936   1.034  1.00  0.00     0.059 A 
ATOM     43  F   UNL     1      -7.449   6.461  -0.935  1.00  0.00    -0.206 F 
ATOM     44  C   UNL     1      -8.641   5.898   2.428  1.00  0.00     0.060 A 
BRANCH  44  45
ATOM     45  S   UNL     1     -10.035   5.135   3.282  1.00  0.00     0.124 S 
ATOM     46  O   UNL     1      -9.439   3.889   3.755  1.00  0.00    -0.237 OA
ATOM     47  O   UNL     1     -10.345   6.120   4.313  1.00  0.00    -0.237 OA
ATOM     48  O   UNL     1     -11.039   4.992   2.233  1.00  0.00    -0.744 OA
ENDBRANCH  44  45
ENDBRANCH  23  37
BRANCH  24  49
ATOM     49  C   UNL     1       1.954   9.652  -3.746  1.00  0.00     0.058 A 
ATOM     50  C   UNL     1       2.632  10.797  -3.292  1.00  0.00     0.135 A 
ATOM     51  C   UNL     1       2.506   8.976  -4.845  1.00  0.00     0.135 A 
ATOM     52  F   UNL     1       2.151  11.492  -2.250  1.00  0.00    -0.206 F 
ATOM     53  C   UNL     1       3.789  11.266  -3.912  1.00  0.00     0.059 A 
ATOM     54  C   UNL     1       3.679   9.405  -5.462  1.00  0.00     0.059 A 
ATOM     55  F   UNL     1       1.911   7.872  -5.323  1.00  0.00    -0.206 F 
ATOM     56  C   UNL     1       4.306  10.561  -4.998  1.00  0.00     0.060 A 
BRANCH  56  57
ATOM     57  S   UNL     1       5.831  11.146  -5.773  1.00  0.00     0.124 S 
ATOM     58  O   UNL     1       5.353  12.293  -6.536  1.00  0.00    -0.237 OA
ATOM     59  O   UNL     1       6.666  11.451  -4.615  1.00  0.00    -0.237 OA
ATOM     60  O   UNL     1       6.265   9.997  -6.562  1.00  0.00    -0.744 OA
ENDBRANCH  56  57
ENDBRANCH  24  49
BRANCH  36  61
ATOM     61  C   UNL     1      -4.381  12.509  -3.097  1.00  0.00     0.058 A 
ATOM     62  C   UNL     1      -4.692  12.658  -4.458  1.00  0.00     0.135 A 
ATOM     63  C   UNL     1      -4.702  13.562  -2.227  1.00  0.00     0.135 A 
ATOM     64  F   UNL     1      -4.403  11.679  -5.330  1.00  0.00    -0.206 F 
ATOM     65  C   UNL     1      -5.275  13.823  -4.943  1.00  0.00     0.059 A 
ATOM     66  C   UNL     1      -5.312  14.724  -2.686  1.00  0.00     0.059 A 
ATOM     67  F   UNL     1      -4.438  13.461  -0.915  1.00  0.00    -0.206 F 
ATOM     68  C   UNL     1      -5.582  14.850  -4.048  1.00  0.00     0.060 A 
BRANCH  68  69
ATOM     69  S   UNL     1      -6.362  16.348  -4.684  1.00  0.00     0.124 S 
ATOM     70  O   UNL     1      -5.240  17.000  -5.352  1.00  0.00    -0.237 OA
ATOM     71  O   UNL     1      -7.399  15.813  -5.560  1.00  0.00    -0.237 OA
ATOM     72  O   UNL     1      -6.849  17.014  -3.479  1.00  0.00    -0.744 OA
ENDBRANCH  68  69
ENDBRANCH  36  61
ENDBRANCH  10  11
ENDBRANCH   3   5
ENDBRANCH   2   3
ENDBRANCH   1   2
BRANCH   1  73
ATOM     73  C   UNL     1       4.404   3.076   3.789  1.00  0.00     0.274 C 
BRANCH  73  74
ATOM     74  O   UNL     1       3.908   3.211   2.450  1.00  0.00    -0.462 OA
BRANCH  74  75
ATOM     75  C   UNL     1       4.325   2.310   1.511  1.00  0.00     0.313 C 
ATOM     76  O   UNL     1       5.081   1.373   1.740  1.00  0.00    -0.252 OA
BRANCH  75  77
ATOM     77  C   UNL     1       3.705   2.634   0.140  1.00  0.00     0.131 C 
BRANCH  77  78
ATOM     78  C   UNL     1       4.323   3.922  -0.453  1.00  0.00    -0.020 A 
ATOM     79  C   UNL     1       3.997   5.128   0.226  1.00  0.00     0.006 A 
ATOM     80  C   UNL     1       5.128   4.064  -1.600  1.00  0.00     0.022 A 
ATOM     81  C   UNL     1       4.394   6.391  -0.223  1.00  0.00     0.000 A 
ATOM     82  C   UNL     1       5.482   5.343  -2.075  1.00  0.00     0.016 A 
ATOM     83  Br  UNL     1       5.888   2.647  -2.614  1.00  0.00    -0.051 Br
ATOM     84  C   UNL     1       5.118   6.500  -1.395  1.00  0.00     0.001 A 
ENDBRANCH  77  78
BRANCH  77  85
ATOM     85  C   UNL     1       3.658   1.366  -0.750  1.00  0.00     0.026 C 
BRANCH  85  86
ATOM     86  C   UNL     1       2.670   0.252  -0.339  1.00  0.00     0.057 C 
BRANCH  86  87
ATOM     87  C   UNL     1       1.277   0.247  -0.937  1.00  0.00     0.040 A 
ATOM     88  C   UNL     1       0.964   0.781  -2.184  1.00  0.00     0.024 A 
ATOM     89  N   UNL     1       0.332  -0.388  -0.196  1.00  0.00    -0.261 NA
ATOM     90  C   UNL     1      -0.357   0.739  -2.636  1.00  0.00     0.003 A 
ATOM     91  C   UNL     1      -0.943  -0.409  -0.650  1.00  0.00     0.111 A 
ATOM     92  C   UNL     1      -1.336   0.150  -1.849  1.00  0.00     0.020 A 
ENDBRANCH  86  87
ENDBRANCH  85  86
ENDBRANCH  77  85
ENDBRANCH  75  77
ENDBRANCH  74  75
ENDBRANCH  73  74
ENDBRANCH   1  73
TORSDOF 18
