REMARK SMILES CC(C)[C@@H](NC(=O)[C@H]1CCCO1)C(=O)OCCOC(=O)c1ccc(-c2c3nc(c(-c4c(F)cc(S(=O)(=O)[O-])cc4F)c4ccc([nH]4)c(-c4c(F)cc(S(=O)(=O)[O-])cc4F)c4nc(c(-c5c(F)cc(S(=O)(=O)[O-])cc5F)c5ccc2[nH]5)C=C4)C=C3)cc1
REMARK SMILES IDX 17 1 16 2 15 3 13 4 14 5 4 6 2 7 1 8 3 9 5 10 6 11 7 13 8 14
REMARK SMILES IDX 9 15 12 16 10 17 11 18 18 19 19 20 20 21 21 22 22 23 86 24
REMARK SMILES IDX 23 25 85 26 24 27 25 28 26 29 79 30 27 31 84 32 78 33 80 34
REMARK SMILES IDX 28 35 83 36 77 37 76 38 29 40 63 41 42 42 62 43 43 44 46 45
REMARK SMILES IDX 61 46 81 47 44 48 45 49 60 51 82 52 47 53 30 54 31 55 40 56
REMARK SMILES IDX 32 57 33 58 39 59 41 60 34 61 35 62 36 63 37 64 38 65 64 66
REMARK SMILES IDX 65 67 74 68 66 69 67 70 73 71 75 72 68 73 69 74 70 75 71 76
REMARK SMILES IDX 72 77 48 78 49 79 58 80 50 81 51 82 57 83 59 84 52 85 53 86
REMARK SMILES IDX 54 87 55 88 56 89
REMARK H PARENT 5 12 80 39 46 50
REMARK Flexibility Score: inf
ROOT
ATOM      1  C   UNL     1      -5.273  -0.556  -0.218  1.00  0.00     0.275 C 
ENDROOT
BRANCH   1   2
ATOM      2  C   UNL     1      -4.037  -0.409   0.686  1.00  0.00     0.274 C 
BRANCH   2   3
ATOM      3  O   UNL     1      -4.247  -0.777   2.068  1.00  0.00    -0.461 OA
BRANCH   3   4
ATOM      4  C   UNL     1      -4.796   0.205   2.822  1.00  0.00     0.329 C 
ATOM      5  O   UNL     1      -5.186   1.272   2.361  1.00  0.00    -0.250 OA
BRANCH   4   6
ATOM      6  C   UNL     1      -4.744  -0.013   4.334  1.00  0.00     0.194 C 
BRANCH   6   7
ATOM      7  C   UNL     1      -5.187  -1.431   4.795  1.00  0.00     0.017 C 
ATOM      8  C   UNL     1      -5.549  -1.432   6.291  1.00  0.00     0.010 C 
ATOM      9  C   UNL     1      -6.401  -1.975   4.033  1.00  0.00     0.010 C 
ENDBRANCH   6   7
BRANCH   6  10
ATOM     10  N   UNL     1      -3.445   0.365   4.937  1.00  0.00    -0.340 N 
ATOM     11  C   UNL     1      -2.754   1.550   4.864  1.00  0.00     0.249 C 
ATOM     12  H   UNL     1      -3.011  -0.339   5.470  1.00  0.00     0.164 HD
ATOM     13  O   UNL     1      -2.170   1.911   5.890  1.00  0.00    -0.272 OA
BRANCH  11  14
ATOM     14  C   UNL     1      -2.589   2.285   3.515  1.00  0.00     0.207 C 
ATOM     15  C   UNL     1      -3.638   3.357   3.252  1.00  0.00     0.044 C 
ATOM     16  O   UNL     1      -1.304   2.932   3.418  1.00  0.00    -0.368 OA
ATOM     17  C   UNL     1      -2.891   4.659   3.370  1.00  0.00     0.032 C 
ATOM     18  C   UNL     1      -1.504   4.262   2.933  1.00  0.00     0.161 C 
ENDBRANCH  11  14
ENDBRANCH   6  10
ENDBRANCH   4   6
ENDBRANCH   3   4
ENDBRANCH   2   3
ENDBRANCH   1   2
BRANCH   1  19
ATOM     19  O   UNL     1      -6.298   0.421   0.062  1.00  0.00    -0.458 OA
BRANCH  19  20
ATOM     20  C   UNL     1      -7.347  -0.029   0.788  1.00  0.00     0.338 C 
ATOM     21  O   UNL     1      -7.543  -1.185   1.143  1.00  0.00    -0.246 OA
BRANCH  20  22
ATOM     22  C   UNL     1      -8.204   1.080   1.245  1.00  0.00     0.060 A 
ATOM     23  C   UNL     1      -8.233   1.373   2.614  1.00  0.00     0.016 A 
ATOM     24  C   UNL     1      -9.084   1.721   0.373  1.00  0.00     0.016 A 
ATOM     25  C   UNL     1      -9.146   2.291   3.125  1.00  0.00     0.010 A 
ATOM     26  C   UNL     1     -10.013   2.634   0.888  1.00  0.00     0.010 A 
ATOM     27  C   UNL     1     -10.066   2.903   2.269  1.00  0.00    -0.014 A 
BRANCH  27  28
ATOM     28  C   UNL     1     -11.163   3.721   2.839  1.00  0.00     0.031 A 
ATOM     29  C   UNL     1     -12.526   3.107   2.994  1.00  0.00     0.074 A 
ATOM     30  C   UNL     1     -10.940   4.985   3.242  1.00  0.00     0.049 A 
ATOM     31  N   UNL     1     -13.653   3.668   3.344  1.00  0.00    -0.248 NA
ATOM     32  C   UNL     1     -12.629   1.664   2.720  1.00  0.00     0.031 C 
ATOM     33  C   UNL     1      -9.645   5.663   3.220  1.00  0.00     0.029 A 
ATOM     34  N   UNL     1     -11.805   5.926   3.740  1.00  0.00    -0.354 N 
ATOM     35  C   UNL     1     -14.606   2.657   3.308  1.00  0.00     0.074 A 
ATOM     36  C   UNL     1     -13.924   1.446   2.901  1.00  0.00     0.031 C 
ATOM     37  C   UNL     1      -9.805   6.922   3.663  1.00  0.00     0.029 A 
ATOM     38  C   UNL     1     -11.219   7.150   3.955  1.00  0.00     0.049 A 
ATOM     39  H   UNL     1     -12.755   5.742   3.926  1.00  0.00     0.167 HD
ATOM     40  C   UNL     1     -15.929   2.736   3.582  1.00  0.00     0.037 A 
ATOM     41  C   UNL     1     -11.769   8.329   4.306  1.00  0.00     0.037 A 
ATOM     42  C   UNL     1     -16.598   3.941   3.994  1.00  0.00     0.049 A 
ATOM     43  C   UNL     1     -13.255   8.411   4.538  1.00  0.00     0.074 A 
ATOM     44  C   UNL     1     -17.938   4.128   4.286  1.00  0.00     0.029 A 
ATOM     45  N   UNL     1     -15.976   5.168   4.174  1.00  0.00    -0.354 N 
ATOM     46  N   UNL     1     -14.154   7.458   4.465  1.00  0.00    -0.248 NA
ATOM     47  C   UNL     1     -13.803   9.728   4.890  1.00  0.00     0.031 C 
ATOM     48  C   UNL     1     -18.131   5.475   4.610  1.00  0.00     0.029 A 
ATOM     49  C   UNL     1     -16.905   6.119   4.558  1.00  0.00     0.049 A 
ATOM     50  H   UNL     1     -15.014   5.337   4.047  1.00  0.00     0.167 HD
ATOM     51  C   UNL     1     -15.370   8.056   4.777  1.00  0.00     0.074 A 
ATOM     52  C   UNL     1     -15.090   9.451   5.051  1.00  0.00     0.031 C 
ATOM     53  C   UNL     1     -16.606   7.502   4.832  1.00  0.00     0.037 A 
BRANCH  40  54
ATOM     54  C   UNL     1     -16.748   1.489   3.401  1.00  0.00     0.058 A 
ATOM     55  C   UNL     1     -16.695   0.428   4.318  1.00  0.00     0.135 A 
ATOM     56  C   UNL     1     -17.612   1.365   2.301  1.00  0.00     0.135 A 
ATOM     57  F   UNL     1     -15.869   0.489   5.375  1.00  0.00    -0.206 F 
ATOM     58  C   UNL     1     -17.453  -0.724   4.138  1.00  0.00     0.059 A 
ATOM     59  C   UNL     1     -18.395   0.231   2.113  1.00  0.00     0.059 A 
ATOM     60  F   UNL     1     -17.696   2.350   1.393  1.00  0.00    -0.206 F 
ATOM     61  C   UNL     1     -18.298  -0.815   3.029  1.00  0.00     0.060 A 
BRANCH  61  62
ATOM     62  S   UNL     1     -19.273  -2.318   2.803  1.00  0.00     0.124 S 
ATOM     63  O   UNL     1     -18.259  -3.252   2.324  1.00  0.00    -0.237 OA
ATOM     64  O   UNL     1     -19.781  -2.570   4.148  1.00  0.00    -0.237 OA
ATOM     65  O   UNL     1     -20.278  -1.925   1.820  1.00  0.00    -0.744 OA
ENDBRANCH  61  62
ENDBRANCH  40  54
BRANCH  41  66
ATOM     66  C   UNL     1     -10.915   9.542   4.414  1.00  0.00     0.058 A 
ATOM     67  C   UNL     1     -10.636  10.126   5.657  1.00  0.00     0.135 A 
ATOM     68  C   UNL     1     -10.360  10.138   3.271  1.00  0.00     0.135 A 
ATOM     69  F   UNL     1     -11.157   9.600   6.777  1.00  0.00    -0.206 F 
ATOM     70  C   UNL     1      -9.842  11.263   5.765  1.00  0.00     0.059 A 
ATOM     71  C   UNL     1      -9.545  11.261   3.355  1.00  0.00     0.059 A 
ATOM     72  F   UNL     1     -10.592   9.612   2.058  1.00  0.00    -0.206 F 
ATOM     73  C   UNL     1      -9.299  11.823   4.607  1.00  0.00     0.060 A 
BRANCH  73  74
ATOM     74  S   UNL     1      -8.224  13.267   4.757  1.00  0.00     0.124 S 
ATOM     75  O   UNL     1      -9.194  14.333   4.974  1.00  0.00    -0.237 OA
ATOM     76  O   UNL     1      -7.393  12.916   5.905  1.00  0.00    -0.237 OA
ATOM     77  O   UNL     1      -7.526  13.297   3.475  1.00  0.00    -0.744 OA
ENDBRANCH  73  74
ENDBRANCH  41  66
BRANCH  53  78
ATOM     78  C   UNL     1     -17.746   8.395   5.231  1.00  0.00     0.058 A 
ATOM     79  C   UNL     1     -18.298   9.326   4.338  1.00  0.00     0.135 A 
ATOM     80  C   UNL     1     -18.327   8.280   6.504  1.00  0.00     0.135 A 
ATOM     81  F   UNL     1     -17.774   9.478   3.111  1.00  0.00    -0.206 F 
ATOM     82  C   UNL     1     -19.378  10.124   4.698  1.00  0.00     0.059 A 
ATOM     83  C   UNL     1     -19.421   9.053   6.878  1.00  0.00     0.059 A 
ATOM     84  F   UNL     1     -17.841   7.397   7.391  1.00  0.00    -0.206 F 
ATOM     85  C   UNL     1     -19.933   9.981   5.972  1.00  0.00     0.060 A 
BRANCH  85  86
ATOM     86  S   UNL     1     -21.359  10.995   6.419  1.00  0.00     0.124 S 
ATOM     87  O   UNL     1     -20.729  12.280   6.699  1.00  0.00    -0.237 OA
ATOM     88  O   UNL     1     -22.177  10.940   5.211  1.00  0.00    -0.237 OA
ATOM     89  O   UNL     1     -21.917  10.302   7.577  1.00  0.00    -0.744 OA
ENDBRANCH  85  86
ENDBRANCH  53  78
ENDBRANCH  27  28
ENDBRANCH  20  22
ENDBRANCH  19  20
ENDBRANCH   1  19
TORSDOF 17
