REMARK SMILES COc1ccc([C@@H]2[NH2+][C@H](C(=O)OCCOC(=O)c3ccc(-c4c5nc(c(-c6c(F)cc(S(=O)(=O)[O-])cc6F)c6ccc([nH]6)c(-c6c(F)cc(S(=O)(=O)[O-])cc6F)c6nc(c(-c7c(F)cc(S(=O)(=O)[O-])cc7F)c7ccc4[nH]7)C=C6)C=C5)cc3)CS2)cc1Cn1nc(C)c(Br)c1C
REMARK SMILES IDX 13 1 12 2 10 3 11 4 9 5 7 6 8 7 85 8 84 11 6 12 3 13 4 14
REMARK SMILES IDX 87 15 5 16 86 17 2 18 1 19 88 20 89 21 90 22 95 23 91 24
REMARK SMILES IDX 93 25 96 26 92 27 94 28 14 29 15 30 16 31 17 32 18 33 19 34
REMARK SMILES IDX 83 35 20 36 82 37 21 38 22 39 23 40 76 41 24 42 81 43 75 44
REMARK SMILES IDX 77 45 25 46 80 47 74 48 73 49 26 51 60 52 39 53 59 54 40 55
REMARK SMILES IDX 43 56 58 57 78 58 41 59 42 60 57 62 79 63 44 64 27 65 28 66
REMARK SMILES IDX 37 67 29 68 30 69 36 70 38 71 31 72 32 73 33 74 34 75 35 76
REMARK SMILES IDX 61 77 62 78 71 79 63 80 64 81 70 82 72 83 65 84 66 85 67 86
REMARK SMILES IDX 68 87 69 88 45 89 46 90 55 91 47 92 48 93 54 94 56 95 49 96
REMARK SMILES IDX 50 97 51 98 52 99 53 100
REMARK H PARENT 8 9 8 10 77 50 43 61
REMARK Flexibility Score: inf
ROOT
ATOM      1  C   UNL     1       2.372   1.802   0.723  1.00  0.00     0.274 C 
ENDROOT
BRANCH   1   2
ATOM      2  O   UNL     1       2.183   3.318   0.300  1.00  0.00    -0.458 OA
BRANCH   2   3
ATOM      3  C   UNL     1       3.095   4.321   0.640  1.00  0.00     0.365 C 
ATOM      4  O   UNL     1       4.073   4.032   1.339  1.00  0.00    -0.245 OA
BRANCH   3   5
ATOM      5  C   UNL     1       2.965   5.875   0.183  1.00  0.00     0.304 C 
ATOM      6  C   UNL     1       1.721   6.370  -1.845  1.00  0.00     0.274 C 
ATOM      7  N   UNL     1       3.063   6.367  -1.242  1.00  0.00    -0.319 N 
ATOM      8  S   UNL     1       0.575   6.727  -0.447  1.00  0.00    -0.087 SA
ATOM      9  H   UNL     1       3.443   7.314  -1.251  1.00  0.00     0.348 HD
ATOM     10  H   UNL     1       3.677   5.753  -1.776  1.00  0.00     0.348 HD
ATOM     11  C   UNL     1       1.864   6.681   0.820  1.00  0.00     0.153 C 
BRANCH   6  12
ATOM     12  C   UNL     1       1.507   5.030  -2.503  1.00  0.00     0.021 A 
ATOM     13  C   UNL     1       1.119   2.438  -2.101  1.00  0.00     0.123 A 
ATOM     14  C   UNL     1       0.043   3.208  -2.585  1.00  0.00     0.047 A 
ATOM     15  C   UNL     1       2.550   2.865  -2.226  1.00  0.00     0.016 A 
ATOM     16  C   UNL     1       0.223   4.553  -2.712  1.00  0.00     0.015 A 
ATOM     17  C   UNL     1       2.640   4.184  -2.633  1.00  0.00     0.020 A 
BRANCH  13  18
ATOM     18  O   UNL     1       0.656   1.323  -1.441  1.00  0.00    -0.496 OA
ATOM     19  C   UNL     1      -0.569   1.316  -0.672  1.00  0.00     0.278 C 
ENDBRANCH  13  18
BRANCH  15  20
ATOM     20  C   UNL     1       4.004   2.426  -1.510  1.00  0.00     0.184 C 
BRANCH  20  21
ATOM     21  N   UNL     1       5.378   1.873  -1.925  1.00  0.00    -0.264 N 
ATOM     22  N   UNL     1       5.479   0.605  -2.405  1.00  0.00    -0.177 NA
ATOM     23  C   UNL     1       6.551   2.141  -1.172  1.00  0.00     0.050 A 
ATOM     24  C   UNL     1       6.698   0.142  -2.127  1.00  0.00     0.074 A 
ATOM     25  C   UNL     1       7.383   1.053  -1.327  1.00  0.00     0.061 A 
ATOM     26  C   UNL     1       6.751   3.295  -0.265  1.00  0.00     0.067 C 
ATOM     27  C   UNL     1       7.142  -1.185  -2.640  1.00  0.00     0.070 C 
ATOM     28  Br  UNL     1       9.069   0.760  -0.556  1.00  0.00    -0.047 Br
ENDBRANCH  20  21
ENDBRANCH  15  20
ENDBRANCH   6  12
ENDBRANCH   3   5
ENDBRANCH   2   3
ENDBRANCH   1   2
BRANCH   1  29
ATOM     29  C   UNL     1       2.411   0.293  -0.306  1.00  0.00     0.275 C 
BRANCH  29  30
ATOM     30  O   UNL     1       2.972   0.202  -1.788  1.00  0.00    -0.458 OA
BRANCH  30  31
ATOM     31  C   UNL     1       2.484  -0.025  -3.092  1.00  0.00     0.338 C 
ATOM     32  O   UNL     1       1.378  -0.394  -3.380  1.00  0.00    -0.246 OA
BRANCH  31  33
ATOM     33  C   UNL     1       3.536   0.283  -4.226  1.00  0.00     0.060 A 
ATOM     34  C   UNL     1       3.911   1.580  -4.658  1.00  0.00     0.016 A 
ATOM     35  C   UNL     1       4.267  -0.758  -4.802  1.00  0.00     0.016 A 
ATOM     36  C   UNL     1       5.139   1.847  -5.343  1.00  0.00     0.010 A 
ATOM     37  C   UNL     1       5.451  -0.499  -5.559  1.00  0.00     0.010 A 
ATOM     38  C   UNL     1       5.968   0.802  -5.755  1.00  0.00    -0.014 A 
BRANCH  38  39
ATOM     39  C   UNL     1       7.267   0.988  -6.514  1.00  0.00     0.031 A 
ATOM     40  C   UNL     1       7.215   0.974  -8.015  1.00  0.00     0.074 A 
ATOM     41  C   UNL     1       8.499   1.071  -5.952  1.00  0.00     0.049 A 
ATOM     42  N   UNL     1       8.182   0.826  -8.884  1.00  0.00    -0.248 NA
ATOM     43  C   UNL     1       5.887   1.169  -8.607  1.00  0.00     0.031 C 
ATOM     44  C   UNL     1       8.776   1.290  -4.543  1.00  0.00     0.029 A 
ATOM     45  N   UNL     1       9.768   0.939  -6.498  1.00  0.00    -0.354 N 
ATOM     46  C   UNL     1       7.578   0.893 -10.131  1.00  0.00     0.074 A 
ATOM     47  C   UNL     1       6.159   1.079  -9.900  1.00  0.00     0.031 C 
ATOM     48  C   UNL     1      10.092   1.137  -4.302  1.00  0.00     0.029 A 
ATOM     49  C   UNL     1      10.777   0.836  -5.555  1.00  0.00     0.049 A 
ATOM     50  H   UNL     1       9.936   0.921  -7.468  1.00  0.00     0.167 HD
ATOM     51  C   UNL     1       8.143   0.810 -11.359  1.00  0.00     0.037 A 
ATOM     52  C   UNL     1      12.090   0.521  -5.666  1.00  0.00     0.037 A 
ATOM     53  C   UNL     1       9.545   0.607 -11.611  1.00  0.00     0.049 A 
ATOM     54  C   UNL     1      12.687   0.292  -7.035  1.00  0.00     0.074 A 
ATOM     55  C   UNL     1      10.191   0.491 -12.831  1.00  0.00     0.029 A 
ATOM     56  N   UNL     1      10.520   0.480 -10.633  1.00  0.00    -0.354 N 
ATOM     57  N   UNL     1      12.097   0.338  -8.204  1.00  0.00    -0.248 NA
ATOM     58  C   UNL     1      14.128  -0.008  -7.107  1.00  0.00     0.031 C 
ATOM     59  C   UNL     1      11.549   0.255 -12.591  1.00  0.00     0.029 A 
ATOM     60  C   UNL     1      11.758   0.269 -11.222  1.00  0.00     0.049 A 
ATOM     61  H   UNL     1      10.357   0.532  -9.664  1.00  0.00     0.167 HD
ATOM     62  C   UNL     1      13.097   0.122  -9.148  1.00  0.00     0.074 A 
ATOM     63  C   UNL     1      14.332  -0.063  -8.417  1.00  0.00     0.031 C 
ATOM     64  C   UNL     1      12.994   0.096 -10.499  1.00  0.00     0.037 A 
BRANCH  51  65
ATOM     65  C   UNL     1       7.207   0.898 -12.528  1.00  0.00     0.058 A 
ATOM     66  C   UNL     1       6.600   2.111 -12.893  1.00  0.00     0.135 A 
ATOM     67  C   UNL     1       6.882  -0.251 -13.265  1.00  0.00     0.135 A 
ATOM     68  F   UNL     1       6.861   3.232 -12.202  1.00  0.00    -0.206 F 
ATOM     69  C   UNL     1       5.668   2.172 -13.921  1.00  0.00     0.059 A 
ATOM     70  C   UNL     1       5.972  -0.207 -14.315  1.00  0.00     0.059 A 
ATOM     71  F   UNL     1       7.433  -1.434 -12.952  1.00  0.00    -0.206 F 
ATOM     72  C   UNL     1       5.354   1.005 -14.621  1.00  0.00     0.060 A 
BRANCH  72  73
ATOM     73  S   UNL     1       4.117   1.093 -15.931  1.00  0.00     0.124 S 
ATOM     74  O   UNL     1       2.882   1.193 -15.159  1.00  0.00    -0.237 OA
ATOM     75  O   UNL     1       4.510   2.298 -16.654  1.00  0.00    -0.237 OA
ATOM     76  O   UNL     1       4.303  -0.159 -16.658  1.00  0.00    -0.744 OA
ENDBRANCH  72  73
ENDBRANCH  51  65
BRANCH  52  77
ATOM     77  C   UNL     1      12.960   0.388  -4.453  1.00  0.00     0.058 A 
ATOM     78  C   UNL     1      13.969   1.323  -4.169  1.00  0.00     0.135 A 
ATOM     79  C   UNL     1      12.839  -0.709  -3.582  1.00  0.00     0.135 A 
ATOM     80  F   UNL     1      14.155   2.372  -4.984  1.00  0.00    -0.206 F 
ATOM     81  C   UNL     1      14.826   1.176  -3.078  1.00  0.00     0.059 A 
ATOM     82  C   UNL     1      13.672  -0.868  -2.472  1.00  0.00     0.059 A 
ATOM     83  F   UNL     1      11.905  -1.646  -3.808  1.00  0.00    -0.206 F 
ATOM     84  C   UNL     1      14.668   0.078  -2.232  1.00  0.00     0.060 A 
BRANCH  84  85
ATOM     85  S   UNL     1      15.753  -0.072  -0.791  1.00  0.00     0.124 S 
ATOM     86  O   UNL     1      17.022  -0.439  -1.410  1.00  0.00    -0.237 OA
ATOM     87  O   UNL     1      15.689   1.268  -0.217  1.00  0.00    -0.237 OA
ATOM     88  O   UNL     1      15.115  -1.117   0.005  1.00  0.00    -0.744 OA
ENDBRANCH  84  85
ENDBRANCH  52  77
BRANCH  64  89
ATOM     89  C   UNL     1      14.256  -0.092 -11.299  1.00  0.00     0.058 A 
ATOM     90  C   UNL     1      14.893  -1.338 -11.398  1.00  0.00     0.135 A 
ATOM     91  C   UNL     1      14.797   0.979 -12.030  1.00  0.00     0.135 A 
ATOM     92  F   UNL     1      14.423  -2.393 -10.714  1.00  0.00    -0.206 F 
ATOM     93  C   UNL     1      16.029  -1.514 -12.184  1.00  0.00     0.059 A 
ATOM     94  C   UNL     1      15.918   0.820 -12.840  1.00  0.00     0.059 A 
ATOM     95  F   UNL     1      14.223   2.191 -11.978  1.00  0.00    -0.206 F 
ATOM     96  C   UNL     1      16.533  -0.429 -12.905  1.00  0.00     0.060 A 
BRANCH  96  97
ATOM     97  S   UNL     1      17.978  -0.680 -13.959  1.00  0.00     0.124 S 
ATOM     98  O   UNL     1      19.055  -0.738 -12.976  1.00  0.00    -0.237 OA
ATOM     99  O   UNL     1      17.664  -1.937 -14.631  1.00  0.00    -0.237 OA
ATOM    100  O   UNL     1      17.978   0.499 -14.821  1.00  0.00    -0.744 OA
ENDBRANCH  96  97
ENDBRANCH  64  89
ENDBRANCH  38  39
ENDBRANCH  31  33
ENDBRANCH  30  31
ENDBRANCH  29  30
ENDBRANCH   1  29
TORSDOF 18
