REMARK SMILES Cc1ccn2c([C@H]3C[C@@H]3C(=O)OCCOC(=O)c3ccc(-c4c5nc(c(-c6c(F)cc(S(=O)(=O)[O-])cc6F)c6ccc([nH]6)c(-c6c(F)cc(S(=O)(=O)[O-])cc6F)c6nc(c(-c7c(F)cc(S(=O)(=O)[O-])cc7F)c7ccc4[nH]7)C=C6)C=C5)cc3)nnc2c1
REMARK SMILES IDX 14 1 13 2 12 3 10 4 11 5 9 6 7 7 8 8 6 9 1 10 2 11 3 12
REMARK SMILES IDX 87 13 4 14 86 15 5 16 85 17 84 18 15 19 16 20 17 21 18 22
REMARK SMILES IDX 19 23 83 24 20 25 82 26 21 27 22 28 23 29 76 30 24 31 81 32
REMARK SMILES IDX 75 33 77 34 25 35 80 36 74 37 73 38 26 40 60 41 39 42 59 43
REMARK SMILES IDX 40 44 43 45 58 46 78 47 41 48 42 49 57 51 79 52 44 53 27 54
REMARK SMILES IDX 28 55 37 56 29 57 30 58 36 59 38 60 31 61 32 62 33 63 34 64
REMARK SMILES IDX 35 65 61 66 62 67 71 68 63 69 64 70 70 71 72 72 65 73 66 74
REMARK SMILES IDX 67 75 68 76 69 77 45 78 46 79 55 80 47 81 48 82 54 83 56 84
REMARK SMILES IDX 49 85 50 86 51 87 52 88 53 89
REMARK H PARENT 77 39 43 50
REMARK Flexibility Score: inf
ROOT
ATOM      1  C   UNL     1       0.528   1.110  -2.761  1.00  0.00     0.275 C 
ENDROOT
BRANCH   1   2
ATOM      2  C   UNL     1       1.038   2.517  -3.064  1.00  0.00     0.274 C 
BRANCH   2   3
ATOM      3  O   UNL     1      -0.024   3.479  -2.979  1.00  0.00    -0.462 OA
BRANCH   3   4
ATOM      4  C   UNL     1      -0.459   3.923  -4.186  1.00  0.00     0.309 C 
ATOM      5  O   UNL     1      -0.137   3.460  -5.274  1.00  0.00    -0.252 OA
BRANCH   4   6
ATOM      6  C   UNL     1      -1.238   5.157  -4.107  1.00  0.00     0.110 C 
ATOM      7  C   UNL     1      -1.261   5.938  -2.813  1.00  0.00     0.073 C 
ATOM      8  C   UNL     1      -2.537   5.442  -3.417  1.00  0.00     0.028 C 
BRANCH   7   9
ATOM      9  C   UNL     1      -0.740   7.337  -2.985  1.00  0.00     0.141 A 
ATOM     10  C   UNL     1       0.200  11.617   0.392  1.00  0.00     0.044 C 
ATOM     11  C   UNL     1       0.038  10.408  -0.468  1.00  0.00    -0.046 A 
ATOM     12  C   UNL     1      -0.572   9.225   0.141  1.00  0.00     0.022 A 
ATOM     13  C   UNL     1       0.394  10.422  -1.772  1.00  0.00     0.053 A 
ATOM     14  C   UNL     1      -0.818   8.154  -0.627  1.00  0.00     0.095 A 
ATOM     15  C   UNL     1       0.092   9.305  -2.588  1.00  0.00     0.161 A 
ATOM     16  N   UNL     1      -0.498   8.217  -1.976  1.00  0.00    -0.286 N 
ATOM     17  N   UNL     1       0.188   9.091  -3.880  1.00  0.00    -0.130 NA
ATOM     18  N   UNL     1      -0.386   7.870  -4.136  1.00  0.00    -0.134 NA
ENDBRANCH   7   9
ENDBRANCH   4   6
ENDBRANCH   3   4
ENDBRANCH   2   3
ENDBRANCH   1   2
BRANCH   1  19
ATOM     19  O   UNL     1      -0.419   0.716  -3.766  1.00  0.00    -0.458 OA
BRANCH  19  20
ATOM     20  C   UNL     1      -1.725   0.812  -3.408  1.00  0.00     0.338 C 
ATOM     21  O   UNL     1      -2.173   0.729  -2.276  1.00  0.00    -0.246 OA
BRANCH  20  22
ATOM     22  C   UNL     1      -2.476   1.371  -4.558  1.00  0.00     0.060 A 
ATOM     23  C   UNL     1      -2.039   1.210  -5.876  1.00  0.00     0.016 A 
ATOM     24  C   UNL     1      -3.496   2.284  -4.260  1.00  0.00     0.016 A 
ATOM     25  C   UNL     1      -2.525   2.065  -6.863  1.00  0.00     0.010 A 
ATOM     26  C   UNL     1      -3.970   3.144  -5.247  1.00  0.00     0.010 A 
ATOM     27  C   UNL     1      -3.442   3.077  -6.536  1.00  0.00    -0.014 A 
BRANCH  27  28
ATOM     28  C   UNL     1      -4.020   3.885  -7.617  1.00  0.00     0.031 A 
ATOM     29  C   UNL     1      -4.890   3.069  -8.503  1.00  0.00     0.074 A 
ATOM     30  C   UNL     1      -3.934   5.226  -7.766  1.00  0.00     0.049 A 
ATOM     31  N   UNL     1      -4.676   2.760  -9.739  1.00  0.00    -0.248 NA
ATOM     32  C   UNL     1      -6.034   2.367  -7.897  1.00  0.00     0.031 C 
ATOM     33  C   UNL     1      -3.283   6.188  -6.892  1.00  0.00     0.029 A 
ATOM     34  N   UNL     1      -4.464   6.041  -8.729  1.00  0.00    -0.354 N 
ATOM     35  C   UNL     1      -5.778   2.010 -10.132  1.00  0.00     0.074 A 
ATOM     36  C   UNL     1      -6.482   1.652  -8.929  1.00  0.00     0.031 C 
ATOM     37  C   UNL     1      -3.635   7.453  -7.210  1.00  0.00     0.029 A 
ATOM     38  C   UNL     1      -4.422   7.407  -8.425  1.00  0.00     0.049 A 
ATOM     39  H   UNL     1      -4.844   5.695  -9.569  1.00  0.00     0.167 HD
ATOM     40  C   UNL     1      -6.162   1.952 -11.435  1.00  0.00     0.037 A 
ATOM     41  C   UNL     1      -4.934   8.443  -9.143  1.00  0.00     0.037 A 
ATOM     42  C   UNL     1      -5.109   2.386 -12.315  1.00  0.00     0.049 A 
ATOM     43  C   UNL     1      -5.077   7.944 -10.528  1.00  0.00     0.074 A 
ATOM     44  C   UNL     1      -3.857   1.921 -12.660  1.00  0.00     0.029 A 
ATOM     45  N   UNL     1      -5.154   3.697 -12.711  1.00  0.00    -0.354 N 
ATOM     46  N   UNL     1      -4.071   7.645 -11.302  1.00  0.00    -0.248 NA
ATOM     47  C   UNL     1      -6.356   7.369 -10.906  1.00  0.00     0.031 C 
ATOM     48  C   UNL     1      -3.066   3.089 -12.876  1.00  0.00     0.029 A 
ATOM     49  C   UNL     1      -3.883   4.208 -12.706  1.00  0.00     0.049 A 
ATOM     50  H   UNL     1      -5.969   4.191 -12.959  1.00  0.00     0.167 HD
ATOM     51  C   UNL     1      -4.487   6.520 -11.995  1.00  0.00     0.074 A 
ATOM     52  C   UNL     1      -5.932   6.460 -11.785  1.00  0.00     0.031 C 
ATOM     53  C   UNL     1      -3.581   5.599 -12.438  1.00  0.00     0.037 A 
BRANCH  40  54
ATOM     54  C   UNL     1      -7.606   1.896 -11.867  1.00  0.00     0.058 A 
ATOM     55  C   UNL     1      -7.924   1.613 -13.208  1.00  0.00     0.135 A 
ATOM     56  C   UNL     1      -8.674   2.375 -11.073  1.00  0.00     0.135 A 
ATOM     57  F   UNL     1      -6.976   1.192 -14.060  1.00  0.00    -0.206 F 
ATOM     58  C   UNL     1      -9.204   1.814 -13.729  1.00  0.00     0.059 A 
ATOM     59  C   UNL     1      -9.967   2.531 -11.556  1.00  0.00     0.059 A 
ATOM     60  F   UNL     1      -8.492   2.803  -9.817  1.00  0.00    -0.206 F 
ATOM     61  C   UNL     1     -10.219   2.274 -12.893  1.00  0.00     0.060 A 
BRANCH  61  62
ATOM     62  S   UNL     1     -11.858   2.578 -13.574  1.00  0.00     0.124 S 
ATOM     63  O   UNL     1     -11.600   3.690 -14.481  1.00  0.00    -0.237 OA
ATOM     64  O   UNL     1     -12.162   1.296 -14.204  1.00  0.00    -0.237 OA
ATOM     65  O   UNL     1     -12.660   2.894 -12.396  1.00  0.00    -0.744 OA
ENDBRANCH  61  62
ENDBRANCH  40  54
BRANCH  41  66
ATOM     66  C   UNL     1      -5.724   9.616  -8.657  1.00  0.00     0.058 A 
ATOM     67  C   UNL     1      -6.142  10.618  -9.559  1.00  0.00     0.135 A 
ATOM     68  C   UNL     1      -6.370   9.608  -7.406  1.00  0.00     0.135 A 
ATOM     69  F   UNL     1      -5.580  10.708 -10.775  1.00  0.00    -0.206 F 
ATOM     70  C   UNL     1      -7.204  11.487  -9.280  1.00  0.00     0.059 A 
ATOM     71  C   UNL     1      -7.428  10.470  -7.103  1.00  0.00     0.059 A 
ATOM     72  F   UNL     1      -6.061   8.693  -6.476  1.00  0.00    -0.206 F 
ATOM     73  C   UNL     1      -7.866  11.380  -8.059  1.00  0.00     0.060 A 
BRANCH  73  74
ATOM     74  S   UNL     1      -9.380  12.337  -7.787  1.00  0.00     0.124 S 
ATOM     75  O   UNL     1      -8.873  13.704  -7.735  1.00  0.00    -0.237 OA
ATOM     76  O   UNL     1     -10.175  11.997  -8.962  1.00  0.00    -0.237 OA
ATOM     77  O   UNL     1      -9.889  11.813  -6.522  1.00  0.00    -0.744 OA
ENDBRANCH  73  74
ENDBRANCH  41  66
BRANCH  53  78
ATOM     78  C   UNL     1      -2.129   6.007 -12.493  1.00  0.00     0.058 A 
ATOM     79  C   UNL     1      -1.314   6.272 -11.376  1.00  0.00     0.135 A 
ATOM     80  C   UNL     1      -1.505   5.998 -13.749  1.00  0.00     0.135 A 
ATOM     81  F   UNL     1      -1.816   6.227 -10.133  1.00  0.00    -0.206 F 
ATOM     82  C   UNL     1       0.054   6.537 -11.511  1.00  0.00     0.059 A 
ATOM     83  C   UNL     1      -0.142   6.230 -13.904  1.00  0.00     0.059 A 
ATOM     84  F   UNL     1      -2.219   5.707 -14.850  1.00  0.00    -0.206 F 
ATOM     85  C   UNL     1       0.633   6.508 -12.781  1.00  0.00     0.060 A 
BRANCH  85  86
ATOM     86  S   UNL     1       2.412   6.774 -12.961  1.00  0.00     0.124 S 
ATOM     87  O   UNL     1       2.556   8.179 -12.596  1.00  0.00    -0.237 OA
ATOM     88  O   UNL     1       2.976   5.812 -12.018  1.00  0.00    -0.237 OA
ATOM     89  O   UNL     1       2.664   6.470 -14.368  1.00  0.00    -0.744 OA
ENDBRANCH  85  86
ENDBRANCH  53  78
ENDBRANCH  27  28
ENDBRANCH  20  22
ENDBRANCH  19  20
ENDBRANCH   1  19
TORSDOF 15
