REMARK SMILES O=C(OCCOC(=O)C1CN(C(=O)c2c(F)cc(Br)cc2F)C1)c1ccc(-c2c3nc(c(-c4c(F)cc(S(=O)(=O)[O-])cc4F)c4ccc([nH]4)c(-c4c(F)cc(S(=O)(=O)[O-])cc4F)c4nc(c(-c5c(F)cc(S(=O)(=O)[O-])cc5F)c5ccc2[nH]5)C=C4)C=C3)cc1
REMARK SMILES IDX 4 1 3 2 2 3 1 4 24 5 25 6 89 7 26 8 88 9 27 10 28 11 29 12
REMARK SMILES IDX 82 13 30 14 87 15 81 16 83 17 31 18 86 19 80 20 79 21 32 23
REMARK SMILES IDX 66 24 45 25 65 26 46 27 49 28 64 29 84 30 47 31 48 32 63 34
REMARK SMILES IDX 85 35 50 36 33 37 34 38 43 39 35 40 36 41 42 42 44 43 37 44
REMARK SMILES IDX 38 45 39 46 40 47 41 48 67 49 68 50 77 51 69 52 70 53 76 54
REMARK SMILES IDX 78 55 71 56 72 57 73 58 74 59 75 60 51 61 52 62 61 63 53 64
REMARK SMILES IDX 54 65 60 66 62 67 55 68 56 69 57 70 58 71 59 72 5 73 6 74
REMARK SMILES IDX 7 75 8 76 9 77 10 78 23 79 11 80 12 81 13 82 14 83 15 84
REMARK SMILES IDX 21 85 16 86 17 87 20 88 22 89 18 90 19 91
REMARK H PARENT 83 22 49 33
REMARK Flexibility Score: inf
ROOT
ATOM      1  C   UNL     1       4.092  -1.485   0.312  1.00  0.00     0.275 C 
ENDROOT
BRANCH   1   2
ATOM      2  O   UNL     1       3.157  -0.556   0.871  1.00  0.00    -0.458 OA
BRANCH   2   3
ATOM      3  C   UNL     1       3.119   0.790   0.752  1.00  0.00     0.338 C 
ATOM      4  O   UNL     1       2.312   1.412   1.440  1.00  0.00    -0.246 OA
BRANCH   3   5
ATOM      5  C   UNL     1       3.909   1.553  -0.269  1.00  0.00     0.060 A 
ATOM      6  C   UNL     1       5.118   1.166  -0.867  1.00  0.00     0.016 A 
ATOM      7  C   UNL     1       3.347   2.772  -0.672  1.00  0.00     0.016 A 
ATOM      8  C   UNL     1       5.673   1.879  -1.940  1.00  0.00     0.010 A 
ATOM      9  C   UNL     1       3.920   3.505  -1.709  1.00  0.00     0.010 A 
ATOM     10  C   UNL     1       5.057   3.038  -2.391  1.00  0.00    -0.014 A 
BRANCH  10  11
ATOM     11  C   UNL     1       5.634   3.883  -3.461  1.00  0.00     0.031 A 
ATOM     12  C   UNL     1       6.131   5.229  -3.039  1.00  0.00     0.074 A 
ATOM     13  C   UNL     1       5.570   3.540  -4.763  1.00  0.00     0.049 A 
ATOM     14  N   UNL     1       6.405   6.277  -3.761  1.00  0.00    -0.248 NA
ATOM     15  C   UNL     1       6.270   5.429  -1.585  1.00  0.00     0.031 C 
ATOM     16  C   UNL     1       5.104   2.259  -5.292  1.00  0.00     0.029 A 
ATOM     17  N   UNL     1       5.820   4.286  -5.892  1.00  0.00    -0.354 N 
ATOM     18  C   UNL     1       6.731   7.266  -2.844  1.00  0.00     0.074 A 
ATOM     19  C   UNL     1       6.505   6.726  -1.524  1.00  0.00     0.031 C 
ATOM     20  C   UNL     1       4.999   2.342  -6.631  1.00  0.00     0.029 A 
ATOM     21  C   UNL     1       5.396   3.680  -7.056  1.00  0.00     0.049 A 
ATOM     22  H   UNL     1       6.260   5.167  -5.871  1.00  0.00     0.167 HD
ATOM     23  C   UNL     1       7.226   8.502  -3.079  1.00  0.00     0.037 A 
ATOM     24  C   UNL     1       5.303   4.171  -8.310  1.00  0.00     0.037 A 
ATOM     25  C   UNL     1       7.447   9.015  -4.398  1.00  0.00     0.049 A 
ATOM     26  C   UNL     1       5.788   5.575  -8.568  1.00  0.00     0.074 A 
ATOM     27  C   UNL     1       7.985  10.227  -4.778  1.00  0.00     0.029 A 
ATOM     28  N   UNL     1       7.115   8.332  -5.560  1.00  0.00    -0.354 N 
ATOM     29  N   UNL     1       6.198   6.472  -7.701  1.00  0.00    -0.248 NA
ATOM     30  C   UNL     1       5.833   6.026  -9.966  1.00  0.00     0.031 C 
ATOM     31  C   UNL     1       7.931  10.298  -6.174  1.00  0.00     0.029 A 
ATOM     32  C   UNL     1       7.409   9.108  -6.662  1.00  0.00     0.049 A 
ATOM     33  H   UNL     1       6.728   7.428  -5.593  1.00  0.00     0.167 HD
ATOM     34  C   UNL     1       6.624   7.562  -8.453  1.00  0.00     0.074 A 
ATOM     35  C   UNL     1       6.379   7.229  -9.842  1.00  0.00     0.031 C 
ATOM     36  C   UNL     1       7.194   8.719  -8.036  1.00  0.00     0.037 A 
BRANCH  23  37
ATOM     37  C   UNL     1       7.532   9.335  -1.869  1.00  0.00     0.058 A 
ATOM     38  C   UNL     1       8.535   8.955  -0.958  1.00  0.00     0.135 A 
ATOM     39  C   UNL     1       6.737  10.444  -1.547  1.00  0.00     0.135 A 
ATOM     40  F   UNL     1       9.305   7.883  -1.206  1.00  0.00    -0.206 F 
ATOM     41  C   UNL     1       8.677   9.589   0.270  1.00  0.00     0.059 A 
ATOM     42  C   UNL     1       6.891  11.120  -0.340  1.00  0.00     0.059 A 
ATOM     43  F   UNL     1       5.766  10.847  -2.380  1.00  0.00    -0.206 F 
ATOM     44  C   UNL     1       7.836  10.660   0.576  1.00  0.00     0.060 A 
BRANCH  44  45
ATOM     45  S   UNL     1       7.973  11.413   2.210  1.00  0.00     0.124 S 
ATOM     46  O   UNL     1       7.301  10.418   3.042  1.00  0.00    -0.237 OA
ATOM     47  O   UNL     1       9.412  11.521   2.388  1.00  0.00    -0.237 OA
ATOM     48  O   UNL     1       7.263  12.683   2.054  1.00  0.00    -0.744 OA
ENDBRANCH  44  45
ENDBRANCH  23  37
BRANCH  24  49
ATOM     49  C   UNL     1       4.757   3.335  -9.415  1.00  0.00     0.058 A 
ATOM     50  C   UNL     1       5.606   2.750 -10.367  1.00  0.00     0.135 A 
ATOM     51  C   UNL     1       3.379   3.096  -9.542  1.00  0.00     0.135 A 
ATOM     52  F   UNL     1       6.929   2.961 -10.300  1.00  0.00    -0.206 F 
ATOM     53  C   UNL     1       5.113   1.963 -11.404  1.00  0.00     0.059 A 
ATOM     54  C   UNL     1       2.861   2.298 -10.563  1.00  0.00     0.059 A 
ATOM     55  F   UNL     1       2.522   3.634  -8.660  1.00  0.00    -0.206 F 
ATOM     56  C   UNL     1       3.738   1.736 -11.490  1.00  0.00     0.060 A 
BRANCH  56  57
ATOM     57  S   UNL     1       3.126   0.658 -12.807  1.00  0.00     0.124 S 
ATOM     58  O   UNL     1       3.397   1.458 -13.996  1.00  0.00    -0.237 OA
ATOM     59  O   UNL     1       3.958  -0.529 -12.633  1.00  0.00    -0.237 OA
ATOM     60  O   UNL     1       1.716   0.482 -12.472  1.00  0.00    -0.744 OA
ENDBRANCH  56  57
ENDBRANCH  24  49
BRANCH  36  61
ATOM     61  C   UNL     1       7.692   9.682  -9.075  1.00  0.00     0.058 A 
ATOM     62  C   UNL     1       6.827  10.534  -9.772  1.00  0.00     0.135 A 
ATOM     63  C   UNL     1       9.077   9.863  -9.235  1.00  0.00     0.135 A 
ATOM     64  F   UNL     1       5.498  10.391  -9.658  1.00  0.00    -0.206 F 
ATOM     65  C   UNL     1       7.320  11.554 -10.579  1.00  0.00     0.059 A 
ATOM     66  C   UNL     1       9.590  10.891 -10.015  1.00  0.00     0.059 A 
ATOM     67  F   UNL     1       9.942   9.072  -8.580  1.00  0.00    -0.206 F 
ATOM     68  C   UNL     1       8.702  11.737 -10.678  1.00  0.00     0.060 A 
BRANCH  68  69
ATOM     69  S   UNL     1       9.326  13.145 -11.620  1.00  0.00     0.124 S 
ATOM     70  O   UNL     1       9.094  12.706 -12.992  1.00  0.00    -0.237 OA
ATOM     71  O   UNL     1       8.477  14.235 -11.149  1.00  0.00    -0.237 OA
ATOM     72  O   UNL     1      10.726  13.231 -11.215  1.00  0.00    -0.744 OA
ENDBRANCH  68  69
ENDBRANCH  36  61
ENDBRANCH  10  11
ENDBRANCH   3   5
ENDBRANCH   2   3
ENDBRANCH   1   2
BRANCH   1  73
ATOM     73  C   UNL     1       3.800  -1.913  -1.131  1.00  0.00     0.274 C 
BRANCH  73  74
ATOM     74  O   UNL     1       3.280  -0.881  -1.998  1.00  0.00    -0.462 OA
BRANCH  74  75
ATOM     75  C   UNL     1       1.922  -0.910  -2.201  1.00  0.00     0.312 C 
ATOM     76  O   UNL     1       1.190  -1.694  -1.593  1.00  0.00    -0.252 OA
BRANCH  75  77
ATOM     77  C   UNL     1       1.398   0.052  -3.289  1.00  0.00     0.138 C 
ATOM     78  C   UNL     1       0.201   0.912  -2.863  1.00  0.00     0.137 C 
ATOM     79  C   UNL     1       2.111   1.346  -3.703  1.00  0.00     0.137 C 
ATOM     80  N   UNL     1       0.905   2.070  -3.383  1.00  0.00    -0.337 N 
ATOM     81  C   UNL     1       0.425   3.357  -3.400  1.00  0.00     0.259 C 
ATOM     82  O   UNL     1      -0.739   3.591  -3.067  1.00  0.00    -0.269 OA
BRANCH  81  83
ATOM     83  C   UNL     1       1.265   4.514  -3.761  1.00  0.00     0.111 A 
ATOM     84  C   UNL     1       2.035   4.581  -4.915  1.00  0.00     0.140 A 
ATOM     85  C   UNL     1       1.182   5.660  -2.956  1.00  0.00     0.140 A 
ATOM     86  F   UNL     1       2.103   3.537  -5.750  1.00  0.00    -0.206 F 
ATOM     87  C   UNL     1       2.717   5.756  -5.258  1.00  0.00     0.056 A 
ATOM     88  C   UNL     1       1.856   6.837  -3.281  1.00  0.00     0.056 A 
ATOM     89  F   UNL     1       0.476   5.647  -1.816  1.00  0.00    -0.206 F 
ATOM     90  C   UNL     1       2.619   6.881  -4.441  1.00  0.00     0.023 A 
ATOM     91  Br  UNL     1       3.484   8.488  -4.923  1.00  0.00    -0.051 Br
ENDBRANCH  81  83
ENDBRANCH  75  77
ENDBRANCH  74  75
ENDBRANCH  73  74
ENDBRANCH   1  73
TORSDOF 15
