REMARK SMILES CC(C)[C@H](CNc1ncnc2c1CCCCC2)C(=O)OCCOC(=O)c1ccc(-c2c3nc(c(-c4c(F)cc(S(=O)(=O)[O-])cc4F)c4ccc([nH]4)c(-c4c(F)cc(S(=O)(=O)[O-])cc4F)c4nc(c(-c5c(F)cc(S(=O)(=O)[O-])cc5F)c5ccc2[nH]5)C=C4)C=C3)cc1
REMARK SMILES IDX 20 1 18 2 19 3 4 4 2 5 1 6 3 7 5 8 6 9 7 11 8 12 12 13 9 14
REMARK SMILES IDX 11 15 10 16 13 17 14 18 15 19 17 21 16 22 21 24 22 25 23 26
REMARK SMILES IDX 24 27 25 28 26 29 27 30 91 31 28 32 90 33 29 34 30 35 31 36
REMARK SMILES IDX 84 37 32 38 89 39 83 40 85 41 33 42 88 43 82 44 81 45 34 47
REMARK SMILES IDX 68 48 47 49 67 50 48 51 51 52 66 53 86 54 49 55 50 56 65 58
REMARK SMILES IDX 87 59 52 60 35 61 36 62 45 63 37 64 38 65 44 66 46 67 39 68
REMARK SMILES IDX 40 69 41 70 42 71 43 72 69 73 70 74 79 75 71 76 72 77 78 78
REMARK SMILES IDX 80 79 73 80 74 81 75 82 76 83 77 84 53 85 54 86 63 87 55 88
REMARK SMILES IDX 56 89 62 90 64 91 57 92 58 93 59 94 60 95 61 96
REMARK H PARENT 6 10 85 46 51 57
REMARK Flexibility Score: 90.00
ROOT
ATOM      1  O   UNL     1      -1.280  -1.764  -3.442  1.00  0.00    -0.462 OA
ENDROOT
BRANCH   1   2
ATOM      2  C   UNL     1      -1.967  -1.426  -2.324  1.00  0.00     0.311 C 
ATOM      3  O   UNL     1      -3.119  -1.780  -2.100  1.00  0.00    -0.252 OA
BRANCH   2   4
ATOM      4  C   UNL     1      -1.182  -0.529  -1.365  1.00  0.00     0.121 C 
BRANCH   4   5
ATOM      5  C   UNL     1      -1.523   0.967  -1.607  1.00  0.00    -0.001 C 
ATOM      6  C   UNL     1      -2.992   1.239  -1.214  1.00  0.00     0.008 C 
ATOM      7  C   UNL     1      -0.647   1.928  -0.795  1.00  0.00     0.008 C 
ENDBRANCH   4   5
BRANCH   4   8
ATOM      8  C   UNL     1       0.304  -0.911  -1.157  1.00  0.00     0.130 C 
BRANCH   8   9
ATOM      9  N   UNL     1       1.041  -1.307  -2.338  1.00  0.00    -0.369 N 
ATOM     10  H   UNL     1       0.873  -2.224  -2.657  1.00  0.00     0.162 HD
BRANCH   9  11
ATOM     11  C   UNL     1       1.935  -0.583  -3.068  1.00  0.00     0.132 A 
ATOM     12  N   UNL     1       1.669  -0.642  -4.386  1.00  0.00    -0.219 NA
ATOM     13  C   UNL     1       3.044   0.087  -2.566  1.00  0.00     0.016 A 
ATOM     14  C   UNL     1       2.479   0.029  -5.204  1.00  0.00     0.224 A 
ATOM     15  C   UNL     1       3.803   0.778  -3.512  1.00  0.00     0.049 A 
ATOM     16  N   UNL     1       3.529   0.762  -4.834  1.00  0.00    -0.241 NA
BRANCH  13  17
ATOM     17  C   UNL     1       3.494  -0.003  -1.131  1.00  0.00     0.041 C 
BRANCH  17  18
ATOM     18  C   UNL     1       4.860  -0.676  -0.952  1.00  0.00     0.005 C 
BRANCH  18  19
ATOM     19  C   UNL     1       6.053   0.235  -1.224  1.00  0.00     0.001 CG0
ATOM     20  G   UNL     1       6.182   0.691  -2.674  1.00  0.00     0.000 G0
ENDBRANCH  18  19
ENDBRANCH  17  18
ENDBRANCH  13  17
BRANCH  15  21
ATOM     21  C   UNL     1       5.024   1.572  -3.132  1.00  0.00     0.057 C 
BRANCH  21  22
ATOM     22  C   UNL     1       6.182   0.691  -2.674  1.00  0.00     0.006 CG0
ATOM     23  G   UNL     1       6.053   0.235  -1.224  1.00  0.00     0.000 G0
ENDBRANCH  21  22
ENDBRANCH  15  21
ENDBRANCH   9  11
ENDBRANCH   8   9
ENDBRANCH   4   8
ENDBRANCH   2   4
ENDBRANCH   1   2
BRANCH   1  24
ATOM     24  C   UNL     1      -1.915  -2.676  -4.359  1.00  0.00     0.274 C 
BRANCH  24  25
ATOM     25  C   UNL     1      -1.474  -4.121  -4.102  1.00  0.00     0.275 C 
BRANCH  25  26
ATOM     26  O   UNL     1      -2.010  -4.621  -2.862  1.00  0.00    -0.458 OA
BRANCH  26  27
ATOM     27  C   UNL     1      -1.166  -4.572  -1.806  1.00  0.00     0.338 C 
ATOM     28  O   UNL     1      -0.004  -4.208  -1.807  1.00  0.00    -0.246 OA
BRANCH  27  29
ATOM     29  C   UNL     1      -1.897  -4.889  -0.571  1.00  0.00     0.060 A 
ATOM     30  C   UNL     1      -2.228  -3.836   0.282  1.00  0.00     0.016 A 
ATOM     31  C   UNL     1      -2.175  -6.206  -0.208  1.00  0.00     0.016 A 
ATOM     32  C   UNL     1      -2.843  -4.082   1.501  1.00  0.00     0.010 A 
ATOM     33  C   UNL     1      -2.803  -6.456   1.017  1.00  0.00     0.010 A 
ATOM     34  C   UNL     1      -3.134  -5.396   1.879  1.00  0.00    -0.014 A 
BRANCH  34  35
ATOM     35  C   UNL     1      -3.749  -5.636   3.204  1.00  0.00     0.031 A 
ATOM     36  C   UNL     1      -2.914  -6.184   4.323  1.00  0.00     0.074 A 
ATOM     37  C   UNL     1      -5.035  -5.294   3.409  1.00  0.00     0.049 A 
ATOM     38  N   UNL     1      -3.273  -6.497   5.540  1.00  0.00    -0.248 NA
ATOM     39  C   UNL     1      -1.487  -6.403   4.040  1.00  0.00     0.031 C 
ATOM     40  C   UNL     1      -5.917  -4.689   2.408  1.00  0.00     0.029 A 
ATOM     41  N   UNL     1      -5.820  -5.392   4.529  1.00  0.00    -0.354 N 
ATOM     42  C   UNL     1      -2.123  -6.962   6.165  1.00  0.00     0.074 A 
ATOM     43  C   UNL     1      -1.057  -6.908   5.188  1.00  0.00     0.031 C 
ATOM     44  C   UNL     1      -7.116  -4.456   2.965  1.00  0.00     0.029 A 
ATOM     45  C   UNL     1      -7.104  -4.938   4.343  1.00  0.00     0.049 A 
ATOM     46  H   UNL     1      -5.494  -5.753   5.386  1.00  0.00     0.167 HD
ATOM     47  C   UNL     1      -1.974  -7.388   7.441  1.00  0.00     0.037 A 
ATOM     48  C   UNL     1      -8.157  -4.933   5.183  1.00  0.00     0.037 A 
ATOM     49  C   UNL     1      -3.041  -7.425   8.407  1.00  0.00     0.049 A 
ATOM     50  C   UNL     1      -7.984  -5.488   6.570  1.00  0.00     0.074 A 
ATOM     51  C   UNL     1      -2.994  -7.847   9.724  1.00  0.00     0.029 A 
ATOM     52  N   UNL     1      -4.345  -7.022   8.162  1.00  0.00    -0.354 N 
ATOM     53  N   UNL     1      -6.898  -5.954   7.140  1.00  0.00    -0.248 NA
ATOM     54  C   UNL     1      -9.180  -5.533   7.423  1.00  0.00     0.031 C 
ATOM     55  C   UNL     1      -4.280  -7.733  10.264  1.00  0.00     0.029 A 
ATOM     56  C   UNL     1      -5.118  -7.204   9.295  1.00  0.00     0.049 A 
ATOM     57  H   UNL     1      -4.673  -6.660   7.307  1.00  0.00     0.167 HD
ATOM     58  C   UNL     1      -7.277  -6.341   8.420  1.00  0.00     0.074 A 
ATOM     59  C   UNL     1      -8.688  -6.039   8.547  1.00  0.00     0.031 C 
ATOM     60  C   UNL     1      -6.524  -6.899   9.399  1.00  0.00     0.037 A 
BRANCH  47  61
ATOM     61  C   UNL     1      -0.615  -7.870   7.860  1.00  0.00     0.058 A 
ATOM     62  C   UNL     1       0.438  -6.977   8.109  1.00  0.00     0.135 A 
ATOM     63  C   UNL     1      -0.374  -9.240   8.053  1.00  0.00     0.135 A 
ATOM     64  F   UNL     1       0.266  -5.659   7.920  1.00  0.00    -0.206 F 
ATOM     65  C   UNL     1       1.689  -7.427   8.520  1.00  0.00     0.059 A 
ATOM     66  C   UNL     1       0.863  -9.711   8.484  1.00  0.00     0.059 A 
ATOM     67  F   UNL     1      -1.347 -10.136   7.824  1.00  0.00    -0.206 F 
ATOM     68  C   UNL     1       1.891  -8.796   8.705  1.00  0.00     0.060 A 
BRANCH  68  69
ATOM     69  S   UNL     1       3.518  -9.361   9.246  1.00  0.00     0.124 S 
ATOM     70  O   UNL     1       4.315  -9.153   8.041  1.00  0.00    -0.237 OA
ATOM     71  O   UNL     1       3.807  -8.462  10.359  1.00  0.00    -0.237 OA
ATOM     72  O   UNL     1       3.290 -10.755   9.614  1.00  0.00    -0.744 OA
ENDBRANCH  68  69
ENDBRANCH  47  61
BRANCH  48  73
ATOM     73  C   UNL     1      -9.467  -4.405   4.723  1.00  0.00     0.058 A 
ATOM     74  C   UNL     1      -9.973  -3.196   5.221  1.00  0.00     0.135 A 
ATOM     75  C   UNL     1     -10.226  -5.084   3.757  1.00  0.00     0.135 A 
ATOM     76  F   UNL     1      -9.289  -2.515   6.153  1.00  0.00    -0.206 F 
ATOM     77  C   UNL     1     -11.186  -2.677   4.778  1.00  0.00     0.059 A 
ATOM     78  C   UNL     1     -11.431  -4.575   3.283  1.00  0.00     0.059 A 
ATOM     79  F   UNL     1      -9.781  -6.242   3.244  1.00  0.00    -0.206 F 
ATOM     80  C   UNL     1     -11.905  -3.373   3.804  1.00  0.00     0.060 A 
BRANCH  80  81
ATOM     81  S   UNL     1     -13.448  -2.660   3.192  1.00  0.00     0.124 S 
ATOM     82  O   UNL     1     -14.344  -2.885   4.321  1.00  0.00    -0.237 OA
ATOM     83  O   UNL     1     -13.069  -1.273   2.945  1.00  0.00    -0.237 OA
ATOM     84  O   UNL     1     -13.730  -3.447   1.995  1.00  0.00    -0.744 OA
ENDBRANCH  80  81
ENDBRANCH  48  73
BRANCH  60  85
ATOM     85  C   UNL     1      -7.205  -7.221  10.697  1.00  0.00     0.058 A 
ATOM     86  C   UNL     1      -8.033  -8.346  10.825  1.00  0.00     0.135 A 
ATOM     87  C   UNL     1      -6.958  -6.450  11.844  1.00  0.00     0.135 A 
ATOM     88  F   UNL     1      -8.306  -9.109   9.755  1.00  0.00    -0.206 F 
ATOM     89  C   UNL     1      -8.597  -8.695  12.047  1.00  0.00     0.059 A 
ATOM     90  C   UNL     1      -7.494  -6.793  13.081  1.00  0.00     0.059 A 
ATOM     91  F   UNL     1      -6.166  -5.368  11.773  1.00  0.00    -0.206 F 
ATOM     92  C   UNL     1      -8.315  -7.916  13.171  1.00  0.00     0.060 A 
BRANCH  92  93
ATOM     93  S   UNL     1      -9.001  -8.420  14.764  1.00  0.00     0.124 S 
ATOM     94  O   UNL     1     -10.407  -8.062  14.606  1.00  0.00    -0.237 OA
ATOM     95  O   UNL     1      -8.710  -9.850  14.791  1.00  0.00    -0.237 OA
ATOM     96  O   UNL     1      -8.252  -7.616  15.726  1.00  0.00    -0.744 OA
ENDBRANCH  92  93
ENDBRANCH  60  85
ENDBRANCH  34  35
ENDBRANCH  27  29
ENDBRANCH  26  27
ENDBRANCH  25  26
ENDBRANCH  24  25
ENDBRANCH   1  24
TORSDOF 18
