REMARK SMILES NS(=O)(=O)c1ccc(NS(=O)(=O)c2cccc(C(=O)OCCOC(=O)c3ccc(-c4c5nc(c(-c6c(F)cc(S(=O)(=O)[O-])cc6F)c6ccc([nH]6)c(-c6c(F)cc(S(=O)(=O)[O-])cc6F)c6nc(c(-c7c(F)cc(S(=O)(=O)[O-])cc7F)c7ccc4[nH]7)C=C6)C=C5)cc3)c2)cc1
REMARK SMILES IDX 21 1 20 2 18 3 19 4 17 5 13 6 14 7 92 8 15 9 16 10 10 11
REMARK SMILES IDX 11 12 12 13 9 14 8 16 5 17 6 18 94 19 7 20 93 21 2 22 3 23
REMARK SMILES IDX 4 24 1 25 22 28 23 29 24 30 25 31 26 32 27 33 91 34 28 35
REMARK SMILES IDX 90 36 29 37 30 38 31 39 84 40 32 41 89 42 83 43 85 44 33 45
REMARK SMILES IDX 88 46 82 47 81 48 34 50 68 51 47 52 67 53 48 54 51 55 66 56
REMARK SMILES IDX 86 57 49 58 50 59 65 61 87 62 52 63 35 64 36 65 45 66 37 67
REMARK SMILES IDX 38 68 44 69 46 70 39 71 40 72 41 73 42 74 43 75 69 76 70 77
REMARK SMILES IDX 79 78 71 79 72 80 78 81 80 82 73 83 74 84 75 85 76 86 77 87
REMARK SMILES IDX 53 88 54 89 63 90 55 91 56 92 62 93 64 94 57 95 58 96 59 97
REMARK SMILES IDX 60 98 61 99
REMARK H PARENT 9 15 1 26 1 27 85 49 51 60
REMARK Flexibility Score: inf
ROOT
ATOM      1  C   UNL     1       1.018 -10.430   2.224  1.00  0.00     0.275 C 
ENDROOT
BRANCH   1   2
ATOM      2  O   UNL     1       1.035  -9.141   2.872  1.00  0.00    -0.458 OA
BRANCH   2   3
ATOM      3  C   UNL     1       1.370  -8.082   2.094  1.00  0.00     0.338 C 
ATOM      4  O   UNL     1       1.822  -8.101   0.965  1.00  0.00    -0.246 OA
BRANCH   3   5
ATOM      5  C   UNL     1       0.886  -6.862   2.771  1.00  0.00     0.061 A 
ATOM      6  C   UNL     1       0.722  -5.407   4.671  1.00  0.00     0.088 A 
ATOM      7  C   UNL     1      -0.299  -4.677   4.050  1.00  0.00     0.022 A 
ATOM      8  C   UNL     1       1.262  -6.553   4.072  1.00  0.00     0.038 A 
ATOM      9  C   UNL     1      -0.607  -4.949   2.724  1.00  0.00     0.002 A 
ATOM     10  C   UNL     1       0.038  -5.996   2.074  1.00  0.00     0.016 A 
BRANCH   6  11
ATOM     11  S   UNL     1       1.605  -4.723   6.051  1.00  0.00     0.261 S 
ATOM     12  O   UNL     1       3.017  -4.910   5.791  1.00  0.00    -0.201 OA
ATOM     13  O   UNL     1       0.983  -5.255   7.244  1.00  0.00    -0.201 OA
BRANCH  11  14
ATOM     14  N   UNL     1       1.298  -3.084   6.062  1.00  0.00    -0.280 N 
ATOM     15  H   UNL     1       0.880  -2.734   6.882  1.00  0.00     0.180 HD
BRANCH  14  16
ATOM     16  C   UNL     1       1.560  -2.122   5.042  1.00  0.00     0.049 A 
ATOM     17  C   UNL     1       1.330  -0.138   3.076  1.00  0.00     0.082 A 
ATOM     18  C   UNL     1       1.645  -1.445   2.708  1.00  0.00     0.024 A 
ATOM     19  C   UNL     1       1.249   0.210   4.426  1.00  0.00     0.024 A 
ATOM     20  C   UNL     1       1.803  -2.425   3.699  1.00  0.00     0.028 A 
ATOM     21  C   UNL     1       1.351  -0.785   5.400  1.00  0.00     0.028 A 
BRANCH  17  22
ATOM     22  S   UNL     1       0.928   1.107   1.884  1.00  0.00     0.238 S 
ATOM     23  O   UNL     1       1.832   2.219   2.081  1.00  0.00    -0.207 OA
ATOM     24  O   UNL     1      -0.506   1.258   1.882  1.00  0.00    -0.207 OA
BRANCH  22  25
ATOM     25  N   UNL     1       1.331   0.443   0.399  1.00  0.00    -0.225 NA
ATOM     26  H   UNL     1       1.123   1.113  -0.342  1.00  0.00     0.137 HD
ATOM     27  H   UNL     1       0.788  -0.408   0.249  1.00  0.00     0.137 HD
ENDBRANCH  22  25
ENDBRANCH  17  22
ENDBRANCH  14  16
ENDBRANCH  11  14
ENDBRANCH   6  11
ENDBRANCH   3   5
ENDBRANCH   2   3
ENDBRANCH   1   2
BRANCH   1  28
ATOM     28  C   UNL     1      -0.425 -10.811   1.890  1.00  0.00     0.275 C 
BRANCH  28  29
ATOM     29  O   UNL     1      -0.893  -9.964   0.826  1.00  0.00    -0.458 OA
BRANCH  29  30
ATOM     30  C   UNL     1      -2.112  -9.397   0.986  1.00  0.00     0.338 C 
ATOM     31  O   UNL     1      -2.894  -9.578   1.902  1.00  0.00    -0.246 OA
BRANCH  30  32
ATOM     32  C   UNL     1      -2.370  -8.477  -0.143  1.00  0.00     0.060 A 
ATOM     33  C   UNL     1      -1.361  -7.633  -0.596  1.00  0.00     0.016 A 
ATOM     34  C   UNL     1      -3.641  -8.389  -0.708  1.00  0.00     0.016 A 
ATOM     35  C   UNL     1      -1.646  -6.616  -1.505  1.00  0.00     0.010 A 
ATOM     36  C   UNL     1      -3.876  -7.479  -1.748  1.00  0.00     0.010 A 
ATOM     37  C   UNL     1      -2.889  -6.560  -2.149  1.00  0.00    -0.014 A 
BRANCH  37  38
ATOM     38  C   UNL     1      -3.134  -5.587  -3.260  1.00  0.00     0.031 A 
ATOM     39  C   UNL     1      -4.360  -4.706  -3.259  1.00  0.00     0.074 A 
ATOM     40  C   UNL     1      -2.271  -5.504  -4.297  1.00  0.00     0.049 A 
ATOM     41  N   UNL     1      -4.868  -3.997  -4.235  1.00  0.00    -0.248 NA
ATOM     42  C   UNL     1      -5.123  -4.623  -2.003  1.00  0.00     0.031 C 
ATOM     43  C   UNL     1      -1.021  -6.258  -4.433  1.00  0.00     0.029 A 
ATOM     44  N   UNL     1      -2.313  -4.747  -5.445  1.00  0.00    -0.354 N 
ATOM     45  C   UNL     1      -6.042  -3.442  -3.736  1.00  0.00     0.074 A 
ATOM     46  C   UNL     1      -6.167  -3.890  -2.365  1.00  0.00     0.031 C 
ATOM     47  C   UNL     1      -0.396  -5.891  -5.559  1.00  0.00     0.029 A 
ATOM     48  C   UNL     1      -1.254  -4.975  -6.295  1.00  0.00     0.049 A 
ATOM     49  H   UNL     1      -3.032  -4.103  -5.641  1.00  0.00     0.167 HD
ATOM     50  C   UNL     1      -6.934  -2.639  -4.366  1.00  0.00     0.037 A 
ATOM     51  C   UNL     1      -1.019  -4.561  -7.556  1.00  0.00     0.037 A 
ATOM     52  C   UNL     1      -6.774  -2.147  -5.711  1.00  0.00     0.049 A 
ATOM     53  C   UNL     1      -2.045  -3.721  -8.254  1.00  0.00     0.074 A 
ATOM     54  C   UNL     1      -7.607  -1.300  -6.423  1.00  0.00     0.029 A 
ATOM     55  N   UNL     1      -5.708  -2.449  -6.545  1.00  0.00    -0.354 N 
ATOM     56  N   UNL     1      -3.178  -3.253  -7.788  1.00  0.00    -0.248 NA
ATOM     57  C   UNL     1      -1.783  -3.384  -9.659  1.00  0.00     0.031 C 
ATOM     58  C   UNL     1      -7.064  -1.120  -7.700  1.00  0.00     0.029 A 
ATOM     59  C   UNL     1      -5.872  -1.824  -7.771  1.00  0.00     0.049 A 
ATOM     60  H   UNL     1      -4.946  -3.023  -6.302  1.00  0.00     0.167 HD
ATOM     61  C   UNL     1      -3.766  -2.570  -8.844  1.00  0.00     0.074 A 
ATOM     62  C   UNL     1      -2.854  -2.663  -9.966  1.00  0.00     0.031 C 
ATOM     63  C   UNL     1      -4.960  -1.931  -8.881  1.00  0.00     0.037 A 
BRANCH  50  64
ATOM     64  C   UNL     1      -8.189  -2.264  -3.624  1.00  0.00     0.058 A 
ATOM     65  C   UNL     1      -8.187  -1.331  -2.577  1.00  0.00     0.135 A 
ATOM     66  C   UNL     1      -9.423  -2.820  -4.002  1.00  0.00     0.135 A 
ATOM     67  F   UNL     1      -7.034  -0.778  -2.167  1.00  0.00    -0.206 F 
ATOM     68  C   UNL     1      -9.359  -0.982  -1.912  1.00  0.00     0.059 A 
ATOM     69  C   UNL     1     -10.611  -2.469  -3.367  1.00  0.00     0.059 A 
ATOM     70  F   UNL     1      -9.483  -3.715  -5.001  1.00  0.00    -0.206 F 
ATOM     71  C   UNL     1     -10.566  -1.560  -2.312  1.00  0.00     0.060 A 
BRANCH  71  72
ATOM     72  S   UNL     1     -12.078  -1.104  -1.436  1.00  0.00     0.124 S 
ATOM     73  O   UNL     1     -11.919  -1.836  -0.183  1.00  0.00    -0.237 OA
ATOM     74  O   UNL     1     -11.960   0.347  -1.340  1.00  0.00    -0.237 OA
ATOM     75  O   UNL     1     -13.139  -1.587  -2.314  1.00  0.00    -0.744 OA
ENDBRANCH  71  72
ENDBRANCH  50  64
BRANCH  51  76
ATOM     76  C   UNL     1       0.214  -5.008  -8.258  1.00  0.00     0.058 A 
ATOM     77  C   UNL     1       1.251  -4.107  -8.537  1.00  0.00     0.135 A 
ATOM     78  C   UNL     1       0.397  -6.352  -8.624  1.00  0.00     0.135 A 
ATOM     79  F   UNL     1       1.116  -2.811  -8.219  1.00  0.00    -0.206 F 
ATOM     80  C   UNL     1       2.429  -4.523  -9.148  1.00  0.00     0.059 A 
ATOM     81  C   UNL     1       1.577  -6.797  -9.209  1.00  0.00     0.059 A 
ATOM     82  F   UNL     1      -0.562  -7.256  -8.368  1.00  0.00    -0.206 F 
ATOM     83  C   UNL     1       2.587  -5.872  -9.473  1.00  0.00     0.060 A 
BRANCH  83  84
ATOM     84  S   UNL     1       4.151  -6.419 -10.191  1.00  0.00     0.124 S 
ATOM     85  O   UNL     1       4.015  -5.962 -11.569  1.00  0.00    -0.237 OA
ATOM     86  O   UNL     1       5.130  -5.707  -9.375  1.00  0.00    -0.237 OA
ATOM     87  O   UNL     1       4.120  -7.865  -9.996  1.00  0.00    -0.744 OA
ENDBRANCH  83  84
ENDBRANCH  51  76
BRANCH  63  88
ATOM     88  C   UNL     1      -5.349  -1.274 -10.173  1.00  0.00     0.058 A 
ATOM     89  C   UNL     1      -5.818  -2.026 -11.261  1.00  0.00     0.135 A 
ATOM     90  C   UNL     1      -5.306   0.123 -10.306  1.00  0.00     0.135 A 
ATOM     91  F   UNL     1      -5.864  -3.365 -11.187  1.00  0.00    -0.206 F 
ATOM     92  C   UNL     1      -6.228  -1.415 -12.441  1.00  0.00     0.059 A 
ATOM     93  C   UNL     1      -5.731   0.756 -11.469  1.00  0.00     0.059 A 
ATOM     94  F   UNL     1      -4.867   0.885  -9.292  1.00  0.00    -0.206 F 
ATOM     95  C   UNL     1      -6.186  -0.022 -12.533  1.00  0.00     0.060 A 
BRANCH  95  96
ATOM     96  S   UNL     1      -6.772   0.763 -14.050  1.00  0.00     0.124 S 
ATOM     97  O   UNL     1      -5.674   0.483 -14.969  1.00  0.00    -0.237 OA
ATOM     98  O   UNL     1      -8.017   0.046 -14.312  1.00  0.00    -0.237 OA
ATOM     99  O   UNL     1      -6.931   2.163 -13.668  1.00  0.00    -0.744 OA
ENDBRANCH  95  96
ENDBRANCH  63  88
ENDBRANCH  37  38
ENDBRANCH  30  32
ENDBRANCH  29  30
ENDBRANCH  28  29
ENDBRANCH   1  28
TORSDOF 19
