REMARK SMILES O=C(OCCOC(=O)c1ccccc1C(=O)Nc1ccc(N2C(=O)[C@H]3[C@@H]4CC[C@@H](C4)[C@@H]3C2=O)cc1)c1ccc(-c2c3nc(c(-c4c(F)cc(S(=O)(=O)[O-])cc4F)c4ccc([nH]4)c(-c4c(F)cc(S(=O)(=O)[O-])cc4F)c4nc(c(-c5c(F)cc(S(=O)(=O)[O-])cc5F)c5ccc2[nH]5)C=C4)C=C3)cc1
REMARK SMILES IDX 4 1 3 2 2 3 1 4 36 5 37 6 101 7 38 8 100 9 39 10 40 11 41 12
REMARK SMILES IDX 94 13 42 14 99 15 93 16 95 17 43 18 98 19 92 20 91 21 44 23
REMARK SMILES IDX 78 24 57 25 77 26 58 27 61 28 76 29 96 30 59 31 60 32 75 34
REMARK SMILES IDX 97 35 62 36 45 37 46 38 55 39 47 40 48 41 54 42 56 43 49 44
REMARK SMILES IDX 50 45 51 46 52 47 53 48 79 49 80 50 89 51 81 52 82 53 88 54
REMARK SMILES IDX 90 55 83 56 84 57 85 58 86 59 87 60 63 61 64 62 73 63 65 64
REMARK SMILES IDX 66 65 72 66 74 67 67 68 68 69 69 70 70 71 71 72 5 73 6 74
REMARK SMILES IDX 7 75 8 76 9 77 10 78 14 79 11 80 13 81 12 82 15 83 16 84
REMARK SMILES IDX 17 85 18 87 19 88 35 89 20 90 34 91 21 92 22 93 23 94 32 95
REMARK SMILES IDX 24 96 25 97 31 98 33 99 26 100 29 101 27 102 30 103 28 104
REMARK H PARENT 95 22 61 33 17 86
REMARK Flexibility Score: inf
ROOT
ATOM      1  C   UNL     1       5.138   1.301   0.068  1.00  0.00     0.275 C 
ENDROOT
BRANCH   1   2
ATOM      2  O   UNL     1       4.065   1.914  -0.661  1.00  0.00    -0.458 OA
BRANCH   2   3
ATOM      3  C   UNL     1       3.796   1.763  -1.980  1.00  0.00     0.338 C 
ATOM      4  O   UNL     1       3.061   2.545  -2.573  1.00  0.00    -0.246 OA
BRANCH   3   5
ATOM      5  C   UNL     1       4.230   0.518  -2.654  1.00  0.00     0.060 A 
ATOM      6  C   UNL     1       5.521  -0.003  -2.544  1.00  0.00     0.016 A 
ATOM      7  C   UNL     1       3.266  -0.171  -3.401  1.00  0.00     0.016 A 
ATOM      8  C   UNL     1       5.802  -1.278  -3.006  1.00  0.00     0.010 A 
ATOM      9  C   UNL     1       3.565  -1.418  -3.946  1.00  0.00     0.010 A 
ATOM     10  C   UNL     1       4.835  -1.969  -3.738  1.00  0.00    -0.014 A 
BRANCH  10  11
ATOM     11  C   UNL     1       5.324  -3.045  -4.609  1.00  0.00     0.031 A 
ATOM     12  C   UNL     1       5.987  -2.588  -5.873  1.00  0.00     0.074 A 
ATOM     13  C   UNL     1       5.269  -4.335  -4.242  1.00  0.00     0.049 A 
ATOM     14  N   UNL     1       6.649  -3.284  -6.750  1.00  0.00    -0.248 NA
ATOM     15  C   UNL     1       5.965  -1.135  -6.147  1.00  0.00     0.031 C 
ATOM     16  C   UNL     1       4.742  -4.834  -2.975  1.00  0.00     0.029 A 
ATOM     17  N   UNL     1       5.653  -5.464  -4.910  1.00  0.00    -0.354 N 
ATOM     18  C   UNL     1       7.180  -2.351  -7.628  1.00  0.00     0.074 A 
ATOM     19  C   UNL     1       6.745  -1.043  -7.209  1.00  0.00     0.031 C 
ATOM     20  C   UNL     1       4.751  -6.179  -2.993  1.00  0.00     0.029 A 
ATOM     21  C   UNL     1       5.293  -6.627  -4.271  1.00  0.00     0.049 A 
ATOM     22  H   UNL     1       6.140  -5.446  -5.766  1.00  0.00     0.167 HD
ATOM     23  C   UNL     1       7.970  -2.578  -8.696  1.00  0.00     0.037 A 
ATOM     24  C   UNL     1       5.372  -7.898  -4.711  1.00  0.00     0.037 A 
ATOM     25  C   UNL     1       8.280  -3.898  -9.153  1.00  0.00     0.049 A 
ATOM     26  C   UNL     1       6.048  -8.126  -6.042  1.00  0.00     0.074 A 
ATOM     27  C   UNL     1       9.013  -4.282 -10.255  1.00  0.00     0.029 A 
ATOM     28  N   UNL     1       7.810  -5.056  -8.544  1.00  0.00    -0.354 N 
ATOM     29  N   UNL     1       6.620  -7.244  -6.831  1.00  0.00    -0.248 NA
ATOM     30  C   UNL     1       6.102  -9.504  -6.543  1.00  0.00     0.031 C 
ATOM     31  C   UNL     1       8.929  -5.675 -10.352  1.00  0.00     0.029 A 
ATOM     32  C   UNL     1       8.184  -6.159  -9.283  1.00  0.00     0.049 A 
ATOM     33  H   UNL     1       7.288  -5.085  -7.710  1.00  0.00     0.167 HD
ATOM     34  C   UNL     1       7.133  -7.962  -7.903  1.00  0.00     0.074 A 
ATOM     35  C   UNL     1       6.798  -9.353  -7.663  1.00  0.00     0.031 C 
ATOM     36  C   UNL     1       7.825  -7.524  -8.984  1.00  0.00     0.037 A 
BRANCH  23  37
ATOM     37  C   UNL     1       8.454  -1.377  -9.443  1.00  0.00     0.058 A 
ATOM     38  C   UNL     1       9.492  -0.574  -8.943  1.00  0.00     0.135 A 
ATOM     39  C   UNL     1       7.830  -0.983 -10.635  1.00  0.00     0.135 A 
ATOM     40  F   UNL     1      10.083  -0.881  -7.777  1.00  0.00    -0.206 F 
ATOM     41  C   UNL     1       9.893   0.584  -9.600  1.00  0.00     0.059 A 
ATOM     42  C   UNL     1       8.223   0.164 -11.316  1.00  0.00     0.059 A 
ATOM     43  F   UNL     1       6.804  -1.695 -11.126  1.00  0.00    -0.206 F 
ATOM     44  C   UNL     1       9.251   0.944 -10.787  1.00  0.00     0.060 A 
BRANCH  44  45
ATOM     45  S   UNL     1       9.782   2.449 -11.631  1.00  0.00     0.124 S 
ATOM     46  O   UNL     1       9.249   3.483 -10.749  1.00  0.00    -0.237 OA
ATOM     47  O   UNL     1      11.234   2.306 -11.636  1.00  0.00    -0.237 OA
ATOM     48  O   UNL     1       9.140   2.348 -12.938  1.00  0.00    -0.744 OA
ENDBRANCH  44  45
ENDBRANCH  23  37
BRANCH  24  49
ATOM     49  C   UNL     1       4.743  -9.012  -3.949  1.00  0.00     0.058 A 
ATOM     50  C   UNL     1       5.495 -10.057  -3.393  1.00  0.00     0.135 A 
ATOM     51  C   UNL     1       3.345  -9.077  -3.808  1.00  0.00     0.135 A 
ATOM     52  F   UNL     1       6.832 -10.052  -3.503  1.00  0.00    -0.206 F 
ATOM     53  C   UNL     1       4.887 -11.139  -2.757  1.00  0.00     0.059 A 
ATOM     54  C   UNL     1       2.716 -10.136  -3.159  1.00  0.00     0.059 A 
ATOM     55  F   UNL     1       2.570  -8.102  -4.311  1.00  0.00    -0.206 F 
ATOM     56  C   UNL     1       3.495 -11.174  -2.653  1.00  0.00     0.060 A 
BRANCH  56  57
ATOM     57  S   UNL     1       2.713 -12.592  -1.849  1.00  0.00     0.124 S 
ATOM     58  O   UNL     1       2.933 -13.645  -2.833  1.00  0.00    -0.237 OA
ATOM     59  O   UNL     1       3.477 -12.704  -0.612  1.00  0.00    -0.237 OA
ATOM     60  O   UNL     1       1.327 -12.163  -1.686  1.00  0.00    -0.744 OA
ENDBRANCH  56  57
ENDBRANCH  24  49
BRANCH  36  61
ATOM     61  C   UNL     1       8.277  -8.555  -9.970  1.00  0.00     0.058 A 
ATOM     62  C   UNL     1       7.389  -9.107 -10.902  1.00  0.00     0.135 A 
ATOM     63  C   UNL     1       9.636  -8.896 -10.056  1.00  0.00     0.135 A 
ATOM     64  F   UNL     1       6.081  -8.810 -10.848  1.00  0.00    -0.206 F 
ATOM     65  C   UNL     1       7.835  -9.965 -11.897  1.00  0.00     0.059 A 
ATOM     66  C   UNL     1      10.107  -9.732 -11.059  1.00  0.00     0.059 A 
ATOM     67  F   UNL     1      10.521  -8.377  -9.190  1.00  0.00    -0.206 F 
ATOM     68  C   UNL     1       9.198 -10.262 -11.974  1.00  0.00     0.060 A 
BRANCH  68  69
ATOM     69  S   UNL     1       9.780 -11.305 -13.325  1.00  0.00     0.124 S 
ATOM     70  O   UNL     1       9.371 -12.629 -12.869  1.00  0.00    -0.237 OA
ATOM     71  O   UNL     1       9.047 -10.773 -14.470  1.00  0.00    -0.237 OA
ATOM     72  O   UNL     1      11.219 -11.062 -13.344  1.00  0.00    -0.744 OA
ENDBRANCH  68  69
ENDBRANCH  36  61
ENDBRANCH  10  11
ENDBRANCH   3   5
ENDBRANCH   2   3
ENDBRANCH   1   2
BRANCH   1  73
ATOM     73  C   UNL     1       4.961  -0.128   0.605  1.00  0.00     0.275 C 
BRANCH  73  74
ATOM     74  O   UNL     1       4.171  -1.109  -0.089  1.00  0.00    -0.458 OA
BRANCH  74  75
ATOM     75  C   UNL     1       2.826  -0.969  -0.051  1.00  0.00     0.339 C 
ATOM     76  O   UNL     1       2.209   0.037   0.266  1.00  0.00    -0.246 OA
BRANCH  75  77
ATOM     77  C   UNL     1       2.146  -2.174  -0.578  1.00  0.00     0.072 A 
ATOM     78  C   UNL     1       1.194  -1.927  -1.588  1.00  0.00     0.016 A 
ATOM     79  C   UNL     1       2.401  -3.495  -0.183  1.00  0.00     0.054 A 
ATOM     80  C   UNL     1       0.628  -2.973  -2.317  1.00  0.00     0.001 A 
ATOM     81  C   UNL     1       1.815  -4.542  -0.931  1.00  0.00     0.015 A 
ATOM     82  C   UNL     1       0.964  -4.283  -2.007  1.00  0.00     0.001 A 
BRANCH  79  83
ATOM     83  C   UNL     1       3.322  -3.939   0.894  1.00  0.00     0.256 C 
ATOM     84  O   UNL     1       4.066  -4.894   0.650  1.00  0.00    -0.269 OA
ATOM     85  N   UNL     1       3.446  -3.345   2.130  1.00  0.00    -0.322 N 
ATOM     86  H   UNL     1       4.165  -3.726   2.685  1.00  0.00     0.170 HD
BRANCH  85  87
ATOM     87  C   UNL     1       2.746  -2.304   2.746  1.00  0.00     0.041 A 
ATOM     88  C   UNL     1       3.516  -1.395   3.474  1.00  0.00     0.028 A 
ATOM     89  C   UNL     1       1.392  -2.054   2.554  1.00  0.00     0.028 A 
ATOM     90  C   UNL     1       3.025  -0.106   3.699  1.00  0.00     0.029 A 
ATOM     91  C   UNL     1       0.869  -0.795   2.878  1.00  0.00     0.029 A 
ATOM     92  C   UNL     1       1.724   0.229   3.318  1.00  0.00     0.052 A 
BRANCH  92  93
ATOM     93  N   UNL     1       1.340   1.578   3.131  1.00  0.00    -0.250 N 
ATOM     94  C   UNL     1       0.031   2.049   3.280  1.00  0.00     0.237 C 
ATOM     95  C   UNL     1       2.187   2.554   2.565  1.00  0.00     0.237 C 
ATOM     96  O   UNL     1      -0.897   1.598   3.927  1.00  0.00    -0.274 OA
ATOM     97  C   UNL     1      -0.032   3.195   2.330  1.00  0.00     0.095 C 
ATOM     98  C   UNL     1       1.344   3.791   2.536  1.00  0.00     0.095 C 
ATOM     99  O   UNL     1       3.384   2.518   2.335  1.00  0.00    -0.274 OA
ATOM    100  C   UNL     1      -0.899   4.454   2.205  1.00  0.00     0.002 C 
ATOM    101  C   UNL     1       1.225   5.067   1.706  1.00  0.00     0.002 C 
ATOM    102  C   UNL     1      -0.985   4.691   0.683  1.00  0.00     0.005 C 
ATOM    103  C   UNL     1       0.043   5.644   2.526  1.00  0.00     0.009 C 
ATOM    104  C   UNL     1       0.517   4.912   0.324  1.00  0.00     0.005 C 
ENDBRANCH  92  93
ENDBRANCH  85  87
ENDBRANCH  79  83
ENDBRANCH  75  77
ENDBRANCH  74  75
ENDBRANCH  73  74
ENDBRANCH   1  73
TORSDOF 17
