REMARK SMILES CC(C)c1ccc2c(c1)c(SC(C)(C)C)c(CC(C)(C)C(=O)OCCOC(=O)c1ccc(-c3c4nc(c(-c5c(F)cc(S(=O)(=O)[O-])cc5F)c5ccc([nH]5)c(-c5c(F)cc(S(=O)(=O)[O-])cc5F)c5nc(c(-c6c(F)cc(S(=O)(=O)[O-])cc6F)c6ccc3[nH]6)C=C5)C=C4)cc1)n2Cc1ccc(Cl)cc1
REMARK SMILES IDX 24 1 23 2 21 3 22 4 18 5 19 6 20 7 17 8 16 9 4 10 5 11 9 12
REMARK SMILES IDX 6 13 8 14 7 15 10 16 95 17 2 18 1 19 3 20 11 21 12 22 13 23
REMARK SMILES IDX 14 24 15 25 96 26 97 27 98 28 103 29 99 30 102 31 100 32
REMARK SMILES IDX 101 33 25 34 26 35 27 36 28 37 29 38 30 39 94 40 31 41 93 42
REMARK SMILES IDX 32 43 33 44 34 45 87 46 35 47 92 48 86 49 88 50 36 51 91 52
REMARK SMILES IDX 85 53 84 54 37 56 71 57 50 58 70 59 51 60 54 61 69 62 89 63
REMARK SMILES IDX 52 64 53 65 68 67 90 68 55 69 38 70 39 71 48 72 40 73 41 74
REMARK SMILES IDX 47 75 49 76 42 77 43 78 44 79 45 80 46 81 72 82 73 83 82 84
REMARK SMILES IDX 74 85 75 86 81 87 83 88 76 89 77 90 78 91 79 92 80 93 56 94
REMARK SMILES IDX 57 95 66 96 58 97 59 98 65 99 67 100 60 101 61 102 62 103
REMARK SMILES IDX 63 104 64 105
REMARK H PARENT 88 55 54 66
REMARK Flexibility Score: inf
ROOT
ATOM      1  C   UNL     1      -7.201  -0.062   5.115  1.00  0.00     0.274 C 
ENDROOT
BRANCH   1   2
ATOM      2  O   UNL     1      -7.385   0.980   4.139  1.00  0.00    -0.462 OA
BRANCH   2   3
ATOM      3  C   UNL     1      -6.240   1.524   3.659  1.00  0.00     0.312 C 
ATOM      4  O   UNL     1      -5.128   1.218   4.076  1.00  0.00    -0.252 OA
BRANCH   3   5
ATOM      5  C   UNL     1      -6.460   2.566   2.562  1.00  0.00     0.068 C 
ATOM      6  C   UNL     1      -5.465   3.657   3.002  1.00  0.00     0.024 C 
ATOM      7  C   UNL     1      -7.882   3.178   2.514  1.00  0.00     0.024 C 
BRANCH   5   8
ATOM      8  C   UNL     1      -6.152   2.006   1.158  1.00  0.00     0.073 C 
BRANCH   8   9
ATOM      9  C   UNL     1      -4.895   1.280   1.000  1.00  0.00     0.034 A 
ATOM     10  C   UNL     1      -0.964  -1.056   0.305  1.00  0.00    -0.045 A 
ATOM     11  C   UNL     1      -1.867  -2.053  -0.006  1.00  0.00     0.006 A 
ATOM     12  C   UNL     1      -1.391   0.328   0.385  1.00  0.00     0.015 A 
ATOM     13  C   UNL     1      -3.196  -1.780   0.143  1.00  0.00     0.027 A 
ATOM     14  C   UNL     1      -2.762   0.647   0.542  1.00  0.00     0.014 A 
ATOM     15  C   UNL     1      -3.584  -0.479   0.519  1.00  0.00     0.050 A 
ATOM     16  C   UNL     1      -3.670   1.816   0.677  1.00  0.00     0.037 A 
ATOM     17  N   UNL     1      -4.746  -0.078   1.127  1.00  0.00    -0.339 N 
BRANCH  10  18
ATOM     18  C   UNL     1       0.442  -1.498   0.667  1.00  0.00     0.013 C 
ATOM     19  C   UNL     1       0.923  -0.617   1.810  1.00  0.00     0.012 C 
ATOM     20  C   UNL     1       0.650  -2.966   1.125  1.00  0.00     0.012 C 
ENDBRANCH  10  18
BRANCH  16  21
ATOM     21  S   UNL     1      -3.411   3.615   0.397  1.00  0.00    -0.118 SA
BRANCH  21  22
ATOM     22  C   UNL     1      -4.858   4.504  -0.707  1.00  0.00     0.012 C 
ATOM     23  C   UNL     1      -5.596   3.717  -1.827  1.00  0.00     0.023 C 
ATOM     24  C   UNL     1      -5.958   5.258   0.095  1.00  0.00     0.023 C 
ATOM     25  C   UNL     1      -4.124   5.694  -1.378  1.00  0.00     0.023 C 
ENDBRANCH  21  22
ENDBRANCH  16  21
BRANCH  17  26
ATOM     26  C   UNL     1      -5.342  -0.997   2.071  1.00  0.00     0.158 C 
BRANCH  26  27
ATOM     27  C   UNL     1      -6.753  -1.324   1.804  1.00  0.00    -0.028 A 
ATOM     28  C   UNL     1      -8.182  -0.198   1.571  1.00  0.00     0.007 A 
ATOM     29  C   UNL     1      -7.059  -3.139   1.745  1.00  0.00     0.007 A 
ATOM     30  C   UNL     1      -9.778  -0.852   0.984  1.00  0.00     0.021 A 
ATOM     31  C   UNL     1      -8.667  -3.750   1.204  1.00  0.00     0.021 A 
ATOM     32  C   UNL     1      -9.977  -2.621   0.749  1.00  0.00     0.041 A 
ATOM     33  Cl  UNL     1     -11.587  -3.244   0.604  1.00  0.00    -0.084 Cl
ENDBRANCH  26  27
ENDBRANCH  17  26
ENDBRANCH   8   9
ENDBRANCH   5   8
ENDBRANCH   3   5
ENDBRANCH   2   3
ENDBRANCH   1   2
BRANCH   1  34
ATOM     34  C   UNL     1      -8.123  -1.255   4.795  1.00  0.00     0.275 C 
BRANCH  34  35
ATOM     35  O   UNL     1      -7.719  -1.899   3.545  1.00  0.00    -0.458 OA
BRANCH  35  36
ATOM     36  C   UNL     1      -8.638  -1.988   2.281  1.00  0.00     0.338 C 
ATOM     37  O   UNL     1      -9.759  -2.058   2.865  1.00  0.00    -0.246 OA
BRANCH  36  38
ATOM     38  C   UNL     1      -7.969  -1.852   0.234  1.00  0.00     0.060 A 
ATOM     39  C   UNL     1      -6.945  -2.624  -0.555  1.00  0.00     0.016 A 
ATOM     40  C   UNL     1      -7.956  -0.641  -0.757  1.00  0.00     0.016 A 
ATOM     41  C   UNL     1      -5.887  -2.111  -1.510  1.00  0.00     0.010 A 
ATOM     42  C   UNL     1      -6.881  -0.113  -1.704  1.00  0.00     0.010 A 
ATOM     43  C   UNL     1      -5.694  -0.775  -1.963  1.00  0.00    -0.014 A 
BRANCH  43  44
ATOM     44  C   UNL     1      -4.396  -0.342  -2.856  1.00  0.00     0.031 A 
ATOM     45  C   UNL     1      -4.056  -1.469  -3.718  1.00  0.00     0.074 A 
ATOM     46  C   UNL     1      -3.442   0.665  -3.109  1.00  0.00     0.049 A 
ATOM     47  N   UNL     1      -3.083  -2.298  -3.529  1.00  0.00    -0.248 NA
ATOM     48  C   UNL     1      -4.983  -1.794  -4.803  1.00  0.00     0.031 C 
ATOM     49  C   UNL     1      -3.337   1.897  -2.409  1.00  0.00     0.029 A 
ATOM     50  N   UNL     1      -2.251   0.849  -3.928  1.00  0.00    -0.354 N 
ATOM     51  C   UNL     1      -3.070  -3.019  -4.695  1.00  0.00     0.074 A 
ATOM     52  C   UNL     1      -4.376  -2.870  -5.304  1.00  0.00     0.031 C 
ATOM     53  C   UNL     1      -2.466   2.803  -2.865  1.00  0.00     0.029 A 
ATOM     54  C   UNL     1      -1.708   2.204  -3.919  1.00  0.00     0.049 A 
ATOM     55  H   UNL     1      -1.844   0.117  -4.446  1.00  0.00     0.167 HD
ATOM     56  C   UNL     1      -1.886  -3.282  -5.293  1.00  0.00     0.037 A 
ATOM     57  C   UNL     1      -0.592   2.886  -4.370  1.00  0.00     0.037 A 
ATOM     58  C   UNL     1      -0.731  -3.210  -4.438  1.00  0.00     0.049 A 
ATOM     59  C   UNL     1       0.497   1.931  -4.630  1.00  0.00     0.074 A 
ATOM     60  C   UNL     1      -0.124  -4.032  -3.518  1.00  0.00     0.029 A 
ATOM     61  N   UNL     1      -0.121  -1.990  -4.322  1.00  0.00    -0.354 N 
ATOM     62  N   UNL     1       1.322   1.488  -3.725  1.00  0.00    -0.248 NA
ATOM     63  C   UNL     1       0.506   1.227  -5.901  1.00  0.00     0.031 C 
ATOM     64  C   UNL     1       0.929  -3.285  -2.915  1.00  0.00     0.029 A 
ATOM     65  C   UNL     1       0.987  -2.022  -3.493  1.00  0.00     0.049 A 
ATOM     66  H   UNL     1      -0.436  -1.177  -4.779  1.00  0.00     0.167 HD
ATOM     67  C   UNL     1       1.656   0.222  -4.154  1.00  0.00     0.074 A 
ATOM     68  C   UNL     1       1.212   0.154  -5.546  1.00  0.00     0.031 C 
ATOM     69  C   UNL     1       1.780  -0.804  -3.262  1.00  0.00     0.037 A 
BRANCH  56  70
ATOM     70  C   UNL     1      -1.787  -3.192  -6.779  1.00  0.00     0.058 A 
ATOM     71  C   UNL     1      -0.924  -4.036  -7.479  1.00  0.00     0.135 A 
ATOM     72  C   UNL     1      -2.416  -2.160  -7.518  1.00  0.00     0.135 A 
ATOM     73  F   UNL     1      -0.254  -5.004  -6.835  1.00  0.00    -0.206 F 
ATOM     74  C   UNL     1      -0.715  -3.885  -8.846  1.00  0.00     0.059 A 
ATOM     75  C   UNL     1      -2.277  -2.032  -8.889  1.00  0.00     0.059 A 
ATOM     76  F   UNL     1      -3.145  -1.210  -6.913  1.00  0.00    -0.206 F 
ATOM     77  C   UNL     1      -1.403  -2.887  -9.541  1.00  0.00     0.060 A 
BRANCH  77  78
ATOM     78  S   UNL     1      -1.109  -2.689 -11.305  1.00  0.00     0.124 S 
ATOM     79  O   UNL     1       0.256  -2.178 -11.314  1.00  0.00    -0.237 OA
ATOM     80  O   UNL     1      -1.289  -4.052 -11.794  1.00  0.00    -0.237 OA
ATOM     81  O   UNL     1      -2.143  -1.742 -11.714  1.00  0.00    -0.744 OA
ENDBRANCH  77  78
ENDBRANCH  56  70
BRANCH  57  82
ATOM     82  C   UNL     1      -0.331   4.398  -4.523  1.00  0.00     0.058 A 
ATOM     83  C   UNL     1       0.913   4.951  -4.934  1.00  0.00     0.135 A 
ATOM     84  C   UNL     1      -1.387   5.334  -4.520  1.00  0.00     0.135 A 
ATOM     85  F   UNL     1       2.024   4.197  -4.956  1.00  0.00    -0.206 F 
ATOM     86  C   UNL     1       1.052   6.274  -5.423  1.00  0.00     0.059 A 
ATOM     87  C   UNL     1      -1.264   6.662  -4.949  1.00  0.00     0.059 A 
ATOM     88  F   UNL     1      -2.634   4.968  -4.203  1.00  0.00    -0.206 F 
ATOM     89  C   UNL     1      -0.062   7.107  -5.472  1.00  0.00     0.060 A 
BRANCH  89  90
ATOM     90  S   UNL     1      -0.035   8.650  -6.434  1.00  0.00     0.124 S 
ATOM     91  O   UNL     1       0.826   9.513  -5.635  1.00  0.00    -0.237 OA
ATOM     92  O   UNL     1       0.514   8.206  -7.712  1.00  0.00    -0.237 OA
ATOM     93  O   UNL     1      -1.442   9.045  -6.478  1.00  0.00    -0.744 OA
ENDBRANCH  89  90
ENDBRANCH  57  82
BRANCH  69  94
ATOM     94  C   UNL     1       2.650  -0.634  -2.015  1.00  0.00     0.058 A 
ATOM     95  C   UNL     1       2.648   0.443  -1.099  1.00  0.00     0.135 A 
ATOM     96  C   UNL     1       3.508  -1.700  -1.666  1.00  0.00     0.135 A 
ATOM     97  F   UNL     1       1.831   1.494  -1.252  1.00  0.00    -0.206 F 
ATOM     98  C   UNL     1       3.399   0.421   0.099  1.00  0.00     0.059 A 
ATOM     99  C   UNL     1       4.189  -1.779  -0.445  1.00  0.00     0.059 A 
ATOM    100  F   UNL     1       3.687  -2.728  -2.512  1.00  0.00    -0.206 F 
ATOM    101  C   UNL     1       4.111  -0.725   0.455  1.00  0.00     0.060 A 
BRANCH 101 102
ATOM    102  S   UNL     1       4.958  -0.853   2.065  1.00  0.00     0.124 S 
ATOM    103  O   UNL     1       5.539   0.474   2.229  1.00  0.00    -0.237 OA
ATOM    104  O   UNL     1       3.888  -1.185   2.999  1.00  0.00    -0.237 OA
ATOM    105  O   UNL     1       5.918  -1.932   1.847  1.00  0.00    -0.744 OA
ENDBRANCH 101 102
ENDBRANCH  69  94
ENDBRANCH  43  44
ENDBRANCH  36  38
ENDBRANCH  35  36
ENDBRANCH  34  35
ENDBRANCH   1  34
TORSDOF 21
