REMARK SMILES CNC(=O)CNC(=O)NC[C@H](CC(C)C)C(=O)OCCOC(=O)c1ccc(-c2c3nc(c(-c4c(F)cc(S(=O)(=O)[O-])cc4F)c4ccc([nH]4)c(-c4c(F)cc(S(=O)(=O)[O-])cc4F)c4nc(c(-c5c(F)cc(S(=O)(=O)[O-])cc5F)c5ccc2[nH]5)C=C4)C=C3)cc1
REMARK SMILES IDX 19 1 18 2 16 3 17 4 11 5 10 6 9 7 6 8 7 9 8 11 5 13 3 14
REMARK SMILES IDX 1 15 2 16 4 18 12 19 13 20 14 21 15 22 20 23 21 24 22 25
REMARK SMILES IDX 23 26 24 27 25 28 89 29 26 30 88 31 27 32 28 33 29 34 82 35
REMARK SMILES IDX 30 36 87 37 81 38 83 39 31 40 86 41 80 42 79 43 32 45 66 46
REMARK SMILES IDX 45 47 65 48 46 49 49 50 64 51 84 52 47 53 48 54 63 56 85 57
REMARK SMILES IDX 50 58 33 59 34 60 43 61 35 62 36 63 42 64 44 65 37 66 38 67
REMARK SMILES IDX 39 68 40 69 41 70 67 71 68 72 77 73 69 74 70 75 76 76 78 77
REMARK SMILES IDX 71 78 72 79 73 80 74 81 75 82 51 83 52 84 61 85 53 86 54 87
REMARK SMILES IDX 60 88 62 89 55 90 56 91 57 92 58 93 59 94
REMARK H PARENT 6 10 9 12 2 17 83 44 49 55
REMARK Flexibility Score: inf
ROOT
ATOM      1  C   UNL     1      -4.957  -0.099  -1.298  1.00  0.00     0.274 C 
ENDROOT
BRANCH   1   2
ATOM      2  O   UNL     1      -3.746   0.624  -1.602  1.00  0.00    -0.462 OA
BRANCH   2   3
ATOM      3  C   UNL     1      -3.911   1.931  -1.927  1.00  0.00     0.310 C 
ATOM      4  O   UNL     1      -5.000   2.488  -2.024  1.00  0.00    -0.252 OA
BRANCH   3   5
ATOM      5  C   UNL     1      -2.609   2.667  -2.212  1.00  0.00     0.119 C 
BRANCH   5   6
ATOM      6  C   UNL     1      -2.549   2.928  -3.716  1.00  0.00     0.133 C 
BRANCH   6   7
ATOM      7  N   UNL     1      -1.805   4.141  -4.030  1.00  0.00    -0.337 N 
ATOM      8  N   UNL     1      -0.091   3.569  -5.547  1.00  0.00    -0.329 N 
ATOM      9  C   UNL     1      -0.831   4.462  -4.886  1.00  0.00     0.315 C 
ATOM     10  H   UNL     1       0.408   3.960  -6.301  1.00  0.00     0.165 HD
ATOM     11  O   UNL     1      -0.607   5.655  -5.091  1.00  0.00    -0.249 OA
ATOM     12  H   UNL     1      -2.088   4.907  -3.479  1.00  0.00     0.165 HD
BRANCH   8  13
ATOM     13  C   UNL     1       0.132   2.148  -5.391  1.00  0.00     0.217 C 
BRANCH  13  14
ATOM     14  C   UNL     1      -0.298   1.219  -6.532  1.00  0.00     0.239 C 
ATOM     15  C   UNL     1      -2.311   2.553  -7.367  1.00  0.00     0.142 C 
ATOM     16  N   UNL     1      -1.377   1.454  -7.325  1.00  0.00    -0.358 N 
ATOM     17  H   UNL     1      -1.551   0.749  -7.989  1.00  0.00     0.163 HD
ATOM     18  O   UNL     1       0.270   0.130  -6.680  1.00  0.00    -0.273 OA
ENDBRANCH  13  14
ENDBRANCH   8  13
ENDBRANCH   6   7
ENDBRANCH   5   6
BRANCH   5  19
ATOM     19  C   UNL     1      -1.358   1.987  -1.619  1.00  0.00     0.020 C 
BRANCH  19  20
ATOM     20  C   UNL     1      -0.067   2.835  -1.605  1.00  0.00    -0.017 C 
ATOM     21  C   UNL     1      -0.195   4.112  -0.772  1.00  0.00     0.007 C 
ATOM     22  C   UNL     1       1.106   2.001  -1.082  1.00  0.00     0.007 C 
ENDBRANCH  19  20
ENDBRANCH   5  19
ENDBRANCH   3   5
ENDBRANCH   2   3
ENDBRANCH   1   2
BRANCH   1  23
ATOM     23  C   UNL     1      -5.197  -0.220   0.210  1.00  0.00     0.275 C 
BRANCH  23  24
ATOM     24  O   UNL     1      -5.327   1.065   0.843  1.00  0.00    -0.458 OA
BRANCH  24  25
ATOM     25  C   UNL     1      -4.200   1.523   1.436  1.00  0.00     0.338 C 
ATOM     26  O   UNL     1      -3.119   0.955   1.502  1.00  0.00    -0.246 OA
BRANCH  25  27
ATOM     27  C   UNL     1      -4.395   2.905   1.893  1.00  0.00     0.060 A 
ATOM     28  C   UNL     1      -3.760   3.918   1.175  1.00  0.00     0.016 A 
ATOM     29  C   UNL     1      -5.082   3.198   3.071  1.00  0.00     0.016 A 
ATOM     30  C   UNL     1      -3.800   5.233   1.623  1.00  0.00     0.010 A 
ATOM     31  C   UNL     1      -5.121   4.522   3.525  1.00  0.00     0.010 A 
ATOM     32  C   UNL     1      -4.468   5.544   2.811  1.00  0.00    -0.014 A 
BRANCH  32  33
ATOM     33  C   UNL     1      -4.396   6.927   3.340  1.00  0.00     0.031 A 
ATOM     34  C   UNL     1      -3.516   7.224   4.521  1.00  0.00     0.074 A 
ATOM     35  C   UNL     1      -5.069   7.920   2.729  1.00  0.00     0.049 A 
ATOM     36  N   UNL     1      -3.377   8.339   5.189  1.00  0.00    -0.248 NA
ATOM     37  C   UNL     1      -2.682   6.117   5.013  1.00  0.00     0.031 C 
ATOM     38  C   UNL     1      -5.896   7.766   1.532  1.00  0.00     0.029 A 
ATOM     39  N   UNL     1      -5.159   9.255   3.030  1.00  0.00    -0.354 N 
ATOM     40  C   UNL     1      -2.465   8.062   6.200  1.00  0.00     0.074 A 
ATOM     41  C   UNL     1      -2.088   6.672   6.061  1.00  0.00     0.031 C 
ATOM     42  C   UNL     1      -6.402   8.964   1.194  1.00  0.00     0.029 A 
ATOM     43  C   UNL     1      -5.979   9.956   2.178  1.00  0.00     0.049 A 
ATOM     44  H   UNL     1      -4.681   9.672   3.783  1.00  0.00     0.167 HD
ATOM     45  C   UNL     1      -1.988   8.894   7.158  1.00  0.00     0.037 A 
ATOM     46  C   UNL     1      -6.368  11.246   2.207  1.00  0.00     0.037 A 
ATOM     47  C   UNL     1      -2.352  10.282   7.275  1.00  0.00     0.049 A 
ATOM     48  C   UNL     1      -5.868  12.137   3.310  1.00  0.00     0.074 A 
ATOM     49  C   UNL     1      -1.932  11.208   8.214  1.00  0.00     0.029 A 
ATOM     50  N   UNL     1      -3.218  10.946   6.418  1.00  0.00    -0.354 N 
ATOM     51  N   UNL     1      -5.044  11.851   4.290  1.00  0.00    -0.248 NA
ATOM     52  C   UNL     1      -6.360  13.521   3.321  1.00  0.00     0.031 C 
ATOM     53  C   UNL     1      -2.569  12.425   7.943  1.00  0.00     0.029 A 
ATOM     54  C   UNL     1      -3.357  12.266   6.814  1.00  0.00     0.049 A 
ATOM     55  H   UNL     1      -3.668  10.539   5.643  1.00  0.00     0.167 HD
ATOM     56  C   UNL     1      -4.909  13.022   5.028  1.00  0.00     0.074 A 
ATOM     57  C   UNL     1      -5.727  14.024   4.373  1.00  0.00     0.031 C 
ATOM     58  C   UNL     1      -4.177  13.247   6.147  1.00  0.00     0.037 A 
BRANCH  45  59
ATOM     59  C   UNL     1      -1.055   8.304   8.178  1.00  0.00     0.058 A 
ATOM     60  C   UNL     1       0.275   7.982   7.868  1.00  0.00     0.135 A 
ATOM     61  C   UNL     1      -1.504   8.052   9.484  1.00  0.00     0.135 A 
ATOM     62  F   UNL     1       0.749   8.184   6.629  1.00  0.00    -0.206 F 
ATOM     63  C   UNL     1       1.119   7.399   8.809  1.00  0.00     0.059 A 
ATOM     64  C   UNL     1      -0.672   7.491  10.447  1.00  0.00     0.059 A 
ATOM     65  F   UNL     1      -2.769   8.339   9.831  1.00  0.00    -0.206 F 
ATOM     66  C   UNL     1       0.633   7.149  10.094  1.00  0.00     0.060 A 
BRANCH  66  67
ATOM     67  S   UNL     1       1.726   6.367  11.300  1.00  0.00     0.124 S 
ATOM     68  O   UNL     1       1.694   4.976  10.860  1.00  0.00    -0.237 OA
ATOM     69  O   UNL     1       2.987   7.070  11.088  1.00  0.00    -0.237 OA
ATOM     70  O   UNL     1       1.070   6.636  12.576  1.00  0.00    -0.744 OA
ENDBRANCH  66  67
ENDBRANCH  45  59
BRANCH  46  71
ATOM     71  C   UNL     1      -7.301  11.757   1.170  1.00  0.00     0.058 A 
ATOM     72  C   UNL     1      -6.861  12.639   0.173  1.00  0.00     0.135 A 
ATOM     73  C   UNL     1      -8.644  11.350   1.139  1.00  0.00     0.135 A 
ATOM     74  F   UNL     1      -5.589  13.066   0.169  1.00  0.00    -0.206 F 
ATOM     75  C   UNL     1      -7.718  13.098  -0.822  1.00  0.00     0.059 A 
ATOM     76  C   UNL     1      -9.514  11.778   0.142  1.00  0.00     0.059 A 
ATOM     77  F   UNL     1      -9.111  10.500   2.067  1.00  0.00    -0.206 F 
ATOM     78  C   UNL     1      -9.043  12.657  -0.832  1.00  0.00     0.060 A 
BRANCH  78  79
ATOM     79  S   UNL     1     -10.132  13.199  -2.167  1.00  0.00     0.124 S 
ATOM     80  O   UNL     1     -10.447  14.561  -1.755  1.00  0.00    -0.237 OA
ATOM     81  O   UNL     1      -9.272  13.069  -3.340  1.00  0.00    -0.237 OA
ATOM     82  O   UNL     1     -11.237  12.247  -2.103  1.00  0.00    -0.744 OA
ENDBRANCH  78  79
ENDBRANCH  46  71
BRANCH  58  83
ATOM     83  C   UNL     1      -4.212  14.634   6.722  1.00  0.00     0.058 A 
ATOM     84  C   UNL     1      -5.317  15.097   7.452  1.00  0.00     0.135 A 
ATOM     85  C   UNL     1      -3.111  15.492   6.579  1.00  0.00     0.135 A 
ATOM     86  F   UNL     1      -6.398  14.316   7.610  1.00  0.00    -0.206 F 
ATOM     87  C   UNL     1      -5.336  16.372   8.008  1.00  0.00     0.059 A 
ATOM     88  C   UNL     1      -3.100  16.764   7.143  1.00  0.00     0.059 A 
ATOM     89  F   UNL     1      -2.026  15.092   5.896  1.00  0.00    -0.206 F 
ATOM     90  C   UNL     1      -4.222  17.199   7.847  1.00  0.00     0.060 A 
BRANCH  90  91
ATOM     91  S   UNL     1      -4.242  18.840   8.599  1.00  0.00     0.124 S 
ATOM     92  O   UNL     1      -5.083  19.581   7.665  1.00  0.00    -0.237 OA
ATOM     93  O   UNL     1      -4.829  18.579   9.910  1.00  0.00    -0.237 OA
ATOM     94  O   UNL     1      -2.833  19.221   8.616  1.00  0.00    -0.744 OA
ENDBRANCH  90  91
ENDBRANCH  58  83
ENDBRANCH  32  33
ENDBRANCH  25  27
ENDBRANCH  24  25
ENDBRANCH  23  24
ENDBRANCH   1  23
TORSDOF 20
