REMARK SMILES Cc1coc2cc3c(cc12)[C@@H](C)[C@H](CCC(=O)N[C@@H](Cc1c[nH]c2ccccc12)C(=O)OCCOC(=O)c1ccc(-c2c4nc(c(-c5c(F)cc(S(=O)(=O)[O-])cc5F)c5ccc([nH]5)c(-c5c(F)cc(S(=O)(=O)[O-])cc5F)c5nc(c(-c6c(F)cc(S(=O)(=O)[O-])cc6F)c6ccc2[nH]6)C=C5)C=C4)cc1)C(=O)O3
REMARK SMILES IDX 33 1 32 2 30 3 31 4 19 5 18 6 16 7 17 8 15 10 14 11 13 12
REMARK SMILES IDX 1 13 2 14 3 15 10 16 4 17 5 18 9 19 6 20 8 21 7 22 11 23
REMARK SMILES IDX 106 24 12 25 104 26 105 27 20 28 21 29 22 30 29 31 23 32
REMARK SMILES IDX 24 33 28 34 25 36 27 37 26 38 34 39 35 40 36 41 37 42 38 43
REMARK SMILES IDX 39 44 103 45 40 46 102 47 41 48 42 49 43 50 96 51 44 52
REMARK SMILES IDX 101 53 95 54 97 55 45 56 100 57 94 58 93 59 46 61 80 62
REMARK SMILES IDX 59 63 79 64 60 65 63 66 78 67 98 68 61 69 62 70 77 72 99 73
REMARK SMILES IDX 64 74 47 75 48 76 57 77 49 78 50 79 56 80 58 81 51 82 52 83
REMARK SMILES IDX 53 84 54 85 55 86 81 87 82 88 91 89 83 90 84 91 90 92 92 93
REMARK SMILES IDX 85 94 86 95 87 96 88 97 89 98 65 99 66 100 75 101 67 102
REMARK SMILES IDX 68 103 74 104 76 105 69 106 70 107 71 108 72 109 73 110
REMARK H PARENT 18 9 23 35 97 60 63 71
REMARK Flexibility Score: inf
ROOT
ATOM      1  C   UNL     1      -8.346  -2.857   0.833  1.00  0.00     0.274 C 
ENDROOT
BRANCH   1   2
ATOM      2  O   UNL     1      -8.314  -1.690  -0.033  1.00  0.00    -0.461 OA
BRANCH   2   3
ATOM      3  C   UNL     1      -7.519  -0.690   0.422  1.00  0.00     0.329 C 
ATOM      4  O   UNL     1      -6.823  -0.793   1.432  1.00  0.00    -0.250 OA
BRANCH   3   5
ATOM      5  C   UNL     1      -7.567   0.638  -0.359  1.00  0.00     0.196 C 
BRANCH   5   6
ATOM      6  N   UNL     1      -8.136   0.898  -1.693  1.00  0.00    -0.342 N 
ATOM      7  C   UNL     1      -7.646   1.690  -2.723  1.00  0.00     0.220 C 
ATOM      8  O   UNL     1      -8.429   1.946  -3.645  1.00  0.00    -0.275 OA
ATOM      9  H   UNL     1      -8.989   0.443  -1.882  1.00  0.00     0.164 HD
BRANCH   7  10
ATOM     10  C   UNL     1      -6.137   2.086  -2.867  1.00  0.00     0.101 C 
BRANCH  10  11
ATOM     11  C   UNL     1      -5.580   3.591  -2.884  1.00  0.00     0.026 C 
BRANCH  11  12
ATOM     12  C   UNL     1      -5.094   4.287  -1.538  1.00  0.00     0.107 C 
ATOM     13  C   UNL     1       1.222   0.003   1.356  1.00  0.00     0.048 C 
ATOM     14  C   UNL     1       1.003   1.497   0.990  1.00  0.00    -0.005 A 
ATOM     15  C   UNL     1       2.518   2.492   0.615  1.00  0.00     0.199 A 
ATOM     16  C   UNL     1      -0.571   2.795   0.850  1.00  0.00     0.024 A 
ATOM     17  O   UNL     1       1.892   4.300   0.490  1.00  0.00    -0.464 OA
ATOM     18  C   UNL     1       0.012   4.436   0.476  1.00  0.00     0.137 A 
ATOM     19  C   UNL     1      -1.958   2.925   0.365  1.00  0.00     0.020 A 
ATOM     20  C   UNL     1      -0.947   5.447  -0.018  1.00  0.00     0.095 A 
ATOM     21  C   UNL     1      -2.833   3.880  -0.198  1.00  0.00    -0.001 A 
ATOM     22  C   UNL     1      -2.329   5.117  -0.372  1.00  0.00     0.138 A 
ATOM     23  C   UNL     1      -4.167   3.390  -0.749  1.00  0.00     0.034 C 
ATOM     24  O   UNL     1      -3.271   6.016  -0.989  1.00  0.00    -0.426 OA
ATOM     25  C   UNL     1      -5.094   2.852   0.296  1.00  0.00     0.014 C 
ATOM     26  C   UNL     1      -4.613   5.737  -1.424  1.00  0.00     0.314 C 
ATOM     27  O   UNL     1      -5.413   6.651  -1.626  1.00  0.00    -0.251 OA
ENDBRANCH  11  12
ENDBRANCH  10  11
ENDBRANCH   7  10
ENDBRANCH   5   6
BRANCH   5  28
ATOM     28  C   UNL     1      -7.995   1.715   0.660  1.00  0.00     0.074 C 
BRANCH  28  29
ATOM     29  C   UNL     1      -9.342   1.607   1.284  1.00  0.00    -0.020 A 
ATOM     30  C   UNL     1      -9.918   0.533   1.931  1.00  0.00     0.087 A 
ATOM     31  C   UNL     1     -10.215   2.720   1.483  1.00  0.00     0.003 A 
ATOM     32  N   UNL     1     -11.162   0.909   2.358  1.00  0.00    -0.361 N 
ATOM     33  C   UNL     1     -11.367   2.242   2.099  1.00  0.00     0.046 A 
ATOM     34  C   UNL     1     -10.104   4.100   1.220  1.00  0.00     0.010 A 
ATOM     35  H   UNL     1     -11.815   0.311   2.789  1.00  0.00     0.166 HD
ATOM     36  C   UNL     1     -12.456   3.065   2.394  1.00  0.00     0.026 A 
ATOM     37  C   UNL     1     -11.164   4.945   1.548  1.00  0.00     0.001 A 
ATOM     38  C   UNL     1     -12.331   4.428   2.105  1.00  0.00     0.002 A 
ENDBRANCH  28  29
ENDBRANCH   5  28
ENDBRANCH   3   5
ENDBRANCH   2   3
ENDBRANCH   1   2
BRANCH   1  39
ATOM     39  C   UNL     1      -7.875  -4.117   0.103  1.00  0.00     0.275 C 
BRANCH  39  40
ATOM     40  O   UNL     1      -6.447  -4.096  -0.045  1.00  0.00    -0.458 OA
BRANCH  40  41
ATOM     41  C   UNL     1      -5.984  -3.598  -1.217  1.00  0.00     0.338 C 
ATOM     42  O   UNL     1      -6.587  -3.514  -2.273  1.00  0.00    -0.246 OA
BRANCH  41  43
ATOM     43  C   UNL     1      -4.828  -2.764  -0.842  1.00  0.00     0.060 A 
ATOM     44  C   UNL     1      -3.831  -3.151   0.065  1.00  0.00     0.016 A 
ATOM     45  C   UNL     1      -4.963  -1.440  -1.205  1.00  0.00     0.016 A 
ATOM     46  C   UNL     1      -3.089  -2.174   0.752  1.00  0.00     0.010 A 
ATOM     47  C   UNL     1      -4.287  -0.501  -0.458  1.00  0.00     0.010 A 
ATOM     48  C   UNL     1      -3.411  -0.832   0.579  1.00  0.00    -0.014 A 
BRANCH  48  49
ATOM     49  C   UNL     1      -2.610   0.322   1.072  1.00  0.00     0.031 A 
ATOM     50  C   UNL     1      -1.520   0.517  -0.397  1.00  0.00     0.074 A 
ATOM     51  C   UNL     1      -3.145   1.217   2.175  1.00  0.00     0.049 A 
ATOM     52  N   UNL     1      -0.230   0.489  -0.465  1.00  0.00    -0.248 NA
ATOM     53  C   UNL     1      -1.867   1.049  -1.784  1.00  0.00     0.031 C 
ATOM     54  C   UNL     1      -4.473   1.049   2.879  1.00  0.00     0.029 A 
ATOM     55  N   UNL     1      -2.933   2.606   2.700  1.00  0.00    -0.354 N 
ATOM     56  C   UNL     1       0.251   1.708  -1.131  1.00  0.00     0.074 A 
ATOM     57  C   UNL     1      -0.763   1.748  -2.189  1.00  0.00     0.031 C 
ATOM     58  C   UNL     1      -5.023   2.238   3.316  1.00  0.00     0.029 A 
ATOM     59  C   UNL     1      -4.116   3.382   3.161  1.00  0.00     0.049 A 
ATOM     60  H   UNL     1      -2.030   2.996   2.738  1.00  0.00     0.167 HD
ATOM     61  C   UNL     1       0.954   2.922  -0.385  1.00  0.00     0.037 A 
ATOM     62  C   UNL     1      -4.347   4.778   3.386  1.00  0.00     0.037 A 
ATOM     63  C   UNL     1       1.126   3.225   1.691  1.00  0.00     0.049 A 
ATOM     64  C   UNL     1      -3.058   5.343   3.786  1.00  0.00     0.074 A 
ATOM     65  C   UNL     1       1.873   2.485   2.882  1.00  0.00     0.029 A 
ATOM     66  N   UNL     1       0.856   4.269   2.704  1.00  0.00    -0.354 N 
ATOM     67  N   UNL     1      -2.502   5.115   4.934  1.00  0.00    -0.248 NA
ATOM     68  C   UNL     1      -2.331   6.224   2.887  1.00  0.00     0.031 C 
ATOM     69  C   UNL     1       0.932   2.392   3.884  1.00  0.00     0.029 A 
ATOM     70  C   UNL     1       0.437   3.660   3.897  1.00  0.00     0.049 A 
ATOM     71  H   UNL     1       0.955   5.238   2.564  1.00  0.00     0.167 HD
ATOM     72  C   UNL     1      -1.186   5.253   4.620  1.00  0.00     0.074 A 
ATOM     73  C   UNL     1      -1.136   6.136   3.463  1.00  0.00     0.031 C 
ATOM     74  C   UNL     1      -0.407   4.194   4.918  1.00  0.00     0.037 A 
BRANCH  61  75
ATOM     75  C   UNL     1       1.696   3.921  -1.664  1.00  0.00     0.058 A 
ATOM     76  C   UNL     1       3.093   4.249  -1.613  1.00  0.00     0.135 A 
ATOM     77  C   UNL     1       0.916   4.844  -2.383  1.00  0.00     0.135 A 
ATOM     78  F   UNL     1       4.007   3.375  -1.164  1.00  0.00    -0.206 F 
ATOM     79  C   UNL     1       3.574   5.534  -1.877  1.00  0.00     0.059 A 
ATOM     80  C   UNL     1       1.406   6.116  -2.740  1.00  0.00     0.059 A 
ATOM     81  F   UNL     1      -0.366   4.576  -2.666  1.00  0.00    -0.206 F 
ATOM     82  C   UNL     1       2.706   6.484  -2.388  1.00  0.00     0.060 A 
BRANCH  82  83
ATOM     83  S   UNL     1       3.316   8.176  -2.603  1.00  0.00     0.124 S 
ATOM     84  O   UNL     1       3.309   8.678  -1.233  1.00  0.00    -0.237 OA
ATOM     85  O   UNL     1       4.637   7.960  -3.188  1.00  0.00    -0.237 OA
ATOM     86  O   UNL     1       2.332   8.772  -3.500  1.00  0.00    -0.744 OA
ENDBRANCH  82  83
ENDBRANCH  61  75
BRANCH  62  87
ATOM     87  C   UNL     1      -5.416   6.001   3.490  1.00  0.00     0.058 A 
ATOM     88  C   UNL     1      -5.170   7.207   4.267  1.00  0.00     0.135 A 
ATOM     89  C   UNL     1      -6.394   6.228   2.503  1.00  0.00     0.135 A 
ATOM     90  F   UNL     1      -4.247   7.216   5.242  1.00  0.00    -0.206 F 
ATOM     91  C   UNL     1      -5.784   8.479   4.048  1.00  0.00     0.059 A 
ATOM     92  C   UNL     1      -7.031   7.494   2.272  1.00  0.00     0.059 A 
ATOM     93  F   UNL     1      -6.713   5.242   1.655  1.00  0.00    -0.206 F 
ATOM     94  C   UNL     1      -6.711   8.623   3.030  1.00  0.00     0.060 A 
BRANCH  94  95
ATOM     95  S   UNL     1      -7.427  10.276   2.666  1.00  0.00     0.124 S 
ATOM     96  O   UNL     1      -8.166  10.580   3.889  1.00  0.00    -0.237 OA
ATOM     97  O   UNL     1      -6.245  11.100   2.432  1.00  0.00    -0.237 OA
ATOM     98  O   UNL     1      -8.260  10.037   1.490  1.00  0.00    -0.744 OA
ENDBRANCH  94  95
ENDBRANCH  62  87
BRANCH  74  99
ATOM     99  C   UNL     1      -0.712   3.287   6.125  1.00  0.00     0.058 A 
ATOM    100  C   UNL     1      -1.900   2.557   6.347  1.00  0.00     0.135 A 
ATOM    101  C   UNL     1       0.359   2.969   6.982  1.00  0.00     0.135 A 
ATOM    102  F   UNL     1      -2.965   2.679   5.550  1.00  0.00    -0.206 F 
ATOM    103  C   UNL     1      -2.029   1.610   7.371  1.00  0.00     0.059 A 
ATOM    104  C   UNL     1       0.264   2.005   7.991  1.00  0.00     0.059 A 
ATOM    105  F   UNL     1       1.558   3.545   6.793  1.00  0.00    -0.206 F 
ATOM    106  C   UNL     1      -0.942   1.341   8.193  1.00  0.00     0.060 A 
BRANCH 106 107
ATOM    107  S   UNL     1      -1.118   0.116   9.508  1.00  0.00     0.124 S 
ATOM    108  O   UNL     1      -2.113   0.738  10.376  1.00  0.00    -0.237 OA
ATOM    109  O   UNL     1      -1.565  -1.070   8.782  1.00  0.00    -0.237 OA
ATOM    110  O   UNL     1       0.227   0.022  10.070  1.00  0.00    -0.744 OA
ENDBRANCH 106 107
ENDBRANCH  74  99
ENDBRANCH  48  49
ENDBRANCH  41  43
ENDBRANCH  40  41
ENDBRANCH  39  40
ENDBRANCH   1  39
TORSDOF 20
