REMARK SMILES Cc1cc(C(=O)OCCOC(=O)c2ccc(-c3c4nc(c(-c5c(F)cc(S(=O)(=O)[O-])cc5F)c5ccc([nH]5)c(-c5c(F)cc(S(=O)(=O)[O-])cc5F)c5nc(c(-c6c(F)cc(S(=O)(=O)[O-])cc6F)c6ccc3[nH]6)C=C5)C=C4)cc2)ccc1NC(=O)N1C[C@@H](C)[C@H](C)C1
REMARK SMILES IDX 9 1 8 2 7 3 5 4 6 5 4 6 1 7 2 8 3 9 81 10 80 11 79 12 82 13
REMARK SMILES IDX 83 14 84 16 85 17 86 18 91 19 87 20 89 21 88 22 90 23 10 24
REMARK SMILES IDX 11 25 12 26 13 27 14 28 78 29 15 30 77 31 16 32 17 33 18 34
REMARK SMILES IDX 71 35 19 36 76 37 70 38 72 39 20 40 75 41 69 42 68 43 21 45
REMARK SMILES IDX 55 46 34 47 54 48 35 49 38 50 53 51 73 52 36 53 37 54 52 56
REMARK SMILES IDX 74 57 39 58 22 59 23 60 32 61 24 62 25 63 31 64 33 65 26 66
REMARK SMILES IDX 27 67 28 68 29 69 30 70 56 71 57 72 66 73 58 74 59 75 65 76
REMARK SMILES IDX 67 77 60 78 61 79 62 80 63 81 64 82 40 83 41 84 50 85 42 86
REMARK SMILES IDX 43 87 49 88 51 89 44 90 45 91 46 92 47 93 48 94
REMARK H PARENT 82 15 72 44 38 55
REMARK Flexibility Score: inf
ROOT
ATOM      1  C   UNL     1      -4.191  -3.578  -3.446  1.00  0.00     0.275 C 
ENDROOT
BRANCH   1   2
ATOM      2  C   UNL     1      -4.320  -2.418  -2.445  1.00  0.00     0.275 C 
BRANCH   2   3
ATOM      3  O   UNL     1      -3.145  -1.589  -2.470  1.00  0.00    -0.458 OA
BRANCH   3   4
ATOM      4  C   UNL     1      -2.836  -1.015  -1.286  1.00  0.00     0.338 C 
ATOM      5  O   UNL     1      -3.469  -1.098  -0.243  1.00  0.00    -0.246 OA
BRANCH   4   6
ATOM      6  C   UNL     1      -1.722  -0.072  -1.432  1.00  0.00     0.060 A 
ATOM      7  C   UNL     1       1.738   0.463   0.038  1.00  0.00     0.046 C 
ATOM      8  C   UNL     1       0.432   0.776  -0.640  1.00  0.00    -0.027 A 
ATOM      9  C   UNL     1      -0.481  -0.282  -0.818  1.00  0.00     0.021 A 
ATOM     10  C   UNL     1       0.010   2.061  -1.002  1.00  0.00     0.045 A 
ATOM     11  C   UNL     1      -1.159   2.217  -1.772  1.00  0.00     0.027 A 
ATOM     12  C   UNL     1      -2.033   1.163  -1.978  1.00  0.00     0.018 A 
BRANCH  10  13
ATOM     13  N   UNL     1       0.694   3.214  -0.558  1.00  0.00    -0.308 N 
ATOM     14  C   UNL     1       0.143   4.466  -0.426  1.00  0.00     0.321 C 
ATOM     15  H   UNL     1       1.645   3.112  -0.323  1.00  0.00     0.171 HD
ATOM     16  O   UNL     1       0.803   5.470  -0.688  1.00  0.00    -0.248 OA
ATOM     17  N   UNL     1      -1.166   4.528  -0.004  1.00  0.00    -0.324 N 
ATOM     18  C   UNL     1      -2.081   5.544  -0.472  1.00  0.00     0.125 C 
ATOM     19  C   UNL     1      -1.717   3.781   1.122  1.00  0.00     0.125 C 
ATOM     20  C   UNL     1      -3.319   5.437   0.422  1.00  0.00     0.010 C 
ATOM     21  C   UNL     1      -3.220   4.034   1.054  1.00  0.00     0.010 C 
ATOM     22  C   UNL     1      -4.617   5.629  -0.354  1.00  0.00     0.010 C 
ATOM     23  C   UNL     1      -3.895   3.959   2.419  1.00  0.00     0.010 C 
ENDBRANCH  10  13
ENDBRANCH   4   6
ENDBRANCH   3   4
ENDBRANCH   2   3
ENDBRANCH   1   2
BRANCH   1  24
ATOM     24  O   UNL     1      -3.349  -4.675  -3.033  1.00  0.00    -0.458 OA
BRANCH  24  25
ATOM     25  C   UNL     1      -2.130  -4.331  -2.538  1.00  0.00     0.338 C 
ATOM     26  O   UNL     1      -1.264  -3.763  -3.189  1.00  0.00    -0.246 OA
BRANCH  25  27
ATOM     27  C   UNL     1      -2.200  -4.444  -1.052  1.00  0.00     0.060 A 
ATOM     28  C   UNL     1      -1.264  -3.766  -0.265  1.00  0.00     0.016 A 
ATOM     29  C   UNL     1      -3.364  -4.958  -0.467  1.00  0.00     0.016 A 
ATOM     30  C   UNL     1      -1.560  -3.469   1.071  1.00  0.00     0.010 A 
ATOM     31  C   UNL     1      -3.684  -4.614   0.830  1.00  0.00     0.010 A 
ATOM     32  C   UNL     1      -2.796  -3.852   1.600  1.00  0.00    -0.014 A 
BRANCH  32  33
ATOM     33  C   UNL     1      -3.135  -3.788   3.020  1.00  0.00     0.031 A 
ATOM     34  C   UNL     1      -3.751  -2.634   3.713  1.00  0.00     0.074 A 
ATOM     35  C   UNL     1      -2.924  -4.961   3.651  1.00  0.00     0.049 A 
ATOM     36  N   UNL     1      -3.780  -2.504   5.000  1.00  0.00    -0.248 NA
ATOM     37  C   UNL     1      -4.371  -1.508   3.027  1.00  0.00     0.031 C 
ATOM     38  C   UNL     1      -3.373  -5.414   4.954  1.00  0.00     0.029 A 
ATOM     39  N   UNL     1      -2.019  -5.937   3.232  1.00  0.00    -0.354 N 
ATOM     40  C   UNL     1      -4.597  -1.437   5.322  1.00  0.00     0.074 A 
ATOM     41  C   UNL     1      -4.893  -0.816   4.051  1.00  0.00     0.031 C 
ATOM     42  C   UNL     1      -2.574  -6.423   5.347  1.00  0.00     0.029 A 
ATOM     43  C   UNL     1      -1.487  -6.519   4.376  1.00  0.00     0.049 A 
ATOM     44  H   UNL     1      -1.800  -6.170   2.300  1.00  0.00     0.167 HD
ATOM     45  C   UNL     1      -5.019  -1.285   6.617  1.00  0.00     0.037 A 
ATOM     46  C   UNL     1      -0.165  -6.319   4.660  1.00  0.00     0.037 A 
ATOM     47  C   UNL     1      -4.373  -2.275   7.478  1.00  0.00     0.049 A 
ATOM     48  C   UNL     1       0.023  -5.600   5.971  1.00  0.00     0.074 A 
ATOM     49  C   UNL     1      -4.777  -3.529   7.904  1.00  0.00     0.029 A 
ATOM     50  N   UNL     1      -3.011  -2.182   7.748  1.00  0.00    -0.354 N 
ATOM     51  N   UNL     1      -0.828  -4.746   6.471  1.00  0.00    -0.248 NA
ATOM     52  C   UNL     1       1.170  -5.838   6.838  1.00  0.00     0.031 C 
ATOM     53  C   UNL     1      -3.627  -4.234   8.333  1.00  0.00     0.029 A 
ATOM     54  C   UNL     1      -2.533  -3.393   8.210  1.00  0.00     0.049 A 
ATOM     55  H   UNL     1      -2.467  -1.370   7.628  1.00  0.00     0.167 HD
ATOM     56  C   UNL     1      -0.406  -4.380   7.720  1.00  0.00     0.074 A 
ATOM     57  C   UNL     1       0.859  -5.074   7.897  1.00  0.00     0.031 C 
ATOM     58  C   UNL     1      -1.132  -3.575   8.549  1.00  0.00     0.037 A 
BRANCH  45  59
ATOM     59  C   UNL     1      -6.222  -0.462   7.068  1.00  0.00     0.058 A 
ATOM     60  C   UNL     1      -6.981  -0.856   8.200  1.00  0.00     0.135 A 
ATOM     61  C   UNL     1      -6.727   0.674   6.408  1.00  0.00     0.135 A 
ATOM     62  F   UNL     1      -6.579  -1.851   9.003  1.00  0.00    -0.206 F 
ATOM     63  C   UNL     1      -8.196  -0.264   8.560  1.00  0.00     0.059 A 
ATOM     64  C   UNL     1      -7.962   1.263   6.726  1.00  0.00     0.059 A 
ATOM     65  F   UNL     1      -6.021   1.291   5.451  1.00  0.00    -0.206 F 
ATOM     66  C   UNL     1      -8.704   0.769   7.790  1.00  0.00     0.060 A 
BRANCH  66  67
ATOM     67  S   UNL     1     -10.330   1.440   8.198  1.00  0.00     0.124 S 
ATOM     68  O   UNL     1     -11.187   0.264   8.070  1.00  0.00    -0.237 OA
ATOM     69  O   UNL     1     -10.131   1.933   9.556  1.00  0.00    -0.237 OA
ATOM     70  O   UNL     1     -10.539   2.470   7.184  1.00  0.00    -0.744 OA
ENDBRANCH  66  67
ENDBRANCH  45  59
BRANCH  46  71
ATOM     71  C   UNL     1       0.730  -6.170   3.469  1.00  0.00     0.058 A 
ATOM     72  C   UNL     1       0.738  -7.190   2.492  1.00  0.00     0.135 A 
ATOM     73  C   UNL     1       1.365  -4.967   3.130  1.00  0.00     0.135 A 
ATOM     74  F   UNL     1       0.151  -8.372   2.749  1.00  0.00    -0.206 F 
ATOM     75  C   UNL     1       1.254  -6.995   1.213  1.00  0.00     0.059 A 
ATOM     76  C   UNL     1       1.905  -4.753   1.856  1.00  0.00     0.059 A 
ATOM     77  F   UNL     1       1.406  -3.950   4.003  1.00  0.00    -0.206 F 
ATOM     78  C   UNL     1       1.812  -5.761   0.894  1.00  0.00     0.060 A 
BRANCH  78  79
ATOM     79  S   UNL     1       2.256  -5.439  -0.830  1.00  0.00     0.124 S 
ATOM     80  O   UNL     1       3.529  -6.142  -0.946  1.00  0.00    -0.237 OA
ATOM     81  O   UNL     1       1.134  -6.036  -1.548  1.00  0.00    -0.237 OA
ATOM     82  O   UNL     1       2.326  -3.982  -0.885  1.00  0.00    -0.744 OA
ENDBRANCH  78  79
ENDBRANCH  46  71
BRANCH  58  83
ATOM     83  C   UNL     1      -0.611  -3.014   9.841  1.00  0.00     0.058 A 
ATOM     84  C   UNL     1       0.721  -2.601  10.009  1.00  0.00     0.135 A 
ATOM     85  C   UNL     1      -1.483  -2.751  10.921  1.00  0.00     0.135 A 
ATOM     86  F   UNL     1       1.609  -2.701   9.008  1.00  0.00    -0.206 F 
ATOM     87  C   UNL     1       1.181  -2.038  11.197  1.00  0.00     0.059 A 
ATOM     88  C   UNL     1      -1.057  -2.142  12.096  1.00  0.00     0.059 A 
ATOM     89  F   UNL     1      -2.784  -3.074  10.864  1.00  0.00    -0.206 F 
ATOM     90  C   UNL     1       0.285  -1.815  12.237  1.00  0.00     0.060 A 
BRANCH  90  91
ATOM     91  S   UNL     1       0.849  -1.044  13.763  1.00  0.00     0.124 S 
ATOM     92  O   UNL     1       1.065  -2.209  14.614  1.00  0.00    -0.237 OA
ATOM     93  O   UNL     1       2.056  -0.335  13.349  1.00  0.00    -0.237 OA
ATOM     94  O   UNL     1      -0.275  -0.188  14.130  1.00  0.00    -0.744 OA
ENDBRANCH  90  91
ENDBRANCH  58  83
ENDBRANCH  32  33
ENDBRANCH  25  27
ENDBRANCH  24  25
ENDBRANCH   1  24
TORSDOF 15
