REMARK SMILES C[C@H]1[C@H](C(=O)OCCOC(=O)c2ccc(-c3c4nc(c(-c5c(F)cc(S(=O)(=O)[O-])cc5F)c5ccc([nH]5)c(-c5c(F)cc(S(=O)(=O)[O-])cc5F)c5nc(c(-c6c(F)cc(S(=O)(=O)[O-])cc6F)c6ccc3[nH]6)C=C5)C=C4)cc2)CC[N@H+]1[C@@H]1CCCC1(C)C
REMARK SMILES IDX 8 1 7 2 6 3 4 4 5 5 3 6 1 7 2 8 80 9 78 10 79 11 81 13 82 14
REMARK SMILES IDX 85 15 83 16 84 17 86 18 87 19 9 20 10 21 11 22 12 23 13 24
REMARK SMILES IDX 77 25 14 26 76 27 15 28 16 29 17 30 70 31 18 32 75 33 69 34
REMARK SMILES IDX 71 35 19 36 74 37 68 38 67 39 20 41 54 42 33 43 53 44 34 45
REMARK SMILES IDX 37 46 52 47 72 48 35 49 36 50 51 52 73 53 38 54 21 55 22 56
REMARK SMILES IDX 31 57 23 58 24 59 30 60 32 61 25 62 26 63 27 64 28 65 29 66
REMARK SMILES IDX 55 67 56 68 65 69 57 70 58 71 64 72 66 73 59 74 60 75 61 76
REMARK SMILES IDX 62 77 63 78 39 79 40 80 49 81 41 82 42 83 48 84 50 85 43 86
REMARK SMILES IDX 44 87 45 88 46 89 47 90
REMARK H PARENT 80 12 71 40 37 51
REMARK Flexibility Score: inf
ROOT
ATOM      1  C   UNL     1      -1.743  -6.825  -3.076  1.00  0.00     0.275 C 
ENDROOT
BRANCH   1   2
ATOM      2  C   UNL     1      -2.754  -6.488  -1.982  1.00  0.00     0.274 C 
BRANCH   2   3
ATOM      3  O   UNL     1      -2.203  -5.566  -1.021  1.00  0.00    -0.462 OA
BRANCH   3   4
ATOM      4  C   UNL     1      -1.733  -6.127   0.120  1.00  0.00     0.315 C 
ATOM      5  O   UNL     1      -1.768  -7.327   0.370  1.00  0.00    -0.252 OA
BRANCH   4   6
ATOM      6  C   UNL     1      -1.204  -5.133   1.125  1.00  0.00     0.162 C 
ATOM      7  C   UNL     1       0.683  -3.724   0.249  1.00  0.00     0.076 C 
ATOM      8  C   UNL     1      -0.797  -3.732   0.642  1.00  0.00     0.195 C 
ATOM      9  N   UNL     1      -1.232  -2.816   1.728  1.00  0.00    -0.329 N 
ATOM     10  C   UNL     1      -2.248  -4.872   2.187  1.00  0.00     0.083 C 
ATOM     11  C   UNL     1      -1.720  -3.616   2.845  1.00  0.00     0.263 C 
ATOM     12  H   UNL     1      -2.016  -2.271   1.369  1.00  0.00     0.348 HD
BRANCH   9  13
ATOM     13  C   UNL     1      -0.429  -1.629   2.017  1.00  0.00     0.189 C 
ATOM     14  C   UNL     1       0.899  -1.816   2.784  1.00  0.00     0.066 C 
ATOM     15  C   UNL     1      -1.116  -0.432   2.754  1.00  0.00     0.017 C 
ATOM     16  C   UNL     1       1.208  -0.468   3.442  1.00  0.00     0.007 C 
ATOM     17  C   UNL     1       0.103   0.482   2.991  1.00  0.00     0.013 C 
ATOM     18  C   UNL     1      -2.158   0.260   1.868  1.00  0.00     0.017 C 
ATOM     19  C   UNL     1      -1.761  -0.761   4.113  1.00  0.00     0.017 C 
ENDBRANCH   9  13
ENDBRANCH   4   6
ENDBRANCH   3   4
ENDBRANCH   2   3
ENDBRANCH   1   2
BRANCH   1  20
ATOM     20  O   UNL     1      -0.569  -7.435  -2.516  1.00  0.00    -0.458 OA
BRANCH  20  21
ATOM     21  C   UNL     1       0.521  -6.636  -2.457  1.00  0.00     0.338 C 
ATOM     22  O   UNL     1       0.627  -5.492  -2.862  1.00  0.00    -0.246 OA
BRANCH  21  23
ATOM     23  C   UNL     1       1.613  -7.354  -1.786  1.00  0.00     0.060 A 
ATOM     24  C   UNL     1       1.703  -7.336  -0.392  1.00  0.00     0.016 A 
ATOM     25  C   UNL     1       2.606  -7.955  -2.556  1.00  0.00     0.016 A 
ATOM     26  C   UNL     1       2.808  -7.899   0.244  1.00  0.00     0.010 A 
ATOM     27  C   UNL     1       3.691  -8.554  -1.916  1.00  0.00     0.010 A 
ATOM     28  C   UNL     1       3.808  -8.517  -0.514  1.00  0.00    -0.014 A 
BRANCH  28  29
ATOM     29  C   UNL     1       5.007  -9.108   0.127  1.00  0.00     0.031 A 
ATOM     30  C   UNL     1       6.352  -8.489  -0.117  1.00  0.00     0.074 A 
ATOM     31  C   UNL     1       4.896 -10.228   0.865  1.00  0.00     0.049 A 
ATOM     32  N   UNL     1       7.542  -8.981   0.103  1.00  0.00    -0.248 NA
ATOM     33  C   UNL     1       6.355  -7.137  -0.700  1.00  0.00     0.031 C 
ATOM     34  C   UNL     1       3.638 -10.885   1.224  1.00  0.00     0.029 A 
ATOM     35  N   UNL     1       5.862 -11.029   1.420  1.00  0.00    -0.354 N 
ATOM     36  C   UNL     1       8.437  -8.023  -0.355  1.00  0.00     0.074 A 
ATOM     37  C   UNL     1       7.653  -6.916  -0.859  1.00  0.00     0.031 C 
ATOM     38  C   UNL     1       3.910 -12.000   1.920  1.00  0.00     0.029 A 
ATOM     39  C   UNL     1       5.358 -12.172   1.994  1.00  0.00     0.049 A 
ATOM     40  H   UNL     1       6.821 -10.807   1.408  1.00  0.00     0.167 HD
ATOM     41  C   UNL     1       9.790  -8.074  -0.361  1.00  0.00     0.037 A 
ATOM     42  C   UNL     1       5.991 -13.261   2.472  1.00  0.00     0.037 A 
ATOM     43  C   UNL     1      10.553  -9.175   0.167  1.00  0.00     0.049 A 
ATOM     44  C   UNL     1       7.492 -13.323   2.406  1.00  0.00     0.074 A 
ATOM     45  C   UNL     1      11.927  -9.329   0.210  1.00  0.00     0.029 A 
ATOM     46  N   UNL     1      10.003 -10.308   0.750  1.00  0.00    -0.354 N 
ATOM     47  N   UNL     1       8.332 -12.434   1.932  1.00  0.00    -0.248 NA
ATOM     48  C   UNL     1       8.133 -14.540   2.924  1.00  0.00     0.031 C 
ATOM     49  C   UNL     1      12.208 -10.570   0.793  1.00  0.00     0.029 A 
ATOM     50  C   UNL     1      11.010 -11.170   1.148  1.00  0.00     0.049 A 
ATOM     51  H   UNL     1       9.040 -10.474   0.864  1.00  0.00     0.167 HD
ATOM     52  C   UNL     1       9.600 -12.971   2.117  1.00  0.00     0.074 A 
ATOM     53  C   UNL     1       9.419 -14.264   2.746  1.00  0.00     0.031 C 
ATOM     54  C   UNL     1      10.805 -12.441   1.797  1.00  0.00     0.037 A 
BRANCH  41  55
ATOM     55  C   UNL     1      10.529  -6.929  -0.992  1.00  0.00     0.058 A 
ATOM     56  C   UNL     1      10.643  -5.682  -0.360  1.00  0.00     0.135 A 
ATOM     57  C   UNL     1      11.156  -7.093  -2.238  1.00  0.00     0.135 A 
ATOM     58  F   UNL     1      10.048  -5.467   0.824  1.00  0.00    -0.206 F 
ATOM     59  C   UNL     1      11.334  -4.629  -0.952  1.00  0.00     0.059 A 
ATOM     60  C   UNL     1      11.870  -6.061  -2.839  1.00  0.00     0.059 A 
ATOM     61  F   UNL     1      11.075  -8.266  -2.886  1.00  0.00    -0.206 F 
ATOM     62  C   UNL     1      11.941  -4.827  -2.194  1.00  0.00     0.060 A 
BRANCH  62  63
ATOM     63  S   UNL     1      12.831  -3.453  -2.954  1.00  0.00     0.124 S 
ATOM     64  O   UNL     1      11.730  -2.623  -3.433  1.00  0.00    -0.237 OA
ATOM     65  O   UNL     1      13.590  -2.910  -1.832  1.00  0.00    -0.237 OA
ATOM     66  O   UNL     1      13.629  -4.097  -3.992  1.00  0.00    -0.744 OA
ENDBRANCH  62  63
ENDBRANCH  41  55
BRANCH  42  67
ATOM     67  C   UNL     1       5.198 -14.397   3.012  1.00  0.00     0.058 A 
ATOM     68  C   UNL     1       5.175 -14.670   4.386  1.00  0.00     0.135 A 
ATOM     69  C   UNL     1       4.427 -15.213   2.168  1.00  0.00     0.135 A 
ATOM     70  F   UNL     1       5.904 -13.924   5.230  1.00  0.00    -0.206 F 
ATOM     71  C   UNL     1       4.420 -15.715   4.908  1.00  0.00     0.059 A 
ATOM     72  C   UNL     1       3.645 -16.249   2.668  1.00  0.00     0.059 A 
ATOM     73  F   UNL     1       4.407 -14.984   0.846  1.00  0.00    -0.206 F 
ATOM     74  C   UNL     1       3.655 -16.497   4.040  1.00  0.00     0.060 A 
BRANCH  74  75
ATOM     75  S   UNL     1       2.630 -17.814   4.732  1.00  0.00     0.124 S 
ATOM     76  O   UNL     1       3.626 -18.841   5.016  1.00  0.00    -0.237 OA
ATOM     77  O   UNL     1       2.033 -17.164   5.894  1.00  0.00    -0.237 OA
ATOM     78  O   UNL     1       1.700 -18.118   3.648  1.00  0.00    -0.744 OA
ENDBRANCH  74  75
ENDBRANCH  42  67
BRANCH  54  79
ATOM     79  C   UNL     1      12.031 -13.224   2.166  1.00  0.00     0.058 A 
ATOM     80  C   UNL     1      12.467 -14.314   1.399  1.00  0.00     0.135 A 
ATOM     81  C   UNL     1      12.832 -12.811   3.243  1.00  0.00     0.135 A 
ATOM     82  F   UNL     1      11.730 -14.751   0.366  1.00  0.00    -0.206 F 
ATOM     83  C   UNL     1      13.661 -14.968   1.685  1.00  0.00     0.059 A 
ATOM     84  C   UNL     1      14.039 -13.438   3.535  1.00  0.00     0.059 A 
ATOM     85  F   UNL     1      12.459 -11.768   4.002  1.00  0.00    -0.206 F 
ATOM     86  C   UNL     1      14.444 -14.517   2.750  1.00  0.00     0.060 A 
BRANCH  86  87
ATOM     87  S   UNL     1      16.031 -15.320   3.061  1.00  0.00     0.124 S 
ATOM     88  O   UNL     1      15.612 -16.562   3.702  1.00  0.00    -0.237 OA
ATOM     89  O   UNL     1      16.584 -15.455   1.717  1.00  0.00    -0.237 OA
ATOM     90  O   UNL     1      16.727 -14.371   3.925  1.00  0.00    -0.744 OA
ENDBRANCH  86  87
ENDBRANCH  54  79
ENDBRANCH  28  29
ENDBRANCH  21  23
ENDBRANCH  20  21
ENDBRANCH   1  20
TORSDOF 15
