REMARK SMILES CC(C)COc1cccc(C(=O)Nc2ccc(O)c(C(=O)OCCOC(=O)c3ccc(-c4c5nc(c(-c6c(F)cc(S(=O)(=O)[O-])cc6F)c6ccc([nH]6)c(-c6c(F)cc(S(=O)(=O)[O-])cc6F)c6nc(c(-c7c(F)cc(S(=O)(=O)[O-])cc7F)c7ccc4[nH]7)C=C6)C=C5)cc3)c2)c1
REMARK SMILES IDX 23 1 22 2 20 3 21 4 19 5 14 6 15 7 94 8 16 9 17 10 13 11
REMARK SMILES IDX 11 12 12 13 10 15 6 16 7 17 95 18 8 19 9 20 5 21 4 22 2 23
REMARK SMILES IDX 1 24 3 25 18 26 24 28 25 29 26 30 27 31 28 32 29 33 93 34
REMARK SMILES IDX 30 35 92 36 31 37 32 38 33 39 86 40 34 41 91 42 85 43 87 44
REMARK SMILES IDX 35 45 90 46 84 47 83 48 36 50 70 51 49 52 69 53 50 54 53 55
REMARK SMILES IDX 68 56 88 57 51 58 52 59 67 61 89 62 54 63 37 64 38 65 47 66
REMARK SMILES IDX 39 67 40 68 46 69 48 70 41 71 42 72 43 73 44 74 45 75 71 76
REMARK SMILES IDX 72 77 81 78 73 79 74 80 80 81 82 82 75 83 76 84 77 85 78 86
REMARK SMILES IDX 79 87 55 88 56 89 65 90 57 91 58 92 64 93 66 94 59 95 60 96
REMARK SMILES IDX 61 97 62 98 63 99
REMARK H PARENT 13 14 18 27 87 49 53 60
REMARK Flexibility Score: inf
ROOT
ATOM      1  C   UNL     1      -0.115   3.424   3.556  1.00  0.00     0.275 C 
ENDROOT
BRANCH   1   2
ATOM      2  O   UNL     1       1.040   2.639   3.194  1.00  0.00    -0.458 OA
BRANCH   2   3
ATOM      3  C   UNL     1       1.099   2.359   1.871  1.00  0.00     0.342 C 
ATOM      4  O   UNL     1       0.272   2.697   1.039  1.00  0.00    -0.246 OA
BRANCH   3   5
ATOM      5  C   UNL     1       2.235   1.485   1.529  1.00  0.00     0.103 A 
ATOM      6  C   UNL     1       3.039  -0.790   1.540  1.00  0.00     0.042 A 
ATOM      7  C   UNL     1       3.888  -0.497   0.465  1.00  0.00     0.030 A 
ATOM      8  C   UNL     1       2.303   0.232   2.145  1.00  0.00     0.045 A 
ATOM      9  C   UNL     1       3.870   0.773  -0.114  1.00  0.00     0.049 A 
ATOM     10  C   UNL     1       3.005   1.739   0.390  1.00  0.00     0.130 A 
BRANCH   6  11
ATOM     11  N   UNL     1       2.878  -2.146   1.875  1.00  0.00    -0.322 N 
ATOM     12  C   UNL     1       1.780  -2.858   2.333  1.00  0.00     0.255 C 
ATOM     13  O   UNL     1       1.967  -3.997   2.767  1.00  0.00    -0.269 OA
ATOM     14  H   UNL     1       3.692  -2.688   1.766  1.00  0.00     0.170 HD
BRANCH  12  15
ATOM     15  C   UNL     1       0.369  -2.363   2.229  1.00  0.00     0.043 A 
ATOM     16  C   UNL     1      -1.301  -0.842   1.325  1.00  0.00     0.120 A 
ATOM     17  C   UNL     1      -2.257  -1.361   2.188  1.00  0.00     0.046 A 
ATOM     18  C   UNL     1      -0.024  -1.386   1.313  1.00  0.00     0.060 A 
ATOM     19  C   UNL     1      -1.924  -2.431   3.025  1.00  0.00     0.005 A 
ATOM     20  C   UNL     1      -0.611  -2.919   3.058  1.00  0.00     0.014 A 
BRANCH  16  21
ATOM     21  O   UNL     1      -1.524   0.357   0.710  1.00  0.00    -0.493 OA
BRANCH  21  22
ATOM     22  C   UNL     1      -1.725   0.330  -0.709  1.00  0.00     0.232 C 
BRANCH  22  23
ATOM     23  C   UNL     1      -0.489   0.779  -1.527  1.00  0.00     0.020 C 
ATOM     24  C   UNL     1       0.470  -0.370  -1.854  1.00  0.00     0.011 C 
ATOM     25  C   UNL     1      -0.912   1.445  -2.838  1.00  0.00     0.011 C 
ENDBRANCH  22  23
ENDBRANCH  21  22
ENDBRANCH  16  21
ENDBRANCH  12  15
ENDBRANCH   6  11
BRANCH  10  26
ATOM     26  O   UNL     1       2.903   2.924  -0.271  1.00  0.00    -0.507 OA
ATOM     27  H   UNL     1       3.424   3.082  -1.033  1.00  0.00     0.293 HD
ENDBRANCH  10  26
ENDBRANCH   3   5
ENDBRANCH   2   3
ENDBRANCH   1   2
BRANCH   1  28
ATOM     28  C   UNL     1       0.163   4.925   3.454  1.00  0.00     0.275 C 
BRANCH  28  29
ATOM     29  O   UNL     1       0.283   5.347   2.082  1.00  0.00    -0.458 OA
BRANCH  29  30
ATOM     30  C   UNL     1       1.540   5.654   1.675  1.00  0.00     0.338 C 
ATOM     31  O   UNL     1       2.543   5.668   2.363  1.00  0.00    -0.246 OA
BRANCH  30  32
ATOM     32  C   UNL     1       1.551   6.043   0.247  1.00  0.00     0.060 A 
ATOM     33  C   UNL     1       1.076   5.183  -0.741  1.00  0.00     0.016 A 
ATOM     34  C   UNL     1       2.194   7.225  -0.119  1.00  0.00     0.016 A 
ATOM     35  C   UNL     1       1.355   5.435  -2.085  1.00  0.00     0.010 A 
ATOM     36  C   UNL     1       2.356   7.537  -1.473  1.00  0.00     0.010 A 
ATOM     37  C   UNL     1       1.975   6.628  -2.477  1.00  0.00    -0.014 A 
BRANCH  37  38
ATOM     38  C   UNL     1       2.251   6.936  -3.912  1.00  0.00     0.031 A 
ATOM     39  C   UNL     1       3.642   7.335  -4.341  1.00  0.00     0.074 A 
ATOM     40  C   UNL     1       1.264   6.900  -4.832  1.00  0.00     0.049 A 
ATOM     41  N   UNL     1       4.032   7.942  -5.432  1.00  0.00    -0.248 NA
ATOM     42  C   UNL     1       4.737   7.021  -3.408  1.00  0.00     0.031 C 
ATOM     43  C   UNL     1      -0.111   6.455  -4.595  1.00  0.00     0.029 A 
ATOM     44  N   UNL     1       1.262   7.267  -6.158  1.00  0.00    -0.354 N 
ATOM     45  C   UNL     1       5.400   8.148  -5.287  1.00  0.00     0.074 A 
ATOM     46  C   UNL     1       5.776   7.590  -4.006  1.00  0.00     0.031 C 
ATOM     47  C   UNL     1      -0.815   6.558  -5.731  1.00  0.00     0.029 A 
ATOM     48  C   UNL     1       0.018   7.195  -6.742  1.00  0.00     0.049 A 
ATOM     49  H   UNL     1       2.071   7.553  -6.641  1.00  0.00     0.167 HD
ATOM     50  C   UNL     1       6.257   8.758  -6.142  1.00  0.00     0.037 A 
ATOM     51  C   UNL     1      -0.435   7.661  -7.923  1.00  0.00     0.037 A 
ATOM     52  C   UNL     1       5.873   9.264  -7.437  1.00  0.00     0.049 A 
ATOM     53  C   UNL     1       0.508   8.405  -8.825  1.00  0.00     0.074 A 
ATOM     54  C   UNL     1       6.663   9.893  -8.384  1.00  0.00     0.029 A 
ATOM     55  N   UNL     1       4.595   9.188  -7.971  1.00  0.00    -0.354 N 
ATOM     56  N   UNL     1       1.782   8.665  -8.648  1.00  0.00    -0.248 NA
ATOM     57  C   UNL     1      -0.048   8.941 -10.075  1.00  0.00     0.031 C 
ATOM     58  C   UNL     1       5.852  10.240  -9.469  1.00  0.00     0.029 A 
ATOM     59  C   UNL     1       4.570   9.773  -9.225  1.00  0.00     0.049 A 
ATOM     60  H   UNL     1       3.819   8.778  -7.523  1.00  0.00     0.167 HD
ATOM     61  C   UNL     1       2.185   9.368  -9.777  1.00  0.00     0.074 A 
ATOM     62  C   UNL     1       1.023   9.492 -10.631  1.00  0.00     0.031 C 
ATOM     63  C   UNL     1       3.410   9.864 -10.077  1.00  0.00     0.037 A 
BRANCH  50  64
ATOM     64  C   UNL     1       7.681   8.963  -5.696  1.00  0.00     0.058 A 
ATOM     65  C   UNL     1       8.595   7.904  -5.585  1.00  0.00     0.135 A 
ATOM     66  C   UNL     1       8.151  10.259  -5.419  1.00  0.00     0.135 A 
ATOM     67  F   UNL     1       8.200   6.643  -5.824  1.00  0.00    -0.206 F 
ATOM     68  C   UNL     1       9.913   8.118  -5.190  1.00  0.00     0.059 A 
ATOM     69  C   UNL     1       9.472  10.500  -5.052  1.00  0.00     0.059 A 
ATOM     70  F   UNL     1       7.322  11.312  -5.511  1.00  0.00    -0.206 F 
ATOM     71  C   UNL     1      10.342   9.420  -4.926  1.00  0.00     0.060 A 
BRANCH  71  72
ATOM     72  S   UNL     1      12.055   9.681  -4.417  1.00  0.00     0.124 S 
ATOM     73  O   UNL     1      12.042   9.137  -3.062  1.00  0.00    -0.237 OA
ATOM     74  O   UNL     1      12.796   8.902  -5.404  1.00  0.00    -0.237 OA
ATOM     75  O   UNL     1      12.223  11.128  -4.510  1.00  0.00    -0.744 OA
ENDBRANCH  71  72
ENDBRANCH  50  64
BRANCH  51  76
ATOM     76  C   UNL     1      -1.871   7.498  -8.281  1.00  0.00     0.058 A 
ATOM     77  C   UNL     1      -2.263   6.659  -9.333  1.00  0.00     0.135 A 
ATOM     78  C   UNL     1      -2.882   8.157  -7.561  1.00  0.00     0.135 A 
ATOM     79  F   UNL     1      -1.336   6.016 -10.059  1.00  0.00    -0.206 F 
ATOM     80  C   UNL     1      -3.603   6.482  -9.663  1.00  0.00     0.059 A 
ATOM     81  C   UNL     1      -4.229   7.971  -7.849  1.00  0.00     0.059 A 
ATOM     82  F   UNL     1      -2.562   8.964  -6.536  1.00  0.00    -0.206 F 
ATOM     83  C   UNL     1      -4.579   7.137  -8.910  1.00  0.00     0.060 A 
BRANCH  83  84
ATOM     84  S   UNL     1      -6.317   6.855  -9.310  1.00  0.00     0.124 S 
ATOM     85  O   UNL     1      -6.455   7.595 -10.559  1.00  0.00    -0.237 OA
ATOM     86  O   UNL     1      -6.373   5.400  -9.419  1.00  0.00    -0.237 OA
ATOM     87  O   UNL     1      -7.022   7.416  -8.161  1.00  0.00    -0.744 OA
ENDBRANCH  83  84
ENDBRANCH  51  76
BRANCH  63  88
ATOM     88  C   UNL     1       3.587  10.529 -11.414  1.00  0.00     0.058 A 
ATOM     89  C   UNL     1       3.089  11.813 -11.676  1.00  0.00     0.135 A 
ATOM     90  C   UNL     1       4.344   9.899 -12.415  1.00  0.00     0.135 A 
ATOM     91  F   UNL     1       2.347  12.452 -10.757  1.00  0.00    -0.206 F 
ATOM     92  C   UNL     1       3.336  12.452 -12.887  1.00  0.00     0.059 A 
ATOM     93  C   UNL     1       4.626  10.529 -13.622  1.00  0.00     0.059 A 
ATOM     94  F   UNL     1       4.846   8.670 -12.211  1.00  0.00    -0.206 F 
ATOM     95  C   UNL     1       4.115  11.806 -13.850  1.00  0.00     0.060 A 
BRANCH  95  96
ATOM     96  S   UNL     1       4.492  12.677 -15.385  1.00  0.00     0.124 S 
ATOM     97  O   UNL     1       3.203  12.644 -16.067  1.00  0.00    -0.237 OA
ATOM     98  O   UNL     1       4.920  13.986 -14.902  1.00  0.00    -0.237 OA
ATOM     99  O   UNL     1       5.543  11.864 -15.989  1.00  0.00    -0.744 OA
ENDBRANCH  95  96
ENDBRANCH  63  88
ENDBRANCH  37  38
ENDBRANCH  30  32
ENDBRANCH  29  30
ENDBRANCH  28  29
ENDBRANCH   1  28
TORSDOF 20
