REMARK SMILES CCCCOC(=O)[C@@H]1[C@H]2c3ccccc3[C@H](c3ccccc32)[C@@H]1C(=O)OCCOC(=O)c1ccc(-c2c3nc(c(-c4c(F)cc(S(=O)(=O)[O-])cc4F)c4ccc([nH]4)c(-c4c(F)cc(S(=O)(=O)[O-])cc4F)c4nc(c(-c5c(F)cc(S(=O)(=O)[O-])cc5F)c5ccc2[nH]5)C=C4)C=C3)cc1
REMARK SMILES IDX 27 1 26 2 24 3 25 4 23 5 8 6 9 7 22 8 10 9 16 10 21 11 17 12
REMARK SMILES IDX 15 13 11 14 20 15 18 16 14 17 12 18 19 19 13 20 6 21 7 22
REMARK SMILES IDX 5 23 4 24 3 25 2 26 1 27 28 28 29 29 30 30 31 31 32 32 33 33
REMARK SMILES IDX 97 34 34 35 96 36 35 37 36 38 37 39 90 40 38 41 95 42 89 43
REMARK SMILES IDX 91 44 39 45 94 46 88 47 87 48 40 50 74 51 53 52 73 53 54 54
REMARK SMILES IDX 57 55 72 56 92 57 55 58 56 59 71 61 93 62 58 63 41 64 42 65
REMARK SMILES IDX 51 66 43 67 44 68 50 69 52 70 45 71 46 72 47 73 48 74 49 75
REMARK SMILES IDX 75 76 76 77 85 78 77 79 78 80 84 81 86 82 79 83 80 84 81 85
REMARK SMILES IDX 82 86 83 87 59 88 60 89 69 90 61 91 62 92 68 93 70 94 63 95
REMARK SMILES IDX 64 96 65 97 66 98 67 99
REMARK H PARENT 91 49 57 60
REMARK Flexibility Score: inf
ROOT
ATOM      1  C   UNL     1      -6.391   3.953   0.625  1.00  0.00     0.274 C 
ENDROOT
BRANCH   1   2
ATOM      2  O   UNL     1      -5.667   2.735   0.358  1.00  0.00    -0.462 OA
BRANCH   2   3
ATOM      3  C   UNL     1      -4.314   2.779   0.349  1.00  0.00     0.310 C 
ATOM      4  O   UNL     1      -3.664   3.800   0.532  1.00  0.00    -0.252 OA
BRANCH   3   5
ATOM      5  C   UNL     1      -3.654   1.427   0.103  1.00  0.00     0.126 C 
ATOM      6  C   UNL     1      -3.087   1.208  -1.343  1.00  0.00     0.126 C 
ATOM      7  C   UNL     1      -3.688  -0.089  -1.960  1.00  0.00     0.065 C 
ATOM      8  C   UNL     1      -5.210  -0.036  -1.813  1.00  0.00    -0.036 A 
ATOM      9  C   UNL     1      -3.182  -1.197  -1.016  1.00  0.00    -0.036 A 
ATOM     10  C   UNL     1      -4.511   0.191   0.534  1.00  0.00     0.065 C 
ATOM     11  C   UNL     1      -6.137  -0.069  -2.844  1.00  0.00     0.004 A 
ATOM     12  C   UNL     1      -5.649   0.062  -0.472  1.00  0.00    -0.036 A 
ATOM     13  C   UNL     1      -3.612  -1.030   0.329  1.00  0.00    -0.036 A 
ATOM     14  C   UNL     1      -2.340  -2.245  -1.357  1.00  0.00     0.004 A 
ATOM     15  C   UNL     1      -7.498  -0.010  -2.528  1.00  0.00     0.000 A 
ATOM     16  C   UNL     1      -7.001   0.086  -0.155  1.00  0.00     0.004 A 
ATOM     17  C   UNL     1      -3.210  -1.912   1.323  1.00  0.00     0.004 A 
ATOM     18  C   UNL     1      -1.935  -3.131  -0.354  1.00  0.00     0.000 A 
ATOM     19  C   UNL     1      -7.927   0.058  -1.194  1.00  0.00     0.000 A 
ATOM     20  C   UNL     1      -2.367  -2.967   0.972  1.00  0.00     0.000 A 
BRANCH   6  21
ATOM     21  C   UNL     1      -3.073   2.422  -2.241  1.00  0.00     0.310 C 
ATOM     22  O   UNL     1      -2.242   3.312  -2.108  1.00  0.00    -0.252 OA
BRANCH  21  23
ATOM     23  O   UNL     1      -4.032   2.407  -3.198  1.00  0.00    -0.465 OA
BRANCH  23  24
ATOM     24  C   UNL     1      -4.036   3.519  -4.116  1.00  0.00     0.233 C 
BRANCH  24  25
ATOM     25  C   UNL     1      -5.287   4.372  -3.914  1.00  0.00     0.041 C 
BRANCH  25  26
ATOM     26  C   UNL     1      -5.411   4.969  -2.515  1.00  0.00     0.000 C 
ATOM     27  C   UNL     1      -4.402   6.062  -2.204  1.00  0.00     0.004 C 
ENDBRANCH  25  26
ENDBRANCH  24  25
ENDBRANCH  23  24
ENDBRANCH  21  23
ENDBRANCH   6  21
ENDBRANCH   3   5
ENDBRANCH   2   3
ENDBRANCH   1   2
BRANCH   1  28
ATOM     28  C   UNL     1      -6.949   3.972   2.047  1.00  0.00     0.275 C 
BRANCH  28  29
ATOM     29  O   UNL     1      -5.892   4.157   2.999  1.00  0.00    -0.458 OA
BRANCH  29  30
ATOM     30  C   UNL     1      -5.290   3.017   3.415  1.00  0.00     0.338 C 
ATOM     31  O   UNL     1      -5.631   1.875   3.178  1.00  0.00    -0.246 OA
BRANCH  30  32
ATOM     32  C   UNL     1      -4.020   3.372   4.066  1.00  0.00     0.060 A 
ATOM     33  C   UNL     1      -3.983   4.301   5.104  1.00  0.00     0.016 A 
ATOM     34  C   UNL     1      -2.851   2.743   3.626  1.00  0.00     0.016 A 
ATOM     35  C   UNL     1      -2.759   4.606   5.694  1.00  0.00     0.010 A 
ATOM     36  C   UNL     1      -1.628   3.052   4.209  1.00  0.00     0.010 A 
ATOM     37  C   UNL     1      -1.578   3.982   5.251  1.00  0.00    -0.014 A 
BRANCH  37  38
ATOM     38  C   UNL     1      -0.306   4.228   5.960  1.00  0.00     0.031 A 
ATOM     39  C   UNL     1       0.770   5.068   5.349  1.00  0.00     0.074 A 
ATOM     40  C   UNL     1      -0.149   3.675   7.176  1.00  0.00     0.049 A 
ATOM     41  N   UNL     1       1.874   5.506   5.896  1.00  0.00    -0.248 NA
ATOM     42  C   UNL     1       0.594   5.457   3.942  1.00  0.00     0.031 C 
ATOM     43  C   UNL     1      -1.121   2.790   7.821  1.00  0.00     0.029 A 
ATOM     44  N   UNL     1       0.860   3.793   8.093  1.00  0.00    -0.354 N 
ATOM     45  C   UNL     1       2.510   6.253   4.914  1.00  0.00     0.074 A 
ATOM     46  C   UNL     1       1.707   6.143   3.714  1.00  0.00     0.031 C 
ATOM     47  C   UNL     1      -0.693   2.499   9.057  1.00  0.00     0.029 A 
ATOM     48  C   UNL     1       0.592   3.155   9.280  1.00  0.00     0.049 A 
ATOM     49  H   UNL     1       1.694   4.286   7.920  1.00  0.00     0.167 HD
ATOM     50  C   UNL     1       3.644   6.988   5.021  1.00  0.00     0.037 A 
ATOM     51  C   UNL     1       1.292   3.129  10.429  1.00  0.00     0.037 A 
ATOM     52  C   UNL     1       4.443   7.050   6.219  1.00  0.00     0.049 A 
ATOM     53  C   UNL     1       2.568   3.914  10.514  1.00  0.00     0.074 A 
ATOM     54  C   UNL     1       5.599   7.774   6.450  1.00  0.00     0.029 A 
ATOM     55  N   UNL     1       4.176   6.343   7.386  1.00  0.00    -0.354 N 
ATOM     56  N   UNL     1       3.120   4.686   9.607  1.00  0.00    -0.248 NA
ATOM     57  C   UNL     1       3.315   3.830  11.774  1.00  0.00     0.031 C 
ATOM     58  C   UNL     1       6.058   7.464   7.736  1.00  0.00     0.029 A 
ATOM     59  C   UNL     1       5.161   6.589   8.330  1.00  0.00     0.049 A 
ATOM     60  H   UNL     1       3.400   5.753   7.523  1.00  0.00     0.167 HD
ATOM     61  C   UNL     1       4.277   5.190  10.189  1.00  0.00     0.074 A 
ATOM     62  C   UNL     1       4.332   4.649  11.534  1.00  0.00     0.031 C 
ATOM     63  C   UNL     1       5.207   6.023   9.658  1.00  0.00     0.037 A 
BRANCH  50  64
ATOM     64  C   UNL     1       4.069   7.780   3.813  1.00  0.00     0.058 A 
ATOM     65  C   UNL     1       3.312   8.869   3.350  1.00  0.00     0.135 A 
ATOM     66  C   UNL     1       5.241   7.459   3.109  1.00  0.00     0.135 A 
ATOM     67  F   UNL     1       2.179   9.221   3.979  1.00  0.00    -0.206 F 
ATOM     68  C   UNL     1       3.672   9.578   2.208  1.00  0.00     0.059 A 
ATOM     69  C   UNL     1       5.639   8.175   1.982  1.00  0.00     0.059 A 
ATOM     70  F   UNL     1       6.011   6.434   3.508  1.00  0.00    -0.206 F 
ATOM     71  C   UNL     1       4.835   9.219   1.526  1.00  0.00     0.060 A 
BRANCH  71  72
ATOM     72  S   UNL     1       5.269  10.132   0.030  1.00  0.00     0.124 S 
ATOM     73  O   UNL     1       4.233   9.685  -0.896  1.00  0.00    -0.237 OA
ATOM     74  O   UNL     1       5.167  11.519   0.471  1.00  0.00    -0.237 OA
ATOM     75  O   UNL     1       6.620   9.670  -0.272  1.00  0.00    -0.744 OA
ENDBRANCH  71  72
ENDBRANCH  50  64
BRANCH  51  76
ATOM     76  C   UNL     1       0.736   2.394  11.594  1.00  0.00     0.058 A 
ATOM     77  C   UNL     1       0.190   3.090  12.682  1.00  0.00     0.135 A 
ATOM     78  C   UNL     1       0.643   0.994  11.598  1.00  0.00     0.135 A 
ATOM     79  F   UNL     1       0.256   4.430  12.723  1.00  0.00    -0.206 F 
ATOM     80  C   UNL     1      -0.444   2.425  13.726  1.00  0.00     0.059 A 
ATOM     81  C   UNL     1      -0.006   0.308  12.620  1.00  0.00     0.059 A 
ATOM     82  F   UNL     1       1.133   0.284  10.570  1.00  0.00    -0.206 F 
ATOM     83  C   UNL     1      -0.550   1.034  13.678  1.00  0.00     0.060 A 
BRANCH  83  84
ATOM     84  S   UNL     1      -1.466   0.196  14.990  1.00  0.00     0.124 S 
ATOM     85  O   UNL     1      -0.601   0.416  16.143  1.00  0.00    -0.237 OA
ATOM     86  O   UNL     1      -2.730   0.927  14.991  1.00  0.00    -0.237 OA
ATOM     87  O   UNL     1      -1.548  -1.183  14.517  1.00  0.00    -0.744 OA
ENDBRANCH  83  84
ENDBRANCH  51  76
BRANCH  63  88
ATOM     88  C   UNL     1       6.378   6.392  10.528  1.00  0.00     0.058 A 
ATOM     89  C   UNL     1       7.394   5.468  10.818  1.00  0.00     0.135 A 
ATOM     90  C   UNL     1       6.525   7.702  11.013  1.00  0.00     0.135 A 
ATOM     91  F   UNL     1       7.297   4.199  10.388  1.00  0.00    -0.206 F 
ATOM     92  C   UNL     1       8.509   5.826  11.567  1.00  0.00     0.059 A 
ATOM     93  C   UNL     1       7.646   8.090  11.739  1.00  0.00     0.059 A 
ATOM     94  F   UNL     1       5.585   8.627  10.758  1.00  0.00    -0.206 F 
ATOM     95  C   UNL     1       8.631   7.142  12.015  1.00  0.00     0.060 A 
BRANCH  95  96
ATOM     96  S   UNL     1      10.112   7.602  12.939  1.00  0.00     0.124 S 
ATOM     97  O   UNL     1       9.917   6.877  14.190  1.00  0.00    -0.237 OA
ATOM     98  O   UNL     1      11.181   7.104  12.078  1.00  0.00    -0.237 OA
ATOM     99  O   UNL     1      10.018   9.056  13.035  1.00  0.00    -0.744 OA
ENDBRANCH  95  96
ENDBRANCH  63  88
ENDBRANCH  37  38
ENDBRANCH  30  32
ENDBRANCH  29  30
ENDBRANCH  28  29
ENDBRANCH   1  28
TORSDOF 19
