REMARK SMILES Cc1ccc(-c2cc(C[C@H]3CCCC3=O)ccc2[C@@H](C)C(=O)OCCOC(=O)c2ccc(-c3c4nc(c(-c5c(F)cc(S(=O)(=O)[O-])cc5F)c5ccc([nH]5)c(-c5c(F)cc(S(=O)(=O)[O-])cc5F)c5nc(c(-c6c(F)cc(S(=O)(=O)[O-])cc6F)c6ccc3[nH]6)C=C5)C=C4)cc2)cc1
REMARK SMILES IDX 24 1 23 2 21 3 22 4 19 5 20 6 18 7 6 8 7 9 8 10 17 11 16 12
REMARK SMILES IDX 5 13 1 14 2 15 3 16 96 17 4 18 95 19 9 20 10 21 11 22 14 23
REMARK SMILES IDX 12 24 13 25 15 26 25 27 26 28 27 29 28 30 29 31 30 32 94 33
REMARK SMILES IDX 31 34 93 35 32 36 33 37 34 38 87 39 35 40 92 41 86 42 88 43
REMARK SMILES IDX 36 44 91 45 85 46 84 47 37 49 71 50 50 51 70 52 51 53 54 54
REMARK SMILES IDX 69 55 89 56 52 57 53 58 68 60 90 61 55 62 38 63 39 64 48 65
REMARK SMILES IDX 40 66 41 67 47 68 49 69 42 70 43 71 44 72 45 73 46 74 72 75
REMARK SMILES IDX 73 76 82 77 74 78 75 79 81 80 83 81 76 82 77 83 78 84 79 85
REMARK SMILES IDX 80 86 56 87 57 88 66 89 58 90 59 91 65 92 67 93 60 94 61 95
REMARK SMILES IDX 62 96 63 97 64 98
REMARK H PARENT 88 48 54 59
REMARK Flexibility Score: inf
ROOT
ATOM      1  C   UNL     1      -6.120  -3.476   0.681  1.00  0.00     0.274 C 
ENDROOT
BRANCH   1   2
ATOM      2  O   UNL     1      -5.213  -2.365   0.758  1.00  0.00    -0.462 OA
BRANCH   2   3
ATOM      3  C   UNL     1      -5.404  -1.533   1.825  1.00  0.00     0.313 C 
ATOM      4  O   UNL     1      -6.337  -1.650   2.610  1.00  0.00    -0.252 OA
BRANCH   3   5
ATOM      5  C   UNL     1      -4.398  -0.362   1.808  1.00  0.00     0.127 C 
ATOM      6  C   UNL     1      -4.378   0.429   3.114  1.00  0.00     0.025 C 
BRANCH   5   7
ATOM      7  C   UNL     1      -4.751   0.516   0.619  1.00  0.00    -0.026 A 
ATOM      8  C   UNL     1      -3.849   0.737  -0.440  1.00  0.00    -0.014 A 
ATOM      9  C   UNL     1      -4.389   1.122  -1.679  1.00  0.00     0.012 A 
ATOM     10  C   UNL     1      -5.763   1.357  -1.841  1.00  0.00    -0.047 A 
ATOM     11  C   UNL     1      -6.095   0.917   0.499  1.00  0.00     0.005 A 
ATOM     12  C   UNL     1      -6.593   1.338  -0.720  1.00  0.00     0.004 A 
BRANCH   8  13
ATOM     13  C   UNL     1      -2.388   0.604  -0.304  1.00  0.00    -0.018 A 
ATOM     14  C   UNL     1       1.934   0.334  -0.038  1.00  0.00     0.044 C 
ATOM     15  C   UNL     1       0.441   0.447  -0.139  1.00  0.00    -0.051 A 
ATOM     16  C   UNL     1      -0.305  -0.601  -0.687  1.00  0.00     0.004 A 
ATOM     17  C   UNL     1      -0.237   1.560   0.364  1.00  0.00     0.004 A 
ATOM     18  C   UNL     1      -1.699  -0.512  -0.787  1.00  0.00     0.009 A 
ATOM     19  C   UNL     1      -1.634   1.634   0.285  1.00  0.00     0.009 A 
ENDBRANCH   8  13
BRANCH  10  20
ATOM     20  C   UNL     1      -6.363   1.591  -3.202  1.00  0.00     0.047 C 
BRANCH  20  21
ATOM     21  C   UNL     1      -7.089   0.390  -3.825  1.00  0.00     0.060 C 
ATOM     22  C   UNL     1      -6.228  -0.839  -4.126  1.00  0.00     0.012 C 
ATOM     23  C   UNL     1      -8.189  -0.188  -2.961  1.00  0.00     0.136 C 
ATOM     24  C   UNL     1      -6.513  -1.856  -3.031  1.00  0.00     0.009 C 
ATOM     25  C   UNL     1      -7.950  -1.627  -2.591  1.00  0.00     0.076 C 
ATOM     26  O   UNL     1      -9.196   0.433  -2.637  1.00  0.00    -0.299 OA
ENDBRANCH  20  21
ENDBRANCH  10  20
ENDBRANCH   5   7
ENDBRANCH   3   5
ENDBRANCH   2   3
ENDBRANCH   1   2
BRANCH   1  27
ATOM     27  C   UNL     1      -5.746  -4.412  -0.485  1.00  0.00     0.275 C 
BRANCH  27  28
ATOM     28  O   UNL     1      -4.491  -5.118  -0.393  1.00  0.00    -0.458 OA
BRANCH  28  29
ATOM     29  C   UNL     1      -3.391  -4.365  -0.117  1.00  0.00     0.338 C 
ATOM     30  O   UNL     1      -2.890  -3.585  -0.924  1.00  0.00    -0.246 OA
BRANCH  29  31
ATOM     31  C   UNL     1      -3.150  -4.434   1.351  1.00  0.00     0.060 A 
ATOM     32  C   UNL     1      -2.519  -3.383   2.033  1.00  0.00     0.016 A 
ATOM     33  C   UNL     1      -3.881  -5.388   2.061  1.00  0.00     0.016 A 
ATOM     34  C   UNL     1      -2.748  -3.204   3.407  1.00  0.00     0.010 A 
ATOM     35  C   UNL     1      -4.204  -5.142   3.372  1.00  0.00     0.010 A 
ATOM     36  C   UNL     1      -3.641  -4.057   4.064  1.00  0.00    -0.014 A 
BRANCH  36  37
ATOM     37  C   UNL     1      -3.885  -4.112   5.508  1.00  0.00     0.031 A 
ATOM     38  C   UNL     1      -4.708  -3.156   6.284  1.00  0.00     0.074 A 
ATOM     39  C   UNL     1      -3.403  -5.242   6.074  1.00  0.00     0.049 A 
ATOM     40  N   UNL     1      -4.743  -3.101   7.574  1.00  0.00    -0.248 NA
ATOM     41  C   UNL     1      -5.561  -2.150   5.680  1.00  0.00     0.031 C 
ATOM     42  C   UNL     1      -3.662  -5.810   7.383  1.00  0.00     0.029 A 
ATOM     43  N   UNL     1      -2.370  -6.038   5.561  1.00  0.00    -0.354 N 
ATOM     44  C   UNL     1      -5.778  -2.265   7.962  1.00  0.00     0.074 A 
ATOM     45  C   UNL     1      -6.203  -1.639   6.738  1.00  0.00     0.031 C 
ATOM     46  C   UNL     1      -2.619  -6.599   7.704  1.00  0.00     0.029 A 
ATOM     47  C   UNL     1      -1.611  -6.416   6.663  1.00  0.00     0.049 A 
ATOM     48  H   UNL     1      -2.214  -6.279   4.619  1.00  0.00     0.167 HD
ATOM     49  C   UNL     1      -6.208  -2.306   9.262  1.00  0.00     0.037 A 
ATOM     50  C   UNL     1      -0.347  -5.933   6.850  1.00  0.00     0.037 A 
ATOM     51  C   UNL     1      -5.282  -3.120  10.050  1.00  0.00     0.049 A 
ATOM     52  C   UNL     1      -0.258  -5.175   8.152  1.00  0.00     0.074 A 
ATOM     53  C   UNL     1      -5.306  -4.450  10.434  1.00  0.00     0.029 A 
ATOM     54  N   UNL     1      -3.983  -2.667  10.255  1.00  0.00    -0.354 N 
ATOM     55  N   UNL     1      -1.260  -4.548   8.707  1.00  0.00    -0.248 NA
ATOM     56  C   UNL     1       0.958  -5.128   8.954  1.00  0.00     0.031 C 
ATOM     57  C   UNL     1      -3.974  -4.831  10.742  1.00  0.00     0.029 A 
ATOM     58  C   UNL     1      -3.156  -3.722  10.591  1.00  0.00     0.049 A 
ATOM     59  H   UNL     1      -3.694  -1.730  10.173  1.00  0.00     0.167 HD
ATOM     60  C   UNL     1      -0.878  -4.103   9.944  1.00  0.00     0.074 A 
ATOM     61  C   UNL     1       0.526  -4.466  10.040  1.00  0.00     0.031 C 
ATOM     62  C   UNL     1      -1.736  -3.514  10.829  1.00  0.00     0.037 A 
BRANCH  49  63
ATOM     63  C   UNL     1      -7.565  -1.849   9.805  1.00  0.00     0.058 A 
ATOM     64  C   UNL     1      -8.047  -2.359  11.038  1.00  0.00     0.135 A 
ATOM     65  C   UNL     1      -8.478  -0.996   9.152  1.00  0.00     0.135 A 
ATOM     66  F   UNL     1      -7.279  -3.122  11.828  1.00  0.00    -0.206 F 
ATOM     67  C   UNL     1      -9.343  -2.130  11.521  1.00  0.00     0.059 A 
ATOM     68  C   UNL     1      -9.787  -0.766   9.605  1.00  0.00     0.059 A 
ATOM     69  F   UNL     1      -8.144  -0.309   8.057  1.00  0.00    -0.206 F 
ATOM     70  C   UNL     1     -10.222  -1.357  10.780  1.00  0.00     0.060 A 
BRANCH  70  71
ATOM     71  S   UNL     1     -11.914  -1.135  11.369  1.00  0.00     0.124 S 
ATOM     72  O   UNL     1     -12.431  -2.499  11.330  1.00  0.00    -0.237 OA
ATOM     73  O   UNL     1     -11.710  -0.571  12.699  1.00  0.00    -0.237 OA
ATOM     74  O   UNL     1     -12.500  -0.222  10.391  1.00  0.00    -0.744 OA
ENDBRANCH  70  71
ENDBRANCH  49  63
BRANCH  50  75
ATOM     75  C   UNL     1       0.403  -5.606   5.597  1.00  0.00     0.058 A 
ATOM     76  C   UNL     1       0.677  -6.656   4.695  1.00  0.00     0.135 A 
ATOM     77  C   UNL     1       0.530  -4.297   5.103  1.00  0.00     0.135 A 
ATOM     78  F   UNL     1       0.578  -7.932   5.104  1.00  0.00    -0.206 F 
ATOM     79  C   UNL     1       0.930  -6.428   3.345  1.00  0.00     0.059 A 
ATOM     80  C   UNL     1       0.801  -4.044   3.752  1.00  0.00     0.059 A 
ATOM     81  F   UNL     1       0.277  -3.247   5.897  1.00  0.00    -0.206 F 
ATOM     82  C   UNL     1       0.948  -5.118   2.872  1.00  0.00     0.060 A 
BRANCH  82  83
ATOM     83  S   UNL     1       0.999  -4.867   1.079  1.00  0.00     0.124 S 
ATOM     84  O   UNL     1       2.324  -5.372   0.741  1.00  0.00    -0.237 OA
ATOM     85  O   UNL     1      -0.126  -5.686   0.636  1.00  0.00    -0.237 OA
ATOM     86  O   UNL     1       0.818  -3.427   0.936  1.00  0.00    -0.744 OA
ENDBRANCH  82  83
ENDBRANCH  50  75
BRANCH  62  87
ATOM     87  C   UNL     1      -1.307  -2.801  12.083  1.00  0.00     0.058 A 
ATOM     88  C   UNL     1      -0.094  -2.100  12.189  1.00  0.00     0.135 A 
ATOM     89  C   UNL     1      -2.185  -2.681  13.185  1.00  0.00     0.135 A 
ATOM     90  F   UNL     1       0.763  -2.032  11.159  1.00  0.00    -0.206 F 
ATOM     91  C   UNL     1       0.269  -1.408  13.342  1.00  0.00     0.059 A 
ATOM     92  C   UNL     1      -1.868  -1.947  14.323  1.00  0.00     0.059 A 
ATOM     93  F   UNL     1      -3.393  -3.266  13.188  1.00  0.00    -0.206 F 
ATOM     94  C   UNL     1      -0.622  -1.342  14.407  1.00  0.00     0.060 A 
BRANCH  94  95
ATOM     95  S   UNL     1      -0.181  -0.422  15.890  1.00  0.00     0.124 S 
ATOM     96  O   UNL     1       0.372  -1.480  16.731  1.00  0.00    -0.237 OA
ATOM     97  O   UNL     1       0.784   0.555  15.394  1.00  0.00    -0.237 OA
ATOM     98  O   UNL     1      -1.458   0.134  16.325  1.00  0.00    -0.744 OA
ENDBRANCH  94  95
ENDBRANCH  62  87
ENDBRANCH  36  37
ENDBRANCH  29  31
ENDBRANCH  28  29
ENDBRANCH  27  28
ENDBRANCH   1  27
TORSDOF 18
