REMARK SMILES C[C@H]1OCC[C@@H]1C(=O)Nc1sc2c(c1C(=O)OCCOC(=O)c1ccc(-c3c4nc(c(-c5c(F)cc(S(=O)(=O)[O-])cc5F)c5ccc([nH]5)c(-c5c(F)cc(S(=O)(=O)[O-])cc5F)c5nc(c(-c6c(F)cc(S(=O)(=O)[O-])cc6F)c6ccc3[nH]6)C=C5)C=C4)cc1)CCC2
REMARK SMILES IDX 19 1 18 2 17 3 15 4 16 5 14 6 10 7 11 8 12 9 13 10 91 11
REMARK SMILES IDX 89 12 90 13 9 14 7 15 8 16 6 18 1 19 2 20 3 21 4 22 5 23
REMARK SMILES IDX 20 24 21 25 22 26 23 27 24 28 88 29 25 30 87 31 26 32 27 33
REMARK SMILES IDX 28 34 81 35 29 36 86 37 80 38 82 39 30 40 85 41 79 42 78 43
REMARK SMILES IDX 31 45 65 46 44 47 64 48 45 49 48 50 63 51 83 52 46 53 47 54
REMARK SMILES IDX 62 56 84 57 49 58 32 59 33 60 42 61 34 62 35 63 41 64 43 65
REMARK SMILES IDX 36 66 37 67 38 68 39 69 40 70 66 71 67 72 76 73 68 74 69 75
REMARK SMILES IDX 75 76 77 77 70 78 71 79 72 80 73 81 74 82 50 83 51 84 60 85
REMARK SMILES IDX 52 86 53 87 59 88 61 89 54 90 55 91 56 92 57 93 58 94
REMARK H PARENT 9 17 82 44 48 55
REMARK Flexibility Score: inf
ROOT
ATOM      1  C   UNL     1      -4.063  -0.175  -1.300  1.00  0.00     0.275 C 
ENDROOT
BRANCH   1   2
ATOM      2  C   UNL     1      -4.858  -0.237  -0.005  1.00  0.00     0.275 C 
BRANCH   2   3
ATOM      3  O   UNL     1      -4.059   0.202   1.112  1.00  0.00    -0.458 OA
BRANCH   3   4
ATOM      4  C   UNL     1      -3.380  -0.783   1.776  1.00  0.00     0.341 C 
ATOM      5  O   UNL     1      -3.473  -1.968   1.523  1.00  0.00    -0.246 OA
BRANCH   4   6
ATOM      6  C   UNL     1      -2.517  -0.255   2.832  1.00  0.00     0.098 A 
ATOM      7  C   UNL     1      -1.295  -0.831   3.159  1.00  0.00     0.110 A 
ATOM      8  S   UNL     1      -0.596  -0.229   4.603  1.00  0.00    -0.122 S 
ATOM      9  C   UNL     1      -1.619   1.084   4.515  1.00  0.00     0.011 A 
ATOM     10  C   UNL     1      -2.582   0.982   3.543  1.00  0.00    -0.017 A 
ATOM     11  C   UNL     1      -1.556   2.401   5.185  1.00  0.00     0.047 C 
ATOM     12  C   UNL     1      -3.315   2.271   3.413  1.00  0.00     0.038 C 
ATOM     13  C   UNL     1      -2.355   3.259   4.162  1.00  0.00     0.010 C 
BRANCH   7  14
ATOM     14  N   UNL     1      -0.500  -1.727   2.484  1.00  0.00    -0.317 N 
ATOM     15  C   UNL     1       0.578  -1.285   1.751  1.00  0.00     0.230 C 
ATOM     16  O   UNL     1       1.613  -1.956   1.849  1.00  0.00    -0.274 OA
ATOM     17  H   UNL     1      -0.704  -2.689   2.524  1.00  0.00     0.170 HD
BRANCH  15  18
ATOM     18  C   UNL     1       0.533  -0.124   0.747  1.00  0.00     0.110 C 
ATOM     19  C   UNL     1       2.849   0.642   0.039  1.00  0.00     0.039 C 
ATOM     20  C   UNL     1       1.646   0.912   0.936  1.00  0.00     0.127 C 
ATOM     21  O   UNL     1       1.091   2.191   0.531  1.00  0.00    -0.378 OA
ATOM     22  C   UNL     1      -0.100   1.918  -0.215  1.00  0.00     0.161 C 
ATOM     23  C   UNL     1      -0.679   0.740   0.519  1.00  0.00     0.044 C 
ENDBRANCH  15  18
ENDBRANCH   7  14
ENDBRANCH   4   6
ENDBRANCH   3   4
ENDBRANCH   2   3
ENDBRANCH   1   2
BRANCH   1  24
ATOM     24  O   UNL     1      -3.148  -1.275  -1.422  1.00  0.00    -0.458 OA
BRANCH  24  25
ATOM     25  C   UNL     1      -2.279  -1.031  -2.428  1.00  0.00     0.338 C 
ATOM     26  O   UNL     1      -2.230   0.002  -3.087  1.00  0.00    -0.246 OA
BRANCH  25  27
ATOM     27  C   UNL     1      -1.300  -2.098  -2.668  1.00  0.00     0.060 A 
ATOM     28  C   UNL     1      -0.376  -2.390  -1.666  1.00  0.00     0.016 A 
ATOM     29  C   UNL     1      -0.984  -2.275  -4.015  1.00  0.00     0.016 A 
ATOM     30  C   UNL     1       0.964  -2.522  -2.021  1.00  0.00     0.010 A 
ATOM     31  C   UNL     1       0.337  -2.461  -4.364  1.00  0.00     0.010 A 
ATOM     32  C   UNL     1       1.325  -2.440  -3.369  1.00  0.00    -0.014 A 
BRANCH  32  33
ATOM     33  C   UNL     1       2.742  -2.460  -3.778  1.00  0.00     0.031 A 
ATOM     34  C   UNL     1       3.462  -3.740  -3.493  1.00  0.00     0.074 A 
ATOM     35  C   UNL     1       3.194  -1.496  -4.618  1.00  0.00     0.049 A 
ATOM     36  N   UNL     1       4.725  -3.954  -3.293  1.00  0.00    -0.248 NA
ATOM     37  C   UNL     1       2.631  -4.958  -3.361  1.00  0.00     0.031 C 
ATOM     38  C   UNL     1       2.433  -0.315  -5.061  1.00  0.00     0.029 A 
ATOM     39  N   UNL     1       4.304  -1.456  -5.425  1.00  0.00    -0.354 N 
ATOM     40  C   UNL     1       4.859  -5.342  -3.242  1.00  0.00     0.074 A 
ATOM     41  C   UNL     1       3.541  -5.897  -3.128  1.00  0.00     0.031 C 
ATOM     42  C   UNL     1       2.944   0.131  -6.225  1.00  0.00     0.029 A 
ATOM     43  C   UNL     1       4.096  -0.681  -6.572  1.00  0.00     0.049 A 
ATOM     44  H   UNL     1       5.149  -1.919  -5.220  1.00  0.00     0.167 HD
ATOM     45  C   UNL     1       6.001  -5.978  -3.609  1.00  0.00     0.037 A 
ATOM     46  C   UNL     1       4.712  -0.788  -7.779  1.00  0.00     0.037 A 
ATOM     47  C   UNL     1       7.168  -5.167  -3.432  1.00  0.00     0.049 A 
ATOM     48  C   UNL     1       5.947  -1.585  -7.598  1.00  0.00     0.074 A 
ATOM     49  C   UNL     1       7.759  -4.541  -2.354  1.00  0.00     0.029 A 
ATOM     50  N   UNL     1       7.781  -4.668  -4.551  1.00  0.00    -0.354 N 
ATOM     51  N   UNL     1       7.008  -1.189  -6.954  1.00  0.00    -0.248 NA
ATOM     52  C   UNL     1       5.893  -3.011  -7.891  1.00  0.00     0.031 C 
ATOM     53  C   UNL     1       8.425  -3.404  -2.888  1.00  0.00     0.029 A 
ATOM     54  C   UNL     1       8.210  -3.398  -4.267  1.00  0.00     0.049 A 
ATOM     55  H   UNL     1       7.894  -5.139  -5.408  1.00  0.00     0.167 HD
ATOM     56  C   UNL     1       7.539  -2.345  -6.408  1.00  0.00     0.074 A 
ATOM     57  C   UNL     1       6.908  -3.436  -7.136  1.00  0.00     0.031 C 
ATOM     58  C   UNL     1       8.217  -2.314  -5.225  1.00  0.00     0.037 A 
BRANCH  45  59
ATOM     59  C   UNL     1       5.970  -7.196  -4.503  1.00  0.00     0.058 A 
ATOM     60  C   UNL     1       7.122  -7.987  -4.656  1.00  0.00     0.135 A 
ATOM     61  C   UNL     1       4.929  -7.437  -5.434  1.00  0.00     0.135 A 
ATOM     62  F   UNL     1       8.175  -7.821  -3.841  1.00  0.00    -0.206 F 
ATOM     63  C   UNL     1       7.256  -8.907  -5.699  1.00  0.00     0.059 A 
ATOM     64  C   UNL     1       5.018  -8.388  -6.440  1.00  0.00     0.059 A 
ATOM     65  F   UNL     1       3.820  -6.688  -5.475  1.00  0.00    -0.206 F 
ATOM     66  C   UNL     1       6.205  -9.082  -6.596  1.00  0.00     0.060 A 
BRANCH  66  67
ATOM     67  S   UNL     1       6.420 -10.151  -8.030  1.00  0.00     0.124 S 
ATOM     68  O   UNL     1       7.276  -9.325  -8.873  1.00  0.00    -0.237 OA
ATOM     69  O   UNL     1       7.044 -11.332  -7.442  1.00  0.00    -0.237 OA
ATOM     70  O   UNL     1       5.054 -10.345  -8.508  1.00  0.00    -0.744 OA
ENDBRANCH  66  67
ENDBRANCH  45  59
BRANCH  46  71
ATOM     71  C   UNL     1       4.154  -0.501  -9.135  1.00  0.00     0.058 A 
ATOM     72  C   UNL     1       4.993  -0.395 -10.261  1.00  0.00     0.135 A 
ATOM     73  C   UNL     1       2.771  -0.561  -9.410  1.00  0.00     0.135 A 
ATOM     74  F   UNL     1       6.326  -0.370 -10.109  1.00  0.00    -0.206 F 
ATOM     75  C   UNL     1       4.496  -0.376 -11.571  1.00  0.00     0.059 A 
ATOM     76  C   UNL     1       2.251  -0.513 -10.703  1.00  0.00     0.059 A 
ATOM     77  F   UNL     1       1.873  -0.761  -8.434  1.00  0.00    -0.206 F 
ATOM     78  C   UNL     1       3.121  -0.446 -11.782  1.00  0.00     0.060 A 
BRANCH  78  79
ATOM     79  S   UNL     1       2.478  -0.570 -13.468  1.00  0.00     0.124 S 
ATOM     80  O   UNL     1       2.777   0.753 -14.005  1.00  0.00    -0.237 OA
ATOM     81  O   UNL     1       3.259  -1.673 -14.016  1.00  0.00    -0.237 OA
ATOM     82  O   UNL     1       1.059  -0.855 -13.270  1.00  0.00    -0.744 OA
ENDBRANCH  78  79
ENDBRANCH  46  71
BRANCH  58  83
ATOM     83  C   UNL     1       8.765  -0.995  -4.755  1.00  0.00     0.058 A 
ATOM     84  C   UNL     1       7.973   0.111  -4.406  1.00  0.00     0.135 A 
ATOM     85  C   UNL     1      10.144  -0.904  -4.510  1.00  0.00     0.135 A 
ATOM     86  F   UNL     1       6.637   0.065  -4.510  1.00  0.00    -0.206 F 
ATOM     87  C   UNL     1       8.534   1.274  -3.875  1.00  0.00     0.059 A 
ATOM     88  C   UNL     1      10.720   0.233  -3.950  1.00  0.00     0.059 A 
ATOM     89  F   UNL     1      10.944  -1.953  -4.765  1.00  0.00    -0.206 F 
ATOM     90  C   UNL     1       9.909   1.324  -3.647  1.00  0.00     0.060 A 
BRANCH  90  91
ATOM     91  S   UNL     1      10.619   2.789  -2.867  1.00  0.00     0.124 S 
ATOM     92  O   UNL     1      10.636   3.746  -3.968  1.00  0.00    -0.237 OA
ATOM     93  O   UNL     1       9.670   3.074  -1.794  1.00  0.00    -0.237 OA
ATOM     94  O   UNL     1      11.932   2.332  -2.416  1.00  0.00    -0.744 OA
ENDBRANCH  90  91
ENDBRANCH  58  83
ENDBRANCH  32  33
ENDBRANCH  25  27
ENDBRANCH  24  25
ENDBRANCH   1  24
TORSDOF 16
