REMARK SMILES O=C(OCCOC(=O)c1cc(NC(=O)c2ccccc2Cl)ccc1N1CCC[C@H](C[NH+]2CCCC2)C1)c1ccc(-c2c3nc(c(-c4c(F)cc(S(=O)(=O)[O-])cc4F)c4ccc([nH]4)c(-c4c(F)cc(S(=O)(=O)[O-])cc4F)c4nc(c(-c5c(F)cc(S(=O)(=O)[O-])cc5F)c5ccc2[nH]5)C=C4)C=C3)cc1
REMARK SMILES IDX 4 1 3 2 2 3 1 4 37 5 38 6 102 7 39 8 101 9 40 10 41 11 42 12
REMARK SMILES IDX 95 13 43 14 100 15 94 16 96 17 44 18 99 19 93 20 92 21 45 23
REMARK SMILES IDX 79 24 58 25 78 26 59 27 62 28 77 29 97 30 60 31 61 32 76 34
REMARK SMILES IDX 98 35 63 36 46 37 47 38 56 39 48 40 49 41 55 42 57 43 50 44
REMARK SMILES IDX 51 45 52 46 53 47 54 48 80 49 81 50 90 51 82 52 83 53 89 54
REMARK SMILES IDX 91 55 84 56 85 57 86 58 87 59 88 60 64 61 65 62 74 63 66 64
REMARK SMILES IDX 67 65 73 66 75 67 68 68 69 69 70 70 71 71 72 72 5 73 6 74
REMARK SMILES IDX 7 75 8 76 9 77 10 78 24 79 11 80 23 81 22 82 25 83 26 84
REMARK SMILES IDX 36 85 27 86 29 87 28 88 30 89 31 90 32 91 35 92 33 94 34 95
REMARK SMILES IDX 12 96 13 97 14 99 15 100 16 101 20 102 17 103 19 104 21 105
REMARK SMILES IDX 18 106
REMARK H PARENT 96 22 62 33 31 93 12 98
REMARK Flexibility Score: inf
ROOT
ATOM      1  C   UNL     1       4.872  -0.668  -1.468  1.00  0.00     0.275 C 
ENDROOT
BRANCH   1   2
ATOM      2  O   UNL     1       4.262  -1.418  -0.395  1.00  0.00    -0.458 OA
BRANCH   2   3
ATOM      3  C   UNL     1       3.345  -0.833   0.406  1.00  0.00     0.338 C 
ATOM      4  O   UNL     1       2.143  -0.954   0.222  1.00  0.00    -0.246 OA
BRANCH   3   5
ATOM      5  C   UNL     1       3.913  -0.121   1.592  1.00  0.00     0.060 A 
ATOM      6  C   UNL     1       5.247   0.272   1.674  1.00  0.00     0.016 A 
ATOM      7  C   UNL     1       3.041   0.245   2.629  1.00  0.00     0.016 A 
ATOM      8  C   UNL     1       5.684   1.031   2.760  1.00  0.00     0.010 A 
ATOM      9  C   UNL     1       3.471   1.007   3.721  1.00  0.00     0.010 A 
ATOM     10  C   UNL     1       4.801   1.407   3.789  1.00  0.00    -0.014 A 
BRANCH  10  11
ATOM     11  C   UNL     1       5.399   2.030   4.995  1.00  0.00     0.031 A 
ATOM     12  C   UNL     1       6.099   1.111   5.925  1.00  0.00     0.074 A 
ATOM     13  C   UNL     1       5.429   3.361   5.193  1.00  0.00     0.049 A 
ATOM     14  N   UNL     1       6.967   1.388   6.850  1.00  0.00    -0.248 NA
ATOM     15  C   UNL     1       5.721  -0.309   5.830  1.00  0.00     0.031 C 
ATOM     16  C   UNL     1       4.583   4.308   4.500  1.00  0.00     0.029 A 
ATOM     17  N   UNL     1       6.243   4.167   5.948  1.00  0.00    -0.354 N 
ATOM     18  C   UNL     1       7.196   0.188   7.498  1.00  0.00     0.074 A 
ATOM     19  C   UNL     1       6.408  -0.827   6.834  1.00  0.00     0.031 C 
ATOM     20  C   UNL     1       5.070   5.550   4.640  1.00  0.00     0.029 A 
ATOM     21  C   UNL     1       6.208   5.494   5.543  1.00  0.00     0.049 A 
ATOM     22  H   UNL     1       6.792   3.839   6.697  1.00  0.00     0.167 HD
ATOM     23  C   UNL     1       7.956  -0.014   8.595  1.00  0.00     0.037 A 
ATOM     24  C   UNL     1       7.035   6.514   5.852  1.00  0.00     0.037 A 
ATOM     25  C   UNL     1       8.658   1.052   9.255  1.00  0.00     0.049 A 
ATOM     26  C   UNL     1       8.035   6.232   6.944  1.00  0.00     0.074 A 
ATOM     27  C   UNL     1       9.421   1.005  10.403  1.00  0.00     0.029 A 
ATOM     28  N   UNL     1       8.660   2.374   8.821  1.00  0.00    -0.354 N 
ATOM     29  N   UNL     1       8.294   5.087   7.534  1.00  0.00    -0.248 NA
ATOM     30  C   UNL     1       8.790   7.372   7.474  1.00  0.00     0.031 C 
ATOM     31  C   UNL     1       9.852   2.307  10.685  1.00  0.00     0.029 A 
ATOM     32  C   UNL     1       9.412   3.155   9.678  1.00  0.00     0.049 A 
ATOM     33  H   UNL     1       8.193   2.706   8.020  1.00  0.00     0.167 HD
ATOM     34  C   UNL     1       9.197   5.375   8.543  1.00  0.00     0.074 A 
ATOM     35  C   UNL     1       9.509   6.789   8.425  1.00  0.00     0.031 C 
ATOM     36  C   UNL     1       9.686   4.563   9.514  1.00  0.00     0.037 A 
BRANCH  23  37
ATOM     37  C   UNL     1       7.942  -1.399   9.167  1.00  0.00     0.058 A 
ATOM     38  C   UNL     1       8.524  -2.486   8.494  1.00  0.00     0.135 A 
ATOM     39  C   UNL     1       7.253  -1.658  10.361  1.00  0.00     0.135 A 
ATOM     40  F   UNL     1       9.148  -2.300   7.320  1.00  0.00    -0.206 F 
ATOM     41  C   UNL     1       8.396  -3.785   8.971  1.00  0.00     0.059 A 
ATOM     42  C   UNL     1       7.139  -2.946  10.873  1.00  0.00     0.059 A 
ATOM     43  F   UNL     1       6.650  -0.659  11.026  1.00  0.00    -0.206 F 
ATOM     44  C   UNL     1       7.700  -4.005  10.161  1.00  0.00     0.060 A 
BRANCH  44  45
ATOM     45  S   UNL     1       7.539  -5.697  10.763  1.00  0.00     0.124 S 
ATOM     46  O   UNL     1       6.569  -6.251   9.823  1.00  0.00    -0.237 OA
ATOM     47  O   UNL     1       8.903  -6.202  10.636  1.00  0.00    -0.237 OA
ATOM     48  O   UNL     1       7.062  -5.527  12.132  1.00  0.00    -0.744 OA
ENDBRANCH  44  45
ENDBRANCH  23  37
BRANCH  24  49
ATOM     49  C   UNL     1       6.986   7.845   5.163  1.00  0.00     0.058 A 
ATOM     50  C   UNL     1       8.117   8.341   4.484  1.00  0.00     0.135 A 
ATOM     51  C   UNL     1       5.847   8.665   5.165  1.00  0.00     0.135 A 
ATOM     52  F   UNL     1       9.246   7.616   4.445  1.00  0.00    -0.206 F 
ATOM     53  C   UNL     1       8.124   9.588   3.857  1.00  0.00     0.059 A 
ATOM     54  C   UNL     1       5.815   9.898   4.510  1.00  0.00     0.059 A 
ATOM     55  F   UNL     1       4.734   8.270   5.802  1.00  0.00    -0.206 F 
ATOM     56  C   UNL     1       6.964  10.359   3.872  1.00  0.00     0.060 A 
BRANCH  56  57
ATOM     57  S   UNL     1       6.963  11.953   3.018  1.00  0.00     0.124 S 
ATOM     58  O   UNL     1       7.742  12.778   3.934  1.00  0.00    -0.237 OA
ATOM     59  O   UNL     1       7.607  11.623   1.750  1.00  0.00    -0.237 OA
ATOM     60  O   UNL     1       5.544  12.281   2.923  1.00  0.00    -0.744 OA
ENDBRANCH  56  57
ENDBRANCH  24  49
BRANCH  36  61
ATOM     61  C   UNL     1      10.606   5.198  10.512  1.00  0.00     0.058 A 
ATOM     62  C   UNL     1      10.128   6.079  11.494  1.00  0.00     0.135 A 
ATOM     63  C   UNL     1      11.970   4.877  10.511  1.00  0.00     0.135 A 
ATOM     64  F   UNL     1       8.829   6.417  11.529  1.00  0.00    -0.206 F 
ATOM     65  C   UNL     1      10.984   6.647  12.428  1.00  0.00     0.059 A 
ATOM     66  C   UNL     1      12.838   5.408  11.455  1.00  0.00     0.059 A 
ATOM     67  F   UNL     1      12.466   4.028   9.596  1.00  0.00    -0.206 F 
ATOM     68  C   UNL     1      12.337   6.304  12.399  1.00  0.00     0.060 A 
BRANCH  68  69
ATOM     69  S   UNL     1      13.438   7.032  13.628  1.00  0.00     0.124 S 
ATOM     70  O   UNL     1      13.558   8.400  13.136  1.00  0.00    -0.237 OA
ATOM     71  O   UNL     1      12.679   6.865  14.864  1.00  0.00    -0.237 OA
ATOM     72  O   UNL     1      14.645   6.218  13.525  1.00  0.00    -0.744 OA
ENDBRANCH  68  69
ENDBRANCH  36  61
ENDBRANCH  10  11
ENDBRANCH   3   5
ENDBRANCH   2   3
ENDBRANCH   1   2
BRANCH   1  73
ATOM     73  C   UNL     1       4.206   0.619  -1.972  1.00  0.00     0.275 C 
BRANCH  73  74
ATOM     74  O   UNL     1       3.792   1.463  -0.896  1.00  0.00    -0.458 OA
BRANCH  74  75
ATOM     75  C   UNL     1       2.530   1.950  -0.973  1.00  0.00     0.340 C 
ATOM     76  O   UNL     1       1.746   1.795  -1.903  1.00  0.00    -0.246 OA
BRANCH  75  77
ATOM     77  C   UNL     1       2.162   2.654   0.272  1.00  0.00     0.085 A 
ATOM     78  C   UNL     1       0.936   2.247   0.863  1.00  0.00     0.044 A 
ATOM     79  C   UNL     1       2.954   3.669   0.832  1.00  0.00     0.051 A 
ATOM     80  C   UNL     1       0.452   2.861   2.012  1.00  0.00     0.042 A 
ATOM     81  C   UNL     1       2.378   4.350   1.912  1.00  0.00     0.029 A 
ATOM     82  C   UNL     1       1.165   3.955   2.501  1.00  0.00     0.028 A 
BRANCH  79  83
ATOM     83  N   UNL     1       4.205   4.053   0.396  1.00  0.00    -0.370 N 
ATOM     84  C   UNL     1       5.375   4.003   1.271  1.00  0.00     0.116 C 
ATOM     85  C   UNL     1       4.511   4.317  -0.994  1.00  0.00     0.126 C 
ATOM     86  C   UNL     1       6.095   5.344   1.269  1.00  0.00     0.022 C 
ATOM     87  C   UNL     1       5.197   5.684  -1.091  1.00  0.00     0.064 C 
ATOM     88  C   UNL     1       6.430   5.744  -0.166  1.00  0.00     0.013 C 
BRANCH  87  89
ATOM     89  C   UNL     1       4.151   6.794  -0.824  1.00  0.00     0.267 C 
BRANCH  89  90
ATOM     90  N   UNL     1       4.354   8.099  -1.455  1.00  0.00    -0.335 N 
ATOM     91  C   UNL     1       4.620   8.050  -2.889  1.00  0.00     0.262 C 
ATOM     92  C   UNL     1       5.386   8.938  -0.843  1.00  0.00     0.262 C 
ATOM     93  H   UNL     1       3.443   8.528  -1.292  1.00  0.00     0.348 HD
ATOM     94  C   UNL     1       6.124   8.187  -3.034  1.00  0.00     0.067 C 
ATOM     95  C   UNL     1       6.548   9.006  -1.828  1.00  0.00     0.067 C 
ENDBRANCH  89  90
ENDBRANCH  87  89
ENDBRANCH  79  83
BRANCH  80  96
ATOM     96  N   UNL     1      -0.738   2.529   2.690  1.00  0.00    -0.322 N 
ATOM     97  C   UNL     1      -1.585   1.445   2.671  1.00  0.00     0.257 C 
ATOM     98  H   UNL     1      -1.028   3.229   3.318  1.00  0.00     0.170 HD
ATOM     99  O   UNL     1      -2.686   1.511   3.219  1.00  0.00    -0.269 OA
BRANCH  97 100
ATOM    100  C   UNL     1      -1.196   0.155   2.093  1.00  0.00     0.058 A 
ATOM    101  C   UNL     1      -1.600  -0.144   0.787  1.00  0.00     0.015 A 
ATOM    102  C   UNL     1      -0.533  -0.806   2.864  1.00  0.00     0.053 A 
ATOM    103  C   UNL     1      -1.242  -1.366   0.216  1.00  0.00     0.001 A 
ATOM    104  C   UNL     1      -0.176  -2.028   2.287  1.00  0.00     0.021 A 
ATOM    105  Cl  UNL     1      -0.118  -0.539   4.521  1.00  0.00    -0.083 Cl
ATOM    106  C   UNL     1      -0.519  -2.300   0.960  1.00  0.00     0.002 A 
ENDBRANCH  97 100
ENDBRANCH  80  96
ENDBRANCH  75  77
ENDBRANCH  74  75
ENDBRANCH  73  74
ENDBRANCH   1  73
TORSDOF 19
