REMARK SMILES Cc1nc2scc(-c3cccs3)c2c(=O)n1CC(=O)OCCOC(=O)c1ccc(-c2c3nc(c(-c4c(F)cc(S(=O)(=O)[O-])cc4F)c4ccc([nH]4)c(-c4c(F)cc(S(=O)(=O)[O-])cc4F)c4nc(c(-c5c(F)cc(S(=O)(=O)[O-])cc5F)c5ccc2[nH]5)C=C4)C=C3)cc1
REMARK SMILES IDX 22 1 21 2 20 3 18 4 19 5 17 6 16 7 1 8 2 9 3 10 4 11 14 12
REMARK SMILES IDX 5 13 13 14 15 15 6 16 7 17 8 18 9 19 12 20 10 21 11 22 23 23
REMARK SMILES IDX 24 24 25 25 26 26 27 27 91 28 28 29 90 30 29 31 30 32 31 33
REMARK SMILES IDX 84 34 32 35 89 36 83 37 85 38 33 39 88 40 82 41 81 42 34 44
REMARK SMILES IDX 68 45 47 46 67 47 48 48 51 49 66 50 86 51 49 52 50 53 65 55
REMARK SMILES IDX 87 56 52 57 35 58 36 59 45 60 37 61 38 62 44 63 46 64 39 65
REMARK SMILES IDX 40 66 41 67 42 68 43 69 69 70 70 71 79 72 71 73 72 74 78 75
REMARK SMILES IDX 80 76 73 77 74 78 75 79 76 80 77 81 53 82 54 83 63 84 55 85
REMARK SMILES IDX 56 86 62 87 64 88 57 89 58 90 59 91 60 92 61 93
REMARK H PARENT 85 43 51 54
REMARK Flexibility Score: inf
ROOT
ATOM      1  C   UNL     1      -1.777   5.399  -1.409  1.00  0.00     0.275 C 
ENDROOT
BRANCH   1   2
ATOM      2  C   UNL     1      -1.389   4.082  -2.089  1.00  0.00     0.274 C 
BRANCH   2   3
ATOM      3  O   UNL     1      -0.589   3.218  -1.245  1.00  0.00    -0.461 OA
BRANCH   3   4
ATOM      4  C   UNL     1       0.756   3.281  -1.443  1.00  0.00     0.326 C 
ATOM      5  O   UNL     1       1.276   3.841  -2.407  1.00  0.00    -0.250 OA
BRANCH   4   6
ATOM      6  C   UNL     1       1.603   2.545  -0.398  1.00  0.00     0.249 C 
BRANCH   6   7
ATOM      7  N   UNL     1       0.955   2.003   0.805  1.00  0.00    -0.285 N 
ATOM      8  C   UNL     1       0.724  -0.230  -0.262  1.00  0.00     0.088 C 
ATOM      9  C   UNL     1       0.476   0.704   0.896  1.00  0.00     0.110 A 
ATOM     10  N   UNL     1      -0.122   0.199   1.934  1.00  0.00    -0.224 NA
ATOM     11  C   UNL     1      -0.284   1.047   2.977  1.00  0.00     0.131 A 
ATOM     12  C   UNL     1       1.019   2.795   1.961  1.00  0.00     0.263 A 
ATOM     13  S   UNL     1      -1.102   0.576   4.400  1.00  0.00    -0.123 S 
ATOM     14  C   UNL     1       0.195   2.332   3.058  1.00  0.00     0.085 A 
ATOM     15  O   UNL     1       1.830   3.712   2.094  1.00  0.00    -0.268 OA
ATOM     16  C   UNL     1      -0.852   2.105   5.126  1.00  0.00     0.077 A 
ATOM     17  C   UNL     1      -0.199   2.968   4.273  1.00  0.00     0.017 A 
BRANCH  17  18
ATOM     18  C   UNL     1      -0.099   4.416   4.593  1.00  0.00     0.036 A 
ATOM     19  C   UNL     1      -0.710   5.361   3.807  1.00  0.00     0.020 A 
ATOM     20  S   UNL     1       0.590   5.082   5.999  1.00  0.00    -0.144 S 
ATOM     21  C   UNL     1      -0.615   6.650   4.380  1.00  0.00     0.012 A 
ATOM     22  C   UNL     1       0.136   6.668   5.534  1.00  0.00     0.065 A 
ENDBRANCH  17  18
ENDBRANCH   6   7
ENDBRANCH   4   6
ENDBRANCH   3   4
ENDBRANCH   2   3
ENDBRANCH   1   2
BRANCH   1  23
ATOM     23  O   UNL     1      -0.664   6.259  -1.133  1.00  0.00    -0.458 OA
BRANCH  23  24
ATOM     24  C   UNL     1      -0.077   5.964   0.049  1.00  0.00     0.338 C 
ATOM     25  O   UNL     1      -0.206   4.919   0.659  1.00  0.00    -0.246 OA
BRANCH  24  26
ATOM     26  C   UNL     1       0.542   7.135   0.667  1.00  0.00     0.060 A 
ATOM     27  C   UNL     1       1.548   6.912   1.608  1.00  0.00     0.016 A 
ATOM     28  C   UNL     1      -0.127   8.360   0.579  1.00  0.00     0.016 A 
ATOM     29  C   UNL     1       1.775   7.871   2.573  1.00  0.00     0.010 A 
ATOM     30  C   UNL     1       0.102   9.319   1.547  1.00  0.00     0.010 A 
ATOM     31  C   UNL     1       0.994   9.036   2.580  1.00  0.00    -0.014 A 
BRANCH  31  32
ATOM     32  C   UNL     1       1.278  10.027   3.612  1.00  0.00     0.031 A 
ATOM     33  C   UNL     1       2.660  10.554   3.468  1.00  0.00     0.074 A 
ATOM     34  C   UNL     1       0.365  10.478   4.499  1.00  0.00     0.049 A 
ATOM     35  N   UNL     1       3.640  10.497   4.305  1.00  0.00    -0.248 NA
ATOM     36  C   UNL     1       3.048  11.021   2.121  1.00  0.00     0.031 C 
ATOM     37  C   UNL     1      -1.072  10.188   4.518  1.00  0.00     0.029 A 
ATOM     38  N   UNL     1       0.497  11.371   5.524  1.00  0.00    -0.354 N 
ATOM     39  C   UNL     1       4.694  11.148   3.669  1.00  0.00     0.074 A 
ATOM     40  C   UNL     1       4.353  11.233   2.277  1.00  0.00     0.031 C 
ATOM     41  C   UNL     1      -1.694  11.014   5.381  1.00  0.00     0.029 A 
ATOM     42  C   UNL     1      -0.713  11.888   5.985  1.00  0.00     0.049 A 
ATOM     43  H   UNL     1       1.369  11.627   5.904  1.00  0.00     0.167 HD
ATOM     44  C   UNL     1       5.604  11.860   4.384  1.00  0.00     0.037 A 
ATOM     45  C   UNL     1      -0.917  13.029   6.695  1.00  0.00     0.037 A 
ATOM     46  C   UNL     1       5.659  11.406   5.748  1.00  0.00     0.049 A 
ATOM     47  C   UNL     1       0.379  13.381   7.327  1.00  0.00     0.074 A 
ATOM     48  C   UNL     1       5.960  10.205   6.358  1.00  0.00     0.029 A 
ATOM     49  N   UNL     1       5.002  12.162   6.686  1.00  0.00    -0.354 N 
ATOM     50  N   UNL     1       0.959  12.658   8.248  1.00  0.00    -0.248 NA
ATOM     51  C   UNL     1       1.260  14.285   6.602  1.00  0.00     0.031 C 
ATOM     52  C   UNL     1       5.098  10.133   7.488  1.00  0.00     0.029 A 
ATOM     53  C   UNL     1       4.360  11.318   7.551  1.00  0.00     0.049 A 
ATOM     54  H   UNL     1       4.994  13.146   6.729  1.00  0.00     0.167 HD
ATOM     55  C   UNL     1       2.308  12.687   7.923  1.00  0.00     0.074 A 
ATOM     56  C   UNL     1       2.442  13.778   6.961  1.00  0.00     0.031 C 
ATOM     57  C   UNL     1       3.132  11.648   8.246  1.00  0.00     0.037 A 
BRANCH  44  58
ATOM     58  C   UNL     1       6.087  13.226   3.951  1.00  0.00     0.058 A 
ATOM     59  C   UNL     1       7.110  13.856   4.687  1.00  0.00     0.135 A 
ATOM     60  C   UNL     1       5.401  14.058   3.033  1.00  0.00     0.135 A 
ATOM     61  F   UNL     1       7.813  13.171   5.602  1.00  0.00    -0.206 F 
ATOM     62  C   UNL     1       7.384  15.219   4.566  1.00  0.00     0.059 A 
ATOM     63  C   UNL     1       5.698  15.401   2.855  1.00  0.00     0.059 A 
ATOM     64  F   UNL     1       4.341  13.645   2.330  1.00  0.00    -0.206 F 
ATOM     65  C   UNL     1       6.663  15.984   3.653  1.00  0.00     0.060 A 
BRANCH  65  66
ATOM     66  S   UNL     1       6.949  17.757   3.552  1.00  0.00     0.124 S 
ATOM     67  O   UNL     1       6.448  18.205   4.846  1.00  0.00    -0.237 OA
ATOM     68  O   UNL     1       8.395  17.816   3.367  1.00  0.00    -0.237 OA
ATOM     69  O   UNL     1       6.158  18.159   2.393  1.00  0.00    -0.744 OA
ENDBRANCH  65  66
ENDBRANCH  44  58
BRANCH  45  70
ATOM     70  C   UNL     1      -2.043  14.000   6.513  1.00  0.00     0.058 A 
ATOM     71  C   UNL     1      -2.250  15.072   7.402  1.00  0.00     0.135 A 
ATOM     72  C   UNL     1      -2.808  14.044   5.325  1.00  0.00     0.135 A 
ATOM     73  F   UNL     1      -1.552  15.144   8.545  1.00  0.00    -0.206 F 
ATOM     74  C   UNL     1      -3.129  16.130   7.114  1.00  0.00     0.059 A 
ATOM     75  C   UNL     1      -3.704  15.068   5.030  1.00  0.00     0.059 A 
ATOM     76  F   UNL     1      -2.650  13.137   4.352  1.00  0.00    -0.206 F 
ATOM     77  C   UNL     1      -3.841  16.125   5.914  1.00  0.00     0.060 A 
BRANCH  77  78
ATOM     78  S   UNL     1      -4.852  17.550   5.450  1.00  0.00     0.124 S 
ATOM     79  O   UNL     1      -5.906  17.517   6.458  1.00  0.00    -0.237 OA
ATOM     80  O   UNL     1      -3.899  18.649   5.557  1.00  0.00    -0.237 OA
ATOM     81  O   UNL     1      -5.283  17.234   4.090  1.00  0.00    -0.744 OA
ENDBRANCH  77  78
ENDBRANCH  45  70
BRANCH  57  82
ATOM     82  C   UNL     1       2.660  10.641   9.262  1.00  0.00     0.058 A 
ATOM     83  C   UNL     1       1.605   9.732   9.067  1.00  0.00     0.135 A 
ATOM     84  C   UNL     1       3.451  10.470  10.410  1.00  0.00     0.135 A 
ATOM     85  F   UNL     1       0.857   9.771   7.954  1.00  0.00    -0.206 F 
ATOM     86  C   UNL     1       1.341   8.709   9.983  1.00  0.00     0.059 A 
ATOM     87  C   UNL     1       3.227   9.440  11.316  1.00  0.00     0.059 A 
ATOM     88  F   UNL     1       4.507  11.273  10.623  1.00  0.00    -0.206 F 
ATOM     89  C   UNL     1       2.166   8.565  11.101  1.00  0.00     0.060 A 
BRANCH  89  90
ATOM     90  S   UNL     1       1.892   7.186  12.235  1.00  0.00     0.124 S 
ATOM     91  O   UNL     1       0.623   7.546  12.857  1.00  0.00    -0.237 OA
ATOM     92  O   UNL     1       1.855   6.037  11.334  1.00  0.00    -0.237 OA
ATOM     93  O   UNL     1       3.054   7.234  13.120  1.00  0.00    -0.744 OA
ENDBRANCH  89  90
ENDBRANCH  57  82
ENDBRANCH  31  32
ENDBRANCH  24  26
ENDBRANCH  23  24
ENDBRANCH   1  23
TORSDOF 16
