REMARK SMILES O=C(N[C@@H](Cc1ccc(O)cc1)C(=O)N[C@@H](CO)C(=O)OCCOC(=O)c1ccc(-c2c3nc(c(-c4c(F)cc(S(=O)(=O)[O-])cc4F)c4ccc([nH]4)c(-c4c(F)cc(S(=O)(=O)[O-])cc4F)c4nc(c(-c5c(F)cc(S(=O)(=O)[O-])cc5F)c5ccc2[nH]5)C=C4)C=C3)cc1)c1ccc(F)cc1
REMARK SMILES IDX 22 1 21 2 19 3 20 4 16 5 15 6 13 7 14 8 4 10 3 11 1 12 2 13
REMARK SMILES IDX 93 15 94 16 99 17 95 18 98 19 96 20 97 21 5 22 6 23 7 24
REMARK SMILES IDX 12 25 8 26 11 27 9 28 10 29 17 31 18 32 23 34 24 35 25 36
REMARK SMILES IDX 26 37 27 38 28 39 92 40 29 41 91 42 30 43 31 44 32 45 85 46
REMARK SMILES IDX 33 47 90 48 84 49 86 50 34 51 89 52 83 53 82 54 35 56 69 57
REMARK SMILES IDX 48 58 68 59 49 60 52 61 67 62 87 63 50 64 51 65 66 67 88 68
REMARK SMILES IDX 53 69 36 70 37 71 46 72 38 73 39 74 45 75 47 76 40 77 41 78
REMARK SMILES IDX 42 79 43 80 44 81 70 82 71 83 80 84 72 85 73 86 79 87 81 88
REMARK SMILES IDX 74 89 75 90 76 91 77 92 78 93 54 94 55 95 64 96 56 97 57 98
REMARK SMILES IDX 63 99 65 100 58 101 59 102 60 103 61 104 62 105
REMARK H PARENT 15 9 3 14 10 30 18 33 86 55 52 66
REMARK Flexibility Score: inf
ROOT
ATOM      1  C   UNL     1       6.162   6.906  -0.139  1.00  0.00     0.274 C 
ENDROOT
BRANCH   1   2
ATOM      2  O   UNL     1       5.540   5.742   0.462  1.00  0.00    -0.460 OA
BRANCH   2   3
ATOM      3  C   UNL     1       4.228   5.880   0.845  1.00  0.00     0.331 C 
ATOM      4  O   UNL     1       3.613   6.941   0.783  1.00  0.00    -0.250 OA
BRANCH   3   5
ATOM      5  C   UNL     1       3.575   4.523   1.237  1.00  0.00     0.218 C 
BRANCH   5   6
ATOM      6  N   UNL     1       4.581   3.527   1.615  1.00  0.00    -0.339 N 
ATOM      7  C   UNL     1       4.965   2.332   1.109  1.00  0.00     0.243 C 
ATOM      8  O   UNL     1       6.042   1.898   1.544  1.00  0.00    -0.273 OA
ATOM      9  H   UNL     1       5.091   3.785   2.416  1.00  0.00     0.164 HD
BRANCH   7  10
ATOM     10  C   UNL     1       4.189   1.493   0.062  1.00  0.00     0.176 C 
BRANCH  10  11
ATOM     11  N   UNL     1       2.812   1.190   0.453  1.00  0.00    -0.340 N 
ATOM     12  O   UNL     1       0.970  -0.102   0.560  1.00  0.00    -0.269 OA
ATOM     13  C   UNL     1       2.192  -0.038   0.470  1.00  0.00     0.251 C 
ATOM     14  H   UNL     1       2.263   1.957   0.738  1.00  0.00     0.164 HD
BRANCH  13  15
ATOM     15  C   UNL     1       2.985  -1.288   0.366  1.00  0.00     0.040 A 
ATOM     16  C   UNL     1       4.032  -1.551   1.260  1.00  0.00     0.017 A 
ATOM     17  C   UNL     1       2.639  -2.234  -0.609  1.00  0.00     0.017 A 
ATOM     18  C   UNL     1       4.763  -2.736   1.145  1.00  0.00     0.040 A 
ATOM     19  C   UNL     1       3.369  -3.422  -0.713  1.00  0.00     0.040 A 
ATOM     20  C   UNL     1       4.425  -3.659   0.161  1.00  0.00     0.123 A 
ATOM     21  F   UNL     1       5.119  -4.800   0.066  1.00  0.00    -0.207 F 
ENDBRANCH  13  15
ENDBRANCH  10  11
BRANCH  10  22
ATOM     22  C   UNL     1       4.317   1.883  -1.419  1.00  0.00     0.070 C 
BRANCH  22  23
ATOM     23  C   UNL     1       3.507   3.066  -1.879  1.00  0.00    -0.045 A 
ATOM     24  C   UNL     1       4.102   4.325  -1.872  1.00  0.00     0.007 A 
ATOM     25  C   UNL     1       2.184   2.962  -2.316  1.00  0.00     0.007 A 
ATOM     26  C   UNL     1       3.407   5.471  -2.265  1.00  0.00     0.046 A 
ATOM     27  C   UNL     1       1.481   4.106  -2.715  1.00  0.00     0.046 A 
ATOM     28  C   UNL     1       2.095   5.352  -2.680  1.00  0.00     0.115 A 
BRANCH  28  29
ATOM     29  O   UNL     1       1.380   6.447  -3.058  1.00  0.00    -0.508 OA
ATOM     30  H   UNL     1       1.778   7.295  -3.041  1.00  0.00     0.293 HD
ENDBRANCH  28  29
ENDBRANCH  22  23
ENDBRANCH  10  22
ENDBRANCH   7  10
ENDBRANCH   5   6
BRANCH   5  31
ATOM     31  C   UNL     1       2.529   4.742   2.334  1.00  0.00     0.193 C 
BRANCH  31  32
ATOM     32  O   UNL     1       3.114   5.258   3.527  1.00  0.00    -0.394 OA
ATOM     33  H   UNL     1       3.765   4.625   3.868  1.00  0.00     0.210 HD
ENDBRANCH  31  32
ENDBRANCH   5  31
ENDBRANCH   3   5
ENDBRANCH   2   3
ENDBRANCH   1   2
BRANCH   1  34
ATOM     34  C   UNL     1       7.383   6.503  -0.991  1.00  0.00     0.275 C 
BRANCH  34  35
ATOM     35  O   UNL     1       6.961   5.812  -2.188  1.00  0.00    -0.458 OA
BRANCH  35  36
ATOM     36  C   UNL     1       7.937   5.168  -2.894  1.00  0.00     0.338 C 
ATOM     37  O   UNL     1       9.134   5.226  -2.653  1.00  0.00    -0.246 OA
BRANCH  36  38
ATOM     38  C   UNL     1       7.333   4.271  -3.930  1.00  0.00     0.060 A 
ATOM     39  C   UNL     1       5.991   4.377  -4.268  1.00  0.00     0.016 A 
ATOM     40  C   UNL     1       8.066   3.239  -4.516  1.00  0.00     0.016 A 
ATOM     41  C   UNL     1       5.339   3.358  -4.973  1.00  0.00     0.010 A 
ATOM     42  C   UNL     1       7.435   2.318  -5.383  1.00  0.00     0.010 A 
ATOM     43  C   UNL     1       6.040   2.326  -5.599  1.00  0.00    -0.014 A 
BRANCH  43  44
ATOM     44  C   UNL     1       5.364   1.282  -6.460  1.00  0.00     0.031 A 
ATOM     45  C   UNL     1       5.857  -0.151  -6.432  1.00  0.00     0.074 A 
ATOM     46  C   UNL     1       4.326   1.539  -7.294  1.00  0.00     0.049 A 
ATOM     47  N   UNL     1       5.823  -1.064  -7.369  1.00  0.00    -0.248 NA
ATOM     48  C   UNL     1       6.483  -0.606  -5.180  1.00  0.00     0.031 C 
ATOM     49  C   UNL     1       3.567   2.787  -7.399  1.00  0.00     0.029 A 
ATOM     50  N   UNL     1       3.730   0.733  -8.248  1.00  0.00    -0.354 N 
ATOM     51  C   UNL     1       6.529  -2.155  -6.869  1.00  0.00     0.074 A 
ATOM     52  C   UNL     1       6.935  -1.806  -5.523  1.00  0.00     0.031 C 
ATOM     53  C   UNL     1       2.595   2.651  -8.310  1.00  0.00     0.029 A 
ATOM     54  C   UNL     1       2.765   1.378  -8.991  1.00  0.00     0.049 A 
ATOM     55  H   UNL     1       3.973  -0.212  -8.383  1.00  0.00     0.167 HD
ATOM     56  C   UNL     1       6.832  -3.322  -7.491  1.00  0.00     0.037 A 
ATOM     57  C   UNL     1       2.155   1.063 -10.152  1.00  0.00     0.037 A 
ATOM     58  C   UNL     1       6.329  -3.702  -8.788  1.00  0.00     0.049 A 
ATOM     59  C   UNL     1       2.551  -0.187 -10.883  1.00  0.00     0.074 A 
ATOM     60  C   UNL     1       6.606  -4.840  -9.527  1.00  0.00     0.029 A 
ATOM     61  N   UNL     1       5.405  -2.972  -9.520  1.00  0.00    -0.354 N 
ATOM     62  N   UNL     1       3.405  -1.113 -10.523  1.00  0.00    -0.248 NA
ATOM     63  C   UNL     1       1.939  -0.409 -12.201  1.00  0.00     0.031 C 
ATOM     64  C   UNL     1       5.864  -4.789 -10.713  1.00  0.00     0.029 A 
ATOM     65  C   UNL     1       5.096  -3.637 -10.695  1.00  0.00     0.049 A 
ATOM     66  H   UNL     1       5.024  -2.107  -9.244  1.00  0.00     0.167 HD
ATOM     67  C   UNL     1       3.422  -2.035 -11.563  1.00  0.00     0.074 A 
ATOM     68  C   UNL     1       2.490  -1.560 -12.564  1.00  0.00     0.031 C 
ATOM     69  C   UNL     1       4.152  -3.171 -11.677  1.00  0.00     0.037 A 
BRANCH  56  70
ATOM     70  C   UNL     1       7.814  -4.244  -6.817  1.00  0.00     0.058 A 
ATOM     71  C   UNL     1       7.482  -5.024  -5.701  1.00  0.00     0.135 A 
ATOM     72  C   UNL     1       9.117  -4.363  -7.333  1.00  0.00     0.135 A 
ATOM     73  F   UNL     1       6.257  -4.941  -5.159  1.00  0.00    -0.206 F 
ATOM     74  C   UNL     1       8.417  -5.864  -5.098  1.00  0.00     0.059 A 
ATOM     75  C   UNL     1      10.058  -5.214  -6.764  1.00  0.00     0.059 A 
ATOM     76  F   UNL     1       9.487  -3.644  -8.406  1.00  0.00    -0.206 F 
ATOM     77  C   UNL     1       9.705  -5.946  -5.633  1.00  0.00     0.060 A 
BRANCH  77  78
ATOM     78  S   UNL     1      10.918  -7.019  -4.833  1.00  0.00     0.124 S 
ATOM     79  O   UNL     1      11.285  -6.220  -3.667  1.00  0.00    -0.237 OA
ATOM     80  O   UNL     1      10.142  -8.223  -4.558  1.00  0.00    -0.237 OA
ATOM     81  O   UNL     1      11.960  -7.166  -5.844  1.00  0.00    -0.744 OA
ENDBRANCH  77  78
ENDBRANCH  56  70
BRANCH  57  82
ATOM     82  C   UNL     1       1.187   2.019 -10.761  1.00  0.00     0.058 A 
ATOM     83  C   UNL     1      -0.180   1.718 -10.831  1.00  0.00     0.135 A 
ATOM     84  C   UNL     1       1.607   3.265 -11.257  1.00  0.00     0.135 A 
ATOM     85  F   UNL     1      -0.629   0.531 -10.395  1.00  0.00    -0.206 F 
ATOM     86  C   UNL     1      -1.099   2.621 -11.358  1.00  0.00     0.059 A 
ATOM     87  C   UNL     1       0.705   4.197 -11.758  1.00  0.00     0.059 A 
ATOM     88  F   UNL     1       2.905   3.604 -11.213  1.00  0.00    -0.206 F 
ATOM     89  C   UNL     1      -0.647   3.863 -11.810  1.00  0.00     0.060 A 
BRANCH  89  90
ATOM     90  S   UNL     1      -1.853   5.067 -12.410  1.00  0.00     0.124 S 
ATOM     91  O   UNL     1      -2.140   4.554 -13.744  1.00  0.00    -0.237 OA
ATOM     92  O   UNL     1      -2.929   4.943 -11.431  1.00  0.00    -0.237 OA
ATOM     93  O   UNL     1      -1.117   6.327 -12.362  1.00  0.00    -0.744 OA
ENDBRANCH  89  90
ENDBRANCH  57  82
BRANCH  69  94
ATOM     94  C   UNL     1       3.931  -4.017 -12.897  1.00  0.00     0.058 A 
ATOM     95  C   UNL     1       4.487  -3.679 -14.139  1.00  0.00     0.135 A 
ATOM     96  C   UNL     1       3.198  -5.210 -12.804  1.00  0.00     0.135 A 
ATOM     97  F   UNL     1       5.185  -2.542 -14.281  1.00  0.00    -0.206 F 
ATOM     98  C   UNL     1       4.317  -4.495 -15.254  1.00  0.00     0.059 A 
ATOM     99  C   UNL     1       3.031  -6.050 -13.901  1.00  0.00     0.059 A 
ATOM    100  F   UNL     1       2.648  -5.576 -11.636  1.00  0.00    -0.206 F 
ATOM    101  C   UNL     1       3.590  -5.681 -15.123  1.00  0.00     0.060 A 
BRANCH 101 102
ATOM    102  S   UNL     1       3.421  -6.758 -16.563  1.00  0.00     0.124 S 
ATOM    103  O   UNL     1       2.423  -6.042 -17.350  1.00  0.00    -0.237 OA
ATOM    104  O   UNL     1       4.774  -6.766 -17.110  1.00  0.00    -0.237 OA
ATOM    105  O   UNL     1       2.977  -8.024 -15.988  1.00  0.00    -0.744 OA
ENDBRANCH 101 102
ENDBRANCH  69  94
ENDBRANCH  43  44
ENDBRANCH  36  38
ENDBRANCH  35  36
ENDBRANCH  34  35
ENDBRANCH   1  34
TORSDOF 23
