REMARK SMILES O=C(C[NH2+]CC[NH+]1CCCCCC1)OCCOC(=O)c1ccc(-c2c3nc(c(-c4c(F)cc(S(=O)(=O)[O-])cc4F)c4ccc([nH]4)c(-c4c(F)cc(S(=O)(=O)[O-])cc4F)c4nc(c(-c5c(F)cc(S(=O)(=O)[O-])cc5F)c5ccc2[nH]5)C=C4)C=C3)cc1
REMARK SMILES IDX 1 1 2 2 3 3 4 4 5 7 6 8 7 9 8 11 9 12 10 13 11 14 13 16
REMARK SMILES IDX 12 17 14 19 15 20 16 21 17 22 18 23 19 24 20 25 21 26 85 27
REMARK SMILES IDX 22 28 84 29 23 30 24 31 25 32 78 33 26 34 83 35 77 36 79 37
REMARK SMILES IDX 27 38 82 39 76 40 75 41 28 43 62 44 41 45 61 46 42 47 45 48
REMARK SMILES IDX 60 49 80 50 43 51 44 52 59 54 81 55 46 56 29 57 30 58 39 59
REMARK SMILES IDX 31 60 32 61 38 62 40 63 33 64 34 65 35 66 36 67 37 68 63 69
REMARK SMILES IDX 64 70 73 71 65 72 66 73 72 74 74 75 67 76 68 77 69 78 70 79
REMARK SMILES IDX 71 80 47 81 48 82 57 83 49 84 50 85 56 86 58 87 51 88 52 89
REMARK SMILES IDX 53 90 54 91 55 92
REMARK H PARENT 4 5 4 6 7 10 79 42 45 53
REMARK Flexibility Score: 80.00
ROOT
ATOM      1  O   UNL     1       1.818  -0.534   1.511  1.00  0.00    -0.245 OA
ATOM      2  C   UNL     1       2.722  -0.267   0.718  1.00  0.00     0.361 C 
ENDROOT
BRANCH   2   3
ATOM      3  C   UNL     1       3.187   1.169   0.522  1.00  0.00     0.385 C 
BRANCH   3   4
ATOM      4  N   UNL     1       4.528   1.418   1.068  1.00  0.00    -0.332 N 
ATOM      5  H   UNL     1       5.180   0.755   0.650  1.00  0.00     0.346 HD
ATOM      6  H   UNL     1       4.476   1.306   2.081  1.00  0.00     0.346 HD
BRANCH   4   7
ATOM      7  C   UNL     1       5.005   2.786   0.795  1.00  0.00     0.323 C 
BRANCH   7   8
ATOM      8  C   UNL     1       4.021   3.991   0.796  1.00  0.00     0.324 C 
BRANCH   8   9
ATOM      9  N   UNL     1       3.364   4.457   2.022  1.00  0.00    -0.330 N 
ATOM     10  H   UNL     1       2.388   4.361   1.743  1.00  0.00     0.348 HD
BRANCH   9  11
ATOM     11  C   UNL     1       3.278   3.602   3.188  1.00  0.00     0.262 C 
BRANCH  11  12
ATOM     12  C   UNL     1       1.829   3.511   3.667  1.00  0.00     0.061 C 
BRANCH  12  13
ATOM     13  C   UNL     1       1.345   4.718   4.458  1.00  0.00     0.006 C 
BRANCH  13  14
ATOM     14  C   UNL     1       1.482   6.056   3.735  1.00  0.00     0.006 CG0
ATOM     15  G   UNL     1       2.939   6.473   3.536  1.00  0.00     0.000 G0
ENDBRANCH  13  14
ENDBRANCH  12  13
ENDBRANCH  11  12
ENDBRANCH   9  11
BRANCH   9  16
ATOM     16  C   UNL     1       3.626   5.869   2.305  1.00  0.00     0.262 C 
BRANCH  16  17
ATOM     17  C   UNL     1       2.939   6.473   3.536  1.00  0.00     0.061 CG0
ATOM     18  G   UNL     1       1.482   6.056   3.735  1.00  0.00     0.000 G0
ENDBRANCH  16  17
ENDBRANCH   9  16
ENDBRANCH   8   9
ENDBRANCH   7   8
ENDBRANCH   4   7
ENDBRANCH   3   4
ENDBRANCH   2   3
BRANCH   2  19
ATOM     19  O   UNL     1       3.278  -1.251  -0.027  1.00  0.00    -0.458 OA
BRANCH  19  20
ATOM     20  C   UNL     1       4.544  -1.156  -0.710  1.00  0.00     0.274 C 
BRANCH  20  21
ATOM     21  C   UNL     1       4.375  -1.026  -2.222  1.00  0.00     0.275 C 
BRANCH  21  22
ATOM     22  O   UNL     1       3.884   0.277  -2.583  1.00  0.00    -0.458 OA
BRANCH  22  23
ATOM     23  C   UNL     1       2.556   0.356  -2.861  1.00  0.00     0.338 C 
ATOM     24  O   UNL     1       1.768  -0.569  -2.890  1.00  0.00    -0.246 OA
BRANCH  23  25
ATOM     25  C   UNL     1       2.156   1.784  -2.962  1.00  0.00     0.060 A 
ATOM     26  C   UNL     1       0.896   2.148  -2.468  1.00  0.00     0.016 A 
ATOM     27  C   UNL     1       3.006   2.760  -3.492  1.00  0.00     0.016 A 
ATOM     28  C   UNL     1       0.478   3.481  -2.521  1.00  0.00     0.010 A 
ATOM     29  C   UNL     1       2.583   4.093  -3.549  1.00  0.00     0.010 A 
ATOM     30  C   UNL     1       1.309   4.460  -3.081  1.00  0.00    -0.014 A 
BRANCH  30  31
ATOM     31  C   UNL     1       0.818   5.848  -3.273  1.00  0.00     0.031 A 
ATOM     32  C   UNL     1       0.296   6.265  -4.620  1.00  0.00     0.074 A 
ATOM     33  C   UNL     1       0.839   6.742  -2.267  1.00  0.00     0.049 A 
ATOM     34  N   UNL     1      -0.143   7.434  -5.010  1.00  0.00    -0.248 NA
ATOM     35  C   UNL     1       0.255   5.226  -5.662  1.00  0.00     0.031 C 
ATOM     36  C   UNL     1       1.272   6.468  -0.899  1.00  0.00     0.029 A 
ATOM     37  N   UNL     1       0.502   8.075  -2.252  1.00  0.00    -0.354 N 
ATOM     38  C   UNL     1      -0.540   7.268  -6.329  1.00  0.00     0.074 A 
ATOM     39  C   UNL     1      -0.242   5.898  -6.691  1.00  0.00     0.031 C 
ATOM     40  C   UNL     1       1.219   7.610  -0.191  1.00  0.00     0.029 A 
ATOM     41  C   UNL     1       0.773   8.696  -1.056  1.00  0.00     0.049 A 
ATOM     42  H   UNL     1       0.106   8.539  -3.024  1.00  0.00     0.167 HD
ATOM     43  C   UNL     1      -1.124   8.166  -7.157  1.00  0.00     0.037 A 
ATOM     44  C   UNL     1       0.699   9.993  -0.701  1.00  0.00     0.037 A 
ATOM     45  C   UNL     1      -1.419   9.531  -6.809  1.00  0.00     0.049 A 
ATOM     46  C   UNL     1       0.168  11.005  -1.679  1.00  0.00     0.074 A 
ATOM     47  C   UNL     1      -2.056  10.494  -7.572  1.00  0.00     0.029 A 
ATOM     48  N   UNL     1      -1.084  10.133  -5.606  1.00  0.00    -0.354 N 
ATOM     49  N   UNL     1      -0.262  10.818  -2.903  1.00  0.00    -0.248 NA
ATOM     50  C   UNL     1       0.093  12.402  -1.223  1.00  0.00     0.031 C 
ATOM     51  C   UNL     1      -2.066  11.692  -6.849  1.00  0.00     0.029 A 
ATOM     52  C   UNL     1      -1.470  11.464  -5.620  1.00  0.00     0.049 A 
ATOM     53  H   UNL     1      -0.638   9.682  -4.854  1.00  0.00     0.167 HD
ATOM     54  C   UNL     1      -0.700  12.062  -3.346  1.00  0.00     0.074 A 
ATOM     55  C   UNL     1      -0.474  12.996  -2.264  1.00  0.00     0.031 C 
ATOM     56  C   UNL     1      -1.252  12.392  -4.539  1.00  0.00     0.037 A 
BRANCH  43  57
ATOM     57  C   UNL     1      -1.495   7.695  -8.532  1.00  0.00     0.058 A 
ATOM     58  C   UNL     1      -2.614   6.875  -8.743  1.00  0.00     0.135 A 
ATOM     59  C   UNL     1      -0.756   8.106  -9.652  1.00  0.00     0.135 A 
ATOM     60  F   UNL     1      -3.341   6.442  -7.701  1.00  0.00    -0.206 F 
ATOM     61  C   UNL     1      -2.982   6.467 -10.020  1.00  0.00     0.059 A 
ATOM     62  C   UNL     1      -1.117   7.725 -10.940  1.00  0.00     0.059 A 
ATOM     63  F   UNL     1       0.326   8.886  -9.499  1.00  0.00    -0.206 F 
ATOM     64  C   UNL     1      -2.227   6.898 -11.112  1.00  0.00     0.060 A 
BRANCH  64  65
ATOM     65  S   UNL     1      -2.726   6.374 -12.766  1.00  0.00     0.124 S 
ATOM     66  O   UNL     1      -2.295   4.980 -12.771  1.00  0.00    -0.237 OA
ATOM     67  O   UNL     1      -4.169   6.591 -12.741  1.00  0.00    -0.237 OA
ATOM     68  O   UNL     1      -1.977   7.267 -13.645  1.00  0.00    -0.744 OA
ENDBRANCH  64  65
ENDBRANCH  43  57
BRANCH  44  69
ATOM     69  C   UNL     1       1.169  10.424   0.642  1.00  0.00     0.058 A 
ATOM     70  C   UNL     1       0.270  10.842   1.632  1.00  0.00     0.135 A 
ATOM     71  C   UNL     1       2.540  10.454   0.944  1.00  0.00     0.135 A 
ATOM     72  F   UNL     1      -1.048  10.841   1.384  1.00  0.00    -0.206 F 
ATOM     73  C   UNL     1       0.713  11.300   2.869  1.00  0.00     0.059 A 
ATOM     74  C   UNL     1       3.006  10.890   2.179  1.00  0.00     0.059 A 
ATOM     75  F   UNL     1       3.440  10.053   0.033  1.00  0.00    -0.206 F 
ATOM     76  C   UNL     1       2.084  11.325   3.131  1.00  0.00     0.060 A 
BRANCH  76  77
ATOM     77  S   UNL     1       2.653  11.904   4.744  1.00  0.00     0.124 S 
ATOM     78  O   UNL     1       2.482  13.347   4.614  1.00  0.00    -0.237 OA
ATOM     79  O   UNL     1       1.734  11.230   5.655  1.00  0.00    -0.237 OA
ATOM     80  O   UNL     1       4.034  11.433   4.799  1.00  0.00    -0.744 OA
ENDBRANCH  76  77
ENDBRANCH  44  69
BRANCH  56  81
ATOM     81  C   UNL     1      -1.697  13.814  -4.729  1.00  0.00     0.058 A 
ATOM     82  C   UNL     1      -0.777  14.852  -4.947  1.00  0.00     0.135 A 
ATOM     83  C   UNL     1      -3.064  14.137  -4.736  1.00  0.00     0.135 A 
ATOM     84  F   UNL     1       0.541  14.598  -4.941  1.00  0.00    -0.206 F 
ATOM     85  C   UNL     1      -1.197  16.164  -5.146  1.00  0.00     0.059 A 
ATOM     86  C   UNL     1      -3.506  15.437  -4.956  1.00  0.00     0.059 A 
ATOM     87  F   UNL     1      -3.985  13.180  -4.540  1.00  0.00    -0.206 F 
ATOM     88  C   UNL     1      -2.564  16.447  -5.149  1.00  0.00     0.060 A 
BRANCH  88  89
ATOM     89  S   UNL     1      -3.101  18.146  -5.443  1.00  0.00     0.124 S 
ATOM     90  O   UNL     1      -2.844  18.763  -4.146  1.00  0.00    -0.237 OA
ATOM     91  O   UNL     1      -2.225  18.570  -6.531  1.00  0.00    -0.237 OA
ATOM     92  O   UNL     1      -4.508  17.999  -5.802  1.00  0.00    -0.744 OA
ENDBRANCH  88  89
ENDBRANCH  56  81
ENDBRANCH  30  31
ENDBRANCH  23  25
ENDBRANCH  22  23
ENDBRANCH  21  22
ENDBRANCH  20  21
ENDBRANCH  19  20
ENDBRANCH   2  19
TORSDOF 18
