REMARK SMILES Cn1cc(Cl)cc1C(=O)N[C@H]1C=C[C@H](C(=O)OCCOC(=O)c2ccc(-c3c4nc(c(-c5c(F)cc(S(=O)(=O)[O-])cc5F)c5ccc([nH]5)c(-c5c(F)cc(S(=O)(=O)[O-])cc5F)c5nc(c(-c6c(F)cc(S(=O)(=O)[O-])cc6F)c6ccc3[nH]6)C=C5)C=C4)cc2)C1
REMARK SMILES IDX 19 1 18 2 17 3 15 4 16 5 14 6 11 7 12 8 89 9 13 10 10 11
REMARK SMILES IDX 8 12 9 13 7 15 1 16 2 17 3 18 4 19 6 20 5 21 20 22 21 23
REMARK SMILES IDX 22 24 23 25 24 26 88 27 25 28 87 29 26 30 27 31 28 32 81 33
REMARK SMILES IDX 29 34 86 35 80 36 82 37 30 38 85 39 79 40 78 41 31 43 65 44
REMARK SMILES IDX 44 45 64 46 45 47 48 48 63 49 83 50 46 51 47 52 62 54 84 55
REMARK SMILES IDX 49 56 32 57 33 58 42 59 34 60 35 61 41 62 43 63 36 64 37 65
REMARK SMILES IDX 38 66 39 67 40 68 66 69 67 70 76 71 68 72 69 73 75 74 77 75
REMARK SMILES IDX 70 76 71 77 72 78 73 79 74 80 50 81 51 82 60 83 52 84 53 85
REMARK SMILES IDX 59 86 61 87 54 88 55 89 56 90 57 91 58 92
REMARK H PARENT 10 14 82 42 48 53
REMARK Flexibility Score: inf
ROOT
ATOM      1  C   UNL     1       0.707  -5.360   0.579  1.00  0.00     0.275 C 
ENDROOT
BRANCH   1   2
ATOM      2  C   UNL     1       0.227  -5.064  -0.838  1.00  0.00     0.274 C 
BRANCH   2   3
ATOM      3  O   UNL     1       1.231  -4.371  -1.602  1.00  0.00    -0.462 OA
BRANCH   3   4
ATOM      4  C   UNL     1       1.133  -3.013  -1.581  1.00  0.00     0.312 C 
ATOM      5  O   UNL     1       0.162  -2.399  -1.149  1.00  0.00    -0.252 OA
BRANCH   4   6
ATOM      6  C   UNL     1       2.401  -2.343  -2.116  1.00  0.00     0.124 C 
ATOM      7  C   UNL     1       1.818  -0.004  -1.913  1.00  0.00     0.106 C 
ATOM      8  C   UNL     1       1.883  -0.416  -3.357  1.00  0.00    -0.006 C 
ATOM      9  C   UNL     1       2.717  -1.082  -1.295  1.00  0.00     0.048 C 
ATOM     10  C   UNL     1       2.170  -1.724  -3.465  1.00  0.00    -0.014 C 
BRANCH   7  11
ATOM     11  N   UNL     1       2.321   1.318  -1.725  1.00  0.00    -0.345 N 
ATOM     12  C   UNL     1       1.980   2.372  -0.924  1.00  0.00     0.268 C 
ATOM     13  O   UNL     1       2.648   3.382  -1.185  1.00  0.00    -0.268 OA
ATOM     14  H   UNL     1       3.090   1.518  -2.306  1.00  0.00     0.164 HD
BRANCH  12  15
ATOM     15  C   UNL     1       0.948   2.436   0.119  1.00  0.00     0.108 A 
ATOM     16  C   UNL     1       0.057   0.095   0.727  1.00  0.00     0.150 C 
ATOM     17  N   UNL     1       0.148   1.532   0.811  1.00  0.00    -0.345 N 
ATOM     18  C   UNL     1      -0.624   2.188   1.752  1.00  0.00     0.106 A 
ATOM     19  C   UNL     1      -0.337   3.520   1.702  1.00  0.00     0.059 A 
ATOM     20  C   UNL     1       0.625   3.679   0.695  1.00  0.00     0.054 A 
ATOM     21  Cl  UNL     1      -0.987   4.751   2.665  1.00  0.00    -0.083 Cl
ENDBRANCH  12  15
ENDBRANCH   7  11
ENDBRANCH   4   6
ENDBRANCH   3   4
ENDBRANCH   2   3
ENDBRANCH   1   2
BRANCH   1  22
ATOM     22  O   UNL     1       0.837  -4.183   1.383  1.00  0.00    -0.458 OA
BRANCH  22  23
ATOM     23  C   UNL     1       2.082  -3.655   1.367  1.00  0.00     0.338 C 
ATOM     24  O   UNL     1       2.894  -3.718   0.460  1.00  0.00    -0.246 OA
BRANCH  23  25
ATOM     25  C   UNL     1       2.448  -3.163   2.694  1.00  0.00     0.060 A 
ATOM     26  C   UNL     1       3.611  -2.389   2.788  1.00  0.00     0.016 A 
ATOM     27  C   UNL     1       1.825  -3.707   3.824  1.00  0.00     0.016 A 
ATOM     28  C   UNL     1       4.227  -2.261   4.015  1.00  0.00     0.010 A 
ATOM     29  C   UNL     1       2.450  -3.590   5.044  1.00  0.00     0.010 A 
ATOM     30  C   UNL     1       3.671  -2.914   5.116  1.00  0.00    -0.014 A 
BRANCH  30  31
ATOM     31  C   UNL     1       4.345  -2.789   6.396  1.00  0.00     0.031 A 
ATOM     32  C   UNL     1       4.158  -1.468   7.052  1.00  0.00     0.074 A 
ATOM     33  C   UNL     1       4.906  -3.860   6.989  1.00  0.00     0.049 A 
ATOM     34  N   UNL     1       5.048  -0.663   7.532  1.00  0.00    -0.248 NA
ATOM     35  C   UNL     1       2.789  -0.918   7.063  1.00  0.00     0.031 C 
ATOM     36  C   UNL     1       4.842  -5.254   6.536  1.00  0.00     0.029 A 
ATOM     37  N   UNL     1       5.516  -3.956   8.201  1.00  0.00    -0.354 N 
ATOM     38  C   UNL     1       4.330   0.394   8.093  1.00  0.00     0.074 A 
ATOM     39  C   UNL     1       2.985   0.279   7.609  1.00  0.00     0.031 C 
ATOM     40  C   UNL     1       5.166  -6.065   7.566  1.00  0.00     0.029 A 
ATOM     41  C   UNL     1       5.547  -5.250   8.707  1.00  0.00     0.049 A 
ATOM     42  H   UNL     1       5.898  -3.183   8.674  1.00  0.00     0.167 HD
ATOM     43  C   UNL     1       4.832   1.133   9.120  1.00  0.00     0.037 A 
ATOM     44  C   UNL     1       5.750  -5.606  10.001  1.00  0.00     0.037 A 
ATOM     45  C   UNL     1       6.271   1.071   9.147  1.00  0.00     0.049 A 
ATOM     46  C   UNL     1       6.353  -4.440  10.699  1.00  0.00     0.074 A 
ATOM     47  C   UNL     1       7.266   1.375   8.236  1.00  0.00     0.029 A 
ATOM     48  N   UNL     1       6.876   0.311  10.118  1.00  0.00    -0.354 N 
ATOM     49  N   UNL     1       7.551  -3.977  10.469  1.00  0.00    -0.248 NA
ATOM     50  C   UNL     1       5.455  -3.517  11.380  1.00  0.00     0.031 C 
ATOM     51  C   UNL     1       8.286   0.405   8.457  1.00  0.00     0.029 A 
ATOM     52  C   UNL     1       7.875  -0.407   9.514  1.00  0.00     0.049 A 
ATOM     53  H   UNL     1       6.636   0.287  11.073  1.00  0.00     0.167 HD
ATOM     54  C   UNL     1       7.434  -2.599  10.592  1.00  0.00     0.074 A 
ATOM     55  C   UNL     1       6.154  -2.386  11.259  1.00  0.00     0.031 C 
ATOM     56  C   UNL     1       8.248  -1.752   9.895  1.00  0.00     0.037 A 
BRANCH  43  57
ATOM     57  C   UNL     1       3.998   1.575  10.310  1.00  0.00     0.058 A 
ATOM     58  C   UNL     1       4.610   2.344  11.323  1.00  0.00     0.135 A 
ATOM     59  C   UNL     1       2.734   1.034  10.650  1.00  0.00     0.135 A 
ATOM     60  F   UNL     1       5.798   2.932  11.113  1.00  0.00    -0.206 F 
ATOM     61  C   UNL     1       4.074   2.454  12.607  1.00  0.00     0.059 A 
ATOM     62  C   UNL     1       2.158   1.179  11.905  1.00  0.00     0.059 A 
ATOM     63  F   UNL     1       2.027   0.257   9.824  1.00  0.00    -0.206 F 
ATOM     64  C   UNL     1       2.862   1.837  12.896  1.00  0.00     0.060 A 
BRANCH  64  65
ATOM     65  S   UNL     1       2.250   1.816  14.588  1.00  0.00     0.124 S 
ATOM     66  O   UNL     1       3.193   0.900  15.219  1.00  0.00    -0.237 OA
ATOM     67  O   UNL     1       2.364   3.220  14.969  1.00  0.00    -0.237 OA
ATOM     68  O   UNL     1       0.885   1.319  14.444  1.00  0.00    -0.744 OA
ENDBRANCH  64  65
ENDBRANCH  43  57
BRANCH  44  69
ATOM     69  C   UNL     1       5.154  -6.759  10.730  1.00  0.00     0.058 A 
ATOM     70  C   UNL     1       5.649  -7.161  11.983  1.00  0.00     0.135 A 
ATOM     71  C   UNL     1       3.930  -7.341  10.335  1.00  0.00     0.135 A 
ATOM     72  F   UNL     1       6.790  -6.637  12.457  1.00  0.00    -0.206 F 
ATOM     73  C   UNL     1       4.958  -8.057  12.807  1.00  0.00     0.059 A 
ATOM     74  C   UNL     1       3.237  -8.253  11.127  1.00  0.00     0.059 A 
ATOM     75  F   UNL     1       3.316  -6.973   9.201  1.00  0.00    -0.206 F 
ATOM     76  C   UNL     1       3.744  -8.588  12.374  1.00  0.00     0.060 A 
BRANCH  76  77
ATOM     77  S   UNL     1       2.769  -9.622  13.491  1.00  0.00     0.124 S 
ATOM     78  O   UNL     1       3.577 -10.834  13.564  1.00  0.00    -0.237 OA
ATOM     79  O   UNL     1       2.723  -8.810  14.702  1.00  0.00    -0.237 OA
ATOM     80  O   UNL     1       1.493  -9.766  12.793  1.00  0.00    -0.744 OA
ENDBRANCH  76  77
ENDBRANCH  44  69
BRANCH  56  81
ATOM     81  C   UNL     1       9.491  -2.316   9.260  1.00  0.00     0.058 A 
ATOM     82  C   UNL     1       9.490  -3.292   8.248  1.00  0.00     0.135 A 
ATOM     83  C   UNL     1      10.727  -1.734   9.587  1.00  0.00     0.135 A 
ATOM     84  F   UNL     1       8.342  -3.815   7.794  1.00  0.00    -0.206 F 
ATOM     85  C   UNL     1      10.669  -3.708   7.627  1.00  0.00     0.059 A 
ATOM     86  C   UNL     1      11.910  -2.109   8.956  1.00  0.00     0.059 A 
ATOM     87  F   UNL     1      10.787  -0.748  10.497  1.00  0.00    -0.206 F 
ATOM     88  C   UNL     1      11.875  -3.109   7.987  1.00  0.00     0.060 A 
BRANCH  88  89
ATOM     89  S   UNL     1      13.386  -3.591   7.123  1.00  0.00     0.124 S 
ATOM     90  O   UNL     1      13.658  -4.906   7.692  1.00  0.00    -0.237 OA
ATOM     91  O   UNL     1      12.970  -3.579   5.723  1.00  0.00    -0.237 OA
ATOM     92  O   UNL     1      14.337  -2.543   7.488  1.00  0.00    -0.744 OA
ENDBRANCH  88  89
ENDBRANCH  56  81
ENDBRANCH  30  31
ENDBRANCH  23  25
ENDBRANCH  22  23
ENDBRANCH   1  22
TORSDOF 16
