REMARK SMILES CCn1cc(CC(=O)OCCOC(=O)c2ccc(-c3c4nc(c(-c5c(F)cc(S(=O)(=O)[O-])cc5F)c5ccc([nH]5)c(-c5c(F)cc(S(=O)(=O)[O-])cc5F)c5nc(c(-c6c(F)cc(S(=O)(=O)[O-])cc6F)c6ccc3[nH]6)C=C5)C=C4)cc2)c2ccccc21
REMARK SMILES IDX 11 1 10 2 9 3 7 4 8 5 6 6 5 7 3 8 4 9 86 10 81 11 85 12
REMARK SMILES IDX 82 13 84 14 83 15 2 16 1 17 12 18 13 19 14 20 15 21 16 22
REMARK SMILES IDX 80 23 17 24 79 25 18 26 19 27 20 28 73 29 21 30 78 31 72 32
REMARK SMILES IDX 74 33 22 34 77 35 71 36 70 37 23 39 57 40 36 41 56 42 37 43
REMARK SMILES IDX 40 44 55 45 75 46 38 47 39 48 54 50 76 51 41 52 24 53 25 54
REMARK SMILES IDX 34 55 26 56 27 57 33 58 35 59 28 60 29 61 30 62 31 63 32 64
REMARK SMILES IDX 58 65 59 66 68 67 60 68 61 69 67 70 69 71 62 72 63 73 64 74
REMARK SMILES IDX 65 75 66 76 42 77 43 78 52 79 44 80 45 81 51 82 53 83 46 84
REMARK SMILES IDX 47 85 48 86 49 87 50 88
REMARK H PARENT 74 38 40 49
REMARK Flexibility Score: inf
ROOT
ATOM      1  C   UNL     1      -0.867   3.490   7.609  1.00  0.00     0.275 C 
ENDROOT
BRANCH   1   2
ATOM      2  C   UNL     1      -1.717   3.500   6.336  1.00  0.00     0.274 C 
BRANCH   2   3
ATOM      3  O   UNL     1      -0.967   2.969   5.222  1.00  0.00    -0.462 OA
BRANCH   3   4
ATOM      4  C   UNL     1      -0.456   3.889   4.367  1.00  0.00     0.310 C 
ATOM      5  O   UNL     1      -0.602   5.101   4.497  1.00  0.00    -0.252 OA
BRANCH   4   6
ATOM      6  C   UNL     1       0.294   3.320   3.195  1.00  0.00     0.160 C 
BRANCH   6   7
ATOM      7  C   UNL     1       0.471   1.839   3.053  1.00  0.00    -0.011 A 
ATOM      8  N   UNL     1       0.563  -0.108   1.958  1.00  0.00    -0.347 N 
ATOM      9  C   UNL     1       0.039   1.153   1.936  1.00  0.00     0.091 A 
ATOM     10  C   UNL     1       1.255  -0.318   3.129  1.00  0.00     0.048 A 
ATOM     11  C   UNL     1       1.200   0.885   3.849  1.00  0.00     0.003 A 
ATOM     12  C   UNL     1       1.942  -1.449   3.609  1.00  0.00     0.027 A 
ATOM     13  C   UNL     1       1.854   0.917   5.098  1.00  0.00     0.010 A 
ATOM     14  C   UNL     1       2.614  -1.360   4.830  1.00  0.00     0.002 A 
ATOM     15  C   UNL     1       2.576  -0.187   5.568  1.00  0.00     0.001 A 
BRANCH   8  16
ATOM     16  C   UNL     1       0.435  -1.032   0.845  1.00  0.00     0.119 C 
ATOM     17  C   UNL     1       1.145  -0.528  -0.403  1.00  0.00     0.027 C 
ENDBRANCH   8  16
ENDBRANCH   6   7
ENDBRANCH   4   6
ENDBRANCH   3   4
ENDBRANCH   2   3
ENDBRANCH   1   2
BRANCH   1  18
ATOM     18  O   UNL     1       0.142   4.504   7.499  1.00  0.00    -0.458 OA
BRANCH  18  19
ATOM     19  C   UNL     1       1.429   4.087   7.445  1.00  0.00     0.338 C 
ATOM     20  O   UNL     1       1.883   3.028   7.846  1.00  0.00    -0.246 OA
BRANCH  19  21
ATOM     21  C   UNL     1       2.112   5.004   6.515  1.00  0.00     0.060 A 
ATOM     22  C   UNL     1       1.921   6.382   6.605  1.00  0.00     0.016 A 
ATOM     23  C   UNL     1       2.782   4.444   5.420  1.00  0.00     0.016 A 
ATOM     24  C   UNL     1       2.315   7.181   5.541  1.00  0.00     0.010 A 
ATOM     25  C   UNL     1       3.125   5.234   4.336  1.00  0.00     0.010 A 
ATOM     26  C   UNL     1       2.863   6.596   4.388  1.00  0.00    -0.014 A 
BRANCH  26  27
ATOM     27  C   UNL     1       3.392   7.474   3.361  1.00  0.00     0.031 A 
ATOM     28  C   UNL     1       4.707   8.052   3.712  1.00  0.00     0.074 A 
ATOM     29  C   UNL     1       2.888   7.738   2.144  1.00  0.00     0.049 A 
ATOM     30  N   UNL     1       4.931   9.238   4.166  1.00  0.00    -0.248 NA
ATOM     31  C   UNL     1       5.885   7.180   3.671  1.00  0.00     0.031 C 
ATOM     32  C   UNL     1       1.823   7.074   1.400  1.00  0.00     0.029 A 
ATOM     33  N   UNL     1       3.323   8.705   1.287  1.00  0.00    -0.354 N 
ATOM     34  C   UNL     1       6.305   9.334   4.318  1.00  0.00     0.074 A 
ATOM     35  C   UNL     1       6.829   8.003   4.130  1.00  0.00     0.031 C 
ATOM     36  C   UNL     1       1.808   7.556   0.132  1.00  0.00     0.029 A 
ATOM     37  C   UNL     1       2.754   8.660   0.028  1.00  0.00     0.049 A 
ATOM     38  H   UNL     1       3.989   9.382   1.544  1.00  0.00     0.167 HD
ATOM     39  C   UNL     1       6.925  10.540   4.427  1.00  0.00     0.037 A 
ATOM     40  C   UNL     1       3.075   9.465  -1.016  1.00  0.00     0.037 A 
ATOM     41  C   UNL     1       5.982  11.607   4.656  1.00  0.00     0.049 A 
ATOM     42  C   UNL     1       3.661  10.714  -0.453  1.00  0.00     0.074 A 
ATOM     43  C   UNL     1       5.040  11.868   5.634  1.00  0.00     0.029 A 
ATOM     44  N   UNL     1       5.649  12.418   3.596  1.00  0.00    -0.354 N 
ATOM     45  N   UNL     1       2.990  11.597   0.237  1.00  0.00    -0.248 NA
ATOM     46  C   UNL     1       5.109  10.809  -0.328  1.00  0.00     0.031 C 
ATOM     47  C   UNL     1       3.932  12.440   4.941  1.00  0.00     0.029 A 
ATOM     48  C   UNL     1       4.279  12.523   3.591  1.00  0.00     0.049 A 
ATOM     49  H   UNL     1       6.272  12.841   2.963  1.00  0.00     0.167 HD
ATOM     50  C   UNL     1       3.885  12.076   1.182  1.00  0.00     0.074 A 
ATOM     51  C   UNL     1       5.196  11.640   0.714  1.00  0.00     0.031 C 
ATOM     52  C   UNL     1       3.465  12.554   2.392  1.00  0.00     0.037 A 
BRANCH  39  53
ATOM     53  C   UNL     1       8.352  10.798   4.040  1.00  0.00     0.058 A 
ATOM     54  C   UNL     1       8.984  11.979   4.473  1.00  0.00     0.135 A 
ATOM     55  C   UNL     1       9.031  10.059   3.048  1.00  0.00     0.135 A 
ATOM     56  F   UNL     1       8.415  12.756   5.408  1.00  0.00    -0.206 F 
ATOM     57  C   UNL     1      10.175  12.431   3.909  1.00  0.00     0.059 A 
ATOM     58  C   UNL     1      10.248  10.462   2.513  1.00  0.00     0.059 A 
ATOM     59  F   UNL     1       8.495   8.968   2.484  1.00  0.00    -0.206 F 
ATOM     60  C   UNL     1      10.787  11.674   2.914  1.00  0.00     0.060 A 
BRANCH  60  61
ATOM     61  S   UNL     1      12.243  12.330   2.081  1.00  0.00     0.124 S 
ATOM     62  O   UNL     1      11.661  13.412   1.295  1.00  0.00    -0.237 OA
ATOM     63  O   UNL     1      13.082  12.735   3.205  1.00  0.00    -0.237 OA
ATOM     64  O   UNL     1      12.736  11.188   1.318  1.00  0.00    -0.744 OA
ENDBRANCH  60  61
ENDBRANCH  39  53
BRANCH  40  65
ATOM     65  C   UNL     1       3.143   9.125  -2.459  1.00  0.00     0.058 A 
ATOM     66  C   UNL     1       3.280  10.124  -3.440  1.00  0.00     0.135 A 
ATOM     67  C   UNL     1       3.355   7.800  -2.889  1.00  0.00     0.135 A 
ATOM     68  F   UNL     1       3.123  11.417  -3.116  1.00  0.00    -0.206 F 
ATOM     69  C   UNL     1       3.654   9.832  -4.756  1.00  0.00     0.059 A 
ATOM     70  C   UNL     1       3.716   7.483  -4.198  1.00  0.00     0.059 A 
ATOM     71  F   UNL     1       3.310   6.776  -2.024  1.00  0.00    -0.206 F 
ATOM     72  C   UNL     1       3.890   8.507  -5.120  1.00  0.00     0.060 A 
BRANCH  72  73
ATOM     73  S   UNL     1       4.535   8.142  -6.769  1.00  0.00     0.124 S 
ATOM     74  O   UNL     1       3.407   8.502  -7.622  1.00  0.00    -0.237 OA
ATOM     75  O   UNL     1       5.698   9.019  -6.844  1.00  0.00    -0.237 OA
ATOM     76  O   UNL     1       4.838   6.714  -6.706  1.00  0.00    -0.744 OA
ENDBRANCH  72  73
ENDBRANCH  40  65
BRANCH  52  77
ATOM     77  C   UNL     1       2.002  12.872   2.578  1.00  0.00     0.058 A 
ATOM     78  C   UNL     1       0.969  11.924   2.487  1.00  0.00     0.135 A 
ATOM     79  C   UNL     1       1.653  14.155   3.032  1.00  0.00     0.135 A 
ATOM     80  F   UNL     1       1.228  10.649   2.164  1.00  0.00    -0.206 F 
ATOM     81  C   UNL     1      -0.354  12.245   2.800  1.00  0.00     0.059 A 
ATOM     82  C   UNL     1       0.345  14.489   3.380  1.00  0.00     0.059 A 
ATOM     83  F   UNL     1       2.602  15.093   3.197  1.00  0.00    -0.206 F 
ATOM     84  C   UNL     1      -0.656  13.529   3.253  1.00  0.00     0.060 A 
BRANCH  84  85
ATOM     85  S   UNL     1      -2.349  13.907   3.761  1.00  0.00     0.124 S 
ATOM     86  O   UNL     1      -3.048  13.966   2.482  1.00  0.00    -0.237 OA
ATOM     87  O   UNL     1      -2.686  12.772   4.616  1.00  0.00    -0.237 OA
ATOM     88  O   UNL     1      -2.220  15.183   4.460  1.00  0.00    -0.744 OA
ENDBRANCH  84  85
ENDBRANCH  52  77
ENDBRANCH  26  27
ENDBRANCH  19  21
ENDBRANCH  18  19
ENDBRANCH   1  18
TORSDOF 16
