REMARK SMILES C[C@H]1CC[C@@]1(C(=O)OCCOC(=O)c1ccc(-c2c3nc(c(-c4c(F)cc(S(=O)(=O)[O-])cc4F)c4ccc([nH]4)c(-c4c(F)cc(S(=O)(=O)[O-])cc4F)c4nc(c(-c5c(F)cc(S(=O)(=O)[O-])cc5F)c5ccc2[nH]5)C=C4)C=C3)cc1)c1cc(F)cc(F)c1
REMARK SMILES IDX 10 1 9 2 8 3 6 4 7 5 5 6 1 7 2 8 3 9 4 10 80 11 81 12 87 13
REMARK SMILES IDX 82 14 85 15 83 16 84 17 86 18 11 19 12 20 13 21 14 22 15 23
REMARK SMILES IDX 79 24 16 25 78 26 17 27 18 28 19 29 72 30 20 31 77 32 71 33
REMARK SMILES IDX 73 34 21 35 76 36 70 37 69 38 22 40 56 41 35 42 55 43 36 44
REMARK SMILES IDX 39 45 54 46 74 47 37 48 38 49 53 51 75 52 40 53 23 54 24 55
REMARK SMILES IDX 33 56 25 57 26 58 32 59 34 60 27 61 28 62 29 63 30 64 31 65
REMARK SMILES IDX 57 66 58 67 67 68 59 69 60 70 66 71 68 72 61 73 62 74 63 75
REMARK SMILES IDX 64 76 65 77 41 78 42 79 51 80 43 81 44 82 50 83 52 84 45 85
REMARK SMILES IDX 46 86 47 87 48 88 49 89
REMARK H PARENT 73 39 39 50
REMARK Flexibility Score: inf
ROOT
ATOM      1  C   UNL     1       2.016   3.603   3.148  1.00  0.00     0.275 C 
ENDROOT
BRANCH   1   2
ATOM      2  C   UNL     1       2.984   2.535   2.620  1.00  0.00     0.274 C 
BRANCH   2   3
ATOM      3  O   UNL     1       2.590   2.098   1.298  1.00  0.00    -0.461 OA
BRANCH   3   4
ATOM      4  C   UNL     1       1.647   1.101   1.277  1.00  0.00     0.316 C 
ATOM      5  O   UNL     1       1.407   0.431   2.283  1.00  0.00    -0.251 OA
BRANCH   4   6
ATOM      6  C   UNL     1       0.926   0.883  -0.162  1.00  0.00     0.096 C 
ATOM      7  C   UNL     1      -1.490  -0.360  -0.823  1.00  0.00     0.009 C 
ATOM      8  C   UNL     1      -0.194  -0.280  -0.033  1.00  0.00     0.008 C 
ATOM      9  C   UNL     1       0.895  -1.285  -0.474  1.00  0.00     0.006 C 
ATOM     10  C   UNL     1       1.698  -0.126  -1.088  1.00  0.00     0.024 C 
BRANCH   6  11
ATOM     11  C   UNL     1       0.484   2.308  -0.906  1.00  0.00    -0.025 A 
ATOM     12  C   UNL     1      -0.260   2.309  -2.111  1.00  0.00     0.044 A 
ATOM     13  C   UNL     1       0.833   3.606  -0.472  1.00  0.00     0.044 A 
ATOM     14  C   UNL     1      -0.649   3.478  -2.777  1.00  0.00     0.126 A 
ATOM     15  C   UNL     1       0.470   4.773  -1.159  1.00  0.00     0.126 A 
ATOM     16  F   UNL     1      -1.369   3.381  -3.903  1.00  0.00    -0.207 F 
ATOM     17  C   UNL     1      -0.287   4.723  -2.309  1.00  0.00     0.078 A 
ATOM     18  F   UNL     1       0.889   5.958  -0.696  1.00  0.00    -0.207 F 
ENDBRANCH   6  11
ENDBRANCH   4   6
ENDBRANCH   3   4
ENDBRANCH   2   3
ENDBRANCH   1   2
BRANCH   1  19
ATOM     19  O   UNL     1       0.689   3.053   3.220  1.00  0.00    -0.458 OA
BRANCH  19  20
ATOM     20  C   UNL     1      -0.331   3.940   3.202  1.00  0.00     0.338 C 
ATOM     21  O   UNL     1      -0.229   5.159   3.177  1.00  0.00    -0.246 OA
BRANCH  20  22
ATOM     22  C   UNL     1      -1.621   3.214   3.260  1.00  0.00     0.060 A 
ATOM     23  C   UNL     1      -1.818   2.029   2.543  1.00  0.00     0.016 A 
ATOM     24  C   UNL     1      -2.667   3.741   4.018  1.00  0.00     0.016 A 
ATOM     25  C   UNL     1      -3.054   1.377   2.571  1.00  0.00     0.010 A 
ATOM     26  C   UNL     1      -3.890   3.063   4.085  1.00  0.00     0.010 A 
ATOM     27  C   UNL     1      -4.102   1.883   3.350  1.00  0.00    -0.014 A 
BRANCH  27  28
ATOM     28  C   UNL     1      -5.437   1.222   3.366  1.00  0.00     0.031 A 
ATOM     29  C   UNL     1      -6.631   1.946   2.803  1.00  0.00     0.074 A 
ATOM     30  C   UNL     1      -5.593  -0.007   3.896  1.00  0.00     0.049 A 
ATOM     31  N   UNL     1      -7.900   1.640   2.881  1.00  0.00    -0.248 NA
ATOM     32  C   UNL     1      -6.356   3.187   2.061  1.00  0.00     0.031 C 
ATOM     33  C   UNL     1      -4.520  -0.840   4.439  1.00  0.00     0.029 A 
ATOM     34  N   UNL     1      -6.725  -0.766   4.074  1.00  0.00    -0.354 N 
ATOM     35  C   UNL     1      -8.579   2.671   2.241  1.00  0.00     0.074 A 
ATOM     36  C   UNL     1      -7.580   3.613   1.782  1.00  0.00     0.031 C 
ATOM     37  C   UNL     1      -5.043  -1.995   4.885  1.00  0.00     0.029 A 
ATOM     38  C   UNL     1      -6.493  -1.961   4.715  1.00  0.00     0.049 A 
ATOM     39  H   UNL     1      -7.618  -0.481   3.773  1.00  0.00     0.167 HD
ATOM     40  C   UNL     1      -9.913   2.821   2.057  1.00  0.00     0.037 A 
ATOM     41  C   UNL     1      -7.351  -2.906   5.149  1.00  0.00     0.037 A 
ATOM     42  C   UNL     1     -10.903   1.865   2.480  1.00  0.00     0.049 A 
ATOM     43  C   UNL     1      -8.830  -2.712   4.948  1.00  0.00     0.074 A 
ATOM     44  C   UNL     1     -12.279   1.925   2.332  1.00  0.00     0.029 A 
ATOM     45  N   UNL     1     -10.624   0.668   3.123  1.00  0.00    -0.354 N 
ATOM     46  N   UNL     1      -9.460  -1.710   4.383  1.00  0.00    -0.248 NA
ATOM     47  C   UNL     1      -9.715  -3.769   5.456  1.00  0.00     0.031 C 
ATOM     48  C   UNL     1     -12.833   0.776   2.908  1.00  0.00     0.029 A 
ATOM     49  C   UNL     1     -11.800  -0.016   3.383  1.00  0.00     0.049 A 
ATOM     50  H   UNL     1      -9.722   0.352   3.360  1.00  0.00     0.167 HD
ATOM     51  C   UNL     1     -10.813  -2.022   4.457  1.00  0.00     0.074 A 
ATOM     52  C   UNL     1     -10.910  -3.312   5.107  1.00  0.00     0.031 C 
ATOM     53  C   UNL     1     -11.879  -1.302   4.027  1.00  0.00     0.037 A 
BRANCH  40  54
ATOM     54  C   UNL     1     -10.381   4.085   1.392  1.00  0.00     0.058 A 
ATOM     55  C   UNL     1     -10.226   4.300   0.014  1.00  0.00     0.135 A 
ATOM     56  C   UNL     1     -11.010   5.089   2.146  1.00  0.00     0.135 A 
ATOM     57  F   UNL     1      -9.615   3.380  -0.749  1.00  0.00    -0.206 F 
ATOM     58  C   UNL     1     -10.653   5.479  -0.589  1.00  0.00     0.059 A 
ATOM     59  C   UNL     1     -11.465   6.266   1.560  1.00  0.00     0.059 A 
ATOM     60  F   UNL     1     -11.182   4.934   3.469  1.00  0.00    -0.206 F 
ATOM     61  C   UNL     1     -11.267   6.459   0.193  1.00  0.00     0.060 A 
BRANCH  61  62
ATOM     62  S   UNL     1     -11.811   7.988  -0.598  1.00  0.00     0.124 S 
ATOM     63  O   UNL     1     -10.546   8.698  -0.756  1.00  0.00    -0.237 OA
ATOM     64  O   UNL     1     -12.424   7.504  -1.831  1.00  0.00    -0.237 OA
ATOM     65  O   UNL     1     -12.736   8.561   0.374  1.00  0.00    -0.744 OA
ENDBRANCH  61  62
ENDBRANCH  40  54
BRANCH  41  66
ATOM     66  C   UNL     1      -6.832  -4.114   5.844  1.00  0.00     0.058 A 
ATOM     67  C   UNL     1      -6.853  -5.370   5.221  1.00  0.00     0.135 A 
ATOM     68  C   UNL     1      -6.291  -4.032   7.136  1.00  0.00     0.135 A 
ATOM     69  F   UNL     1      -7.375  -5.501   3.992  1.00  0.00    -0.206 F 
ATOM     70  C   UNL     1      -6.358  -6.505   5.856  1.00  0.00     0.059 A 
ATOM     71  C   UNL     1      -5.769  -5.148   7.782  1.00  0.00     0.059 A 
ATOM     72  F   UNL     1      -6.241  -2.851   7.771  1.00  0.00    -0.206 F 
ATOM     73  C   UNL     1      -5.813  -6.383   7.135  1.00  0.00     0.060 A 
BRANCH  73  74
ATOM     74  S   UNL     1      -5.107  -7.846   7.925  1.00  0.00     0.124 S 
ATOM     75  O   UNL     1      -6.306  -8.539   8.383  1.00  0.00    -0.237 OA
ATOM     76  O   UNL     1      -4.387  -8.477   6.824  1.00  0.00    -0.237 OA
ATOM     77  O   UNL     1      -4.262  -7.283   8.974  1.00  0.00    -0.744 OA
ENDBRANCH  73  74
ENDBRANCH  41  66
BRANCH  53  78
ATOM     78  C   UNL     1     -13.240  -1.907   4.221  1.00  0.00     0.058 A 
ATOM     79  C   UNL     1     -13.864  -1.925   5.478  1.00  0.00     0.135 A 
ATOM     80  C   UNL     1     -13.943  -2.442   3.130  1.00  0.00     0.135 A 
ATOM     81  F   UNL     1     -13.231  -1.431   6.553  1.00  0.00    -0.206 F 
ATOM     82  C   UNL     1     -15.132  -2.473   5.651  1.00  0.00     0.059 A 
ATOM     83  C   UNL     1     -15.219  -2.977   3.276  1.00  0.00     0.059 A 
ATOM     84  F   UNL     1     -13.393  -2.440   1.905  1.00  0.00    -0.206 F 
ATOM     85  C   UNL     1     -15.800  -2.999   4.544  1.00  0.00     0.060 A 
BRANCH  85  86
ATOM     86  S   UNL     1     -17.454  -3.688   4.771  1.00  0.00     0.124 S 
ATOM     87  O   UNL     1     -17.151  -4.993   5.351  1.00  0.00    -0.237 OA
ATOM     88  O   UNL     1     -18.077  -2.724   5.673  1.00  0.00    -0.237 OA
ATOM     89  O   UNL     1     -17.999  -3.713   3.417  1.00  0.00    -0.744 OA
ENDBRANCH  85  86
ENDBRANCH  53  78
ENDBRANCH  27  28
ENDBRANCH  20  22
ENDBRANCH  19  20
ENDBRANCH   1  19
TORSDOF 15
