REMARK SMILES CC[C@H](C)[NH+]1CCN(C(=O)CC(=O)OCCOC(=O)c2ccc(-c3c4nc(c(-c5c(F)cc(S(=O)(=O)[O-])cc5F)c5ccc([nH]5)c(-c5c(F)cc(S(=O)(=O)[O-])cc5F)c5nc(c(-c6c(F)cc(S(=O)(=O)[O-])cc6F)c6ccc3[nH]6)C=C5)C=C4)cc2)CC1
REMARK SMILES IDX 15 1 14 2 12 3 13 4 11 5 9 6 5 7 6 8 87 9 7 11 86 12 8 13
REMARK SMILES IDX 10 14 3 15 4 16 2 17 1 18 16 19 17 20 18 21 19 22 20 23
REMARK SMILES IDX 21 24 85 25 22 26 84 27 23 28 24 29 25 30 78 31 26 32 83 33
REMARK SMILES IDX 77 34 79 35 27 36 82 37 76 38 75 39 28 41 62 42 41 43 61 44
REMARK SMILES IDX 42 45 45 46 60 47 80 48 43 49 44 50 59 52 81 53 46 54 29 55
REMARK SMILES IDX 30 56 39 57 31 58 32 59 38 60 40 61 33 62 34 63 35 64 36 65
REMARK SMILES IDX 37 66 63 67 64 68 73 69 65 70 66 71 72 72 74 73 67 74 68 75
REMARK SMILES IDX 69 76 70 77 71 78 47 79 48 80 57 81 49 82 50 83 56 84 58 85
REMARK SMILES IDX 51 86 52 87 53 88 54 89 55 90
REMARK H PARENT 5 10 79 40 45 51
REMARK Flexibility Score: inf
ROOT
ATOM      1  C   UNL     1       1.738   5.596  -7.048  1.00  0.00     0.274 C 
ENDROOT
BRANCH   1   2
ATOM      2  O   UNL     1       1.488   6.121  -5.728  1.00  0.00    -0.462 OA
BRANCH   2   3
ATOM      3  C   UNL     1       0.246   6.625  -5.516  1.00  0.00     0.315 C 
ATOM      4  O   UNL     1      -0.651   6.630  -6.354  1.00  0.00    -0.252 OA
BRANCH   3   5
ATOM      5  C   UNL     1       0.053   7.243  -4.166  1.00  0.00     0.222 C 
BRANCH   5   6
ATOM      6  C   UNL     1       1.088   6.914  -3.122  1.00  0.00     0.234 C 
ATOM      7  N   UNL     1       0.415   3.999   0.040  1.00  0.00    -0.330 N 
ATOM      8  C   UNL     1       1.389   5.092   0.138  1.00  0.00     0.284 C 
ATOM      9  C   UNL     1      -0.711   4.410  -0.804  1.00  0.00     0.284 C 
ATOM     10  H   UNL     1       0.003   3.830   0.957  1.00  0.00     0.348 HD
ATOM     11  C   UNL     1       1.882   5.620  -1.215  1.00  0.00     0.181 C 
ATOM     12  C   UNL     1      -0.342   5.047  -2.164  1.00  0.00     0.181 C 
ATOM     13  N   UNL     1       0.797   5.975  -2.136  1.00  0.00    -0.331 N 
ATOM     14  O   UNL     1       2.169   7.512  -3.147  1.00  0.00    -0.274 OA
BRANCH   7  15
ATOM     15  C   UNL     1       1.005   2.663  -0.179  1.00  0.00     0.180 C 
ATOM     16  C   UNL     1       0.365   1.728   0.858  1.00  0.00     0.075 C 
BRANCH  15  17
ATOM     17  C   UNL     1       0.904   2.082  -1.605  1.00  0.00     0.061 C 
ATOM     18  C   UNL     1       1.526   0.700  -1.766  1.00  0.00     0.010 C 
ENDBRANCH  15  17
ENDBRANCH   7  15
ENDBRANCH   5   6
ENDBRANCH   3   5
ENDBRANCH   2   3
ENDBRANCH   1   2
BRANCH   1  19
ATOM     19  C   UNL     1       1.626   4.075  -7.062  1.00  0.00     0.275 C 
BRANCH  19  20
ATOM     20  O   UNL     1       0.342   3.673  -6.556  1.00  0.00    -0.458 OA
BRANCH  20  21
ATOM     21  C   UNL     1       0.375   2.805  -5.524  1.00  0.00     0.338 C 
ATOM     22  O   UNL     1       1.372   2.292  -5.026  1.00  0.00    -0.246 OA
BRANCH  21  23
ATOM     23  C   UNL     1      -0.986   2.511  -5.038  1.00  0.00     0.060 A 
ATOM     24  C   UNL     1      -1.925   3.526  -4.828  1.00  0.00     0.016 A 
ATOM     25  C   UNL     1      -1.282   1.195  -4.672  1.00  0.00     0.016 A 
ATOM     26  C   UNL     1      -3.133   3.231  -4.190  1.00  0.00     0.010 A 
ATOM     27  C   UNL     1      -2.519   0.892  -4.104  1.00  0.00     0.010 A 
ATOM     28  C   UNL     1      -3.448   1.909  -3.836  1.00  0.00    -0.014 A 
BRANCH  28  29
ATOM     29  C   UNL     1      -4.762   1.561  -3.232  1.00  0.00     0.031 A 
ATOM     30  C   UNL     1      -4.847   0.974  -1.848  1.00  0.00     0.074 A 
ATOM     31  C   UNL     1      -5.883   1.717  -3.961  1.00  0.00     0.049 A 
ATOM     32  N   UNL     1      -5.884   0.470  -1.228  1.00  0.00    -0.248 NA
ATOM     33  C   UNL     1      -3.605   0.945  -1.061  1.00  0.00     0.031 C 
ATOM     34  C   UNL     1      -5.942   2.279  -5.311  1.00  0.00     0.029 A 
ATOM     35  N   UNL     1      -7.187   1.399  -3.675  1.00  0.00    -0.354 N 
ATOM     36  C   UNL     1      -5.419   0.041   0.009  1.00  0.00     0.074 A 
ATOM     37  C   UNL     1      -4.002   0.338   0.050  1.00  0.00     0.031 C 
ATOM     38  C   UNL     1      -7.216   2.276  -5.733  1.00  0.00     0.029 A 
ATOM     39  C   UNL     1      -8.052   1.655  -4.711  1.00  0.00     0.049 A 
ATOM     40  H   UNL     1      -7.475   1.025  -2.811  1.00  0.00     0.167 HD
ATOM     41  C   UNL     1      -6.110  -0.547   1.017  1.00  0.00     0.037 A 
ATOM     42  C   UNL     1      -9.365   1.388  -4.846  1.00  0.00     0.037 A 
ATOM     43  C   UNL     1      -7.523  -0.831   0.982  1.00  0.00     0.049 A 
ATOM     44  C   UNL     1     -10.100   0.697  -3.738  1.00  0.00     0.074 A 
ATOM     45  C   UNL     1      -8.313  -1.398   1.968  1.00  0.00     0.029 A 
ATOM     46  N   UNL     1      -8.357  -0.572  -0.095  1.00  0.00    -0.354 N 
ATOM     47  N   UNL     1      -9.642   0.287  -2.580  1.00  0.00    -0.248 NA
ATOM     48  C   UNL     1     -11.525   0.419  -3.959  1.00  0.00     0.031 C 
ATOM     49  C   UNL     1      -9.619  -1.510   1.475  1.00  0.00     0.029 A 
ATOM     50  C   UNL     1      -9.649  -0.984   0.194  1.00  0.00     0.049 A 
ATOM     51  H   UNL     1      -8.074  -0.157  -0.942  1.00  0.00     0.167 HD
ATOM     52  C   UNL     1     -10.725  -0.290  -1.929  1.00  0.00     0.074 A 
ATOM     53  C   UNL     1     -11.863  -0.167  -2.818  1.00  0.00     0.031 C 
ATOM     54  C   UNL     1     -10.770  -0.868  -0.703  1.00  0.00     0.037 A 
BRANCH  41  55
ATOM     55  C   UNL     1      -5.340  -0.947   2.243  1.00  0.00     0.058 A 
ATOM     56  C   UNL     1      -4.929  -0.002   3.196  1.00  0.00     0.135 A 
ATOM     57  C   UNL     1      -5.039  -2.297   2.485  1.00  0.00     0.135 A 
ATOM     58  F   UNL     1      -5.181   1.303   3.006  1.00  0.00    -0.206 F 
ATOM     59  C   UNL     1      -4.225  -0.379   4.336  1.00  0.00     0.059 A 
ATOM     60  C   UNL     1      -4.352  -2.698   3.627  1.00  0.00     0.059 A 
ATOM     61  F   UNL     1      -5.410  -3.239   1.604  1.00  0.00    -0.206 F 
ATOM     62  C   UNL     1      -3.936  -1.730   4.540  1.00  0.00     0.060 A 
BRANCH  62  63
ATOM     63  S   UNL     1      -3.018  -2.212   6.019  1.00  0.00     0.124 S 
ATOM     64  O   UNL     1      -1.652  -1.871   5.635  1.00  0.00    -0.237 OA
ATOM     65  O   UNL     1      -3.615  -1.370   7.051  1.00  0.00    -0.237 OA
ATOM     66  O   UNL     1      -3.300  -3.639   6.140  1.00  0.00    -0.744 OA
ENDBRANCH  62  63
ENDBRANCH  41  55
BRANCH  42  67
ATOM     67  C   UNL     1     -10.053   1.770  -6.104  1.00  0.00     0.058 A 
ATOM     68  C   UNL     1     -10.897   2.886  -6.148  1.00  0.00     0.135 A 
ATOM     69  C   UNL     1      -9.821   1.069  -7.298  1.00  0.00     0.135 A 
ATOM     70  F   UNL     1     -11.150   3.580  -5.028  1.00  0.00    -0.206 F 
ATOM     71  C   UNL     1     -11.482   3.306  -7.337  1.00  0.00     0.059 A 
ATOM     72  C   UNL     1     -10.380   1.480  -8.502  1.00  0.00     0.059 A 
ATOM     73  F   UNL     1      -9.007   0.002  -7.304  1.00  0.00    -0.206 F 
ATOM     74  C   UNL     1     -11.210   2.600  -8.511  1.00  0.00     0.060 A 
BRANCH  74  75
ATOM     75  S   UNL     1     -11.887   3.209 -10.071  1.00  0.00     0.124 S 
ATOM     76  O   UNL     1     -13.255   2.706 -10.012  1.00  0.00    -0.237 OA
ATOM     77  O   UNL     1     -11.732   4.654  -9.935  1.00  0.00    -0.237 OA
ATOM     78  O   UNL     1     -11.025   2.587 -11.072  1.00  0.00    -0.744 OA
ENDBRANCH  74  75
ENDBRANCH  42  67
BRANCH  54  79
ATOM     79  C   UNL     1     -12.099  -1.398  -0.250  1.00  0.00     0.058 A 
ATOM     80  C   UNL     1     -12.606  -2.613  -0.734  1.00  0.00     0.135 A 
ATOM     81  C   UNL     1     -12.866  -0.691   0.689  1.00  0.00     0.135 A 
ATOM     82  F   UNL     1     -11.913  -3.320  -1.641  1.00  0.00    -0.206 F 
ATOM     83  C   UNL     1     -13.841  -3.101  -0.319  1.00  0.00     0.059 A 
ATOM     84  C   UNL     1     -14.096  -1.169   1.131  1.00  0.00     0.059 A 
ATOM     85  F   UNL     1     -12.422   0.474   1.186  1.00  0.00    -0.206 F 
ATOM     86  C   UNL     1     -14.581  -2.368   0.611  1.00  0.00     0.060 A 
BRANCH  86  87
ATOM     87  S   UNL     1     -16.177  -3.012   1.157  1.00  0.00     0.124 S 
ATOM     88  O   UNL     1     -17.043  -2.627   0.047  1.00  0.00    -0.237 OA
ATOM     89  O   UNL     1     -15.915  -4.442   1.290  1.00  0.00    -0.237 OA
ATOM     90  O   UNL     1     -16.413  -2.306   2.413  1.00  0.00    -0.744 OA
ENDBRANCH  86  87
ENDBRANCH  54  79
ENDBRANCH  28  29
ENDBRANCH  21  23
ENDBRANCH  20  21
ENDBRANCH  19  20
ENDBRANCH   1  19
TORSDOF 17
