REMARK SMILES CCCCCNC(=O)Oc1cccc(-c2ccc([C@@H](C)C(=O)OCCOC(=O)c3ccc(-c4c5nc(c(-c6c(F)cc(S(=O)(=O)[O-])cc6F)c6ccc([nH]6)c(-c6c(F)cc(S(=O)(=O)[O-])cc6F)c6nc(c(-c7c(F)cc(S(=O)(=O)[O-])cc7F)c7ccc4[nH]7)C=C6)C=C5)cc3)cc2F)c1
REMARK SMILES IDX 21 1 22 2 19 3 20 4 18 5 15 6 16 7 96 8 17 9 95 10 97 11
REMARK SMILES IDX 14 12 10 13 11 14 98 15 12 16 13 17 9 18 7 19 6 20 8 22 5 23
REMARK SMILES IDX 4 24 3 25 2 26 1 27 23 28 24 29 25 30 26 31 27 32 28 33
REMARK SMILES IDX 29 34 30 35 94 36 31 37 93 38 32 39 33 40 34 41 87 42 35 43
REMARK SMILES IDX 92 44 86 45 88 46 36 47 91 48 85 49 84 50 37 52 71 53 50 54
REMARK SMILES IDX 70 55 51 56 54 57 69 58 89 59 52 60 53 61 68 63 90 64 55 65
REMARK SMILES IDX 38 66 39 67 48 68 40 69 41 70 47 71 49 72 42 73 43 74 44 75
REMARK SMILES IDX 45 76 46 77 72 78 73 79 82 80 74 81 75 82 81 83 83 84 76 85
REMARK SMILES IDX 77 86 78 87 79 88 80 89 56 90 57 91 66 92 58 93 59 94 65 95
REMARK SMILES IDX 67 96 60 97 61 98 62 99 63 100 64 101
REMARK H PARENT 6 21 88 51 54 62
REMARK Flexibility Score: inf
ROOT
ATOM      1  C   UNL     1      -3.397   2.705  14.357  1.00  0.00     0.313 C 
ATOM      2  O   UNL     1      -2.825   2.475  15.418  1.00  0.00    -0.252 OA
ENDROOT
BRANCH   1   3
ATOM      3  C   UNL     1      -3.184   4.004  13.588  1.00  0.00     0.126 C 
ATOM      4  C   UNL     1      -3.982   5.130  14.245  1.00  0.00     0.025 C 
BRANCH   3   5
ATOM      5  C   UNL     1      -3.405   3.938  12.085  1.00  0.00    -0.031 A 
ATOM      6  C   UNL     1      -3.770   3.877   9.256  1.00  0.00     0.018 A 
ATOM      7  C   UNL     1      -4.856   3.744  10.137  1.00  0.00     0.012 A 
ATOM      8  C   UNL     1      -2.499   4.017   9.826  1.00  0.00     0.131 A 
ATOM      9  C   UNL     1      -4.679   3.780  11.526  1.00  0.00     0.005 A 
ATOM     10  C   UNL     1      -2.313   4.050  11.210  1.00  0.00     0.044 A 
ATOM     11  F   UNL     1      -1.418   4.166   9.045  1.00  0.00    -0.206 F 
BRANCH   6  12
ATOM     12  C   UNL     1      -3.983   3.915   7.798  1.00  0.00    -0.012 A 
ATOM     13  C   UNL     1      -3.449   3.202   5.540  1.00  0.00     0.133 A 
ATOM     14  C   UNL     1      -4.396   4.075   5.008  1.00  0.00     0.047 A 
ATOM     15  C   UNL     1      -3.228   3.123   6.916  1.00  0.00     0.056 A 
ATOM     16  C   UNL     1      -5.153   4.865   5.866  1.00  0.00     0.004 A 
ATOM     17  C   UNL     1      -4.946   4.784   7.246  1.00  0.00     0.009 A 
BRANCH  13  18
ATOM     18  O   UNL     1      -2.647   2.516   4.612  1.00  0.00    -0.410 OA
BRANCH  18  19
ATOM     19  C   UNL     1      -2.507   1.141   4.728  1.00  0.00     0.412 C 
ATOM     20  N   UNL     1      -1.694   0.606   3.766  1.00  0.00    -0.321 N 
ATOM     21  H   UNL     1      -1.524  -0.363   3.820  1.00  0.00     0.167 HD
ATOM     22  O   UNL     1      -3.056   0.429   5.560  1.00  0.00    -0.224 OA
BRANCH  20  23
ATOM     23  C   UNL     1      -1.055   1.317   2.675  1.00  0.00     0.119 C 
BRANCH  23  24
ATOM     24  C   UNL     1       0.467   1.203   2.713  1.00  0.00     0.021 C 
BRANCH  24  25
ATOM     25  C   UNL     1       1.018  -0.215   2.517  1.00  0.00     0.002 C 
BRANCH  25  26
ATOM     26  C   UNL     1       0.598  -0.921   1.225  1.00  0.00    -0.003 C 
ATOM     27  C   UNL     1       1.014  -0.183  -0.038  1.00  0.00     0.004 C 
ENDBRANCH  25  26
ENDBRANCH  24  25
ENDBRANCH  23  24
ENDBRANCH  20  23
ENDBRANCH  18  19
ENDBRANCH  13  18
ENDBRANCH   6  12
ENDBRANCH   3   5
ENDBRANCH   1   3
BRANCH   1  28
ATOM     28  O   UNL     1      -4.306   1.872  13.785  1.00  0.00    -0.462 OA
BRANCH  28  29
ATOM     29  C   UNL     1      -4.501   0.593  14.418  1.00  0.00     0.274 C 
BRANCH  29  30
ATOM     30  C   UNL     1      -3.760  -0.517  13.667  1.00  0.00     0.275 C 
BRANCH  30  31
ATOM     31  O   UNL     1      -2.334  -0.389  13.814  1.00  0.00    -0.458 OA
BRANCH  31  32
ATOM     32  C   UNL     1      -1.715   0.278  12.812  1.00  0.00     0.338 C 
ATOM     33  O   UNL     1      -2.224   0.735  11.804  1.00  0.00    -0.246 OA
BRANCH  32  34
ATOM     34  C   UNL     1      -0.306   0.500  13.166  1.00  0.00     0.060 A 
ATOM     35  C   UNL     1       0.111   1.809  13.416  1.00  0.00     0.016 A 
ATOM     36  C   UNL     1       0.612  -0.551  13.165  1.00  0.00     0.016 A 
ATOM     37  C   UNL     1       1.454   2.081  13.652  1.00  0.00     0.010 A 
ATOM     38  C   UNL     1       1.961  -0.278  13.414  1.00  0.00     0.010 A 
ATOM     39  C   UNL     1       2.391   1.041  13.646  1.00  0.00    -0.014 A 
BRANCH  39  40
ATOM     40  C   UNL     1       3.829   1.347  13.839  1.00  0.00     0.031 A 
ATOM     41  C   UNL     1       4.770   1.283  12.670  1.00  0.00     0.074 A 
ATOM     42  C   UNL     1       4.279   1.700  15.058  1.00  0.00     0.049 A 
ATOM     43  N   UNL     1       6.070   1.425  12.648  1.00  0.00    -0.248 NA
ATOM     44  C   UNL     1       4.169   1.025  11.352  1.00  0.00     0.031 C 
ATOM     45  C   UNL     1       3.450   1.836  16.257  1.00  0.00     0.029 A 
ATOM     46  N   UNL     1       5.544   2.004  15.491  1.00  0.00    -0.354 N 
ATOM     47  C   UNL     1       6.447   1.255  11.321  1.00  0.00     0.074 A 
ATOM     48  C   UNL     1       5.239   0.985  10.570  1.00  0.00     0.031 C 
ATOM     49  C   UNL     1       4.230   2.194  17.291  1.00  0.00     0.029 A 
ATOM     50  C   UNL     1       5.616   2.269  16.838  1.00  0.00     0.049 A 
ATOM     51  H   UNL     1       6.327   2.031  14.893  1.00  0.00     0.167 HD
ATOM     52  C   UNL     1       7.687   1.321  10.782  1.00  0.00     0.037 A 
ATOM     53  C   UNL     1       6.683   2.513  17.623  1.00  0.00     0.037 A 
ATOM     54  C   UNL     1       8.881   1.607  11.535  1.00  0.00     0.049 A 
ATOM     55  C   UNL     1       8.056   2.537  17.007  1.00  0.00     0.074 A 
ATOM     56  C   UNL     1      10.186   1.696  11.081  1.00  0.00     0.029 A 
ATOM     57  N   UNL     1       8.916   1.855  12.900  1.00  0.00    -0.354 N 
ATOM     58  N   UNL     1       8.400   2.356  15.754  1.00  0.00    -0.248 NA
ATOM     59  C   UNL     1       9.186   2.792  17.910  1.00  0.00     0.031 C 
ATOM     60  C   UNL     1      11.013   1.969  12.177  1.00  0.00     0.029 A 
ATOM     61  C   UNL     1      10.219   2.086  13.307  1.00  0.00     0.049 A 
ATOM     62  H   UNL     1       8.129   1.865  13.492  1.00  0.00     0.167 HD
ATOM     63  C   UNL     1       9.783   2.492  15.716  1.00  0.00     0.074 A 
ATOM     64  C   UNL     1      10.211   2.784  17.069  1.00  0.00     0.031 C 
ATOM     65  C   UNL     1      10.623   2.384  14.658  1.00  0.00     0.037 A 
BRANCH  52  66
ATOM     66  C   UNL     1       7.822   1.058   9.309  1.00  0.00     0.058 A 
ATOM     67  C   UNL     1       7.427   2.005   8.351  1.00  0.00     0.135 A 
ATOM     68  C   UNL     1       8.389  -0.141   8.849  1.00  0.00     0.135 A 
ATOM     69  F   UNL     1       6.864   3.161   8.736  1.00  0.00    -0.206 F 
ATOM     70  C   UNL     1       7.573   1.765   6.988  1.00  0.00     0.059 A 
ATOM     71  C   UNL     1       8.564  -0.394   7.492  1.00  0.00     0.059 A 
ATOM     72  F   UNL     1       8.781  -1.082   9.723  1.00  0.00    -0.206 F 
ATOM     73  C   UNL     1       8.142   0.561   6.568  1.00  0.00     0.060 A 
BRANCH  73  74
ATOM     74  S   UNL     1       8.335   0.266   4.797  1.00  0.00     0.124 S 
ATOM     75  O   UNL     1       6.961  -0.027   4.398  1.00  0.00    -0.237 OA
ATOM     76  O   UNL     1       8.873   1.536   4.322  1.00  0.00    -0.237 OA
ATOM     77  O   UNL     1       9.258  -0.863   4.739  1.00  0.00    -0.744 OA
ENDBRANCH  73  74
ENDBRANCH  52  66
BRANCH  53  78
ATOM     78  C   UNL     1       6.500   2.726  19.082  1.00  0.00     0.058 A 
ATOM     79  C   UNL     1       6.699   3.986  19.663  1.00  0.00     0.135 A 
ATOM     80  C   UNL     1       6.122   1.669  19.926  1.00  0.00     0.135 A 
ATOM     81  F   UNL     1       7.070   5.025  18.898  1.00  0.00    -0.206 F 
ATOM     82  C   UNL     1       6.548   4.190  21.031  1.00  0.00     0.059 A 
ATOM     83  C   UNL     1       5.942   1.853  21.292  1.00  0.00     0.059 A 
ATOM     84  F   UNL     1       5.908   0.446  19.417  1.00  0.00    -0.206 F 
ATOM     85  C   UNL     1       6.170   3.115  21.838  1.00  0.00     0.060 A 
BRANCH  85  86
ATOM     86  S   UNL     1       5.938   3.393  23.607  1.00  0.00     0.124 S 
ATOM     87  O   UNL     1       7.317   3.426  24.081  1.00  0.00    -0.237 OA
ATOM     88  O   UNL     1       5.224   4.666  23.631  1.00  0.00    -0.237 OA
ATOM     89  O   UNL     1       5.152   2.236  24.026  1.00  0.00    -0.744 OA
ENDBRANCH  85  86
ENDBRANCH  53  78
BRANCH  65  90
ATOM     90  C   UNL     1      12.085   2.612  14.915  1.00  0.00     0.058 A 
ATOM     91  C   UNL     1      12.879   1.645  15.550  1.00  0.00     0.135 A 
ATOM     92  C   UNL     1      12.708   3.793  14.480  1.00  0.00     0.135 A 
ATOM     93  F   UNL     1      12.329   0.502  15.991  1.00  0.00    -0.206 F 
ATOM     94  C   UNL     1      14.238   1.849  15.763  1.00  0.00     0.059 A 
ATOM     95  C   UNL     1      14.070   4.008  14.663  1.00  0.00     0.059 A 
ATOM     96  F   UNL     1      11.993   4.745  13.859  1.00  0.00    -0.206 F 
ATOM     97  C   UNL     1      14.825   3.035  15.316  1.00  0.00     0.060 A 
BRANCH  97  98
ATOM     98  S   UNL     1      16.596   3.276  15.567  1.00  0.00     0.124 S 
ATOM     99  O   UNL     1      16.647   3.629  16.982  1.00  0.00    -0.237 OA
ATOM    100  O   UNL     1      17.146   1.969  15.219  1.00  0.00    -0.237 OA
ATOM    101  O   UNL     1      16.926   4.354  14.638  1.00  0.00    -0.744 OA
ENDBRANCH  97  98
ENDBRANCH  65  90
ENDBRANCH  39  40
ENDBRANCH  32  34
ENDBRANCH  31  32
ENDBRANCH  30  31
ENDBRANCH  29  30
ENDBRANCH  28  29
ENDBRANCH   1  28
TORSDOF 22
