REMARK SMILES Cc1cc(C(=O)OCCOC(=O)c2ccc(-c3c4nc(c(-c5c(F)cc(S(=O)(=O)[O-])cc5F)c5ccc([nH]5)c(-c5c(F)cc(S(=O)(=O)[O-])cc5F)c5nc(c(-c6c(F)cc(S(=O)(=O)[O-])cc6F)c6ccc3[nH]6)C=C5)C=C4)cc2)c([N+](=O)[O-])cc1[N+](=O)[O-]
REMARK SMILES IDX 9 1 8 2 7 3 5 4 6 5 4 6 1 7 2 8 3 9 84 10 83 11 79 12 85 13
REMARK SMILES IDX 86 14 87 15 80 16 81 17 82 18 10 19 11 20 12 21 13 22 14 23
REMARK SMILES IDX 78 24 15 25 77 26 16 27 17 28 18 29 71 30 19 31 76 32 70 33
REMARK SMILES IDX 72 34 20 35 75 36 69 37 68 38 21 40 55 41 34 42 54 43 35 44
REMARK SMILES IDX 38 45 53 46 73 47 36 48 37 49 52 51 74 52 39 53 22 54 23 55
REMARK SMILES IDX 32 56 24 57 25 58 31 59 33 60 26 61 27 62 28 63 29 64 30 65
REMARK SMILES IDX 56 66 57 67 66 68 58 69 59 70 65 71 67 72 60 73 61 74 62 75
REMARK SMILES IDX 63 76 64 77 40 78 41 79 50 80 42 81 43 82 49 83 51 84 44 85
REMARK SMILES IDX 45 86 46 87 47 88 48 89
REMARK H PARENT 72 39 38 50
REMARK Flexibility Score: inf
ROOT
ATOM      1  C   UNL     1      -4.051  -3.780  -2.873  1.00  0.00     0.275 C 
ENDROOT
BRANCH   1   2
ATOM      2  C   UNL     1      -4.228  -2.523  -2.000  1.00  0.00     0.275 C 
BRANCH   2   3
ATOM      3  O   UNL     1      -3.139  -1.585  -2.116  1.00  0.00    -0.458 OA
BRANCH   3   4
ATOM      4  C   UNL     1      -2.916  -0.907  -0.966  1.00  0.00     0.345 C 
ATOM      5  O   UNL     1      -3.550  -1.011   0.063  1.00  0.00    -0.246 OA
BRANCH   4   6
ATOM      6  C   UNL     1      -1.880   0.137  -1.037  1.00  0.00     0.138 A 
ATOM      7  C   UNL     1       1.889   0.189  -0.560  1.00  0.00     0.052 C 
ATOM      8  C   UNL     1       0.489   0.740  -0.706  1.00  0.00     0.028 A 
ATOM      9  C   UNL     1      -0.517  -0.192  -1.076  1.00  0.00     0.033 A 
ATOM     10  C   UNL     1       0.089   2.053  -0.365  1.00  0.00     0.279 A 
ATOM     11  C   UNL     1      -1.277   2.400  -0.381  1.00  0.00     0.172 A 
ATOM     12  C   UNL     1      -2.245   1.436  -0.690  1.00  0.00     0.290 A 
BRANCH  10  13
ATOM     13  N   UNL     1       1.033   3.127   0.022  1.00  0.00     0.063 N 
ATOM     14  O   UNL     1       0.585   4.284   0.056  1.00  0.00    -0.258 OA
ATOM     15  O   UNL     1       2.205   2.841   0.283  1.00  0.00    -0.258 OA
ENDBRANCH  10  13
BRANCH  12  16
ATOM     16  N   UNL     1      -3.653   1.821  -0.630  1.00  0.00     0.063 N 
ATOM     17  O   UNL     1      -4.413   1.358  -1.491  1.00  0.00    -0.258 OA
ATOM     18  O   UNL     1      -3.974   2.653   0.229  1.00  0.00    -0.258 OA
ENDBRANCH  12  16
ENDBRANCH   4   6
ENDBRANCH   3   4
ENDBRANCH   2   3
ENDBRANCH   1   2
BRANCH   1  19
ATOM     19  O   UNL     1      -2.885  -4.622  -2.702  1.00  0.00    -0.458 OA
BRANCH  19  20
ATOM     20  C   UNL     1      -1.768  -4.062  -2.171  1.00  0.00     0.338 C 
ATOM     21  O   UNL     1      -1.008  -3.337  -2.800  1.00  0.00    -0.246 OA
BRANCH  20  22
ATOM     22  C   UNL     1      -1.825  -4.173  -0.689  1.00  0.00     0.060 A 
ATOM     23  C   UNL     1      -0.962  -3.393   0.094  1.00  0.00     0.016 A 
ATOM     24  C   UNL     1      -2.958  -4.763  -0.125  1.00  0.00     0.016 A 
ATOM     25  C   UNL     1      -1.299  -3.079   1.403  1.00  0.00     0.010 A 
ATOM     26  C   UNL     1      -3.381  -4.324   1.098  1.00  0.00     0.010 A 
ATOM     27  C   UNL     1      -2.532  -3.520   1.872  1.00  0.00    -0.014 A 
BRANCH  27  28
ATOM     28  C   UNL     1      -2.896  -3.529   3.274  1.00  0.00     0.031 A 
ATOM     29  C   UNL     1      -3.503  -2.353   3.916  1.00  0.00     0.074 A 
ATOM     30  C   UNL     1      -2.742  -4.777   3.769  1.00  0.00     0.049 A 
ATOM     31  N   UNL     1      -3.509  -2.144   5.182  1.00  0.00    -0.248 NA
ATOM     32  C   UNL     1      -4.115  -1.249   3.184  1.00  0.00     0.031 C 
ATOM     33  C   UNL     1      -3.206  -5.423   4.977  1.00  0.00     0.029 A 
ATOM     34  N   UNL     1      -1.899  -5.742   3.185  1.00  0.00    -0.354 N 
ATOM     35  C   UNL     1      -4.411  -1.121   5.435  1.00  0.00     0.074 A 
ATOM     36  C   UNL     1      -4.603  -0.482   4.165  1.00  0.00     0.031 C 
ATOM     37  C   UNL     1      -2.410  -6.490   5.213  1.00  0.00     0.029 A 
ATOM     38  C   UNL     1      -1.338  -6.479   4.215  1.00  0.00     0.049 A 
ATOM     39  H   UNL     1      -1.738  -5.868   2.222  1.00  0.00     0.167 HD
ATOM     40  C   UNL     1      -5.031  -1.099   6.652  1.00  0.00     0.037 A 
ATOM     41  C   UNL     1      -0.011  -6.257   4.456  1.00  0.00     0.037 A 
ATOM     42  C   UNL     1      -4.469  -2.181   7.462  1.00  0.00     0.049 A 
ATOM     43  C   UNL     1       0.120  -5.521   5.768  1.00  0.00     0.074 A 
ATOM     44  C   UNL     1      -4.883  -3.489   7.648  1.00  0.00     0.029 A 
ATOM     45  N   UNL     1      -3.126  -2.131   7.816  1.00  0.00    -0.354 N 
ATOM     46  N   UNL     1      -0.713  -4.606   6.199  1.00  0.00    -0.248 NA
ATOM     47  C   UNL     1       1.097  -5.929   6.769  1.00  0.00     0.031 C 
ATOM     48  C   UNL     1      -3.734  -4.253   7.993  1.00  0.00     0.029 A 
ATOM     49  C   UNL     1      -2.633  -3.410   8.007  1.00  0.00     0.049 A 
ATOM     50  H   UNL     1      -2.600  -1.304   7.916  1.00  0.00     0.167 HD
ATOM     51  C   UNL     1      -0.469  -4.384   7.530  1.00  0.00     0.074 A 
ATOM     52  C   UNL     1       0.687  -5.217   7.830  1.00  0.00     0.031 C 
ATOM     53  C   UNL     1      -1.237  -3.610   8.355  1.00  0.00     0.037 A 
BRANCH  40  54
ATOM     54  C   UNL     1      -6.316  -0.372   7.035  1.00  0.00     0.058 A 
ATOM     55  C   UNL     1      -7.026  -0.776   8.193  1.00  0.00     0.135 A 
ATOM     56  C   UNL     1      -6.939   0.672   6.318  1.00  0.00     0.135 A 
ATOM     57  F   UNL     1      -6.544  -1.718   9.016  1.00  0.00    -0.206 F 
ATOM     58  C   UNL     1      -8.264  -0.246   8.567  1.00  0.00     0.059 A 
ATOM     59  C   UNL     1      -8.188   1.212   6.668  1.00  0.00     0.059 A 
ATOM     60  F   UNL     1      -6.363   1.246   5.259  1.00  0.00    -0.206 F 
ATOM     61  C   UNL     1      -8.850   0.740   7.790  1.00  0.00     0.060 A 
BRANCH  61  62
ATOM     62  S   UNL     1     -10.450   1.402   8.291  1.00  0.00     0.124 S 
ATOM     63  O   UNL     1     -11.312   0.229   8.185  1.00  0.00    -0.237 OA
ATOM     64  O   UNL     1     -10.180   1.869   9.647  1.00  0.00    -0.237 OA
ATOM     65  O   UNL     1     -10.708   2.454   7.312  1.00  0.00    -0.744 OA
ENDBRANCH  61  62
ENDBRANCH  40  54
BRANCH  41  66
ATOM     66  C   UNL     1       0.828  -6.078   3.211  1.00  0.00     0.058 A 
ATOM     67  C   UNL     1       0.741  -7.074   2.206  1.00  0.00     0.135 A 
ATOM     68  C   UNL     1       1.490  -4.897   2.844  1.00  0.00     0.135 A 
ATOM     69  F   UNL     1       0.147  -8.249   2.478  1.00  0.00    -0.206 F 
ATOM     70  C   UNL     1       1.162  -6.869   0.891  1.00  0.00     0.059 A 
ATOM     71  C   UNL     1       1.948  -4.678   1.530  1.00  0.00     0.059 A 
ATOM     72  F   UNL     1       1.637  -3.899   3.727  1.00  0.00    -0.206 F 
ATOM     73  C   UNL     1       1.741  -5.653   0.551  1.00  0.00     0.060 A 
BRANCH  73  74
ATOM     74  S   UNL     1       2.023  -5.301  -1.209  1.00  0.00     0.124 S 
ATOM     75  O   UNL     1       3.270  -6.011  -1.465  1.00  0.00    -0.237 OA
ATOM     76  O   UNL     1       0.829  -5.877  -1.824  1.00  0.00    -0.237 OA
ATOM     77  O   UNL     1       2.104  -3.843  -1.243  1.00  0.00    -0.744 OA
ENDBRANCH  73  74
ENDBRANCH  41  66
BRANCH  53  78
ATOM     78  C   UNL     1      -0.744  -3.045   9.662  1.00  0.00     0.058 A 
ATOM     79  C   UNL     1       0.614  -2.801   9.920  1.00  0.00     0.135 A 
ATOM     80  C   UNL     1      -1.652  -2.567  10.638  1.00  0.00     0.135 A 
ATOM     81  F   UNL     1       1.563  -3.065   9.010  1.00  0.00    -0.206 F 
ATOM     82  C   UNL     1       1.052  -2.238  11.112  1.00  0.00     0.059 A 
ATOM     83  C   UNL     1      -1.240  -1.923  11.795  1.00  0.00     0.059 A 
ATOM     84  F   UNL     1      -2.980  -2.691  10.496  1.00  0.00    -0.206 F 
ATOM     85  C   UNL     1       0.118  -1.809  12.046  1.00  0.00     0.060 A 
BRANCH  85  86
ATOM     86  S   UNL     1       0.686  -1.087  13.587  1.00  0.00     0.124 S 
ATOM     87  O   UNL     1       0.883  -2.281  14.402  1.00  0.00    -0.237 OA
ATOM     88  O   UNL     1       1.904  -0.389  13.184  1.00  0.00    -0.237 OA
ATOM     89  O   UNL     1      -0.422  -0.224  13.982  1.00  0.00    -0.744 OA
ENDBRANCH  85  86
ENDBRANCH  53  78
ENDBRANCH  27  28
ENDBRANCH  20  22
ENDBRANCH  19  20
ENDBRANCH   1  19
TORSDOF 16
