REMARK SMILES COc1ccc(-c2cccc(/C=C\C(=O)OCCOC(=O)c3ccc(-c4c5nc(c(-c6c(F)cc(S(=O)(=O)[O-])cc6F)c6ccc([nH]6)c(-c6c(F)cc(S(=O)(=O)[O-])cc6F)c6nc(c(-c7c(F)cc(S(=O)(=O)[O-])cc7F)c7ccc4[nH]7)C=C6)C=C5)cc3)c2)c(Cl)c1OC
REMARK SMILES IDX 17 1 16 2 14 3 15 4 13 5 12 6 11 7 7 8 8 9 88 10 9 11 10 12
REMARK SMILES IDX 6 13 3 14 4 15 91 16 5 17 89 18 90 19 2 20 1 21 92 22 93 23
REMARK SMILES IDX 18 24 19 25 20 26 21 27 22 28 23 29 87 30 24 31 86 32 25 33
REMARK SMILES IDX 26 34 27 35 80 36 28 37 85 38 79 39 81 40 29 41 84 42 78 43
REMARK SMILES IDX 77 44 30 46 64 47 43 48 63 49 44 50 47 51 62 52 82 53 45 54
REMARK SMILES IDX 46 55 61 57 83 58 48 59 31 60 32 61 41 62 33 63 34 64 40 65
REMARK SMILES IDX 42 66 35 67 36 68 37 69 38 70 39 71 65 72 66 73 75 74 67 75
REMARK SMILES IDX 68 76 74 77 76 78 69 79 70 80 71 81 72 82 73 83 49 84 50 85
REMARK SMILES IDX 59 86 51 87 52 88 58 89 60 90 53 91 54 92 55 93 56 94 57 95
REMARK H PARENT 81 45 47 56
REMARK Flexibility Score: inf
ROOT
ATOM      1  C   UNL     1       5.327  -7.705   7.852  1.00  0.00     0.275 C 
ENDROOT
BRANCH   1   2
ATOM      2  O   UNL     1       4.355  -7.507   6.811  1.00  0.00    -0.459 OA
BRANCH   2   3
ATOM      3  C   UNL     1       3.949  -8.582   6.113  1.00  0.00     0.330 C 
ATOM      4  O   UNL     1       4.506  -9.669   6.093  1.00  0.00    -0.247 OA
BRANCH   3   5
ATOM      5  C   UNL     1       2.630  -8.382   5.463  1.00  0.00     0.094 C 
ATOM      6  C   UNL     1       1.829  -7.314   5.309  1.00  0.00     0.015 C 
BRANCH   6   7
ATOM      7  C   UNL     1       2.083  -5.907   5.629  1.00  0.00    -0.025 A 
ATOM      8  C   UNL     1       2.070  -3.596   4.860  1.00  0.00    -0.016 A 
ATOM      9  C   UNL     1       2.744  -3.210   6.025  1.00  0.00     0.009 A 
ATOM     10  C   UNL     1       1.787  -4.955   4.651  1.00  0.00     0.017 A 
ATOM     11  C   UNL     1       2.973  -4.138   7.033  1.00  0.00     0.001 A 
ATOM     12  C   UNL     1       2.568  -5.460   6.857  1.00  0.00     0.008 A 
BRANCH   8  13
ATOM     13  C   UNL     1       1.584  -2.586   3.914  1.00  0.00     0.004 A 
ATOM     14  C   UNL     1       0.739  -0.653   2.093  1.00  0.00     0.162 A 
ATOM     15  C   UNL     1       2.082  -1.038   2.128  1.00  0.00     0.051 A 
ATOM     16  C   UNL     1      -0.215  -1.191   2.988  1.00  0.00     0.180 A 
ATOM     17  C   UNL     1       2.498  -2.011   3.024  1.00  0.00     0.014 A 
ATOM     18  C   UNL     1       0.222  -2.162   3.908  1.00  0.00     0.094 A 
ATOM     19  Cl  UNL     1      -0.823  -2.860   5.119  1.00  0.00    -0.079 Cl
BRANCH  14  20
ATOM     20  O   UNL     1       0.325   0.332   1.222  1.00  0.00    -0.493 OA
ATOM     21  C   UNL     1       0.703   0.071  -0.128  1.00  0.00     0.278 C 
ENDBRANCH  14  20
BRANCH  16  22
ATOM     22  O   UNL     1      -1.464  -0.652   2.814  1.00  0.00    -0.491 OA
ATOM     23  C   UNL     1      -2.599  -1.152   3.496  1.00  0.00     0.278 C 
ENDBRANCH  16  22
ENDBRANCH   8  13
ENDBRANCH   6   7
ENDBRANCH   3   5
ENDBRANCH   2   3
ENDBRANCH   1   2
BRANCH   1  24
ATOM     24  C   UNL     1       4.631  -7.890   9.207  1.00  0.00     0.275 C 
BRANCH  24  25
ATOM     25  O   UNL     1       4.063  -9.207   9.320  1.00  0.00    -0.458 OA
BRANCH  25  26
ATOM     26  C   UNL     1       2.749  -9.323   9.013  1.00  0.00     0.338 C 
ATOM     27  O   UNL     1       1.973  -8.423   8.735  1.00  0.00    -0.246 OA
BRANCH  26  28
ATOM     28  C   UNL     1       2.416 -10.753   8.904  1.00  0.00     0.060 A 
ATOM     29  C   UNL     1       1.829 -11.209   7.721  1.00  0.00     0.016 A 
ATOM     30  C   UNL     1       2.681 -11.638   9.951  1.00  0.00     0.016 A 
ATOM     31  C   UNL     1       1.535 -12.559   7.562  1.00  0.00     0.010 A 
ATOM     32  C   UNL     1       2.377 -12.992   9.795  1.00  0.00     0.010 A 
ATOM     33  C   UNL     1       1.806 -13.460   8.598  1.00  0.00    -0.014 A 
BRANCH  33  34
ATOM     34  C   UNL     1       1.446 -14.887   8.441  1.00  0.00     0.031 A 
ATOM     35  C   UNL     1       0.251 -15.430   9.167  1.00  0.00     0.074 A 
ATOM     36  C   UNL     1       2.181 -15.677   7.637  1.00  0.00     0.049 A 
ATOM     37  N   UNL     1      -0.206 -16.654   9.206  1.00  0.00    -0.248 NA
ATOM     38  C   UNL     1      -0.535 -14.467   9.955  1.00  0.00     0.031 C 
ATOM     39  C   UNL     1       3.341 -15.240   6.858  1.00  0.00     0.029 A 
ATOM     40  N   UNL     1       2.065 -17.012   7.344  1.00  0.00    -0.354 N 
ATOM     41  C   UNL     1      -1.324 -16.613  10.030  1.00  0.00     0.074 A 
ATOM     42  C   UNL     1      -1.460 -15.249  10.493  1.00  0.00     0.031 C 
ATOM     43  C   UNL     1       3.831 -16.289   6.176  1.00  0.00     0.029 A 
ATOM     44  C   UNL     1       3.049 -17.478   6.504  1.00  0.00     0.049 A 
ATOM     45  H   UNL     1       1.346 -17.582   7.700  1.00  0.00     0.167 HD
ATOM     46  C   UNL     1      -2.162 -17.624  10.362  1.00  0.00     0.037 A 
ATOM     47  C   UNL     1       3.304 -18.729   6.072  1.00  0.00     0.037 A 
ATOM     48  C   UNL     1      -2.010 -18.978   9.891  1.00  0.00     0.049 A 
ATOM     49  C   UNL     1       2.396 -19.848   6.508  1.00  0.00     0.074 A 
ATOM     50  C   UNL     1      -2.809 -20.075  10.156  1.00  0.00     0.029 A 
ATOM     51  N   UNL     1      -0.986 -19.420   9.065  1.00  0.00    -0.354 N 
ATOM     52  N   UNL     1       1.331 -19.795   7.275  1.00  0.00    -0.248 NA
ATOM     53  C   UNL     1       2.720 -21.196   6.023  1.00  0.00     0.031 C 
ATOM     54  C   UNL     1      -2.237 -21.192   9.538  1.00  0.00     0.029 A 
ATOM     55  C   UNL     1      -1.117 -20.780   8.833  1.00  0.00     0.049 A 
ATOM     56  H   UNL     1      -0.271 -18.852   8.697  1.00  0.00     0.167 HD
ATOM     57  C   UNL     1       0.843 -21.096   7.340  1.00  0.00     0.074 A 
ATOM     58  C   UNL     1       1.721 -21.910   6.524  1.00  0.00     0.031 C 
ATOM     59  C   UNL     1      -0.235 -21.573   8.011  1.00  0.00     0.037 A 
BRANCH  46  60
ATOM     60  C   UNL     1      -3.295 -17.313  11.301  1.00  0.00     0.058 A 
ATOM     61  C   UNL     1      -4.389 -16.525  10.911  1.00  0.00     0.135 A 
ATOM     62  C   UNL     1      -3.301 -17.839  12.604  1.00  0.00     0.135 A 
ATOM     63  F   UNL     1      -4.428 -15.980   9.684  1.00  0.00    -0.206 F 
ATOM     64  C   UNL     1      -5.436 -16.248  11.785  1.00  0.00     0.059 A 
ATOM     65  C   UNL     1      -4.352 -17.600  13.485  1.00  0.00     0.059 A 
ATOM     66  F   UNL     1      -2.279 -18.596  13.032  1.00  0.00    -0.206 F 
ATOM     67  C   UNL     1      -5.408 -16.792  13.070  1.00  0.00     0.060 A 
BRANCH  67  68
ATOM     68  S   UNL     1      -6.777 -16.429  14.190  1.00  0.00     0.124 S 
ATOM     69  O   UNL     1      -6.546 -15.018  14.486  1.00  0.00    -0.237 OA
ATOM     70  O   UNL     1      -7.943 -16.718  13.360  1.00  0.00    -0.237 OA
ATOM     71  O   UNL     1      -6.561 -17.347  15.303  1.00  0.00    -0.744 OA
ENDBRANCH  67  68
ENDBRANCH  46  60
BRANCH  47  72
ATOM     72  C   UNL     1       4.476 -18.989   5.191  1.00  0.00     0.058 A 
ATOM     73  C   UNL     1       4.309 -19.391   3.858  1.00  0.00     0.135 A 
ATOM     74  C   UNL     1       5.789 -18.841   5.667  1.00  0.00     0.135 A 
ATOM     75  F   UNL     1       3.076 -19.558   3.356  1.00  0.00    -0.206 F 
ATOM     76  C   UNL     1       5.399 -19.652   3.032  1.00  0.00     0.059 A 
ATOM     77  C   UNL     1       6.895 -19.066   4.853  1.00  0.00     0.059 A 
ATOM     78  F   UNL     1       6.006 -18.450   6.933  1.00  0.00    -0.206 F 
ATOM     79  C   UNL     1       6.689 -19.483   3.539  1.00  0.00     0.060 A 
BRANCH  79  80
ATOM     80  S   UNL     1       8.095 -19.787   2.447  1.00  0.00     0.124 S 
ATOM     81  O   UNL     1       8.059 -21.239   2.318  1.00  0.00    -0.237 OA
ATOM     82  O   UNL     1       7.726 -19.029   1.255  1.00  0.00    -0.237 OA
ATOM     83  O   UNL     1       9.226 -19.248   3.197  1.00  0.00    -0.744 OA
ENDBRANCH  79  80
ENDBRANCH  47  72
BRANCH  59  84
ATOM     84  C   UNL     1      -0.554 -23.037   7.860  1.00  0.00     0.058 A 
ATOM     85  C   UNL     1       0.240 -24.033   8.448  1.00  0.00     0.135 A 
ATOM     86  C   UNL     1      -1.703 -23.442   7.161  1.00  0.00     0.135 A 
ATOM     87  F   UNL     1       1.353 -23.702   9.121  1.00  0.00    -0.206 F 
ATOM     88  C   UNL     1      -0.080 -25.382   8.327  1.00  0.00     0.059 A 
ATOM     89  C   UNL     1      -2.060 -24.783   7.055  1.00  0.00     0.059 A 
ATOM     90  F   UNL     1      -2.504 -22.530   6.588  1.00  0.00    -0.206 F 
ATOM     91  C   UNL     1      -1.234 -25.747   7.632  1.00  0.00     0.060 A 
BRANCH  91  92
ATOM     92  S   UNL     1      -1.656 -27.498   7.514  1.00  0.00     0.124 S 
ATOM     93  O   UNL     1      -0.650 -27.980   6.574  1.00  0.00    -0.237 OA
ATOM     94  O   UNL     1      -1.503 -27.948   8.894  1.00  0.00    -0.237 OA
ATOM     95  O   UNL     1      -3.028 -27.485   7.013  1.00  0.00    -0.744 OA
ENDBRANCH  91  92
ENDBRANCH  59  84
ENDBRANCH  33  34
ENDBRANCH  26  28
ENDBRANCH  25  26
ENDBRANCH  24  25
ENDBRANCH   1  24
TORSDOF 18
