REMARK SMILES O=C(OCCOC(=O)c1ccc(-c2c3nc(c(-c4c(F)cc(S(=O)(=O)[O-])cc4F)c4ccc([nH]4)c(-c4c(F)cc(S(=O)(=O)[O-])cc4F)c4nc(c(-c5c(F)cc(S(=O)(=O)[O-])cc5F)c5ccc2[nH]5)C=C4)C=C3)cc1)C1=Cc2c(Cl)cc(Cl)cc2O[C@@H]1C(F)(F)F
REMARK SMILES IDX 5 1 4 2 3 3 2 4 1 5 75 6 76 7 86 8 77 9 85 10 78 11 84 12
REMARK SMILES IDX 79 13 80 14 83 15 81 16 82 17 87 18 88 19 89 20 90 21 6 22
REMARK SMILES IDX 7 23 8 24 9 25 10 26 74 27 11 28 73 29 12 30 13 31 14 32
REMARK SMILES IDX 67 33 15 34 72 35 66 36 68 37 16 38 71 39 65 40 64 41 17 43
REMARK SMILES IDX 51 44 30 45 50 46 31 47 34 48 49 49 69 50 32 51 33 52 48 54
REMARK SMILES IDX 70 55 35 56 18 57 19 58 28 59 20 60 21 61 27 62 29 63 22 64
REMARK SMILES IDX 23 65 24 66 25 67 26 68 52 69 53 70 62 71 54 72 55 73 61 74
REMARK SMILES IDX 63 75 56 76 57 77 58 78 59 79 60 80 36 81 37 82 46 83 38 84
REMARK SMILES IDX 39 85 45 86 47 87 40 88 41 89 42 90 43 91 44 92
REMARK H PARENT 68 42 34 53
REMARK Flexibility Score: inf
ROOT
ATOM      1  C   UNL     1       3.143   1.154  -2.271  1.00  0.00     0.275 C 
ENDROOT
BRANCH   1   2
ATOM      2  C   UNL     1       2.820  -0.178  -1.560  1.00  0.00     0.275 C 
BRANCH   2   3
ATOM      3  O   UNL     1       2.327   0.067  -0.233  1.00  0.00    -0.459 OA
BRANCH   3   4
ATOM      4  C   UNL     1       2.676  -0.873   0.673  1.00  0.00     0.338 C 
ATOM      5  O   UNL     1       2.370  -2.052   0.587  1.00  0.00    -0.246 OA
BRANCH   4   6
ATOM      6  C   UNL     1       3.596  -0.300   1.712  1.00  0.00     0.087 C 
ATOM      7  C   UNL     1       4.571  -1.175   2.038  1.00  0.00     0.029 C 
ATOM      8  C   UNL     1       4.043   1.128   1.455  1.00  0.00     0.316 C 
ATOM      9  C   UNL     1       5.754  -1.072   1.139  1.00  0.00     0.036 A 
ATOM     10  O   UNL     1       5.099   1.184   0.455  1.00  0.00    -0.475 OA
ATOM     11  C   UNL     1       6.676  -2.118   0.989  1.00  0.00     0.053 A 
ATOM     12  C   UNL     1       5.904   0.078   0.343  1.00  0.00     0.130 A 
ATOM     13  Cl  UNL     1       6.634  -3.521   1.997  1.00  0.00    -0.083 Cl
ATOM     14  C   UNL     1       7.654  -2.061  -0.008  1.00  0.00     0.042 A 
ATOM     15  C   UNL     1       6.866   0.128  -0.665  1.00  0.00     0.067 A 
ATOM     16  C   UNL     1       7.719  -0.955  -0.852  1.00  0.00     0.046 A 
ATOM     17  Cl  UNL     1       8.846  -0.939  -2.152  1.00  0.00    -0.084 Cl
BRANCH   8  18
ATOM     18  C   UNL     1       4.402   1.925   2.712  1.00  0.00     0.430 C 
ATOM     19  F   UNL     1       3.305   2.123   3.479  1.00  0.00    -0.167 F 
ATOM     20  F   UNL     1       5.331   1.306   3.472  1.00  0.00    -0.167 F 
ATOM     21  F   UNL     1       4.890   3.147   2.389  1.00  0.00    -0.167 F 
ENDBRANCH   8  18
ENDBRANCH   4   6
ENDBRANCH   3   4
ENDBRANCH   2   3
ENDBRANCH   1   2
BRANCH   1  22
ATOM     22  O   UNL     1       2.920   2.296  -1.425  1.00  0.00    -0.458 OA
BRANCH  22  23
ATOM     23  C   UNL     1       1.616   2.666  -1.336  1.00  0.00     0.338 C 
ATOM     24  O   UNL     1       0.720   2.301  -2.080  1.00  0.00    -0.246 OA
BRANCH  23  25
ATOM     25  C   UNL     1       1.387   3.391  -0.060  1.00  0.00     0.060 A 
ATOM     26  C   UNL     1       0.180   3.146   0.602  1.00  0.00     0.016 A 
ATOM     27  C   UNL     1       2.338   4.240   0.522  1.00  0.00     0.016 A 
ATOM     28  C   UNL     1      -0.099   3.778   1.814  1.00  0.00     0.010 A 
ATOM     29  C   UNL     1       2.066   4.854   1.756  1.00  0.00     0.010 A 
ATOM     30  C   UNL     1       0.828   4.659   2.391  1.00  0.00    -0.014 A 
BRANCH  30  31
ATOM     31  C   UNL     1       0.398   5.466   3.566  1.00  0.00     0.031 A 
ATOM     32  C   UNL     1      -0.009   6.902   3.356  1.00  0.00     0.074 A 
ATOM     33  C   UNL     1       0.254   4.908   4.784  1.00  0.00     0.049 A 
ATOM     34  N   UNL     1      -0.640   7.710   4.168  1.00  0.00    -0.248 NA
ATOM     35  C   UNL     1       0.336   7.504   2.058  1.00  0.00     0.031 C 
ATOM     36  C   UNL     1       0.636   3.544   5.144  1.00  0.00     0.029 A 
ATOM     37  N   UNL     1      -0.275   5.423   5.944  1.00  0.00    -0.354 N 
ATOM     38  C   UNL     1      -0.815   8.893   3.462  1.00  0.00     0.074 A 
ATOM     39  C   UNL     1      -0.145   8.730   2.191  1.00  0.00     0.031 C 
ATOM     40  C   UNL     1       0.323   3.326   6.434  1.00  0.00     0.029 A 
ATOM     41  C   UNL     1      -0.298   4.528   6.988  1.00  0.00     0.049 A 
ATOM     42  H   UNL     1      -0.607   6.346   6.020  1.00  0.00     0.167 HD
ATOM     43  C   UNL     1      -1.508  10.002   3.815  1.00  0.00     0.037 A 
ATOM     44  C   UNL     1      -0.787   4.654   8.239  1.00  0.00     0.037 A 
ATOM     45  C   UNL     1      -2.149  10.190   5.088  1.00  0.00     0.049 A 
ATOM     46  C   UNL     1      -1.514   5.918   8.631  1.00  0.00     0.074 A 
ATOM     47  C   UNL     1      -2.872  11.280   5.538  1.00  0.00     0.029 A 
ATOM     48  N   UNL     1      -2.134   9.266   6.121  1.00  0.00    -0.354 N 
ATOM     49  N   UNL     1      -1.758   6.989   7.913  1.00  0.00    -0.248 NA
ATOM     50  C   UNL     1      -2.062   5.975   9.995  1.00  0.00     0.031 C 
ATOM     51  C   UNL     1      -3.264  11.030   6.859  1.00  0.00     0.029 A 
ATOM     52  C   UNL     1      -2.821   9.767   7.215  1.00  0.00     0.049 A 
ATOM     53  H   UNL     1      -1.699   8.383   6.084  1.00  0.00     0.167 HD
ATOM     54  C   UNL     1      -2.513   7.830   8.728  1.00  0.00     0.074 A 
ATOM     55  C   UNL     1      -2.699   7.137   9.985  1.00  0.00     0.031 C 
ATOM     56  C   UNL     1      -3.008   9.064   8.459  1.00  0.00     0.037 A 
BRANCH  43  57
ATOM     57  C   UNL     1      -1.619  11.089   2.783  1.00  0.00     0.058 A 
ATOM     58  C   UNL     1      -2.425  10.923   1.644  1.00  0.00     0.135 A 
ATOM     59  C   UNL     1      -0.919  12.296   2.922  1.00  0.00     0.135 A 
ATOM     60  F   UNL     1      -3.100   9.778   1.454  1.00  0.00    -0.206 F 
ATOM     61  C   UNL     1      -2.506  11.903   0.662  1.00  0.00     0.059 A 
ATOM     62  C   UNL     1      -1.004  13.301   1.963  1.00  0.00     0.059 A 
ATOM     63  F   UNL     1      -0.133  12.503   3.990  1.00  0.00    -0.206 F 
ATOM     64  C   UNL     1      -1.786  13.087   0.827  1.00  0.00     0.060 A 
BRANCH  64  65
ATOM     65  S   UNL     1      -1.883  14.339  -0.468  1.00  0.00     0.124 S 
ATOM     66  O   UNL     1      -1.071  13.733  -1.519  1.00  0.00    -0.237 OA
ATOM     67  O   UNL     1      -3.317  14.405  -0.735  1.00  0.00    -0.237 OA
ATOM     68  O   UNL     1      -1.311  15.525   0.162  1.00  0.00    -0.744 OA
ENDBRANCH  64  65
ENDBRANCH  43  57
BRANCH  44  69
ATOM     69  C   UNL     1      -0.638   3.545   9.220  1.00  0.00     0.058 A 
ATOM     70  C   UNL     1      -1.743   2.798   9.655  1.00  0.00     0.135 A 
ATOM     71  C   UNL     1       0.613   3.246   9.782  1.00  0.00     0.135 A 
ATOM     72  F   UNL     1      -2.962   3.052   9.155  1.00  0.00    -0.206 F 
ATOM     73  C   UNL     1      -1.622   1.819  10.637  1.00  0.00     0.059 A 
ATOM     74  C   UNL     1       0.764   2.256  10.747  1.00  0.00     0.059 A 
ATOM     75  F   UNL     1       1.704   3.923   9.391  1.00  0.00    -0.206 F 
ATOM     76  C   UNL     1      -0.363   1.560  11.182  1.00  0.00     0.060 A 
BRANCH  76  77
ATOM     77  S   UNL     1      -0.212   0.285  12.454  1.00  0.00     0.124 S 
ATOM     78  O   UNL     1      -0.787   0.958  13.613  1.00  0.00    -0.237 OA
ATOM     79  O   UNL     1      -1.002  -0.806  11.892  1.00  0.00    -0.237 OA
ATOM     80  O   UNL     1       1.226   0.042  12.514  1.00  0.00    -0.744 OA
ENDBRANCH  76  77
ENDBRANCH  44  69
BRANCH  56  81
ATOM     81  C   UNL     1      -3.825   9.735   9.531  1.00  0.00     0.058 A 
ATOM     82  C   UNL     1      -3.237  10.239  10.701  1.00  0.00     0.135 A 
ATOM     83  C   UNL     1      -5.210   9.908   9.367  1.00  0.00     0.135 A 
ATOM     84  F   UNL     1      -1.918  10.100  10.909  1.00  0.00    -0.206 F 
ATOM     85  C   UNL     1      -3.997  10.860  11.688  1.00  0.00     0.059 A 
ATOM     86  C   UNL     1      -5.985  10.551  10.328  1.00  0.00     0.059 A 
ATOM     87  F   UNL     1      -5.822   9.458   8.261  1.00  0.00    -0.206 F 
ATOM     88  C   UNL     1      -5.372  11.009  11.493  1.00  0.00     0.060 A 
BRANCH  88  89
ATOM     89  S   UNL     1      -6.346  11.833  12.771  1.00  0.00     0.124 S 
ATOM     90  O   UNL     1      -6.457  10.783  13.778  1.00  0.00    -0.237 OA
ATOM     91  O   UNL     1      -5.501  12.968  13.129  1.00  0.00    -0.237 OA
ATOM     92  O   UNL     1      -7.586  12.177  12.082  1.00  0.00    -0.744 OA
ENDBRANCH  88  89
ENDBRANCH  56  81
ENDBRANCH  30  31
ENDBRANCH  23  25
ENDBRANCH  22  23
ENDBRANCH   1  22
TORSDOF 15
