REMARK SMILES Cc1c(CC(=O)OCCOC(=O)c2ccc(-c3c4nc(c(-c5c(F)cc(S(=O)(=O)[O-])cc5F)c5ccc([nH]5)c(-c5c(F)cc(S(=O)(=O)[O-])cc5F)c5nc(c(-c6c(F)cc(S(=O)(=O)[O-])cc6F)c6ccc3[nH]6)C=C5)C=C4)cc2)cc(-c2ccc(S(C)(=O)=O)cc2)n1-c1ccccc1
REMARK SMILES IDX 8 1 7 2 5 3 6 4 4 5 3 6 1 7 2 8 91 9 79 10 80 11 92 12 93 13
REMARK SMILES IDX 97 14 94 15 96 16 95 17 81 18 82 19 90 20 83 21 89 22 84 23
REMARK SMILES IDX 85 24 86 25 87 26 88 27 9 28 10 29 11 30 12 31 13 32 14 33
REMARK SMILES IDX 78 34 15 35 77 36 16 37 17 38 18 39 71 40 19 41 76 42 70 43
REMARK SMILES IDX 72 44 20 45 75 46 69 47 68 48 21 50 55 51 34 52 54 53 35 54
REMARK SMILES IDX 38 55 53 56 73 57 36 58 37 59 52 61 74 62 39 63 22 64 23 65
REMARK SMILES IDX 32 66 24 67 25 68 31 69 33 70 26 71 27 72 28 73 29 74 30 75
REMARK SMILES IDX 56 76 57 77 66 78 58 79 59 80 65 81 67 82 60 83 61 84 62 85
REMARK SMILES IDX 63 86 64 87 40 88 41 89 50 90 42 91 43 92 49 93 51 94 44 95
REMARK SMILES IDX 45 96 46 97 47 98 48 99
REMARK H PARENT 72 49 38 60
REMARK Flexibility Score: inf
ROOT
ATOM      1  C   UNL     1      -1.389  -2.542  -0.872  1.00  0.00     0.274 C 
ENDROOT
BRANCH   1   2
ATOM      2  O   UNL     1      -0.791  -1.716   0.168  1.00  0.00    -0.462 OA
BRANCH   2   3
ATOM      3  C   UNL     1      -0.837  -2.161   1.452  1.00  0.00     0.310 C 
ATOM      4  O   UNL     1      -1.343  -3.235   1.776  1.00  0.00    -0.252 OA
BRANCH   3   5
ATOM      5  C   UNL     1      -0.135  -1.286   2.487  1.00  0.00     0.160 C 
BRANCH   5   6
ATOM      6  C   UNL     1       0.091   0.182   2.221  1.00  0.00    -0.015 A 
ATOM      7  C   UNL     1       1.516   0.088   0.046  1.00  0.00     0.065 C 
ATOM      8  C   UNL     1       0.780   0.755   1.165  1.00  0.00     0.024 A 
ATOM      9  N   UNL     1       0.785   2.133   1.324  1.00  0.00    -0.314 N 
ATOM     10  C   UNL     1      -0.172   1.259   3.131  1.00  0.00     0.033 A 
ATOM     11  C   UNL     1       0.327   2.444   2.600  1.00  0.00     0.053 A 
BRANCH   9  12
ATOM     12  C   UNL     1       1.240   3.045   0.345  1.00  0.00     0.046 A 
ATOM     13  C   UNL     1       2.365   3.836   0.588  1.00  0.00     0.026 A 
ATOM     14  C   UNL     1       0.575   3.087  -0.886  1.00  0.00     0.026 A 
ATOM     15  C   UNL     1       2.845   4.656  -0.432  1.00  0.00     0.002 A 
ATOM     16  C   UNL     1       1.045   3.933  -1.886  1.00  0.00     0.002 A 
ATOM     17  C   UNL     1       2.186   4.704  -1.663  1.00  0.00     0.000 A 
ENDBRANCH   9  12
BRANCH  11  18
ATOM     18  C   UNL     1       0.350   3.791   3.190  1.00  0.00    -0.001 A 
ATOM     19  C   UNL     1      -0.333   4.860   2.591  1.00  0.00     0.011 A 
ATOM     20  C   UNL     1       1.100   4.036   4.351  1.00  0.00     0.011 A 
ATOM     21  C   UNL     1      -0.251   6.153   3.121  1.00  0.00     0.021 A 
ATOM     22  C   UNL     1       1.191   5.327   4.886  1.00  0.00     0.021 A 
ATOM     23  C   UNL     1       0.523   6.381   4.262  1.00  0.00     0.067 A 
BRANCH  23  24
ATOM     24  S   UNL     1       0.600   8.028   4.929  1.00  0.00     0.175 S 
ATOM     25  C   UNL     1       1.441   8.976   3.688  1.00  0.00     0.163 C 
ATOM     26  O   UNL     1      -0.742   8.510   5.049  1.00  0.00    -0.224 OA
ATOM     27  O   UNL     1       1.484   7.984   6.104  1.00  0.00    -0.224 OA
ENDBRANCH  23  24
ENDBRANCH  11  18
ENDBRANCH   5   6
ENDBRANCH   3   5
ENDBRANCH   2   3
ENDBRANCH   1   2
BRANCH   1  28
ATOM     28  C   UNL     1      -0.554  -2.514  -2.197  1.00  0.00     0.275 C 
BRANCH  28  29
ATOM     29  O   UNL     1       0.249  -3.704  -2.637  1.00  0.00    -0.458 OA
BRANCH  29  30
ATOM     30  C   UNL     1       1.608  -3.777  -2.380  1.00  0.00     0.338 C 
ATOM     31  O   UNL     1       2.129  -3.097  -1.504  1.00  0.00    -0.246 OA
BRANCH  30  32
ATOM     32  C   UNL     1       2.473  -4.771  -3.260  1.00  0.00     0.060 A 
ATOM     33  C   UNL     1       3.503  -5.600  -2.768  1.00  0.00     0.016 A 
ATOM     34  C   UNL     1       2.479  -4.776  -4.642  1.00  0.00     0.016 A 
ATOM     35  C   UNL     1       4.471  -6.415  -3.620  1.00  0.00     0.010 A 
ATOM     36  C   UNL     1       3.459  -5.570  -5.467  1.00  0.00     0.010 A 
ATOM     37  C   UNL     1       4.560  -6.442  -5.052  1.00  0.00    -0.014 A 
BRANCH  37  38
ATOM     38  C   UNL     1       6.078  -6.973  -5.906  1.00  0.00     0.031 A 
ATOM     39  C   UNL     1       7.163  -6.062  -5.353  1.00  0.00     0.074 A 
ATOM     40  C   UNL     1       6.780  -7.578  -7.069  1.00  0.00     0.049 A 
ATOM     41  N   UNL     1       7.579  -5.146  -6.174  1.00  0.00    -0.248 NA
ATOM     42  C   UNL     1       7.255  -5.626  -3.965  1.00  0.00     0.031 C 
ATOM     43  C   UNL     1       8.305  -7.495  -7.301  1.00  0.00     0.029 A 
ATOM     44  N   UNL     1       6.488  -8.219  -8.349  1.00  0.00    -0.354 N 
ATOM     45  C   UNL     1       7.037  -4.045  -5.605  1.00  0.00     0.074 A 
ATOM     46  C   UNL     1       7.080  -4.310  -4.162  1.00  0.00     0.031 C 
ATOM     47  C   UNL     1       8.744  -8.022  -8.471  1.00  0.00     0.029 A 
ATOM     48  C   UNL     1       7.660  -8.649  -9.242  1.00  0.00     0.049 A 
ATOM     49  H   UNL     1       5.558  -8.372  -8.633  1.00  0.00     0.167 HD
ATOM     50  C   UNL     1       6.158  -3.306  -6.328  1.00  0.00     0.037 A 
ATOM     51  C   UNL     1       7.858  -8.698 -10.649  1.00  0.00     0.037 A 
ATOM     52  C   UNL     1       5.649  -3.917  -7.578  1.00  0.00     0.049 A 
ATOM     53  C   UNL     1       7.051  -7.609 -11.200  1.00  0.00     0.074 A 
ATOM     54  C   UNL     1       4.918  -5.031  -7.950  1.00  0.00     0.029 A 
ATOM     55  N   UNL     1       6.034  -3.426  -8.809  1.00  0.00    -0.354 N 
ATOM     56  N   UNL     1       7.475  -6.479 -11.671  1.00  0.00    -0.248 NA
ATOM     57  C   UNL     1       5.607  -7.827 -11.197  1.00  0.00     0.031 C 
ATOM     58  C   UNL     1       4.547  -4.981  -9.291  1.00  0.00     0.029 A 
ATOM     59  C   UNL     1       5.604  -4.292  -9.819  1.00  0.00     0.049 A 
ATOM     60  H   UNL     1       6.537  -2.591  -8.954  1.00  0.00     0.167 HD
ATOM     61  C   UNL     1       6.329  -5.707 -11.631  1.00  0.00     0.074 A 
ATOM     62  C   UNL     1       5.213  -6.633 -11.604  1.00  0.00     0.031 C 
ATOM     63  C   UNL     1       6.412  -4.518 -10.980  1.00  0.00     0.037 A 
BRANCH  50  64
ATOM     64  C   UNL     1       5.876  -1.899  -5.930  1.00  0.00     0.058 A 
ATOM     65  C   UNL     1       6.656  -1.183  -4.997  1.00  0.00     0.135 A 
ATOM     66  C   UNL     1       4.960  -1.151  -6.688  1.00  0.00     0.135 A 
ATOM     67  F   UNL     1       7.567  -1.773  -4.211  1.00  0.00    -0.206 F 
ATOM     68  C   UNL     1       6.582   0.192  -4.876  1.00  0.00     0.059 A 
ATOM     69  C   UNL     1       4.917   0.233  -6.628  1.00  0.00     0.059 A 
ATOM     70  F   UNL     1       4.115  -1.748  -7.545  1.00  0.00    -0.206 F 
ATOM     71  C   UNL     1       5.738   0.894  -5.723  1.00  0.00     0.060 A 
BRANCH  71  72
ATOM     72  S   UNL     1       5.761   2.684  -5.635  1.00  0.00     0.124 S 
ATOM     73  O   UNL     1       5.111   2.915  -4.348  1.00  0.00    -0.237 OA
ATOM     74  O   UNL     1       7.189   2.981  -5.680  1.00  0.00    -0.237 OA
ATOM     75  O   UNL     1       4.989   3.090  -6.804  1.00  0.00    -0.744 OA
ENDBRANCH  71  72
ENDBRANCH  50  64
BRANCH  51  76
ATOM     76  C   UNL     1       8.266  -9.729 -11.813  1.00  0.00     0.058 A 
ATOM     77  C   UNL     1       9.522 -10.310 -12.126  1.00  0.00     0.135 A 
ATOM     78  C   UNL     1       7.311 -10.024 -12.841  1.00  0.00     0.135 A 
ATOM     79  F   UNL     1      10.621  -9.957 -11.441  1.00  0.00    -0.206 F 
ATOM     80  C   UNL     1       9.722 -11.242 -13.217  1.00  0.00     0.059 A 
ATOM     81  C   UNL     1       7.472 -10.930 -13.900  1.00  0.00     0.059 A 
ATOM     82  F   UNL     1       6.126  -9.412 -12.903  1.00  0.00    -0.206 F 
ATOM     83  C   UNL     1       8.663 -11.595 -14.056  1.00  0.00     0.060 A 
BRANCH  83  84
ATOM     84  S   UNL     1       8.705 -12.995 -15.225  1.00  0.00     0.124 S 
ATOM     85  O   UNL     1       9.320 -12.416 -16.413  1.00  0.00    -0.237 OA
ATOM     86  O   UNL     1       9.504 -13.984 -14.509  1.00  0.00    -0.237 OA
ATOM     87  O   UNL     1       7.292 -13.349 -15.368  1.00  0.00    -0.744 OA
ENDBRANCH  83  84
ENDBRANCH  51  76
BRANCH  63  88
ATOM     88  C   UNL     1       7.590  -3.695 -11.285  1.00  0.00     0.058 A 
ATOM     89  C   UNL     1       7.551  -3.004 -12.494  1.00  0.00     0.135 A 
ATOM     90  C   UNL     1       8.591  -3.402 -10.349  1.00  0.00     0.135 A 
ATOM     91  F   UNL     1       6.616  -3.293 -13.414  1.00  0.00    -0.206 F 
ATOM     92  C   UNL     1       8.396  -1.941 -12.713  1.00  0.00     0.059 A 
ATOM     93  C   UNL     1       9.418  -2.309 -10.528  1.00  0.00     0.059 A 
ATOM     94  F   UNL     1       8.672  -4.077  -9.191  1.00  0.00    -0.206 F 
ATOM     95  C   UNL     1       9.285  -1.570 -11.702  1.00  0.00     0.060 A 
BRANCH  95  96
ATOM     96  S   UNL     1      10.187  -0.036 -11.929  1.00  0.00     0.124 S 
ATOM     97  O   UNL     1      10.920  -0.304 -13.162  1.00  0.00    -0.237 OA
ATOM     98  O   UNL     1       9.097   0.928 -12.039  1.00  0.00    -0.237 OA
ATOM     99  O   UNL     1      11.003   0.061 -10.723  1.00  0.00    -0.744 OA
ENDBRANCH  95  96
ENDBRANCH  63  88
ENDBRANCH  37  38
ENDBRANCH  30  32
ENDBRANCH  29  30
ENDBRANCH  28  29
ENDBRANCH   1  28
TORSDOF 18
