REMARK SMILES CC(=O)OCC1=C(C(=O)OCCOC(=O)c2ccc(-c3c4nc(c(-c5c(F)cc(S(=O)(=O)[O-])cc5F)c5ccc([nH]5)c(-c5c(F)cc(S(=O)(=O)[O-])cc5F)c5nc(c(-c6c(F)cc(S(=O)(=O)[O-])cc6F)c6ccc3[nH]6)C=C5)C=C4)cc2)N2C(=O)[C@H](NC(=O)c3c(C)nn(C(F)F)c3C)[C@@H]2SC1
REMARK SMILES IDX 11 1 10 2 8 3 9 4 7 5 6 6 101 7 82 8 100 9 83 10 99 11 84 12
REMARK SMILES IDX 85 13 5 14 4 15 2 16 1 17 3 18 86 19 87 20 88 22 89 23 90 24
REMARK SMILES IDX 97 25 91 26 92 27 93 28 98 29 94 30 95 31 96 32 12 33 13 34
REMARK SMILES IDX 14 35 15 36 16 37 17 38 81 39 18 40 80 41 19 42 20 43 21 44
REMARK SMILES IDX 74 45 22 46 79 47 73 48 75 49 23 50 78 51 72 52 71 53 24 55
REMARK SMILES IDX 58 56 37 57 57 58 38 59 41 60 56 61 76 62 39 63 40 64 55 66
REMARK SMILES IDX 77 67 42 68 25 69 26 70 35 71 27 72 28 73 34 74 36 75 29 76
REMARK SMILES IDX 30 77 31 78 32 79 33 80 59 81 60 82 69 83 61 84 62 85 68 86
REMARK SMILES IDX 70 87 63 88 64 89 65 90 66 91 67 92 43 93 44 94 53 95 45 96
REMARK SMILES IDX 46 97 52 98 54 99 47 100 48 101 49 102 50 103 51 104
REMARK H PARENT 86 21 75 54 41 65
REMARK Flexibility Score: inf
ROOT
ATOM      1  C   UNL     1       0.902   6.630  -3.379  1.00  0.00     0.275 C 
ENDROOT
BRANCH   1   2
ATOM      2  O   UNL     1       1.014   5.205  -3.594  1.00  0.00    -0.457 OA
BRANCH   2   3
ATOM      3  C   UNL     1       0.109   4.631  -4.431  1.00  0.00     0.355 C 
ATOM      4  O   UNL     1      -0.788   5.215  -5.011  1.00  0.00    -0.244 OA
BRANCH   3   5
ATOM      5  C   UNL     1       0.409   3.160  -4.579  1.00  0.00     0.134 C 
ATOM      6  C   UNL     1       0.461   2.315  -3.515  1.00  0.00     0.008 C 
ATOM      7  C   UNL     1       0.615   0.806  -3.655  1.00  0.00     0.108 C 
ATOM      8  N   UNL     1       0.555   2.660  -5.841  1.00  0.00    -0.289 N 
ATOM      9  S   UNL     1       0.313   0.121  -5.305  1.00  0.00    -0.129 SA
ATOM     10  C   UNL     1       0.262   2.989  -7.118  1.00  0.00     0.253 C 
ATOM     11  C   UNL     1       1.246   1.424  -6.129  1.00  0.00     0.181 C 
ATOM     12  O   UNL     1      -0.304   3.928  -7.618  1.00  0.00    -0.272 OA
ATOM     13  C   UNL     1       0.973   1.690  -7.635  1.00  0.00     0.206 C 
BRANCH   6  14
ATOM     14  C   UNL     1       0.245   2.757  -2.075  1.00  0.00     0.267 C 
BRANCH  14  15
ATOM     15  O   UNL     1       0.943   1.877  -1.172  1.00  0.00    -0.461 OA
BRANCH  15  16
ATOM     16  C   UNL     1       0.173   1.035  -0.430  1.00  0.00     0.302 C 
ATOM     17  C   UNL     1       1.027   0.119   0.392  1.00  0.00     0.139 C 
ATOM     18  O   UNL     1      -1.048   0.990  -0.444  1.00  0.00    -0.253 OA
ENDBRANCH  15  16
ENDBRANCH  14  15
ENDBRANCH   6  14
BRANCH  13  19
ATOM     19  N   UNL     1       0.128   0.736  -8.385  1.00  0.00    -0.337 N 
ATOM     20  C   UNL     1       0.447   0.018  -9.516  1.00  0.00     0.255 C 
ATOM     21  H   UNL     1      -0.779   0.597  -8.030  1.00  0.00     0.164 HD
ATOM     22  O   UNL     1      -0.452  -0.569 -10.112  1.00  0.00    -0.269 OA
BRANCH  20  23
ATOM     23  C   UNL     1       1.829  -0.026  -9.968  1.00  0.00     0.083 A 
ATOM     24  C   UNL     1       2.308   0.219 -11.285  1.00  0.00     0.073 A 
ATOM     25  C   UNL     1       2.956  -0.441  -9.262  1.00  0.00     0.054 A 
ATOM     26  C   UNL     1       1.557   0.616 -12.505  1.00  0.00     0.069 C 
ATOM     27  N   UNL     1       3.629   0.045 -11.373  1.00  0.00    -0.172 NA
ATOM     28  N   UNL     1       4.017  -0.346 -10.145  1.00  0.00    -0.208 N 
ATOM     29  C   UNL     1       3.108  -0.971  -7.885  1.00  0.00     0.067 C 
BRANCH  28  30
ATOM     30  C   UNL     1       5.431  -0.646  -9.892  1.00  0.00     0.465 C 
ATOM     31  F   UNL     1       5.876  -1.696 -10.629  1.00  0.00    -0.184 F 
ATOM     32  F   UNL     1       6.233   0.420 -10.139  1.00  0.00    -0.184 F 
ENDBRANCH  28  30
ENDBRANCH  20  23
ENDBRANCH  13  19
ENDBRANCH   3   5
ENDBRANCH   2   3
ENDBRANCH   1   2
BRANCH   1  33
ATOM     33  C   UNL     1       2.291   7.276  -3.403  1.00  0.00     0.275 C 
BRANCH  33  34
ATOM     34  O   UNL     1       2.845   7.206  -4.730  1.00  0.00    -0.458 OA
BRANCH  34  35
ATOM     35  C   UNL     1       3.633   6.131  -4.965  1.00  0.00     0.338 C 
ATOM     36  O   UNL     1       4.009   5.292  -4.163  1.00  0.00    -0.246 OA
BRANCH  35  37
ATOM     37  C   UNL     1       3.784   5.968  -6.416  1.00  0.00     0.060 A 
ATOM     38  C   UNL     1       2.937   5.045  -7.018  1.00  0.00     0.016 A 
ATOM     39  C   UNL     1       4.758   6.621  -7.164  1.00  0.00     0.016 A 
ATOM     40  C   UNL     1       3.078   4.730  -8.363  1.00  0.00     0.010 A 
ATOM     41  C   UNL     1       4.877   6.328  -8.532  1.00  0.00     0.010 A 
ATOM     42  C   UNL     1       4.049   5.364  -9.141  1.00  0.00    -0.014 A 
BRANCH  42  43
ATOM     43  C   UNL     1       4.212   4.966 -10.566  1.00  0.00     0.031 A 
ATOM     44  C   UNL     1       5.491   4.314 -11.019  1.00  0.00     0.074 A 
ATOM     45  C   UNL     1       3.197   5.121 -11.443  1.00  0.00     0.049 A 
ATOM     46  N   UNL     1       5.899   4.040 -12.230  1.00  0.00    -0.248 NA
ATOM     47  C   UNL     1       6.436   3.919  -9.962  1.00  0.00     0.031 C 
ATOM     48  C   UNL     1       1.866   5.639 -11.119  1.00  0.00     0.029 A 
ATOM     49  N   UNL     1       3.127   4.854 -12.788  1.00  0.00    -0.354 N 
ATOM     50  C   UNL     1       7.157   3.465 -12.086  1.00  0.00     0.074 A 
ATOM     51  C   UNL     1       7.453   3.448 -10.670  1.00  0.00     0.031 C 
ATOM     52  C   UNL     1       1.112   5.645 -12.229  1.00  0.00     0.029 A 
ATOM     53  C   UNL     1       1.929   5.216 -13.360  1.00  0.00     0.049 A 
ATOM     54  H   UNL     1       3.863   4.442 -13.296  1.00  0.00     0.167 HD
ATOM     55  C   UNL     1       7.990   3.002 -13.049  1.00  0.00     0.037 A 
ATOM     56  C   UNL     1       1.546   5.255 -14.652  1.00  0.00     0.037 A 
ATOM     57  C   UNL     1       7.672   2.999 -14.454  1.00  0.00     0.049 A 
ATOM     58  C   UNL     1       2.526   4.840 -15.716  1.00  0.00     0.074 A 
ATOM     59  C   UNL     1       8.457   2.581 -15.515  1.00  0.00     0.029 A 
ATOM     60  N   UNL     1       6.466   3.423 -14.995  1.00  0.00    -0.354 N 
ATOM     61  N   UNL     1       3.745   4.375 -15.577  1.00  0.00    -0.248 NA
ATOM     62  C   UNL     1       2.090   4.974 -17.112  1.00  0.00     0.031 C 
ATOM     63  C   UNL     1       7.748   2.806 -16.700  1.00  0.00     0.029 A 
ATOM     64  C   UNL     1       6.499   3.310 -16.375  1.00  0.00     0.049 A 
ATOM     65  H   UNL     1       5.700   3.755 -14.473  1.00  0.00     0.167 HD
ATOM     66  C   UNL     1       4.211   4.137 -16.865  1.00  0.00     0.074 A 
ATOM     67  C   UNL     1       3.140   4.500 -17.770  1.00  0.00     0.031 C 
ATOM     68  C   UNL     1       5.418   3.663 -17.263  1.00  0.00     0.037 A 
BRANCH  55  69
ATOM     69  C   UNL     1       9.352   2.521 -12.625  1.00  0.00     0.058 A 
ATOM     70  C   UNL     1       9.545   1.311 -11.943  1.00  0.00     0.135 A 
ATOM     71  C   UNL     1      10.492   3.285 -12.931  1.00  0.00     0.135 A 
ATOM     72  F   UNL     1       8.495   0.544 -11.610  1.00  0.00    -0.206 F 
ATOM     73  C   UNL     1      10.813   0.890 -11.550  1.00  0.00     0.059 A 
ATOM     74  C   UNL     1      11.772   2.870 -12.574  1.00  0.00     0.059 A 
ATOM     75  F   UNL     1      10.369   4.452 -13.583  1.00  0.00    -0.206 F 
ATOM     76  C   UNL     1      11.921   1.679 -11.867  1.00  0.00     0.060 A 
BRANCH  76  77
ATOM     77  S   UNL     1      13.555   1.129 -11.333  1.00  0.00     0.124 S 
ATOM     78  O   UNL     1      13.486   1.365  -9.894  1.00  0.00    -0.237 OA
ATOM     79  O   UNL     1      13.565  -0.271 -11.743  1.00  0.00    -0.237 OA
ATOM     80  O   UNL     1      14.466   2.002 -12.067  1.00  0.00    -0.744 OA
ENDBRANCH  76  77
ENDBRANCH  55  69
BRANCH  56  81
ATOM     81  C   UNL     1       0.197   5.770 -15.015  1.00  0.00     0.058 A 
ATOM     82  C   UNL     1      -0.775   4.933 -15.582  1.00  0.00     0.135 A 
ATOM     83  C   UNL     1      -0.146   7.117 -14.806  1.00  0.00     0.135 A 
ATOM     84  F   UNL     1      -0.494   3.642 -15.816  1.00  0.00    -0.206 F 
ATOM     85  C   UNL     1      -2.032   5.413 -15.940  1.00  0.00     0.059 A 
ATOM     86  C   UNL     1      -1.406   7.612 -15.126  1.00  0.00     0.059 A 
ATOM     87  F   UNL     1       0.744   7.962 -14.263  1.00  0.00    -0.206 F 
ATOM     88  C   UNL     1      -2.339   6.755 -15.705  1.00  0.00     0.060 A 
BRANCH  88  89
ATOM     89  S   UNL     1      -3.984   7.361 -16.142  1.00  0.00     0.124 S 
ATOM     90  O   UNL     1      -3.908   7.394 -17.598  1.00  0.00    -0.237 OA
ATOM     91  O   UNL     1      -4.851   6.335 -15.571  1.00  0.00    -0.237 OA
ATOM     92  O   UNL     1      -4.048   8.663 -15.484  1.00  0.00    -0.744 OA
ENDBRANCH  88  89
ENDBRANCH  56  81
BRANCH  68  93
ATOM     93  C   UNL     1       5.638   3.471 -18.738  1.00  0.00     0.058 A 
ATOM     94  C   UNL     1       5.824   4.557 -19.606  1.00  0.00     0.135 A 
ATOM     95  C   UNL     1       5.729   2.177 -19.278  1.00  0.00     0.135 A 
ATOM     96  F   UNL     1       5.739   5.815 -19.144  1.00  0.00    -0.206 F 
ATOM     97  C   UNL     1       6.078   4.369 -20.962  1.00  0.00     0.059 A 
ATOM     98  C   UNL     1       6.010   1.965 -20.624  1.00  0.00     0.059 A 
ATOM     99  F   UNL     1       5.567   1.102 -18.490  1.00  0.00    -0.206 F 
ATOM    100  C   UNL     1       6.175   3.068 -21.460  1.00  0.00     0.060 A 
BRANCH 100 101
ATOM    101  S   UNL     1       6.557   2.838 -23.210  1.00  0.00     0.124 S 
ATOM    102  O   UNL     1       5.300   3.229 -23.840  1.00  0.00    -0.237 OA
ATOM    103  O   UNL     1       7.676   3.754 -23.408  1.00  0.00    -0.237 OA
ATOM    104  O   UNL     1       6.891   1.420 -23.303  1.00  0.00    -0.744 OA
ENDBRANCH 100 101
ENDBRANCH  68  93
ENDBRANCH  42  43
ENDBRANCH  35  37
ENDBRANCH  34  35
ENDBRANCH  33  34
ENDBRANCH   1  33
TORSDOF 20
