REMARK SMILES Cc1ccc(-c2nn(-c3ccccc3)cc2[C@@H]2[NH2+][C@H](C(=O)OCCOC(=O)c3ccc(-c4c5nc(c(-c6c(F)cc(S(=O)(=O)[O-])cc6F)c6ccc([nH]6)c(-c6c(F)cc(S(=O)(=O)[O-])cc6F)c6nc(c(-c7c(F)cc(S(=O)(=O)[O-])cc7F)c7ccc4[nH]7)C=C6)C=C5)cc3)CS2)cc1
REMARK SMILES IDX 24 1 23 2 22 3 20 4 21 5 19 6 17 7 18 8 95 9 94 12 16 13
REMARK SMILES IDX 6 14 7 15 8 16 15 17 5 18 1 19 2 20 3 21 97 22 4 23 96 24
REMARK SMILES IDX 9 25 10 26 14 27 11 28 13 29 12 30 25 31 26 32 27 33 28 34
REMARK SMILES IDX 29 35 93 36 30 37 92 38 31 39 32 40 33 41 86 42 34 43 91 44
REMARK SMILES IDX 85 45 87 46 35 47 90 48 84 49 83 50 36 52 70 53 49 54 69 55
REMARK SMILES IDX 50 56 53 57 68 58 88 59 51 60 52 61 67 63 89 64 54 65 37 66
REMARK SMILES IDX 38 67 47 68 39 69 40 70 46 71 48 72 41 73 42 74 43 75 44 76
REMARK SMILES IDX 45 77 71 78 72 79 81 80 73 81 74 82 80 83 82 84 75 85 76 86
REMARK SMILES IDX 77 87 78 88 79 89 55 90 56 91 65 92 57 93 58 94 64 95 66 96
REMARK SMILES IDX 59 97 60 98 61 99 62 100 63 101
REMARK H PARENT 18 10 18 11 87 51 53 62
REMARK Flexibility Score: inf
ROOT
ATOM      1  C   UNL     1      -6.140  -4.102  -2.168  1.00  0.00     0.275 C 
ENDROOT
BRANCH   1   2
ATOM      2  C   UNL     1      -7.464  -3.459  -1.736  1.00  0.00     0.274 C 
BRANCH   2   3
ATOM      3  O   UNL     1      -7.180  -2.460  -0.743  1.00  0.00    -0.458 OA
BRANCH   3   4
ATOM      4  C   UNL     1      -6.918  -2.921   0.623  1.00  0.00     0.365 C 
ATOM      5  O   UNL     1      -7.717  -3.905   0.748  1.00  0.00    -0.245 OA
BRANCH   4   6
ATOM      6  C   UNL     1      -5.554  -1.961   2.030  1.00  0.00     0.304 C 
ATOM      7  C   UNL     1      -3.587  -0.148   2.008  1.00  0.00     0.278 C 
ATOM      8  N   UNL     1      -3.894  -1.567   1.768  1.00  0.00    -0.319 N 
ATOM      9  S   UNL     1      -4.515   0.436   3.404  1.00  0.00    -0.087 SA
ATOM     10  H   UNL     1      -3.324  -2.132   2.397  1.00  0.00     0.348 HD
ATOM     11  H   UNL     1      -3.689  -1.759   0.787  1.00  0.00     0.348 HD
ATOM     12  C   UNL     1      -5.751  -0.890   3.366  1.00  0.00     0.153 C 
BRANCH   7  13
ATOM     13  C   UNL     1      -3.764   0.615   0.734  1.00  0.00     0.067 A 
ATOM     14  C   UNL     1      -2.942   0.527  -0.424  1.00  0.00     0.103 A 
ATOM     15  N   UNL     1      -3.571   0.999  -1.514  1.00  0.00    -0.167 NA
ATOM     16  N   UNL     1      -4.725   1.511  -1.019  1.00  0.00    -0.240 N 
ATOM     17  C   UNL     1      -4.640   1.619   0.355  1.00  0.00     0.126 A 
BRANCH  14  18
ATOM     18  C   UNL     1      -1.519   0.245  -0.412  1.00  0.00     0.003 A 
ATOM     19  C   UNL     1       2.731  -0.206   0.035  1.00  0.00     0.044 C 
ATOM     20  C   UNL     1       1.248  -0.053  -0.112  1.00  0.00    -0.051 A 
ATOM     21  C   UNL     1       0.409  -1.179  -0.172  1.00  0.00     0.004 A 
ATOM     22  C   UNL     1       0.690   1.224  -0.199  1.00  0.00     0.004 A 
ATOM     23  C   UNL     1      -0.978  -1.034  -0.314  1.00  0.00     0.011 A 
ATOM     24  C   UNL     1      -0.682   1.368  -0.351  1.00  0.00     0.011 A 
ENDBRANCH  14  18
BRANCH  16  25
ATOM     25  C   UNL     1      -5.892   1.717  -1.814  1.00  0.00     0.065 A 
ATOM     26  C   UNL     1      -5.994   1.097  -3.067  1.00  0.00     0.028 A 
ATOM     27  C   UNL     1      -7.008   2.390  -1.289  1.00  0.00     0.028 A 
ATOM     28  C   UNL     1      -7.207   1.124  -3.763  1.00  0.00     0.002 A 
ATOM     29  C   UNL     1      -8.216   2.412  -1.989  1.00  0.00     0.002 A 
ATOM     30  C   UNL     1      -8.317   1.775  -3.223  1.00  0.00     0.000 A 
ENDBRANCH  16  25
ENDBRANCH   7  13
ENDBRANCH   4   6
ENDBRANCH   3   4
ENDBRANCH   2   3
ENDBRANCH   1   2
BRANCH   1  31
ATOM     31  O   UNL     1      -5.530  -4.951  -1.160  1.00  0.00    -0.458 OA
BRANCH  31  32
ATOM     32  C   UNL     1      -4.494  -4.490  -0.409  1.00  0.00     0.338 C 
ATOM     33  O   UNL     1      -3.318  -4.775  -0.555  1.00  0.00    -0.246 OA
BRANCH  32  34
ATOM     34  C   UNL     1      -4.963  -3.535   0.610  1.00  0.00     0.060 A 
ATOM     35  C   UNL     1      -5.926  -4.103   2.018  1.00  0.00     0.016 A 
ATOM     36  C   UNL     1      -5.229  -1.901  -0.076  1.00  0.00     0.016 A 
ATOM     37  C   UNL     1      -7.246  -3.037   2.690  1.00  0.00     0.010 A 
ATOM     38  C   UNL     1      -6.546  -0.864   0.577  1.00  0.00     0.010 A 
ATOM     39  C   UNL     1      -7.619  -1.474   1.875  1.00  0.00    -0.014 A 
BRANCH  39  40
ATOM     40  C   UNL     1      -8.899  -0.776   1.843  1.00  0.00     0.031 A 
ATOM     41  C   UNL     1      -8.929   0.634   2.277  1.00  0.00     0.074 A 
ATOM     42  C   UNL     1      -9.904  -1.361   1.159  1.00  0.00     0.049 A 
ATOM     43  N   UNL     1      -9.875   1.230   2.911  1.00  0.00    -0.248 NA
ATOM     44  C   UNL     1      -7.758   1.488   2.144  1.00  0.00     0.031 C 
ATOM     45  C   UNL     1     -11.145  -0.761   0.694  1.00  0.00     0.029 A 
ATOM     46  N   UNL     1     -10.074  -2.709   0.853  1.00  0.00    -0.354 N 
ATOM     47  C   UNL     1      -9.553   2.584   2.906  1.00  0.00     0.074 A 
ATOM     48  C   UNL     1      -8.146   2.634   2.685  1.00  0.00     0.031 C 
ATOM     49  C   UNL     1     -12.048  -1.746   0.513  1.00  0.00     0.029 A 
ATOM     50  C   UNL     1     -11.433  -2.991   0.958  1.00  0.00     0.049 A 
ATOM     51  H   UNL     1      -9.364  -3.346   0.608  1.00  0.00     0.167 HD
ATOM     52  C   UNL     1     -10.540   3.518   2.791  1.00  0.00     0.037 A 
ATOM     53  C   UNL     1     -11.907  -3.808   1.946  1.00  0.00     0.037 A 
ATOM     54  C   UNL     1     -11.821   2.817   2.731  1.00  0.00     0.049 A 
ATOM     55  C   UNL     1     -12.695  -2.994   2.961  1.00  0.00     0.074 A 
ATOM     56  C   UNL     1     -12.610   2.433   1.659  1.00  0.00     0.029 A 
ATOM     57  N   UNL     1     -12.214   2.036   3.811  1.00  0.00    -0.354 N 
ATOM     58  N   UNL     1     -12.584  -1.696   3.094  1.00  0.00    -0.248 NA
ATOM     59  C   UNL     1     -13.707  -3.551   3.854  1.00  0.00     0.031 C 
ATOM     60  C   UNL     1     -13.399   1.327   2.080  1.00  0.00     0.029 A 
ATOM     61  C   UNL     1     -13.099   1.053   3.405  1.00  0.00     0.049 A 
ATOM     62  H   UNL     1     -11.905   2.164   4.737  1.00  0.00     0.167 HD
ATOM     63  C   UNL     1     -13.473  -1.241   4.029  1.00  0.00     0.074 A 
ATOM     64  C   UNL     1     -14.155  -2.444   4.476  1.00  0.00     0.031 C 
ATOM     65  C   UNL     1     -13.594   0.079   4.369  1.00  0.00     0.037 A 
BRANCH  52  66
ATOM     66  C   UNL     1     -10.349   4.977   2.386  1.00  0.00     0.058 A 
ATOM     67  C   UNL     1     -11.454   5.721   1.913  1.00  0.00     0.135 A 
ATOM     68  C   UNL     1      -9.140   5.712   2.413  1.00  0.00     0.135 A 
ATOM     69  F   UNL     1     -12.686   5.195   1.880  1.00  0.00    -0.206 F 
ATOM     70  C   UNL     1     -11.359   7.043   1.464  1.00  0.00     0.059 A 
ATOM     71  C   UNL     1      -9.011   7.020   1.933  1.00  0.00     0.059 A 
ATOM     72  F   UNL     1      -8.021   5.233   2.962  1.00  0.00    -0.206 F 
ATOM     73  C   UNL     1     -10.130   7.684   1.467  1.00  0.00     0.060 A 
BRANCH  73  74
ATOM     74  S   UNL     1     -10.031   9.400   0.930  1.00  0.00     0.124 S 
ATOM     75  O   UNL     1     -10.514   9.317  -0.445  1.00  0.00    -0.237 OA
ATOM     76  O   UNL     1     -10.918  10.065   1.878  1.00  0.00    -0.237 OA
ATOM     77  O   UNL     1      -8.613   9.721   1.072  1.00  0.00    -0.744 OA
ENDBRANCH  73  74
ENDBRANCH  52  66
BRANCH  53  78
ATOM     78  C   UNL     1     -11.066  -5.026   2.187  1.00  0.00     0.058 A 
ATOM     79  C   UNL     1     -10.939  -5.935   1.113  1.00  0.00     0.135 A 
ATOM     80  C   UNL     1     -10.125  -5.148   3.219  1.00  0.00     0.135 A 
ATOM     81  F   UNL     1     -11.833  -5.909   0.111  1.00  0.00    -0.206 F 
ATOM     82  C   UNL     1      -9.856  -6.805   0.988  1.00  0.00     0.059 A 
ATOM     83  C   UNL     1      -9.035  -6.035   3.125  1.00  0.00     0.059 A 
ATOM     84  F   UNL     1     -10.169  -4.320   4.274  1.00  0.00    -0.206 F 
ATOM     85  C   UNL     1      -8.882  -6.820   1.980  1.00  0.00     0.060 A 
BRANCH  85  86
ATOM     86  S   UNL     1      -7.366  -7.769   1.671  1.00  0.00     0.124 S 
ATOM     87  O   UNL     1      -7.840  -9.143   1.797  1.00  0.00    -0.237 OA
ATOM     88  O   UNL     1      -7.002  -7.351   0.322  1.00  0.00    -0.237 OA
ATOM     89  O   UNL     1      -6.462  -7.324   2.728  1.00  0.00    -0.744 OA
ENDBRANCH  85  86
ENDBRANCH  53  78
BRANCH  65  90
ATOM     90  C   UNL     1     -14.264   0.582   5.625  1.00  0.00     0.058 A 
ATOM     91  C   UNL     1     -14.360  -0.176   6.803  1.00  0.00     0.135 A 
ATOM     92  C   UNL     1     -14.698   1.928   5.729  1.00  0.00     0.135 A 
ATOM     93  F   UNL     1     -13.847  -1.412   6.886  1.00  0.00    -0.206 F 
ATOM     94  C   UNL     1     -14.957   0.320   7.960  1.00  0.00     0.059 A 
ATOM     95  C   UNL     1     -15.217   2.468   6.898  1.00  0.00     0.059 A 
ATOM     96  F   UNL     1     -14.621   2.778   4.693  1.00  0.00    -0.206 F 
ATOM     97  C   UNL     1     -15.395   1.639   7.992  1.00  0.00     0.060 A 
BRANCH  97  98
ATOM     98  S   UNL     1     -16.204   2.262   9.471  1.00  0.00     0.124 S 
ATOM     99  O   UNL     1     -17.568   1.782   9.269  1.00  0.00    -0.237 OA
ATOM    100  O   UNL     1     -15.457   1.611  10.542  1.00  0.00    -0.237 OA
ATOM    101  O   UNL     1     -16.021   3.706   9.374  1.00  0.00    -0.744 OA
ENDBRANCH  97  98
ENDBRANCH  65  90
ENDBRANCH  39  40
ENDBRANCH  32  34
ENDBRANCH  31  32
ENDBRANCH   1  31
TORSDOF 17
