REMARK SMILES C[C@H](NC(=O)c1c(C(=O)OCCOC(=O)c2ccc(-c3c4nc(c(-c5c(F)cc(S(=O)(=O)[O-])cc5F)c5ccc([nH]5)c(-c5c(F)cc(S(=O)(=O)[O-])cc5F)c5nc(c(-c6c(F)cc(S(=O)(=O)[O-])cc6F)c6ccc3[nH]6)C=C5)C=C4)cc2)cnn1C)[C@]12C[C@H]3C[C@H](C[C@H](C3)C1)C2
REMARK SMILES IDX 11 1 10 2 8 3 9 4 7 5 6 6 84 7 82 8 83 9 85 10 4 11 3 12
REMARK SMILES IDX 5 14 2 15 1 16 86 17 87 18 94 19 95 20 88 21 92 22 90 23
REMARK SMILES IDX 89 24 93 25 91 26 12 27 13 28 14 29 15 30 16 31 17 32 81 33
REMARK SMILES IDX 18 34 80 35 19 36 20 37 21 38 74 39 22 40 79 41 73 42 75 43
REMARK SMILES IDX 23 44 78 45 72 46 71 47 24 49 58 50 37 51 57 52 38 53 41 54
REMARK SMILES IDX 56 55 76 56 39 57 40 58 55 60 77 61 42 62 25 63 26 64 35 65
REMARK SMILES IDX 27 66 28 67 34 68 36 69 29 70 30 71 31 72 32 73 33 74 59 75
REMARK SMILES IDX 60 76 69 77 61 78 62 79 68 80 70 81 63 82 64 83 65 84 66 85
REMARK SMILES IDX 67 86 43 87 44 88 53 89 45 90 46 91 52 92 54 93 47 94 48 95
REMARK SMILES IDX 49 96 50 97 51 98
REMARK H PARENT 3 13 75 48 41 59
REMARK Flexibility Score: inf
ROOT
ATOM      1  C   UNL     1       5.628  -1.184   1.481  1.00  0.00     0.275 C 
ENDROOT
BRANCH   1   2
ATOM      2  O   UNL     1       4.564  -1.370   0.527  1.00  0.00    -0.458 OA
BRANCH   2   3
ATOM      3  C   UNL     1       4.913  -2.060  -0.598  1.00  0.00     0.342 C 
ATOM      4  O   UNL     1       6.019  -2.541  -0.793  1.00  0.00    -0.246 OA
BRANCH   3   5
ATOM      5  C   UNL     1       3.826  -2.249  -1.541  1.00  0.00     0.111 A 
ATOM      6  C   UNL     1       2.624  -1.568  -1.686  1.00  0.00     0.140 A 
ATOM      7  N   UNL     1       2.032  -2.121  -2.796  1.00  0.00    -0.262 N 
ATOM      8  C   UNL     1       3.807  -3.220  -2.569  1.00  0.00     0.151 A 
ATOM      9  N   UNL     1       2.692  -3.179  -3.295  1.00  0.00    -0.180 NA
ATOM     10  C   UNL     1       0.884  -1.646  -3.532  1.00  0.00     0.174 C 
BRANCH   6  11
ATOM     11  C   UNL     1       2.139  -0.408  -0.997  1.00  0.00     0.270 C 
ATOM     12  N   UNL     1       0.948  -0.489  -0.321  1.00  0.00    -0.348 N 
ATOM     13  H   UNL     1       0.496   0.370  -0.154  1.00  0.00     0.164 HD
ATOM     14  O   UNL     1       2.725   0.671  -1.018  1.00  0.00    -0.267 OA
BRANCH  12  15
ATOM     15  C   UNL     1       0.251  -1.679   0.190  1.00  0.00     0.085 C 
ATOM     16  C   UNL     1       0.829  -1.981   1.579  1.00  0.00     0.031 C 
BRANCH  15  17
ATOM     17  C   UNL     1      -1.322  -1.526   0.153  1.00  0.00    -0.009 C 
ATOM     18  C   UNL     1      -2.021  -2.407   1.230  1.00  0.00     0.012 C 
ATOM     19  C   UNL     1      -1.847  -1.987  -1.238  1.00  0.00     0.012 C 
ATOM     20  C   UNL     1      -1.809  -0.061   0.359  1.00  0.00     0.012 C 
ATOM     21  C   UNL     1      -3.553  -2.307   1.143  1.00  0.00    -0.010 C 
ATOM     22  C   UNL     1      -3.380  -1.904  -1.329  1.00  0.00    -0.010 C 
ATOM     23  C   UNL     1      -3.345   0.039   0.267  1.00  0.00    -0.010 C 
ATOM     24  C   UNL     1      -3.979  -0.845   1.349  1.00  0.00     0.007 C 
ATOM     25  C   UNL     1      -4.009  -2.786  -0.241  1.00  0.00     0.007 C 
ATOM     26  C   UNL     1      -3.812  -0.446  -1.116  1.00  0.00     0.007 C 
ENDBRANCH  15  17
ENDBRANCH  12  15
ENDBRANCH   6  11
ENDBRANCH   3   5
ENDBRANCH   2   3
ENDBRANCH   1   2
BRANCH   1  27
ATOM     27  C   UNL     1       5.576  -2.220   2.607  1.00  0.00     0.275 C 
BRANCH  27  28
ATOM     28  O   UNL     1       5.773  -3.551   2.098  1.00  0.00    -0.458 OA
BRANCH  28  29
ATOM     29  C   UNL     1       4.695  -4.368   2.161  1.00  0.00     0.338 C 
ATOM     30  O   UNL     1       3.600  -4.116   2.633  1.00  0.00    -0.246 OA
BRANCH  29  31
ATOM     31  C   UNL     1       4.994  -5.631   1.469  1.00  0.00     0.060 A 
ATOM     32  C   UNL     1       4.673  -5.727   0.116  1.00  0.00     0.016 A 
ATOM     33  C   UNL     1       5.462  -6.746   2.165  1.00  0.00     0.016 A 
ATOM     34  C   UNL     1       4.802  -6.942  -0.552  1.00  0.00     0.010 A 
ATOM     35  C   UNL     1       5.615  -7.963   1.486  1.00  0.00     0.010 A 
ATOM     36  C   UNL     1       5.268  -8.077   0.126  1.00  0.00    -0.014 A 
BRANCH  36  37
ATOM     37  C   UNL     1       5.321  -9.389  -0.577  1.00  0.00     0.031 A 
ATOM     38  C   UNL     1       4.388 -10.499  -0.168  1.00  0.00     0.074 A 
ATOM     39  C   UNL     1       6.177  -9.577  -1.601  1.00  0.00     0.049 A 
ATOM     40  N   UNL     1       4.349 -11.740  -0.579  1.00  0.00    -0.248 NA
ATOM     41  C   UNL     1       3.367 -10.169   0.839  1.00  0.00     0.031 C 
ATOM     42  C   UNL     1       7.100  -8.570  -2.128  1.00  0.00     0.029 A 
ATOM     43  N   UNL     1       6.407 -10.680  -2.386  1.00  0.00    -0.354 N 
ATOM     44  C   UNL     1       3.337 -12.353   0.152  1.00  0.00     0.074 A 
ATOM     45  C   UNL     1       2.783 -11.345   1.030  1.00  0.00     0.031 C 
ATOM     46  C   UNL     1       7.782  -9.095  -3.159  1.00  0.00     0.029 A 
ATOM     47  C   UNL     1       7.391 -10.492  -3.329  1.00  0.00     0.049 A 
ATOM     48  H   UNL     1       5.914 -11.526  -2.285  1.00  0.00     0.167 HD
ATOM     49  C   UNL     1       2.913 -13.638   0.096  1.00  0.00     0.037 A 
ATOM     50  C   UNL     1       7.942 -11.354  -4.207  1.00  0.00     0.037 A 
ATOM     51  C   UNL     1       3.426 -14.622  -0.821  1.00  0.00     0.049 A 
ATOM     52  C   UNL     1       7.466 -12.782  -4.232  1.00  0.00     0.074 A 
ATOM     53  C   UNL     1       3.030 -15.940  -0.979  1.00  0.00     0.029 A 
ATOM     54  N   UNL     1       4.439 -14.397  -1.742  1.00  0.00    -0.354 N 
ATOM     55  N   UNL     1       6.522 -13.350  -3.520  1.00  0.00    -0.248 NA
ATOM     56  C   UNL     1       8.141 -13.692  -5.169  1.00  0.00     0.031 C 
ATOM     57  C   UNL     1       3.828 -16.522  -1.970  1.00  0.00     0.029 A 
ATOM     58  C   UNL     1       4.694 -15.556  -2.457  1.00  0.00     0.049 A 
ATOM     59  H   UNL     1       4.907 -13.540  -1.869  1.00  0.00     0.167 HD
ATOM     60  C   UNL     1       6.480 -14.677  -3.934  1.00  0.00     0.074 A 
ATOM     61  C   UNL     1       7.481 -14.824  -4.970  1.00  0.00     0.031 C 
ATOM     62  C   UNL     1       5.686 -15.683  -3.494  1.00  0.00     0.037 A 
BRANCH  49  63
ATOM     63  C   UNL     1       1.860 -14.076   1.077  1.00  0.00     0.058 A 
ATOM     64  C   UNL     1       0.512 -13.719   0.933  1.00  0.00     0.135 A 
ATOM     65  C   UNL     1       2.206 -14.920   2.145  1.00  0.00     0.135 A 
ATOM     66  F   UNL     1       0.130 -12.901  -0.060  1.00  0.00    -0.206 F 
ATOM     67  C   UNL     1      -0.458 -14.173   1.824  1.00  0.00     0.059 A 
ATOM     68  C   UNL     1       1.251 -15.403   3.034  1.00  0.00     0.059 A 
ATOM     69  F   UNL     1       3.483 -15.290   2.328  1.00  0.00    -0.206 F 
ATOM     70  C   UNL     1      -0.078 -15.016   2.871  1.00  0.00     0.060 A 
BRANCH  70  71
ATOM     71  S   UNL     1      -1.348 -15.615   4.007  1.00  0.00     0.124 S 
ATOM     72  O   UNL     1      -1.607 -14.422   4.808  1.00  0.00    -0.237 OA
ATOM     73  O   UNL     1      -2.419 -16.012   3.099  1.00  0.00    -0.237 OA
ATOM     74  O   UNL     1      -0.687 -16.710   4.709  1.00  0.00    -0.744 OA
ENDBRANCH  70  71
ENDBRANCH  49  63
BRANCH  50  75
ATOM     75  C   UNL     1       9.038 -10.908  -5.108  1.00  0.00     0.058 A 
ATOM     76  C   UNL     1       8.846 -10.814  -6.494  1.00  0.00     0.135 A 
ATOM     77  C   UNL     1      10.307 -10.586  -4.602  1.00  0.00     0.135 A 
ATOM     78  F   UNL     1       7.654 -11.124  -7.029  1.00  0.00    -0.206 F 
ATOM     79  C   UNL     1       9.876 -10.436  -7.350  1.00  0.00     0.059 A 
ATOM     80  C   UNL     1      11.345 -10.179  -5.434  1.00  0.00     0.059 A 
ATOM     81  F   UNL     1      10.542 -10.652  -3.282  1.00  0.00    -0.206 F 
ATOM     82  C   UNL     1      11.125 -10.122  -6.809  1.00  0.00     0.060 A 
BRANCH  82  83
ATOM     83  S   UNL     1      12.453  -9.605  -7.918  1.00  0.00     0.124 S 
ATOM     84  O   UNL     1      12.880 -10.883  -8.477  1.00  0.00    -0.237 OA
ATOM     85  O   UNL     1      11.760  -8.707  -8.836  1.00  0.00    -0.237 OA
ATOM     86  O   UNL     1      13.404  -8.958  -7.020  1.00  0.00    -0.744 OA
ENDBRANCH  82  83
ENDBRANCH  50  75
BRANCH  62  87
ATOM     87  C   UNL     1       5.843 -17.024  -4.153  1.00  0.00     0.058 A 
ATOM     88  C   UNL     1       6.938 -17.856  -3.875  1.00  0.00     0.135 A 
ATOM     89  C   UNL     1       4.863 -17.501  -5.038  1.00  0.00     0.135 A 
ATOM     90  F   UNL     1       7.906 -17.444  -3.041  1.00  0.00    -0.206 F 
ATOM     91  C   UNL     1       7.067 -19.108  -4.469  1.00  0.00     0.059 A 
ATOM     92  C   UNL     1       4.960 -18.758  -5.625  1.00  0.00     0.059 A 
ATOM     93  F   UNL     1       3.791 -16.747  -5.329  1.00  0.00    -0.206 F 
ATOM     94  C   UNL     1       6.073 -19.550  -5.344  1.00  0.00     0.060 A 
BRANCH  94  95
ATOM     95  S   UNL     1       6.233 -21.188  -6.085  1.00  0.00     0.124 S 
ATOM     96  O   UNL     1       7.233 -20.946  -7.119  1.00  0.00    -0.237 OA
ATOM     97  O   UNL     1       6.672 -22.003  -4.957  1.00  0.00    -0.237 OA
ATOM     98  O   UNL     1       4.885 -21.474  -6.568  1.00  0.00    -0.744 OA
ENDBRANCH  94  95
ENDBRANCH  62  87
ENDBRANCH  36  37
ENDBRANCH  29  31
ENDBRANCH  28  29
ENDBRANCH  27  28
ENDBRANCH   1  27
TORSDOF 17
