REMARK SMILES O=C(OCCOC(=O)c1ccc(-c2c3nc(c(-c4c(F)cc(S(=O)(=O)[O-])cc4F)c4ccc([nH]4)c(-c4c(F)cc(S(=O)(=O)[O-])cc4F)c4nc(c(-c5c(F)cc(S(=O)(=O)[O-])cc5F)c5ccc2[nH]5)C=C4)C=C3)cc1)C1=Cc2cc(S(F)(F)(F)(F)F)cc(Br)c2O[C@H]1C(F)(F)F
REMARK SMILES IDX 5 1 4 2 3 3 2 4 1 5 75 6 76 7 91 8 77 9 90 10 78 11 89 12
REMARK SMILES IDX 79 13 87 14 86 15 88 16 92 17 93 18 94 19 95 20 80 21 81 22
REMARK SMILES IDX 82 23 83 24 84 25 85 26 6 27 7 28 8 29 9 30 10 31 74 32
REMARK SMILES IDX 11 33 73 34 12 35 13 36 14 37 67 38 15 39 72 40 66 41 68 42
REMARK SMILES IDX 16 43 71 44 65 45 64 46 17 48 51 49 30 50 50 51 31 52 34 53
REMARK SMILES IDX 49 54 69 55 32 56 33 57 48 59 70 60 35 61 18 62 19 63 28 64
REMARK SMILES IDX 20 65 21 66 27 67 29 68 22 69 23 70 24 71 25 72 26 73 52 74
REMARK SMILES IDX 53 75 62 76 54 77 55 78 61 79 63 80 56 81 57 82 58 83 59 84
REMARK SMILES IDX 60 85 36 86 37 87 46 88 38 89 39 90 45 91 47 92 40 93 41 94
REMARK SMILES IDX 42 95 43 96 44 97
REMARK H PARENT 68 47 34 58
REMARK Flexibility Score: inf
ROOT
ATOM      1  C   UNL     1       4.881   1.335  -0.115  1.00  0.00     0.275 C 
ENDROOT
BRANCH   1   2
ATOM      2  C   UNL     1       4.375   0.446  -1.239  1.00  0.00     0.275 C 
BRANCH   2   3
ATOM      3  O   UNL     1       2.955   0.446  -1.239  1.00  0.00    -0.459 OA
BRANCH   3   4
ATOM      4  C   UNL     1       2.245  -0.008  -0.096  1.00  0.00     0.338 C 
ATOM      5  O   UNL     1       0.974  -0.008  -0.096  1.00  0.00    -0.246 OA
BRANCH   4   6
ATOM      6  C   UNL     1       3.005  -0.494   1.127  1.00  0.00     0.087 C 
ATOM      7  C   UNL     1       4.365  -0.494   1.127  1.00  0.00     0.027 C 
ATOM      8  C   UNL     1       2.245  -0.980   2.350  1.00  0.00     0.316 C 
ATOM      9  C   UNL     1       5.125  -0.008  -0.096  1.00  0.00     0.020 A 
ATOM     10  O   UNL     1       3.558   1.776  -0.200  1.00  0.00    -0.474 OA
ATOM     11  C   UNL     1       6.159  -0.760  -0.629  1.00  0.00     0.036 A 
ATOM     12  C   UNL     1       4.720   1.115  -0.678  1.00  0.00     0.142 A 
ATOM     13  C   UNL     1       6.901  -0.089  -1.629  1.00  0.00     0.109 A 
ATOM     14  C   UNL     1       5.415   1.643  -1.739  1.00  0.00     0.062 A 
ATOM     15  C   UNL     1       6.484   0.982  -2.279  1.00  0.00     0.044 A 
ATOM     16  Br  UNL     1       4.868   3.369  -2.489  1.00  0.00    -0.047 Br
BRANCH   8  17
ATOM     17  C   UNL     1       0.750  -0.877   2.092  1.00  0.00     0.430 C 
ATOM     18  F   UNL     1       0.456  -1.445   0.926  1.00  0.00    -0.167 F 
ATOM     19  F   UNL     1       0.098  -1.503   3.068  1.00  0.00    -0.167 F 
ATOM     20  F   UNL     1       0.388   0.403   2.066  1.00  0.00    -0.167 F 
ENDBRANCH   8  17
BRANCH  13  21
ATOM     21  S   UNL     1       8.536  -0.744  -2.047  1.00  0.00     0.310 S 
ATOM     22  F   UNL     1       8.991  -0.770  -0.527  1.00  0.00    -0.094 F 
ATOM     23  F   UNL     1       9.090   0.730  -2.115  1.00  0.00    -0.094 F 
ATOM     24  F   UNL     1       9.934  -1.316  -2.412  1.00  0.00    -0.094 F 
ATOM     25  F   UNL     1       7.998  -2.213  -1.836  1.00  0.00    -0.094 F 
ATOM     26  F   UNL     1       7.140  -0.179  -1.564  1.00  0.00    -0.094 F 
ENDBRANCH  13  21
ENDBRANCH   4   6
ENDBRANCH   3   4
ENDBRANCH   2   3
ENDBRANCH   1   2
BRANCH   1  27
ATOM     27  O   UNL     1       4.408   0.841   1.129  1.00  0.00    -0.458 OA
BRANCH  27  28
ATOM     28  C   UNL     1       3.012   0.745   1.370  1.00  0.00     0.338 C 
ATOM     29  O   UNL     1       2.186   1.102   0.473  1.00  0.00    -0.246 OA
BRANCH  28  30
ATOM     30  C   UNL     1       2.505   0.216   2.702  1.00  0.00     0.060 A 
ATOM     31  C   UNL     1       1.400  -0.617   2.745  1.00  0.00     0.016 A 
ATOM     32  C   UNL     1       3.075   0.663   3.816  1.00  0.00     0.016 A 
ATOM     33  C   UNL     1       0.787  -0.692   4.018  1.00  0.00     0.010 A 
ATOM     34  C   UNL     1       2.491   0.437   5.039  1.00  0.00     0.010 A 
ATOM     35  C   UNL     1       1.364  -0.329   5.149  1.00  0.00    -0.014 A 
BRANCH  35  36
ATOM     36  C   UNL     1       0.804  -0.740   6.502  1.00  0.00     0.031 A 
ATOM     37  C   UNL     1       0.428   0.284   7.373  1.00  0.00     0.074 A 
ATOM     38  C   UNL     1       0.624  -2.087   6.765  1.00  0.00     0.049 A 
ATOM     39  N   UNL     1      -0.180   0.164   8.554  1.00  0.00    -0.248 NA
ATOM     40  C   UNL     1       0.649   1.713   7.111  1.00  0.00     0.031 C 
ATOM     41  C   UNL     1       0.993  -3.124   5.887  1.00  0.00     0.029 A 
ATOM     42  N   UNL     1       0.072  -2.661   7.889  1.00  0.00    -0.354 N 
ATOM     43  C   UNL     1      -0.395   1.369   9.087  1.00  0.00     0.074 A 
ATOM     44  C   UNL     1       0.141   2.382   8.168  1.00  0.00     0.031 C 
ATOM     45  C   UNL     1       0.680  -4.308   6.478  1.00  0.00     0.029 A 
ATOM     46  C   UNL     1       0.108  -4.029   7.734  1.00  0.00     0.049 A 
ATOM     47  H   UNL     1      -0.286  -2.178   8.668  1.00  0.00     0.167 HD
ATOM     48  C   UNL     1      -1.019   1.661  10.301  1.00  0.00     0.037 A 
ATOM     49  C   UNL     1      -0.325  -4.996   8.627  1.00  0.00     0.037 A 
ATOM     50  C   UNL     1      -1.492   0.695  11.174  1.00  0.00     0.049 A 
ATOM     51  C   UNL     1      -0.897  -4.705   9.868  1.00  0.00     0.074 A 
ATOM     52  C   UNL     1      -2.130   0.974  12.398  1.00  0.00     0.029 A 
ATOM     53  N   UNL     1      -1.433  -0.673  11.031  1.00  0.00    -0.354 N 
ATOM     54  N   UNL     1      -1.147  -3.500  10.382  1.00  0.00    -0.248 NA
ATOM     55  C   UNL     1      -1.330  -5.721  10.836  1.00  0.00     0.031 C 
ATOM     56  C   UNL     1      -2.444  -0.210  12.989  1.00  0.00     0.029 A 
ATOM     57  C   UNL     1      -2.006  -1.248  12.144  1.00  0.00     0.049 A 
ATOM     58  H   UNL     1      -1.049  -1.157  10.264  1.00  0.00     0.167 HD
ATOM     59  C   UNL     1      -1.718  -3.621  11.582  1.00  0.00     0.074 A 
ATOM     60  C   UNL     1      -1.837  -5.052  11.895  1.00  0.00     0.031 C 
ATOM     61  C   UNL     1      -2.147  -2.597  12.428  1.00  0.00     0.037 A 
BRANCH  48  62
ATOM     62  C   UNL     1      -1.189   3.122  10.686  1.00  0.00     0.058 A 
ATOM     63  C   UNL     1      -1.867   3.992   9.848  1.00  0.00     0.135 A 
ATOM     64  C   UNL     1      -0.622   3.548  11.809  1.00  0.00     0.135 A 
ATOM     65  F   UNL     1      -2.656   3.580   8.860  1.00  0.00    -0.206 F 
ATOM     66  C   UNL     1      -1.645   5.359  10.140  1.00  0.00     0.059 A 
ATOM     67  C   UNL     1      -0.561   4.890  12.095  1.00  0.00     0.059 A 
ATOM     68  F   UNL     1      -0.110   2.667  12.664  1.00  0.00    -0.206 F 
ATOM     69  C   UNL     1      -1.159   5.811  11.281  1.00  0.00     0.060 A 
BRANCH  69  70
ATOM     70  S   UNL     1      -1.277   7.558  11.742  1.00  0.00     0.124 S 
ATOM     71  O   UNL     1      -0.555   8.411  10.697  1.00  0.00    -0.237 OA
ATOM     72  O   UNL     1      -2.749   7.970  11.808  1.00  0.00    -0.237 OA
ATOM     73  O   UNL     1      -0.550   7.794  13.271  1.00  0.00    -0.744 OA
ENDBRANCH  69  70
ENDBRANCH  48  62
BRANCH  49  74
ATOM     74  C   UNL     1      -0.171  -6.457   8.234  1.00  0.00     0.058 A 
ATOM     75  C   UNL     1      -1.332  -7.205   8.135  1.00  0.00     0.135 A 
ATOM     76  C   UNL     1       1.017  -6.990   7.975  1.00  0.00     0.135 A 
ATOM     77  F   UNL     1      -2.546  -6.663   8.136  1.00  0.00    -0.206 F 
ATOM     78  C   UNL     1      -1.109  -8.598   8.033  1.00  0.00     0.059 A 
ATOM     79  C   UNL     1       1.143  -8.340   7.750  1.00  0.00     0.059 A 
ATOM     80  F   UNL     1       2.095  -6.211   7.932  1.00  0.00    -0.206 F 
ATOM     81  C   UNL     1       0.043  -9.150   7.697  1.00  0.00     0.060 A 
BRANCH  81  82
ATOM     82  S   UNL     1       0.159 -10.885   7.195  1.00  0.00     0.124 S 
ATOM     83  O   UNL     1      -0.332 -11.780   8.334  1.00  0.00    -0.237 OA
ATOM     84  O   UNL     1      -0.708 -11.116   5.955  1.00  0.00    -0.237 OA
ATOM     85  O   UNL     1       1.786 -11.265   6.831  1.00  0.00    -0.744 OA
ENDBRANCH  81  82
ENDBRANCH  49  74
BRANCH  61  86
ATOM     86  C   UNL     1      -2.810  -2.985  13.740  1.00  0.00     0.058 A 
ATOM     87  C   UNL     1      -2.139  -3.795  14.640  1.00  0.00     0.135 A 
ATOM     88  C   UNL     1      -4.056  -2.586  13.967  1.00  0.00     0.135 A 
ATOM     89  F   UNL     1      -0.828  -4.010  14.585  1.00  0.00    -0.206 F 
ATOM     90  C   UNL     1      -2.975  -4.373  15.625  1.00  0.00     0.059 A 
ATOM     91  C   UNL     1      -4.769  -3.091  15.028  1.00  0.00     0.059 A 
ATOM     92  F   UNL     1      -4.619  -1.690  13.162  1.00  0.00    -0.206 F 
ATOM     93  C   UNL     1      -4.187  -3.943  15.925  1.00  0.00     0.060 A 
BRANCH  93  94
ATOM     94  S   UNL     1      -5.031  -4.453  17.442  1.00  0.00     0.124 S 
ATOM     95  O   UNL     1      -5.195  -5.975  17.448  1.00  0.00    -0.237 OA
ATOM     96  O   UNL     1      -4.203  -4.025  18.656  1.00  0.00    -0.237 OA
ATOM     97  O   UNL     1      -6.572  -3.714  17.513  1.00  0.00    -0.744 OA
ENDBRANCH  93  94
ENDBRANCH  61  86
ENDBRANCH  35  36
ENDBRANCH  28  30
ENDBRANCH  27  28
ENDBRANCH   1  27
TORSDOF 16
