REMARK SMILES Cc1cc2c(=O)c3ccccc3oc2c(C(=O)OCCOC(=O)c2ccc(-c3c4nc(c(-c5c(F)cc(S(=O)(=O)[O-])cc5F)c5ccc([nH]5)c(-c5c(F)cc(S(=O)(=O)[O-])cc5F)c5nc(c(-c6c(F)cc(S(=O)(=O)[O-])cc6F)c6ccc3[nH]6)C=C5)C=C4)cc2)c1C
REMARK SMILES IDX 21 1 20 2 19 3 18 4 16 5 17 6 15 7 1 8 2 9 3 10 90 11 4 12
REMARK SMILES IDX 91 13 5 14 14 15 6 16 7 17 13 18 8 19 12 20 9 21 11 22 10 23
REMARK SMILES IDX 22 24 23 25 24 26 25 27 89 28 26 29 88 30 27 31 28 32 29 33
REMARK SMILES IDX 82 34 30 35 87 36 81 37 83 38 31 39 86 40 80 41 79 42 32 44
REMARK SMILES IDX 66 45 45 46 65 47 46 48 49 49 64 50 84 51 47 52 48 53 63 55
REMARK SMILES IDX 85 56 50 57 33 58 34 59 43 60 35 61 36 62 42 63 44 64 37 65
REMARK SMILES IDX 38 66 39 67 40 68 41 69 67 70 68 71 77 72 69 73 70 74 76 75
REMARK SMILES IDX 78 76 71 77 72 78 73 79 74 80 75 81 51 82 52 83 61 84 53 85
REMARK SMILES IDX 54 86 60 87 62 88 55 89 56 90 57 91 58 92 59 93
REMARK H PARENT 83 43 49 54
REMARK Flexibility Score: inf
ROOT
ATOM      1  O   UNL     1       1.841  -5.903   4.809  1.00  0.00    -0.458 OA
ENDROOT
BRANCH   1   2
ATOM      2  C   UNL     1       2.075  -6.276   3.442  1.00  0.00     0.275 C 
BRANCH   2   3
ATOM      3  C   UNL     1       0.896  -5.838   2.570  1.00  0.00     0.275 C 
BRANCH   3   4
ATOM      4  O   UNL     1       0.894  -4.405   2.398  1.00  0.00    -0.458 OA
BRANCH   4   5
ATOM      5  C   UNL     1      -0.224  -3.712   2.739  1.00  0.00     0.342 C 
ATOM      6  O   UNL     1      -1.201  -4.188   3.289  1.00  0.00    -0.246 OA
BRANCH   5   7
ATOM      7  C   UNL     1      -0.080  -2.264   2.355  1.00  0.00     0.106 A 
ATOM      8  C   UNL     1       1.360   0.031  -0.407  1.00  0.00     0.044 C 
ATOM      9  C   UNL     1       0.717  -0.483   0.854  1.00  0.00    -0.046 A 
ATOM     10  C   UNL     1       0.254   0.464   1.769  1.00  0.00     0.019 A 
ATOM     11  C   UNL     1       0.591  -1.863   1.155  1.00  0.00    -0.030 A 
ATOM     12  C   UNL     1      -0.396   0.067   2.933  1.00  0.00     0.067 A 
ATOM     13  C   UNL     1       1.197  -2.877   0.212  1.00  0.00     0.046 C 
ATOM     14  C   UNL     1      -0.784   1.097   3.907  1.00  0.00     0.200 A 
ATOM     15  C   UNL     1      -0.635  -1.280   3.208  1.00  0.00     0.153 A 
ATOM     16  O   UNL     1      -0.563   2.284   3.707  1.00  0.00    -0.288 OA
ATOM     17  C   UNL     1      -1.434   0.632   5.128  1.00  0.00     0.065 A 
ATOM     18  O   UNL     1      -1.415  -1.660   4.283  1.00  0.00    -0.455 OA
ATOM     19  C   UNL     1      -1.687   1.515   6.183  1.00  0.00     0.016 A 
ATOM     20  C   UNL     1      -1.802  -0.706   5.198  1.00  0.00     0.138 A 
ATOM     21  C   UNL     1      -2.358   1.056   7.311  1.00  0.00     0.001 A 
ATOM     22  C   UNL     1      -2.554  -1.135   6.290  1.00  0.00     0.048 A 
ATOM     23  C   UNL     1      -2.821  -0.257   7.348  1.00  0.00     0.004 A 
ENDBRANCH   5   7
ENDBRANCH   4   5
ENDBRANCH   3   4
ENDBRANCH   2   3
ENDBRANCH   1   2
BRANCH   1  24
ATOM     24  C   UNL     1       2.268  -4.661   5.138  1.00  0.00     0.338 C 
ATOM     25  O   UNL     1       2.974  -3.925   4.465  1.00  0.00    -0.246 OA
BRANCH  24  26
ATOM     26  C   UNL     1       1.567  -4.229   6.360  1.00  0.00     0.060 A 
ATOM     27  C   UNL     1       1.442  -5.045   7.491  1.00  0.00     0.016 A 
ATOM     28  C   UNL     1       1.007  -2.953   6.348  1.00  0.00     0.016 A 
ATOM     29  C   UNL     1       0.714  -4.588   8.598  1.00  0.00     0.010 A 
ATOM     30  C   UNL     1       0.289  -2.504   7.451  1.00  0.00     0.010 A 
ATOM     31  C   UNL     1       0.107  -3.323   8.572  1.00  0.00    -0.014 A 
BRANCH  31  32
ATOM     32  C   UNL     1      -0.610  -2.762   9.742  1.00  0.00     0.031 A 
ATOM     33  C   UNL     1      -2.106  -2.838   9.869  1.00  0.00     0.074 A 
ATOM     34  C   UNL     1       0.106  -2.042  10.623  1.00  0.00     0.049 A 
ATOM     35  N   UNL     1      -2.886  -2.301  10.773  1.00  0.00    -0.248 NA
ATOM     36  C   UNL     1      -2.825  -3.555   8.809  1.00  0.00     0.031 C 
ATOM     37  C   UNL     1       1.550  -1.816  10.537  1.00  0.00     0.029 A 
ATOM     38  N   UNL     1      -0.277  -1.364  11.749  1.00  0.00    -0.354 N 
ATOM     39  C   UNL     1      -4.191  -2.561  10.365  1.00  0.00     0.074 A 
ATOM     40  C   UNL     1      -4.091  -3.291   9.117  1.00  0.00     0.031 C 
ATOM     41  C   UNL     1       1.938  -1.083  11.591  1.00  0.00     0.029 A 
ATOM     42  C   UNL     1       0.773  -0.788  12.421  1.00  0.00     0.049 A 
ATOM     43  H   UNL     1      -1.212  -1.296  12.048  1.00  0.00     0.167 HD
ATOM     44  C   UNL     1      -5.352  -2.213  10.978  1.00  0.00     0.037 A 
ATOM     45  C   UNL     1       0.799  -0.132  13.595  1.00  0.00     0.037 A 
ATOM     46  C   UNL     1      -5.411  -1.566  12.271  1.00  0.00     0.049 A 
ATOM     47  C   UNL     1      -0.478   0.053  14.362  1.00  0.00     0.074 A 
ATOM     48  C   UNL     1      -6.526  -1.309  13.053  1.00  0.00     0.029 A 
ATOM     49  N   UNL     1      -4.316  -1.097  12.983  1.00  0.00    -0.354 N 
ATOM     50  N   UNL     1      -1.700  -0.269  14.012  1.00  0.00    -0.248 NA
ATOM     51  C   UNL     1      -0.374   0.671  15.691  1.00  0.00     0.031 C 
ATOM     52  C   UNL     1      -6.109  -0.661  14.220  1.00  0.00     0.029 A 
ATOM     53  C   UNL     1      -4.728  -0.560  14.193  1.00  0.00     0.049 A 
ATOM     54  H   UNL     1      -3.382  -1.139  12.673  1.00  0.00     0.167 HD
ATOM     55  C   UNL     1      -2.508   0.088  15.085  1.00  0.00     0.074 A 
ATOM     56  C   UNL     1      -1.635   0.632  16.104  1.00  0.00     0.031 C 
ATOM     57  C   UNL     1      -3.853  -0.025  15.208  1.00  0.00     0.037 A 
BRANCH  44  58
ATOM     58  C   UNL     1      -6.667  -2.547  10.308  1.00  0.00     0.058 A 
ATOM     59  C   UNL     1      -7.081  -3.873  10.104  1.00  0.00     0.135 A 
ATOM     60  C   UNL     1      -7.580  -1.530   9.968  1.00  0.00     0.135 A 
ATOM     61  F   UNL     1      -6.264  -4.892  10.414  1.00  0.00    -0.206 F 
ATOM     62  C   UNL     1      -8.328  -4.178   9.566  1.00  0.00     0.059 A 
ATOM     63  C   UNL     1      -8.851  -1.813   9.468  1.00  0.00     0.059 A 
ATOM     64  F   UNL     1      -7.254  -0.240  10.149  1.00  0.00    -0.206 F 
ATOM     65  C   UNL     1      -9.211  -3.142   9.259  1.00  0.00     0.060 A 
BRANCH  65  66
ATOM     66  S   UNL     1     -10.841  -3.569   8.608  1.00  0.00     0.124 S 
ATOM     67  O   UNL     1     -10.506  -4.034   7.266  1.00  0.00    -0.237 OA
ATOM     68  O   UNL     1     -11.288  -4.599   9.541  1.00  0.00    -0.237 OA
ATOM     69  O   UNL     1     -11.575  -2.309   8.670  1.00  0.00    -0.744 OA
ENDBRANCH  65  66
ENDBRANCH  44  58
BRANCH  45  70
ATOM     70  C   UNL     1       2.111   0.259  14.167  1.00  0.00     0.058 A 
ATOM     71  C   UNL     1       2.660  -0.484  15.222  1.00  0.00     0.135 A 
ATOM     72  C   UNL     1       2.874   1.305  13.629  1.00  0.00     0.135 A 
ATOM     73  F   UNL     1       1.966  -1.499  15.760  1.00  0.00    -0.206 F 
ATOM     74  C   UNL     1       3.919  -0.199  15.733  1.00  0.00     0.059 A 
ATOM     75  C   UNL     1       4.149   1.594  14.108  1.00  0.00     0.059 A 
ATOM     76  F   UNL     1       2.403   2.021  12.597  1.00  0.00    -0.206 F 
ATOM     77  C   UNL     1       4.659   0.838  15.163  1.00  0.00     0.060 A 
BRANCH  77  78
ATOM     78  S   UNL     1       6.320   1.147  15.798  1.00  0.00     0.124 S 
ATOM     79  O   UNL     1       6.033   1.664  17.131  1.00  0.00    -0.237 OA
ATOM     80  O   UNL     1       6.918  -0.183  15.745  1.00  0.00    -0.237 OA
ATOM     81  O   UNL     1       6.868   2.113  14.851  1.00  0.00    -0.744 OA
ENDBRANCH  77  78
ENDBRANCH  45  70
BRANCH  57  82
ATOM     82  C   UNL     1      -4.482   0.435  16.497  1.00  0.00     0.058 A 
ATOM     83  C   UNL     1      -4.599   1.797  16.814  1.00  0.00     0.135 A 
ATOM     84  C   UNL     1      -5.053  -0.495  17.382  1.00  0.00     0.135 A 
ATOM     85  F   UNL     1      -4.065   2.727  16.007  1.00  0.00    -0.206 F 
ATOM     86  C   UNL     1      -5.255   2.221  17.965  1.00  0.00     0.059 A 
ATOM     87  C   UNL     1      -5.736  -0.092  18.526  1.00  0.00     0.059 A 
ATOM     88  F   UNL     1      -4.974  -1.810  17.124  1.00  0.00    -0.206 F 
ATOM     89  C   UNL     1      -5.830   1.270  18.810  1.00  0.00     0.060 A 
BRANCH  89  90
ATOM     90  S   UNL     1      -6.731   1.844  20.266  1.00  0.00     0.124 S 
ATOM     91  O   UNL     1      -5.654   2.386  21.087  1.00  0.00    -0.237 OA
ATOM     92  O   UNL     1      -7.648   2.825  19.693  1.00  0.00    -0.237 OA
ATOM     93  O   UNL     1      -7.361   0.631  20.779  1.00  0.00    -0.744 OA
ENDBRANCH  89  90
ENDBRANCH  57  82
ENDBRANCH  31  32
ENDBRANCH  24  26
ENDBRANCH   1  24
TORSDOF 14
