REMARK SMILES O=C(OCCOC(=O)c1ccccc1-c1ccc(/C=C2\C(=O)N(c3cccc(Br)c3)C(=O)N=C2O)o1)c1ccc(-c2c3nc(c(-c4c(F)cc(S(=O)(=O)[O-])cc4F)c4ccc([nH]4)c(-c4c(F)cc(S(=O)(=O)[O-])cc4F)c4nc(c(-c5c(F)cc(S(=O)(=O)[O-])cc5F)c5ccc2[nH]5)C=C4)C=C3)cc1
REMARK SMILES IDX 4 1 3 2 2 3 1 4 37 5 38 6 102 7 39 8 101 9 40 10 41 11 42 12
REMARK SMILES IDX 95 13 43 14 100 15 94 16 96 17 44 18 99 19 93 20 92 21 45 23
REMARK SMILES IDX 79 24 58 25 78 26 59 27 62 28 77 29 97 30 60 31 61 32 76 34
REMARK SMILES IDX 98 35 63 36 46 37 47 38 56 39 48 40 49 41 55 42 57 43 50 44
REMARK SMILES IDX 51 45 52 46 53 47 54 48 80 49 81 50 90 51 82 52 83 53 89 54
REMARK SMILES IDX 91 55 84 56 85 57 86 58 87 59 88 60 64 61 65 62 74 63 66 64
REMARK SMILES IDX 67 65 73 66 75 67 68 68 69 69 70 70 71 71 72 72 5 73 6 74
REMARK SMILES IDX 7 75 8 76 9 77 10 78 14 79 11 80 13 81 12 82 15 83 16 84
REMARK SMILES IDX 36 85 17 86 18 87 19 88 20 89 21 90 34 91 22 92 23 93 33 94
REMARK SMILES IDX 31 95 32 96 35 97 24 99 25 100 30 101 26 102 28 103 27 104
REMARK SMILES IDX 29 105
REMARK H PARENT 96 22 62 33 35 98
REMARK Flexibility Score: inf
ROOT
ATOM      1  C   UNL     1       4.309   0.646   1.387  1.00  0.00     0.275 C 
ENDROOT
BRANCH   1   2
ATOM      2  O   UNL     1       3.106   1.144   0.760  1.00  0.00    -0.458 OA
BRANCH   2   3
ATOM      3  C   UNL     1       2.728   1.217  -0.542  1.00  0.00     0.338 C 
ATOM      4  O   UNL     1       1.769   1.937  -0.823  1.00  0.00    -0.246 OA
BRANCH   3   5
ATOM      5  C   UNL     1       3.302   0.380  -1.650  1.00  0.00     0.060 A 
ATOM      6  C   UNL     1       4.460  -0.367  -1.568  1.00  0.00     0.016 A 
ATOM      7  C   UNL     1       2.576   0.276  -2.857  1.00  0.00     0.016 A 
ATOM      8  C   UNL     1       4.783  -1.289  -2.563  1.00  0.00     0.010 A 
ATOM      9  C   UNL     1       2.934  -0.644  -3.872  1.00  0.00     0.010 A 
ATOM     10  C   UNL     1       4.024  -1.496  -3.707  1.00  0.00    -0.014 A 
BRANCH  10  11
ATOM     11  C   UNL     1       4.477  -2.433  -4.765  1.00  0.00     0.031 A 
ATOM     12  C   UNL     1       5.353  -1.883  -5.793  1.00  0.00     0.074 A 
ATOM     13  C   UNL     1       4.609  -3.772  -4.776  1.00  0.00     0.049 A 
ATOM     14  N   UNL     1       5.593  -2.306  -7.376  1.00  0.00    -0.248 NA
ATOM     15  C   UNL     1       6.568  -0.337  -5.337  1.00  0.00     0.031 C 
ATOM     16  C   UNL     1       4.421  -4.585  -3.615  1.00  0.00     0.029 A 
ATOM     17  N   UNL     1       5.032  -4.676  -5.729  1.00  0.00    -0.354 N 
ATOM     18  C   UNL     1       6.920  -1.207  -8.081  1.00  0.00     0.074 A 
ATOM     19  C   UNL     1       7.450  -0.048  -6.642  1.00  0.00     0.031 C 
ATOM     20  C   UNL     1       4.605  -5.880  -3.901  1.00  0.00     0.029 A 
ATOM     21  C   UNL     1       4.956  -5.985  -5.310  1.00  0.00     0.049 A 
ATOM     22  H   UNL     1       5.356  -4.411  -6.620  1.00  0.00     0.167 HD
ATOM     23  C   UNL     1       7.426  -1.174  -9.342  1.00  0.00     0.037 A 
ATOM     24  C   UNL     1       5.142  -7.149  -5.963  1.00  0.00     0.037 A 
ATOM     25  C   UNL     1       7.556  -2.360 -10.161  1.00  0.00     0.049 A 
ATOM     26  C   UNL     1       5.760  -7.122  -7.343  1.00  0.00     0.074 A 
ATOM     27  C   UNL     1       8.601  -2.629 -11.024  1.00  0.00     0.029 A 
ATOM     28  N   UNL     1       6.804  -3.541 -10.083  1.00  0.00    -0.354 N 
ATOM     29  N   UNL     1       6.103  -6.098  -8.098  1.00  0.00    -0.248 NA
ATOM     30  C   UNL     1       6.089  -8.427  -7.925  1.00  0.00     0.031 C 
ATOM     31  C   UNL     1       8.644  -4.016 -11.209  1.00  0.00     0.029 A 
ATOM     32  C   UNL     1       7.608  -4.605 -10.489  1.00  0.00     0.049 A 
ATOM     33  H   UNL     1       5.867  -3.608  -9.790  1.00  0.00     0.167 HD
ATOM     34  C   UNL     1       6.741  -6.627  -9.218  1.00  0.00     0.074 A 
ATOM     35  C   UNL     1       6.705  -8.072  -9.044  1.00  0.00     0.031 C 
ATOM     36  C   UNL     1       7.375  -6.022 -10.263  1.00  0.00     0.037 A 
BRANCH  23  37
ATOM     37  C   UNL     1       8.065   0.102  -9.779  1.00  0.00     0.058 A 
ATOM     38  C   UNL     1       9.193   0.686  -9.188  1.00  0.00     0.135 A 
ATOM     39  C   UNL     1       7.498   0.762 -10.883  1.00  0.00     0.135 A 
ATOM     40  F   UNL     1       9.830   0.074  -8.177  1.00  0.00    -0.206 F 
ATOM     41  C   UNL     1       9.680   1.920  -9.610  1.00  0.00     0.059 A 
ATOM     42  C   UNL     1       8.000   1.967 -11.358  1.00  0.00     0.059 A 
ATOM     43  F   UNL     1       6.439   0.230 -11.515  1.00  0.00    -0.206 F 
ATOM     44  C   UNL     1       9.074   2.555 -10.695  1.00  0.00     0.060 A 
BRANCH  44  45
ATOM     45  S   UNL     1       9.736   4.133 -11.265  1.00  0.00     0.124 S 
ATOM     46  O   UNL     1       9.197   5.054 -10.270  1.00  0.00    -0.237 OA
ATOM     47  O   UNL     1      11.177   3.910 -11.206  1.00  0.00    -0.237 OA
ATOM     48  O   UNL     1       9.183   4.266 -12.610  1.00  0.00    -0.744 OA
ENDBRANCH  44  45
ENDBRANCH  23  37
BRANCH  24  49
ATOM     49  C   UNL     1       4.678  -8.418  -5.307  1.00  0.00     0.058 A 
ATOM     50  C   UNL     1       5.540  -9.443  -4.891  1.00  0.00     0.135 A 
ATOM     51  C   UNL     1       3.301  -8.611  -5.068  1.00  0.00     0.135 A 
ATOM     52  F   UNL     1       6.865  -9.313  -5.056  1.00  0.00    -0.206 F 
ATOM     53  C   UNL     1       5.058 -10.626  -4.321  1.00  0.00     0.059 A 
ATOM     54  C   UNL     1       2.799  -9.766  -4.473  1.00  0.00     0.059 A 
ATOM     55  F   UNL     1       2.421  -7.653  -5.401  1.00  0.00    -0.206 F 
ATOM     56  C   UNL     1       3.684 -10.782  -4.126  1.00  0.00     0.060 A 
BRANCH  56  57
ATOM     57  S   UNL     1       3.064 -12.327  -3.416  1.00  0.00     0.124 S 
ATOM     58  O   UNL     1       3.336 -13.274  -4.492  1.00  0.00    -0.237 OA
ATOM     59  O   UNL     1       3.888 -12.466  -2.219  1.00  0.00    -0.237 OA
ATOM     60  O   UNL     1       1.653 -12.044  -3.169  1.00  0.00    -0.744 OA
ENDBRANCH  56  57
ENDBRANCH  24  49
BRANCH  36  61
ATOM     61  C   UNL     1       8.039  -6.955 -11.238  1.00  0.00     0.058 A 
ATOM     62  C   UNL     1       7.282  -7.600 -12.222  1.00  0.00     0.135 A 
ATOM     63  C   UNL     1       9.431  -7.155 -11.228  1.00  0.00     0.135 A 
ATOM     64  F   UNL     1       5.945  -7.490 -12.224  1.00  0.00    -0.206 F 
ATOM     65  C   UNL     1       7.889  -8.374 -13.199  1.00  0.00     0.059 A 
ATOM     66  C   UNL     1      10.063  -7.892 -12.220  1.00  0.00     0.059 A 
ATOM     67  F   UNL     1      10.190  -6.589 -10.275  1.00  0.00    -0.206 F 
ATOM     68  C   UNL     1       9.281  -8.486 -13.210  1.00  0.00     0.060 A 
BRANCH  68  69
ATOM     69  S   UNL     1      10.053  -9.354 -14.590  1.00  0.00     0.124 S 
ATOM     70  O   UNL     1       9.701 -10.739 -14.300  1.00  0.00    -0.237 OA
ATOM     71  O   UNL     1       9.382  -8.755 -15.740  1.00  0.00    -0.237 OA
ATOM     72  O   UNL     1      11.467  -9.021 -14.452  1.00  0.00    -0.744 OA
ENDBRANCH  68  69
ENDBRANCH  36  61
ENDBRANCH  10  11
ENDBRANCH   3   5
ENDBRANCH   2   3
ENDBRANCH   1   2
BRANCH   1  73
ATOM     73  C   UNL     1       4.195  -0.798   1.884  1.00  0.00     0.275 C 
BRANCH  73  74
ATOM     74  O   UNL     1       3.725  -1.683   0.866  1.00  0.00    -0.458 OA
BRANCH  74  75
ATOM     75  C   UNL     1       2.399  -1.951   0.883  1.00  0.00     0.338 C 
ATOM     76  O   UNL     1       1.581  -1.546   1.692  1.00  0.00    -0.246 OA
BRANCH  75  77
ATOM     77  C   UNL     1       2.031  -2.725  -0.314  1.00  0.00     0.071 A 
ATOM     78  C   UNL     1       1.009  -2.175  -1.114  1.00  0.00     0.016 A 
ATOM     79  C   UNL     1       2.644  -3.943  -0.649  1.00  0.00     0.032 A 
ATOM     80  C   UNL     1       0.608  -2.815  -2.282  1.00  0.00     0.001 A 
ATOM     81  C   UNL     1       2.094  -4.644  -1.737  1.00  0.00     0.013 A 
ATOM     82  C   UNL     1       1.137  -4.062  -2.583  1.00  0.00     0.001 A 
BRANCH  79  83
ATOM     83  C   UNL     1       3.821  -4.466   0.062  1.00  0.00     0.135 A 
ATOM     84  C   UNL     1       4.036  -4.860   1.359  1.00  0.00     0.051 A 
ATOM     85  O   UNL     1       5.018  -4.526  -0.623  1.00  0.00    -0.457 OA
ATOM     86  C   UNL     1       5.412  -5.175   1.455  1.00  0.00     0.051 A 
ATOM     87  C   UNL     1       6.021  -4.974   0.215  1.00  0.00     0.128 A 
BRANCH  87  88
ATOM     88  C   UNL     1       7.400  -5.264  -0.078  1.00  0.00     0.066 C 
ATOM     89  C   UNL     1       8.229  -4.883  -1.076  1.00  0.00     0.106 C 
ATOM     90  C   UNL     1       7.958  -3.985  -2.224  1.00  0.00     0.272 C 
ATOM     91  C   UNL     1       9.609  -5.376  -1.051  1.00  0.00     0.228 C 
ATOM     92  O   UNL     1       6.934  -3.326  -2.221  1.00  0.00    -0.268 OA
ATOM     93  N   UNL     1       8.934  -3.934  -3.213  1.00  0.00    -0.226 N 
ATOM     94  N   UNL     1      10.529  -5.162  -1.902  1.00  0.00    -0.156 NA
ATOM     95  C   UNL     1      10.243  -4.420  -3.016  1.00  0.00     0.358 C 
ATOM     96  O   UNL     1      11.167  -4.180  -3.791  1.00  0.00    -0.245 OA
BRANCH  91  97
ATOM     97  O   UNL     1       9.971  -6.116   0.005  1.00  0.00    -0.493 OA
ATOM     98  H   UNL     1       9.346  -6.315   0.674  1.00  0.00     0.295 HD
ENDBRANCH  91  97
BRANCH  93  99
ATOM     99  C   UNL     1       8.585  -3.488  -4.552  1.00  0.00     0.055 A 
ATOM    100  C   UNL     1       9.012  -4.367  -5.555  1.00  0.00     0.027 A 
ATOM    101  C   UNL     1       7.718  -2.361  -4.878  1.00  0.00     0.042 A 
ATOM    102  C   UNL     1       8.536  -4.251  -6.819  1.00  0.00     0.003 A 
ATOM    103  C   UNL     1       7.162  -2.038  -6.286  1.00  0.00     0.020 A 
ATOM    104  C   UNL     1       7.635  -3.230  -7.097  1.00  0.00     0.016 A 
ATOM    105  Br  UNL     1       5.226  -0.223  -7.093  1.00  0.00    -0.051 Br
ENDBRANCH  93  99
ENDBRANCH  87  88
ENDBRANCH  79  83
ENDBRANCH  75  77
ENDBRANCH  74  75
ENDBRANCH  73  74
ENDBRANCH   1  73
TORSDOF 18
