REMARK SMILES O=C(OCCOC(=O)c1ccc(-c2c3nc(c(-c4c(F)cc(S(=O)(=O)[O-])cc4F)c4ccc([nH]4)c(-c4c(F)cc(S(=O)(=O)[O-])cc4F)c4nc(c(-c5c(F)cc(S(=O)(=O)[O-])cc5F)c5ccc2[nH]5)C=C4)C=C3)cc1)C1=Cc2cc(Cl)ccc2O[C@@H]1C(F)(F)F
REMARK SMILES IDX 5 1 4 2 3 3 2 4 1 5 75 6 76 7 85 8 77 9 84 10 78 11 83 12
REMARK SMILES IDX 79 13 82 14 80 15 81 16 86 17 87 18 88 19 89 20 6 21 7 22
REMARK SMILES IDX 8 23 9 24 10 25 74 26 11 27 73 28 12 29 13 30 14 31 67 32
REMARK SMILES IDX 15 33 72 34 66 35 68 36 16 37 71 38 65 39 64 40 17 42 51 43
REMARK SMILES IDX 30 44 50 45 31 46 34 47 49 48 69 49 32 50 33 51 48 53 70 54
REMARK SMILES IDX 35 55 18 56 19 57 28 58 20 59 21 60 27 61 29 62 22 63 23 64
REMARK SMILES IDX 24 65 25 66 26 67 52 68 53 69 62 70 54 71 55 72 61 73 63 74
REMARK SMILES IDX 56 75 57 76 58 77 59 78 60 79 36 80 37 81 46 82 38 83 39 84
REMARK SMILES IDX 45 85 47 86 40 87 41 88 42 89 43 90 44 91
REMARK H PARENT 68 41 34 52
REMARK Flexibility Score: inf
ROOT
ATOM      1  C   UNL     1       4.710  -0.145   0.983  1.00  0.00     0.275 C 
ENDROOT
BRANCH   1   2
ATOM      2  C   UNL     1       3.897  -0.495  -1.010  1.00  0.00     0.275 C 
BRANCH   2   3
ATOM      3  O   UNL     1       3.080  -1.732  -1.459  1.00  0.00    -0.459 OA
BRANCH   3   4
ATOM      4  C   UNL     1       3.320  -2.824  -0.723  1.00  0.00     0.338 C 
ATOM      5  O   UNL     1       2.781  -3.899  -0.734  1.00  0.00    -0.246 OA
BRANCH   4   6
ATOM      6  C   UNL     1       4.133  -2.147   0.258  1.00  0.00     0.087 C 
ATOM      7  C   UNL     1       5.496  -1.892  -0.241  1.00  0.00     0.027 C 
ATOM      8  C   UNL     1       2.829  -0.789   0.691  1.00  0.00     0.316 C 
ATOM      9  C   UNL     1       6.086  -0.249  -0.711  1.00  0.00     0.019 A 
ATOM     10  O   UNL     1       3.423   0.966   0.157  1.00  0.00    -0.475 OA
ATOM     11  C   UNL     1       7.255  -0.163  -1.412  1.00  0.00     0.032 A 
ATOM     12  C   UNL     1       5.073   1.163  -0.601  1.00  0.00     0.128 A 
ATOM     13  C   UNL     1       7.497   1.094  -1.990  1.00  0.00     0.041 A 
ATOM     14  C   UNL     1       5.397   2.354  -1.180  1.00  0.00     0.048 A 
ATOM     15  Cl  UNL     1       8.924   1.224  -2.974  1.00  0.00    -0.084 Cl
ATOM     16  C   UNL     1       6.632   2.272  -1.882  1.00  0.00     0.024 A 
BRANCH   8  17
ATOM     17  C   UNL     1       2.349  -1.401   2.061  1.00  0.00     0.430 C 
ATOM     18  F   UNL     1       1.098  -1.034   2.361  1.00  0.00    -0.167 F 
ATOM     19  F   UNL     1       2.269  -2.760   1.912  1.00  0.00    -0.167 F 
ATOM     20  F   UNL     1       3.168  -1.270   3.116  1.00  0.00    -0.167 F 
ENDBRANCH   8  17
ENDBRANCH   4   6
ENDBRANCH   3   4
ENDBRANCH   2   3
ENDBRANCH   1   2
BRANCH   1  21
ATOM     21  O   UNL     1       3.900   0.663   2.252  1.00  0.00    -0.458 OA
BRANCH  21  22
ATOM     22  C   UNL     1       3.081   1.724   2.544  1.00  0.00     0.338 C 
ATOM     23  O   UNL     1       2.739   2.662   1.851  1.00  0.00    -0.246 OA
BRANCH  22  24
ATOM     24  C   UNL     1       2.366   1.311   3.792  1.00  0.00     0.060 A 
ATOM     25  C   UNL     1       0.986   1.050   3.732  1.00  0.00     0.016 A 
ATOM     26  C   UNL     1       3.118   0.832   4.867  1.00  0.00     0.016 A 
ATOM     27  C   UNL     1       0.408   0.144   4.641  1.00  0.00     0.010 A 
ATOM     28  C   UNL     1       2.542  -0.071   5.765  1.00  0.00     0.010 A 
ATOM     29  C   UNL     1       1.197  -0.463   5.631  1.00  0.00    -0.014 A 
BRANCH  29  30
ATOM     30  C   UNL     1       0.567  -1.246   6.727  1.00  0.00     0.031 A 
ATOM     31  C   UNL     1       0.149  -0.431   7.917  1.00  0.00     0.074 A 
ATOM     32  C   UNL     1       0.419  -2.589   6.725  1.00  0.00     0.049 A 
ATOM     33  N   UNL     1      -0.402  -0.804   9.038  1.00  0.00    -0.248 NA
ATOM     34  C   UNL     1       0.428   1.015   7.830  1.00  0.00     0.031 C 
ATOM     35  C   UNL     1       0.809  -3.501   5.649  1.00  0.00     0.029 A 
ATOM     36  N   UNL     1      -0.100  -3.428   7.688  1.00  0.00    -0.354 N 
ATOM     37  C   UNL     1      -0.540   0.362   9.779  1.00  0.00     0.074 A 
ATOM     38  C   UNL     1       0.060   1.435   9.024  1.00  0.00     0.031 C 
ATOM     39  C   UNL     1       0.511  -4.767   6.010  1.00  0.00     0.029 A 
ATOM     40  C   UNL     1      -0.086  -4.765   7.345  1.00  0.00     0.049 A 
ATOM     41  H   UNL     1      -0.452  -3.102   8.547  1.00  0.00     0.167 HD
ATOM     42  C   UNL     1      -1.147   0.540  10.971  1.00  0.00     0.037 A 
ATOM     43  C   UNL     1      -0.519  -5.846   8.034  1.00  0.00     0.037 A 
ATOM     44  C   UNL     1      -1.720  -0.529  11.731  1.00  0.00     0.049 A 
ATOM     45  C   UNL     1      -1.150  -5.632   9.398  1.00  0.00     0.074 A 
ATOM     46  C   UNL     1      -2.367  -0.471  12.948  1.00  0.00     0.029 A 
ATOM     47  N   UNL     1      -1.695  -1.861  11.343  1.00  0.00    -0.354 N 
ATOM     48  N   UNL     1      -1.356  -4.510  10.051  1.00  0.00    -0.248 NA
ATOM     49  C   UNL     1      -1.623  -6.829  10.113  1.00  0.00     0.031 C 
ATOM     50  C   UNL     1      -2.691  -1.778  13.323  1.00  0.00     0.029 A 
ATOM     51  C   UNL     1      -2.301  -2.641  12.308  1.00  0.00     0.049 A 
ATOM     52  H   UNL     1      -1.304  -2.200  10.505  1.00  0.00     0.167 HD
ATOM     53  C   UNL     1      -2.027  -4.861  11.220  1.00  0.00     0.074 A 
ATOM     54  C   UNL     1      -2.191  -6.300  11.187  1.00  0.00     0.031 C 
ATOM     55  C   UNL     1      -2.476  -4.070  12.228  1.00  0.00     0.037 A 
BRANCH  42  56
ATOM     56  C   UNL     1      -1.180   1.944  11.498  1.00  0.00     0.058 A 
ATOM     57  C   UNL     1      -1.937   2.946  10.864  1.00  0.00     0.135 A 
ATOM     58  C   UNL     1      -0.383   2.313  12.590  1.00  0.00     0.135 A 
ATOM     59  F   UNL     1      -2.683   2.652   9.786  1.00  0.00    -0.206 F 
ATOM     60  C   UNL     1      -1.862   4.274  11.264  1.00  0.00     0.059 A 
ATOM     61  C   UNL     1      -0.321   3.631  13.030  1.00  0.00     0.059 A 
ATOM     62  F   UNL     1       0.373   1.399  13.216  1.00  0.00    -0.206 F 
ATOM     63  C   UNL     1      -1.046   4.607  12.346  1.00  0.00     0.060 A 
BRANCH  63  64
ATOM     64  S   UNL     1      -0.940   6.338  12.839  1.00  0.00     0.124 S 
ATOM     65  O   UNL     1      -0.135   6.900  11.760  1.00  0.00    -0.237 OA
ATOM     66  O   UNL     1      -2.343   6.742  12.859  1.00  0.00    -0.237 OA
ATOM     67  O   UNL     1      -0.289   6.280  14.144  1.00  0.00    -0.744 OA
ENDBRANCH  63  64
ENDBRANCH  42  56
BRANCH  43  68
ATOM     68  C   UNL     1      -0.433  -7.229   7.465  1.00  0.00     0.058 A 
ATOM     69  C   UNL     1      -1.595  -7.947   7.130  1.00  0.00     0.135 A 
ATOM     70  C   UNL     1       0.794  -7.893   7.308  1.00  0.00     0.135 A 
ATOM     71  F   UNL     1      -2.801  -7.377   7.281  1.00  0.00    -0.206 F 
ATOM     72  C   UNL     1      -1.548  -9.269   6.687  1.00  0.00     0.059 A 
ATOM     73  C   UNL     1       0.869  -9.208   6.843  1.00  0.00     0.059 A 
ATOM     74  F   UNL     1       1.940  -7.267   7.615  1.00  0.00    -0.206 F 
ATOM     75  C   UNL     1      -0.309  -9.893   6.547  1.00  0.00     0.060 A 
BRANCH  75  76
ATOM     76  S   UNL     1      -0.260 -11.600   5.949  1.00  0.00     0.124 S 
ATOM     77  O   UNL     1      -0.810 -12.330   7.085  1.00  0.00    -0.237 OA
ATOM     78  O   UNL     1      -1.108 -11.534   4.763  1.00  0.00    -0.237 OA
ATOM     79  O   UNL     1       1.159 -11.824   5.685  1.00  0.00    -0.744 OA
ENDBRANCH  75  76
ENDBRANCH  43  68
BRANCH  55  80
ATOM     80  C   UNL     1      -3.250  -4.720  13.343  1.00  0.00     0.058 A 
ATOM     81  C   UNL     1      -2.634  -5.535  14.303  1.00  0.00     0.135 A 
ATOM     82  C   UNL     1      -4.620  -4.443  13.497  1.00  0.00     0.135 A 
ATOM     83  F   UNL     1      -1.327  -5.827  14.205  1.00  0.00    -0.206 F 
ATOM     84  C   UNL     1      -3.354  -6.075  15.364  1.00  0.00     0.059 A 
ATOM     85  C   UNL     1      -5.350  -4.944  14.568  1.00  0.00     0.059 A 
ATOM     86  F   UNL     1      -5.253  -3.651  12.617  1.00  0.00    -0.206 F 
ATOM     87  C   UNL     1      -4.711  -5.771  15.490  1.00  0.00     0.060 A 
BRANCH  87  88
ATOM     88  S   UNL     1      -5.625  -6.447  16.891  1.00  0.00     0.124 S 
ATOM     89  O   UNL     1      -5.762  -7.847  16.504  1.00  0.00    -0.237 OA
ATOM     90  O   UNL     1      -4.725  -6.182  18.009  1.00  0.00    -0.237 OA
ATOM     91  O   UNL     1      -6.863  -5.673  16.895  1.00  0.00    -0.744 OA
ENDBRANCH  87  88
ENDBRANCH  55  80
ENDBRANCH  29  30
ENDBRANCH  22  24
ENDBRANCH  21  22
ENDBRANCH   1  21
TORSDOF 15
