REMARK SMILES CC1=C(CC(=O)OCCOC(=O)c2ccc(-c3c4nc(c(-c5c(F)cc(S(=O)(=O)[O-])cc5F)c5ccc([nH]5)c(-c5c(F)cc(S(=O)(=O)[O-])cc5F)c5nc(c(-c6c(F)cc(S(=O)(=O)[O-])cc6F)c6ccc3[nH]6)C=C5)C=C4)cc2)c2cc(F)ccc2/C1=C\c1cccc(OCc2ccccc2)c1
REMARK SMILES IDX 8 1 7 2 5 3 6 4 4 5 3 6 1 7 2 8 86 9 79 10 85 11 87 12 80 13
REMARK SMILES IDX 84 14 81 15 83 16 82 17 88 18 89 19 101 20 90 21 92 22 91 23
REMARK SMILES IDX 93 24 94 25 95 26 96 27 100 28 97 29 99 30 98 31 9 32 10 33
REMARK SMILES IDX 11 34 12 35 13 36 14 37 78 38 15 39 77 40 16 41 17 42 18 43
REMARK SMILES IDX 71 44 19 45 76 46 70 47 72 48 20 49 75 50 69 51 68 52 21 54
REMARK SMILES IDX 55 55 34 56 54 57 35 58 38 59 53 60 73 61 36 62 37 63 52 65
REMARK SMILES IDX 74 66 39 67 22 68 23 69 32 70 24 71 25 72 31 73 33 74 26 75
REMARK SMILES IDX 27 76 28 77 29 78 30 79 56 80 57 81 66 82 58 83 59 84 65 85
REMARK SMILES IDX 67 86 60 87 61 88 62 89 63 90 64 91 40 92 41 93 50 94 42 95
REMARK SMILES IDX 43 96 49 97 51 98 44 99 45 100 46 101 47 102 48 103
REMARK H PARENT 72 53 38 64
REMARK Flexibility Score: inf
ROOT
ATOM      1  C   UNL     1       0.194  -3.618   3.767  1.00  0.00     0.274 C 
ENDROOT
BRANCH   1   2
ATOM      2  O   UNL     1       0.526  -3.122   2.453  1.00  0.00    -0.462 OA
BRANCH   2   3
ATOM      3  C   UNL     1       1.837  -2.828   2.246  1.00  0.00     0.310 C 
ATOM      4  O   UNL     1       2.710  -2.913   3.106  1.00  0.00    -0.252 OA
BRANCH   3   5
ATOM      5  C   UNL     1       2.168  -2.376   0.830  1.00  0.00     0.159 C 
BRANCH   5   6
ATOM      6  C   UNL     1       1.037  -2.331  -0.143  1.00  0.00    -0.025 C 
ATOM      7  C   UNL     1       0.444   0.139  -0.040  1.00  0.00     0.045 C 
ATOM      8  C   UNL     1       0.283  -1.269  -0.508  1.00  0.00    -0.039 C 
ATOM      9  C   UNL     1      -0.717  -1.698  -1.498  1.00  0.00    -0.014 C 
ATOM     10  C   UNL     1       0.598  -3.491  -0.937  1.00  0.00    -0.011 A 
ATOM     11  C   UNL     1      -0.491  -3.135  -1.750  1.00  0.00    -0.010 A 
ATOM     12  C   UNL     1      -1.627  -0.886  -2.064  1.00  0.00     0.017 C 
ATOM     13  C   UNL     1       1.120  -4.773  -0.997  1.00  0.00     0.048 A 
ATOM     14  C   UNL     1      -1.091  -4.075  -2.581  1.00  0.00     0.012 A 
ATOM     15  C   UNL     1       0.513  -5.710  -1.827  1.00  0.00     0.123 A 
ATOM     16  C   UNL     1      -0.589  -5.378  -2.609  1.00  0.00     0.040 A 
ATOM     17  F   UNL     1       1.010  -6.953  -1.889  1.00  0.00    -0.207 F 
BRANCH  12  18
ATOM     18  C   UNL     1      -2.568  -1.290  -3.107  1.00  0.00    -0.021 A 
ATOM     19  C   UNL     1      -3.790  -1.880  -2.770  1.00  0.00     0.008 A 
ATOM     20  C   UNL     1      -2.197  -1.152  -4.451  1.00  0.00     0.054 A 
ATOM     21  C   UNL     1      -4.620  -2.370  -3.776  1.00  0.00     0.004 A 
ATOM     22  C   UNL     1      -3.045  -1.607  -5.459  1.00  0.00     0.120 A 
ATOM     23  C   UNL     1      -4.242  -2.241  -5.113  1.00  0.00     0.046 A 
BRANCH  22  24
ATOM     24  O   UNL     1      -2.847  -1.457  -6.805  1.00  0.00    -0.489 OA
BRANCH  24  25
ATOM     25  C   UNL     1      -1.808  -0.575  -7.248  1.00  0.00     0.265 C 
BRANCH  25  26
ATOM     26  C   UNL     1      -2.037   0.901  -6.971  1.00  0.00    -0.011 A 
ATOM     27  C   UNL     1      -3.275   1.403  -6.542  1.00  0.00     0.007 A 
ATOM     28  C   UNL     1      -0.976   1.803  -7.149  1.00  0.00     0.007 A 
ATOM     29  C   UNL     1      -3.431   2.755  -6.232  1.00  0.00     0.000 A 
ATOM     30  C   UNL     1      -1.139   3.159  -6.859  1.00  0.00     0.000 A 
ATOM     31  C   UNL     1      -2.362   3.632  -6.388  1.00  0.00     0.000 A 
ENDBRANCH  25  26
ENDBRANCH  24  25
ENDBRANCH  22  24
ENDBRANCH  12  18
ENDBRANCH   5   6
ENDBRANCH   3   5
ENDBRANCH   2   3
ENDBRANCH   1   2
BRANCH   1  32
ATOM     32  C   UNL     1       0.059  -5.138   3.752  1.00  0.00     0.275 C 
BRANCH  32  33
ATOM     33  O   UNL     1       1.280  -5.722   3.271  1.00  0.00    -0.458 OA
BRANCH  33  34
ATOM     34  C   UNL     1       1.152  -6.541   2.202  1.00  0.00     0.338 C 
ATOM     35  O   UNL     1       0.120  -6.894   1.660  1.00  0.00    -0.246 OA
BRANCH  34  36
ATOM     36  C   UNL     1       2.488  -6.989   1.769  1.00  0.00     0.060 A 
ATOM     37  C   UNL     1       2.709  -8.350   1.582  1.00  0.00     0.016 A 
ATOM     38  C   UNL     1       3.489  -6.064   1.459  1.00  0.00     0.016 A 
ATOM     39  C   UNL     1       3.953  -8.786   1.124  1.00  0.00     0.010 A 
ATOM     40  C   UNL     1       4.690  -6.494   0.897  1.00  0.00     0.010 A 
ATOM     41  C   UNL     1       4.952  -7.862   0.764  1.00  0.00    -0.014 A 
BRANCH  41  42
ATOM     42  C   UNL     1       6.282  -8.344   0.306  1.00  0.00     0.031 A 
ATOM     43  C   UNL     1       7.509  -8.074   1.139  1.00  0.00     0.074 A 
ATOM     44  C   UNL     1       6.378  -9.061  -0.831  1.00  0.00     0.049 A 
ATOM     45  N   UNL     1       8.731  -8.511   0.968  1.00  0.00    -0.248 NA
ATOM     46  C   UNL     1       7.354  -7.190   2.307  1.00  0.00     0.031 C 
ATOM     47  C   UNL     1       5.272  -9.342  -1.752  1.00  0.00     0.029 A 
ATOM     48  N   UNL     1       7.448  -9.711  -1.393  1.00  0.00    -0.354 N 
ATOM     49  C   UNL     1       9.477  -7.972   2.010  1.00  0.00     0.074 A 
ATOM     50  C   UNL     1       8.594  -7.114   2.765  1.00  0.00     0.031 C 
ATOM     51  C   UNL     1       5.708 -10.158  -2.726  1.00  0.00     0.029 A 
ATOM     52  C   UNL     1       7.123 -10.442  -2.513  1.00  0.00     0.049 A 
ATOM     53  H   UNL     1       8.361  -9.660  -1.029  1.00  0.00     0.167 HD
ATOM     54  C   UNL     1      10.769  -8.206   2.338  1.00  0.00     0.037 A 
ATOM     55  C   UNL     1       7.877 -11.268  -3.265  1.00  0.00     0.037 A 
ATOM     56  C   UNL     1      11.641  -9.082   1.605  1.00  0.00     0.049 A 
ATOM     57  C   UNL     1       9.314 -11.502  -2.883  1.00  0.00     0.074 A 
ATOM     58  C   UNL     1      12.959  -9.406   1.874  1.00  0.00     0.029 A 
ATOM     59  N   UNL     1      11.278  -9.782   0.465  1.00  0.00    -0.354 N 
ATOM     60  N   UNL     1       9.984 -11.025  -1.862  1.00  0.00    -0.248 NA
ATOM     61  C   UNL     1      10.096 -12.393  -3.753  1.00  0.00     0.031 C 
ATOM     62  C   UNL     1      13.402 -10.285   0.881  1.00  0.00     0.029 A 
ATOM     63  C   UNL     1      12.350 -10.533   0.014  1.00  0.00     0.049 A 
ATOM     64  H   UNL     1      10.391  -9.751   0.040  1.00  0.00     0.167 HD
ATOM     65  C   UNL     1      11.257 -11.578  -1.952  1.00  0.00     0.074 A 
ATOM     66  C   UNL     1      11.261 -12.434  -3.119  1.00  0.00     0.031 C 
ATOM     67  C   UNL     1      12.328 -11.391  -1.143  1.00  0.00     0.037 A 
BRANCH  54  68
ATOM     68  C   UNL     1      11.308  -7.543   3.575  1.00  0.00     0.058 A 
ATOM     69  C   UNL     1      10.933  -7.986   4.853  1.00  0.00     0.135 A 
ATOM     70  C   UNL     1      12.257  -6.513   3.489  1.00  0.00     0.135 A 
ATOM     71  F   UNL     1      10.013  -8.955   4.990  1.00  0.00    -0.206 F 
ATOM     72  C   UNL     1      11.476  -7.428   6.004  1.00  0.00     0.059 A 
ATOM     73  C   UNL     1      12.830  -5.954   4.628  1.00  0.00     0.059 A 
ATOM     74  F   UNL     1      12.645  -6.049   2.290  1.00  0.00    -0.206 F 
ATOM     75  C   UNL     1      12.430  -6.417   5.881  1.00  0.00     0.060 A 
BRANCH  75  76
ATOM     76  S   UNL     1      13.158  -5.738   7.387  1.00  0.00     0.124 S 
ATOM     77  O   UNL     1      12.039  -4.978   7.936  1.00  0.00    -0.237 OA
ATOM     78  O   UNL     1      13.527  -6.943   8.124  1.00  0.00    -0.237 OA
ATOM     79  O   UNL     1      14.277  -4.940   6.896  1.00  0.00    -0.744 OA
ENDBRANCH  75  76
ENDBRANCH  54  68
BRANCH  55  80
ATOM     80  C   UNL     1       7.280 -11.980  -4.426  1.00  0.00     0.058 A 
ATOM     81  C   UNL     1       7.062 -13.366  -4.384  1.00  0.00     0.135 A 
ATOM     82  C   UNL     1       6.936 -11.300  -5.604  1.00  0.00     0.135 A 
ATOM     83  F   UNL     1       7.380 -14.061  -3.282  1.00  0.00    -0.206 F 
ATOM     84  C   UNL     1       6.549 -14.057  -5.477  1.00  0.00     0.059 A 
ATOM     85  C   UNL     1       6.401 -11.965  -6.702  1.00  0.00     0.059 A 
ATOM     86  F   UNL     1       7.112  -9.972  -5.689  1.00  0.00    -0.206 F 
ATOM     87  C   UNL     1       6.226 -13.347  -6.635  1.00  0.00     0.060 A 
BRANCH  87  88
ATOM     88  S   UNL     1       5.550 -14.252  -8.044  1.00  0.00     0.124 S 
ATOM     89  O   UNL     1       6.735 -14.934  -8.550  1.00  0.00    -0.237 OA
ATOM     90  O   UNL     1       4.545 -15.101  -7.412  1.00  0.00    -0.237 OA
ATOM     91  O   UNL     1       5.018 -13.193  -8.897  1.00  0.00    -0.744 OA
ENDBRANCH  87  88
ENDBRANCH  55  80
BRANCH  67  92
ATOM     92  C   UNL     1      13.588 -12.138  -1.472  1.00  0.00     0.058 A 
ATOM     93  C   UNL     1      14.416 -11.740  -2.532  1.00  0.00     0.135 A 
ATOM     94  C   UNL     1      14.009 -13.211  -0.671  1.00  0.00     0.135 A 
ATOM     95  F   UNL     1      14.053 -10.722  -3.328  1.00  0.00    -0.206 F 
ATOM     96  C   UNL     1      15.617 -12.389  -2.795  1.00  0.00     0.059 A 
ATOM     97  C   UNL     1      15.217 -13.861  -0.903  1.00  0.00     0.059 A 
ATOM     98  F   UNL     1      13.256 -13.622   0.361  1.00  0.00    -0.206 F 
ATOM     99  C   UNL     1      16.011 -13.446  -1.971  1.00  0.00     0.060 A 
BRANCH  99 100
ATOM    100  S   UNL     1      17.598 -14.245  -2.294  1.00  0.00     0.124 S 
ATOM    101  O   UNL     1      17.298 -15.022  -3.491  1.00  0.00    -0.237 OA
ATOM    102  O   UNL     1      18.489 -13.104  -2.485  1.00  0.00    -0.237 OA
ATOM    103  O   UNL     1      17.839 -15.024  -1.083  1.00  0.00    -0.744 OA
ENDBRANCH  99 100
ENDBRANCH  67  92
ENDBRANCH  41  42
ENDBRANCH  34  36
ENDBRANCH  33  34
ENDBRANCH  32  33
ENDBRANCH   1  32
TORSDOF 19
