REMARK SMILES Cc1ccc(C(=O)OCCOC(=O)c2ccc(-c3c4nc(c(-c5c(F)cc(S(=O)(=O)[O-])cc5F)c5ccc([nH]5)c(-c5c(F)cc(S(=O)(=O)[O-])cc5F)c5nc(c(-c6c(F)cc(S(=O)(=O)[O-])cc6F)c6ccc3[nH]6)C=C5)C=C4)cc2)cc1N[C@@H]1CC(=O)N(c2ccccc2C)C1=O
REMARK SMILES IDX 9 1 8 2 6 3 7 4 5 5 1 6 2 7 3 8 81 9 4 10 80 11 82 12 83 14
REMARK SMILES IDX 84 15 95 16 85 17 87 18 96 19 86 20 88 21 89 22 93 23 90 24
REMARK SMILES IDX 92 25 94 26 91 27 10 28 11 29 12 30 13 31 14 32 15 33 79 34
REMARK SMILES IDX 16 35 78 36 17 37 18 38 19 39 72 40 20 41 77 42 71 43 73 44
REMARK SMILES IDX 21 45 76 46 70 47 69 48 22 50 56 51 35 52 55 53 36 54 39 55
REMARK SMILES IDX 54 56 74 57 37 58 38 59 53 61 75 62 40 63 23 64 24 65 33 66
REMARK SMILES IDX 25 67 26 68 32 69 34 70 27 71 28 72 29 73 30 74 31 75 57 76
REMARK SMILES IDX 58 77 67 78 59 79 60 80 66 81 68 82 61 83 62 84 63 85 64 86
REMARK SMILES IDX 65 87 41 88 42 89 51 90 43 91 44 92 50 93 52 94 45 95 46 96
REMARK SMILES IDX 47 97 48 98 49 99
REMARK H PARENT 82 13 73 49 39 60
REMARK Flexibility Score: inf
ROOT
ATOM      1  C   UNL     1      -4.513   1.998  -2.236  1.00  0.00     0.275 C 
ENDROOT
BRANCH   1   2
ATOM      2  O   UNL     1      -3.208   1.411  -2.382  1.00  0.00    -0.458 OA
BRANCH   2   3
ATOM      3  C   UNL     1      -2.507   1.373  -1.226  1.00  0.00     0.338 C 
ATOM      4  O   UNL     1      -2.847   1.872  -0.163  1.00  0.00    -0.246 OA
BRANCH   3   5
ATOM      5  C   UNL     1      -1.107   0.970  -1.403  1.00  0.00     0.062 A 
ATOM      6  C   UNL     1       2.956   0.528  -0.097  1.00  0.00     0.046 C 
ATOM      7  C   UNL     1       1.559   0.759  -0.605  1.00  0.00    -0.028 A 
ATOM      8  C   UNL     1       0.746  -0.390  -0.753  1.00  0.00     0.006 A 
ATOM      9  C   UNL     1       1.019   2.031  -0.880  1.00  0.00     0.038 A 
ATOM     10  C   UNL     1      -0.602  -0.283  -1.098  1.00  0.00     0.016 A 
ATOM     11  C   UNL     1      -0.269   2.075  -1.403  1.00  0.00     0.041 A 
BRANCH   9  12
ATOM     12  N   UNL     1       1.632   3.215  -0.491  1.00  0.00    -0.373 N 
ATOM     13  H   UNL     1       2.614   3.266  -0.539  1.00  0.00     0.161 HD
BRANCH  12  14
ATOM     14  C   UNL     1       0.894   4.405  -0.009  1.00  0.00     0.179 C 
ATOM     15  C   UNL     1      -0.041   4.125   1.159  1.00  0.00     0.136 C 
ATOM     16  C   UNL     1       0.022   5.110  -1.044  1.00  0.00     0.256 C 
ATOM     17  C   UNL     1      -1.288   4.886   0.818  1.00  0.00     0.236 C 
ATOM     18  N   UNL     1      -1.196   5.379  -0.461  1.00  0.00    -0.248 N 
ATOM     19  O   UNL     1       0.386   5.410  -2.176  1.00  0.00    -0.272 OA
ATOM     20  O   UNL     1      -2.232   4.988   1.587  1.00  0.00    -0.274 OA
BRANCH  18  21
ATOM     21  C   UNL     1      -2.268   6.030  -1.123  1.00  0.00     0.055 A 
ATOM     22  C   UNL     1      -2.698   5.537  -2.368  1.00  0.00     0.027 A 
ATOM     23  C   UNL     1      -2.929   7.144  -0.564  1.00  0.00    -0.027 A 
ATOM     24  C   UNL     1      -3.795   6.101  -3.026  1.00  0.00     0.002 A 
ATOM     25  C   UNL     1      -4.029   7.701  -1.243  1.00  0.00     0.005 A 
ATOM     26  C   UNL     1      -2.499   7.796   0.723  1.00  0.00     0.046 C 
ATOM     27  C   UNL     1      -4.461   7.183  -2.462  1.00  0.00     0.000 A 
ENDBRANCH  18  21
ENDBRANCH  12  14
ENDBRANCH   9  12
ENDBRANCH   3   5
ENDBRANCH   2   3
ENDBRANCH   1   2
BRANCH   1  28
ATOM     28  C   UNL     1      -5.559   1.308  -3.129  1.00  0.00     0.275 C 
BRANCH  28  29
ATOM     29  O   UNL     1      -5.875  -0.085  -2.896  1.00  0.00    -0.458 OA
BRANCH  29  30
ATOM     30  C   UNL     1      -4.888  -0.870  -2.405  1.00  0.00     0.338 C 
ATOM     31  O   UNL     1      -3.956  -1.298  -3.093  1.00  0.00    -0.246 OA
BRANCH  30  32
ATOM     32  C   UNL     1      -4.957  -0.869  -0.925  1.00  0.00     0.060 A 
ATOM     33  C   UNL     1      -3.859  -1.321  -0.181  1.00  0.00     0.016 A 
ATOM     34  C   UNL     1      -5.966  -0.115  -0.316  1.00  0.00     0.016 A 
ATOM     35  C   UNL     1      -3.693  -0.915   1.138  1.00  0.00     0.010 A 
ATOM     36  C   UNL     1      -5.748   0.393   0.936  1.00  0.00     0.010 A 
ATOM     37  C   UNL     1      -4.631  -0.033   1.670  1.00  0.00    -0.014 A 
BRANCH  37  38
ATOM     38  C   UNL     1      -4.788   0.203   3.091  1.00  0.00     0.031 A 
ATOM     39  C   UNL     1      -4.174   1.343   3.784  1.00  0.00     0.074 A 
ATOM     40  C   UNL     1      -5.770  -0.593   3.562  1.00  0.00     0.049 A 
ATOM     41  N   UNL     1      -4.045   1.429   5.062  1.00  0.00    -0.248 NA
ATOM     42  C   UNL     1      -3.611   2.494   3.087  1.00  0.00     0.031 C 
ATOM     43  C   UNL     1      -6.612  -0.506   4.734  1.00  0.00     0.029 A 
ATOM     44  N   UNL     1      -6.119  -1.825   2.990  1.00  0.00    -0.354 N 
ATOM     45  C   UNL     1      -3.748   2.750   5.353  1.00  0.00     0.074 A 
ATOM     46  C   UNL     1      -3.330   3.322   4.101  1.00  0.00     0.031 C 
ATOM     47  C   UNL     1      -7.140  -1.727   4.964  1.00  0.00     0.029 A 
ATOM     48  C   UNL     1      -6.520  -2.660   4.021  1.00  0.00     0.049 A 
ATOM     49  H   UNL     1      -6.085  -2.054   2.034  1.00  0.00     0.167 HD
ATOM     50  C   UNL     1      -4.118   3.259   6.567  1.00  0.00     0.037 A 
ATOM     51  C   UNL     1      -5.659  -3.671   4.350  1.00  0.00     0.037 A 
ATOM     52  C   UNL     1      -4.761   2.201   7.346  1.00  0.00     0.049 A 
ATOM     53  C   UNL     1      -5.068  -3.411   5.715  1.00  0.00     0.074 A 
ATOM     54  C   UNL     1      -6.098   1.861   7.470  1.00  0.00     0.029 A 
ATOM     55  N   UNL     1      -4.028   1.089   7.746  1.00  0.00    -0.354 N 
ATOM     56  N   UNL     1      -4.784  -2.225   6.189  1.00  0.00    -0.248 NA
ATOM     57  C   UNL     1      -4.901  -4.474   6.697  1.00  0.00     0.031 C 
ATOM     58  C   UNL     1      -6.165   0.496   7.844  1.00  0.00     0.029 A 
ATOM     59  C   UNL     1      -4.872   0.010   7.945  1.00  0.00     0.049 A 
ATOM     60  H   UNL     1      -3.052   1.071   7.870  1.00  0.00     0.167 HD
ATOM     61  C   UNL     1      -4.518  -2.337   7.529  1.00  0.00     0.074 A 
ATOM     62  C   UNL     1      -4.567  -3.767   7.789  1.00  0.00     0.031 C 
ATOM     63  C   UNL     1      -4.348  -1.274   8.370  1.00  0.00     0.037 A 
BRANCH  50  64
ATOM     64  C   UNL     1      -4.275   4.741   6.882  1.00  0.00     0.058 A 
ATOM     65  C   UNL     1      -5.257   5.174   7.805  1.00  0.00     0.135 A 
ATOM     66  C   UNL     1      -3.534   5.787   6.294  1.00  0.00     0.135 A 
ATOM     67  F   UNL     1      -5.976   4.305   8.528  1.00  0.00    -0.206 F 
ATOM     68  C   UNL     1      -5.557   6.517   8.039  1.00  0.00     0.059 A 
ATOM     69  C   UNL     1      -3.837   7.146   6.489  1.00  0.00     0.059 A 
ATOM     70  F   UNL     1      -2.450   5.535   5.548  1.00  0.00    -0.206 F 
ATOM     71  C   UNL     1      -4.862   7.502   7.356  1.00  0.00     0.060 A 
BRANCH  71  72
ATOM     72  S   UNL     1      -5.297   9.226   7.659  1.00  0.00     0.124 S 
ATOM     73  O   UNL     1      -6.703   9.263   7.267  1.00  0.00    -0.237 OA
ATOM     74  O   UNL     1      -5.036   9.361   9.089  1.00  0.00    -0.237 OA
ATOM     75  O   UNL     1      -4.391   9.967   6.787  1.00  0.00    -0.744 OA
ENDBRANCH  71  72
ENDBRANCH  50  64
BRANCH  51  76
ATOM     76  C   UNL     1      -4.955  -4.294   3.170  1.00  0.00     0.058 A 
ATOM     77  C   UNL     1      -5.745  -4.786   2.103  1.00  0.00     0.135 A 
ATOM     78  C   UNL     1      -3.579  -4.183   2.918  1.00  0.00     0.135 A 
ATOM     79  F   UNL     1      -7.072  -4.929   2.263  1.00  0.00    -0.206 F 
ATOM     80  C   UNL     1      -5.227  -5.048   0.835  1.00  0.00     0.059 A 
ATOM     81  C   UNL     1      -3.030  -4.459   1.653  1.00  0.00     0.059 A 
ATOM     82  F   UNL     1      -2.750  -3.731   3.870  1.00  0.00    -0.206 F 
ATOM     83  C   UNL     1      -3.868  -4.860   0.609  1.00  0.00     0.060 A 
BRANCH  83  84
ATOM     84  S   UNL     1      -3.257  -4.965  -1.097  1.00  0.00     0.124 S 
ATOM     85  O   UNL     1      -3.094  -6.403  -1.272  1.00  0.00    -0.237 OA
ATOM     86  O   UNL     1      -4.354  -4.358  -1.847  1.00  0.00    -0.237 OA
ATOM     87  O   UNL     1      -2.022  -4.186  -1.054  1.00  0.00    -0.744 OA
ENDBRANCH  83  84
ENDBRANCH  51  76
BRANCH  63  88
ATOM     88  C   UNL     1      -3.778  -1.367   9.759  1.00  0.00     0.058 A 
ATOM     89  C   UNL     1      -2.817  -2.321  10.123  1.00  0.00     0.135 A 
ATOM     90  C   UNL     1      -4.057  -0.367  10.722  1.00  0.00     0.135 A 
ATOM     91  F   UNL     1      -2.386  -3.247   9.254  1.00  0.00    -0.206 F 
ATOM     92  C   UNL     1      -2.229  -2.334  11.384  1.00  0.00     0.059 A 
ATOM     93  C   UNL     1      -3.431  -0.321  11.959  1.00  0.00     0.059 A 
ATOM     94  F   UNL     1      -4.939   0.617  10.488  1.00  0.00    -0.206 F 
ATOM     95  C   UNL     1      -2.542  -1.330  12.294  1.00  0.00     0.060 A 
BRANCH  95  96
ATOM     96  S   UNL     1      -1.755  -1.322  13.909  1.00  0.00     0.124 S 
ATOM     97  O   UNL     1      -2.660  -2.176  14.672  1.00  0.00    -0.237 OA
ATOM     98  O   UNL     1      -0.439  -1.887  13.628  1.00  0.00    -0.237 OA
ATOM     99  O   UNL     1      -1.757   0.090  14.277  1.00  0.00    -0.744 OA
ENDBRANCH  95  96
ENDBRANCH  63  88
ENDBRANCH  37  38
ENDBRANCH  30  32
ENDBRANCH  29  30
ENDBRANCH  28  29
ENDBRANCH   1  28
TORSDOF 17
