REMARK SMILES O=C(CC1(NC(=O)c2ccccc2[N+](=O)[O-])CCC1)OCCOC(=O)c1ccc(-c2c3nc(c(-c4c(F)cc(S(=O)(=O)[O-])cc4F)c4ccc([nH]4)c(-c4c(F)cc(S(=O)(=O)[O-])cc4F)c4nc(c(-c5c(F)cc(S(=O)(=O)[O-])cc5F)c5ccc2[nH]5)C=C4)C=C3)cc1
REMARK SMILES IDX 21 1 20 2 2 3 1 4 3 5 4 6 17 7 19 8 18 9 5 10 6 11 7 13 8 14
REMARK SMILES IDX 9 15 13 16 10 17 12 18 11 19 14 20 15 21 16 22 22 23 23 24
REMARK SMILES IDX 24 25 25 26 26 27 27 28 91 29 28 30 90 31 29 32 30 33 31 34
REMARK SMILES IDX 84 35 32 36 89 37 83 38 85 39 33 40 88 41 82 42 81 43 34 45
REMARK SMILES IDX 68 46 47 47 67 48 48 49 51 50 66 51 86 52 49 53 50 54 65 56
REMARK SMILES IDX 87 57 52 58 35 59 36 60 45 61 37 62 38 63 44 64 46 65 39 66
REMARK SMILES IDX 40 67 41 68 42 69 43 70 69 71 70 72 79 73 71 74 72 75 78 76
REMARK SMILES IDX 80 77 73 78 74 79 75 80 76 81 77 82 53 83 54 84 63 85 55 86
REMARK SMILES IDX 56 87 62 88 64 89 57 90 58 91 59 92 60 93 61 94
REMARK H PARENT 5 12 85 44 51 55
REMARK Flexibility Score: inf
ROOT
ATOM      1  C   UNL     1       6.518   0.545   0.670  1.00  0.00     0.274 C 
ENDROOT
BRANCH   1   2
ATOM      2  O   UNL     1       5.636   1.162  -0.294  1.00  0.00    -0.462 OA
BRANCH   2   3
ATOM      3  C   UNL     1       4.756   0.467  -1.053  1.00  0.00     0.308 C 
ATOM      4  O   UNL     1       4.460   0.863  -2.176  1.00  0.00    -0.252 OA
BRANCH   3   5
ATOM      5  C   UNL     1       4.104  -0.734  -0.412  1.00  0.00     0.151 C 
BRANCH   5   6
ATOM      6  C   UNL     1       3.316  -1.635  -1.366  1.00  0.00     0.051 C 
ATOM      7  C   UNL     1       4.256  -2.328  -2.422  1.00  0.00     0.029 C 
ATOM      8  C   UNL     1       3.022  -3.074  -0.839  1.00  0.00     0.029 C 
ATOM      9  C   UNL     1       4.327  -3.556  -1.507  1.00  0.00     0.005 C 
BRANCH   6  10
ATOM     10  N   UNL     1       2.175  -0.978  -2.052  1.00  0.00    -0.346 N 
ATOM     11  C   UNL     1       0.996  -0.386  -1.681  1.00  0.00     0.258 C 
ATOM     12  H   UNL     1       2.298  -0.964  -3.029  1.00  0.00     0.164 HD
ATOM     13  O   UNL     1       0.205  -0.032  -2.554  1.00  0.00    -0.269 OA
BRANCH  11  14
ATOM     14  C   UNL     1       0.572  -0.188  -0.292  1.00  0.00     0.117 A 
ATOM     15  C   UNL     1      -0.433  -1.037   0.196  1.00  0.00     0.021 A 
ATOM     16  C   UNL     1       0.894   0.950   0.453  1.00  0.00     0.282 A 
ATOM     17  C   UNL     1      -1.051  -0.774   1.426  1.00  0.00     0.001 A 
ATOM     18  C   UNL     1       0.314   1.197   1.708  1.00  0.00     0.086 A 
ATOM     19  C   UNL     1      -0.666   0.330   2.189  1.00  0.00     0.007 A 
BRANCH  16  20
ATOM     20  N   UNL     1       1.792   1.958  -0.066  1.00  0.00     0.063 N 
ATOM     21  O   UNL     1       1.462   2.545  -1.101  1.00  0.00    -0.258 OA
ATOM     22  O   UNL     1       2.804   2.194   0.607  1.00  0.00    -0.258 OA
ENDBRANCH  16  20
ENDBRANCH  11  14
ENDBRANCH   6  10
ENDBRANCH   5   6
ENDBRANCH   3   5
ENDBRANCH   2   3
ENDBRANCH   1   2
BRANCH   1  23
ATOM     23  C   UNL     1       5.962   0.602   2.092  1.00  0.00     0.275 C 
BRANCH  23  24
ATOM     24  O   UNL     1       5.294  -0.637   2.418  1.00  0.00    -0.458 OA
BRANCH  24  25
ATOM     25  C   UNL     1       4.150  -0.504   3.126  1.00  0.00     0.338 C 
ATOM     26  O   UNL     1       3.617   0.537   3.480  1.00  0.00    -0.246 OA
BRANCH  25  27
ATOM     27  C   UNL     1       3.521  -1.818   3.342  1.00  0.00     0.060 A 
ATOM     28  C   UNL     1       2.236  -2.014   2.831  1.00  0.00     0.016 A 
ATOM     29  C   UNL     1       4.103  -2.782   4.165  1.00  0.00     0.016 A 
ATOM     30  C   UNL     1       1.495  -3.141   3.181  1.00  0.00     0.010 A 
ATOM     31  C   UNL     1       3.357  -3.912   4.525  1.00  0.00     0.010 A 
ATOM     32  C   UNL     1       2.034  -4.075   4.070  1.00  0.00    -0.014 A 
BRANCH  32  33
ATOM     33  C   UNL     1       1.160  -5.113   4.673  1.00  0.00     0.031 A 
ATOM     34  C   UNL     1       0.626  -4.890   6.064  1.00  0.00     0.074 A 
ATOM     35  C   UNL     1       0.821  -6.226   3.999  1.00  0.00     0.049 A 
ATOM     36  N   UNL     1      -0.033  -5.708   6.842  1.00  0.00    -0.248 NA
ATOM     37  C   UNL     1       0.868  -3.562   6.651  1.00  0.00     0.031 C 
ATOM     38  C   UNL     1       1.195  -6.530   2.620  1.00  0.00     0.029 A 
ATOM     39  N   UNL     1       0.088  -7.316   4.399  1.00  0.00    -0.354 N 
ATOM     40  C   UNL     1      -0.250  -5.012   8.025  1.00  0.00     0.074 A 
ATOM     41  C   UNL     1       0.342  -3.701   7.859  1.00  0.00     0.031 C 
ATOM     42  C   UNL     1       0.702  -7.737   2.292  1.00  0.00     0.029 A 
ATOM     43  C   UNL     1       0.017  -8.308   3.451  1.00  0.00     0.049 A 
ATOM     44  H   UNL     1      -0.345  -7.381   5.280  1.00  0.00     0.167 HD
ATOM     45  C   UNL     1      -0.877  -5.428   9.152  1.00  0.00     0.037 A 
ATOM     46  C   UNL     1      -0.510  -9.547   3.523  1.00  0.00     0.037 A 
ATOM     47  C   UNL     1      -1.480  -6.724   9.314  1.00  0.00     0.049 A 
ATOM     48  C   UNL     1      -1.155 -10.011   4.803  1.00  0.00     0.074 A 
ATOM     49  C   UNL     1      -2.127  -7.242  10.423  1.00  0.00     0.029 A 
ATOM     50  N   UNL     1      -1.517  -7.706   8.336  1.00  0.00    -0.354 N 
ATOM     51  N   UNL     1      -1.314  -9.360   5.931  1.00  0.00    -0.248 NA
ATOM     52  C   UNL     1      -1.687 -11.382   4.821  1.00  0.00     0.031 C 
ATOM     53  C   UNL     1      -2.531  -8.549  10.124  1.00  0.00     0.029 A 
ATOM     54  C   UNL     1      -2.169  -8.829   8.817  1.00  0.00     0.049 A 
ATOM     55  H   UNL     1      -1.137  -7.617   7.432  1.00  0.00     0.167 HD
ATOM     56  C   UNL     1      -1.992 -10.230   6.780  1.00  0.00     0.074 A 
ATOM     57  C   UNL     1      -2.213 -11.453   6.036  1.00  0.00     0.031 C 
ATOM     58  C   UNL     1      -2.399 -10.033   8.059  1.00  0.00     0.037 A 
BRANCH  45  59
ATOM     59  C   UNL     1      -0.891  -4.482  10.318  1.00  0.00     0.058 A 
ATOM     60  C   UNL     1      -1.726  -3.355  10.350  1.00  0.00     0.135 A 
ATOM     61  C   UNL     1      -0.051  -4.711  11.420  1.00  0.00     0.135 A 
ATOM     62  F   UNL     1      -2.530  -3.080   9.311  1.00  0.00    -0.206 F 
ATOM     63  C   UNL     1      -1.705  -2.468  11.422  1.00  0.00     0.059 A 
ATOM     64  C   UNL     1      -0.030  -3.850  12.512  1.00  0.00     0.059 A 
ATOM     65  F   UNL     1       0.770  -5.773  11.435  1.00  0.00    -0.206 F 
ATOM     66  C   UNL     1      -0.847  -2.721  12.495  1.00  0.00     0.060 A 
BRANCH  66  67
ATOM     67  S   UNL     1      -0.808  -1.552  13.871  1.00  0.00     0.124 S 
ATOM     68  O   UNL     1      -0.009  -0.469  13.306  1.00  0.00    -0.237 OA
ATOM     69  O   UNL     1      -2.223  -1.256  14.074  1.00  0.00    -0.237 OA
ATOM     70  O   UNL     1      -0.170  -2.312  14.941  1.00  0.00    -0.744 OA
ENDBRANCH  66  67
ENDBRANCH  45  59
BRANCH  46  71
ATOM     71  C   UNL     1      -0.432 -10.455   2.350  1.00  0.00     0.058 A 
ATOM     72  C   UNL     1      -1.579 -10.777   1.610  1.00  0.00     0.135 A 
ATOM     73  C   UNL     1       0.787 -11.022   1.949  1.00  0.00     0.135 A 
ATOM     74  F   UNL     1      -2.770 -10.270   1.965  1.00  0.00    -0.206 F 
ATOM     75  C   UNL     1      -1.523 -11.636   0.518  1.00  0.00     0.059 A 
ATOM     76  C   UNL     1       0.873 -11.866   0.848  1.00  0.00     0.059 A 
ATOM     77  F   UNL     1       1.914 -10.739   2.622  1.00  0.00    -0.206 F 
ATOM     78  C   UNL     1      -0.291 -12.174   0.143  1.00  0.00     0.060 A 
BRANCH  78  79
ATOM     79  S   UNL     1      -0.214 -13.241  -1.312  1.00  0.00     0.124 S 
ATOM     80  O   UNL     1      -0.747 -14.492  -0.787  1.00  0.00    -0.237 OA
ATOM     81  O   UNL     1      -1.066 -12.530  -2.261  1.00  0.00    -0.237 OA
ATOM     82  O   UNL     1       1.208 -13.247  -1.644  1.00  0.00    -0.744 OA
ENDBRANCH  78  79
ENDBRANCH  46  71
BRANCH  58  83
ATOM     83  C   UNL     1      -3.176 -11.138   8.716  1.00  0.00     0.058 A 
ATOM     84  C   UNL     1      -2.554 -12.307   9.182  1.00  0.00     0.135 A 
ATOM     85  C   UNL     1      -4.561 -11.008   8.912  1.00  0.00     0.135 A 
ATOM     86  F   UNL     1      -1.234 -12.481   9.015  1.00  0.00    -0.206 F 
ATOM     87  C   UNL     1      -3.283 -13.321   9.796  1.00  0.00     0.059 A 
ATOM     88  C   UNL     1      -5.305 -12.000   9.542  1.00  0.00     0.059 A 
ATOM     89  F   UNL     1      -5.201  -9.905   8.496  1.00  0.00    -0.206 F 
ATOM     90  C   UNL     1      -4.659 -13.161   9.967  1.00  0.00     0.060 A 
BRANCH  90  91
ATOM     91  S   UNL     1      -5.598 -14.473  10.779  1.00  0.00     0.124 S 
ATOM     92  O   UNL     1      -5.750 -15.438   9.695  1.00  0.00    -0.237 OA
ATOM     93  O   UNL     1      -4.707 -14.874  11.864  1.00  0.00    -0.237 OA
ATOM     94  O   UNL     1      -6.823 -13.801  11.200  1.00  0.00    -0.744 OA
ENDBRANCH  90  91
ENDBRANCH  58  83
ENDBRANCH  32  33
ENDBRANCH  25  27
ENDBRANCH  24  25
ENDBRANCH  23  24
ENDBRANCH   1  23
TORSDOF 18
