REMARK SMILES Cc1c(Cl)cccc1-c1cccc(Cl)c1C(=O)OCCOC(=O)c1ccc(-c2c3nc(c(-c4c(F)cc(S(=O)(=O)[O-])cc4F)c4ccc([nH]4)c(-c4c(F)cc(S(=O)(=O)[O-])cc4F)c4nc(c(-c5c(F)cc(S(=O)(=O)[O-])cc5F)c5ccc2[nH]5)C=C4)C=C3)cc1
REMARK SMILES IDX 20 1 19 2 18 3 16 4 17 5 15 6 9 7 10 8 11 9 13 10 12 11
REMARK SMILES IDX 14 12 8 13 1 14 2 15 3 16 4 17 5 18 7 19 6 20 21 21 22 22
REMARK SMILES IDX 23 23 24 24 25 25 89 26 26 27 88 28 27 29 28 30 29 31 82 32
REMARK SMILES IDX 30 33 87 34 81 35 83 36 31 37 86 38 80 39 79 40 32 42 66 43
REMARK SMILES IDX 45 44 65 45 46 46 49 47 64 48 84 49 47 50 48 51 63 53 85 54
REMARK SMILES IDX 50 55 33 56 34 57 43 58 35 59 36 60 42 61 44 62 37 63 38 64
REMARK SMILES IDX 39 65 40 66 41 67 67 68 68 69 77 70 69 71 70 72 76 73 78 74
REMARK SMILES IDX 71 75 72 76 73 77 74 78 75 79 51 80 52 81 61 82 53 83 54 84
REMARK SMILES IDX 60 85 62 86 55 87 56 88 57 89 58 90 59 91
REMARK H PARENT 83 41 49 52
REMARK Flexibility Score: inf
ROOT
ATOM      1  C   UNL     1      -0.601   1.563  -4.627  1.00  0.00     0.275 C 
ENDROOT
BRANCH   1   2
ATOM      2  C   UNL     1       0.038   1.752  -3.251  1.00  0.00     0.275 C 
BRANCH   2   3
ATOM      3  O   UNL     1      -0.948   2.155  -2.279  1.00  0.00    -0.458 OA
BRANCH   3   4
ATOM      4  C   UNL     1      -0.667   3.252  -1.530  1.00  0.00     0.340 C 
ATOM      5  O   UNL     1       0.289   3.994  -1.689  1.00  0.00    -0.246 OA
BRANCH   4   6
ATOM      6  C   UNL     1      -1.698   3.414  -0.463  1.00  0.00     0.086 A 
ATOM      7  C   UNL     1      -2.160   2.291   0.273  1.00  0.00    -0.002 A 
ATOM      8  C   UNL     1      -3.285   2.471   1.111  1.00  0.00     0.010 A 
ATOM      9  C   UNL     1      -3.900   3.713   1.260  1.00  0.00     0.002 A 
ATOM     10  C   UNL     1      -2.220   4.689  -0.174  1.00  0.00     0.056 A 
ATOM     11  C   UNL     1      -3.344   4.827   0.647  1.00  0.00     0.021 A 
ATOM     12  Cl  UNL     1      -1.508   6.167  -0.727  1.00  0.00    -0.083 Cl
BRANCH   7  13
ATOM     13  C   UNL     1      -1.499   0.956   0.249  1.00  0.00    -0.013 A 
ATOM     14  C   UNL     1       0.840   1.897   0.784  1.00  0.00     0.046 C 
ATOM     15  C   UNL     1      -0.104   0.760   0.462  1.00  0.00    -0.025 A 
ATOM     16  C   UNL     1       0.427  -0.542   0.332  1.00  0.00     0.044 A 
ATOM     17  Cl  UNL     1       2.128  -0.851   0.438  1.00  0.00    -0.084 Cl
ATOM     18  C   UNL     1      -0.398  -1.642   0.093  1.00  0.00     0.021 A 
ATOM     19  C   UNL     1      -2.304  -0.181   0.009  1.00  0.00     0.009 A 
ATOM     20  C   UNL     1      -1.766  -1.465  -0.050  1.00  0.00     0.002 A 
ENDBRANCH   7  13
ENDBRANCH   4   6
ENDBRANCH   3   4
ENDBRANCH   2   3
ENDBRANCH   1   2
BRANCH   1  21
ATOM     21  O   UNL     1      -1.128   2.812  -5.104  1.00  0.00    -0.458 OA
BRANCH  21  22
ATOM     22  C   UNL     1      -2.441   3.007  -4.834  1.00  0.00     0.338 C 
ATOM     23  O   UNL     1      -3.234   2.205  -4.373  1.00  0.00    -0.246 OA
BRANCH  22  24
ATOM     24  C   UNL     1      -2.744   4.435  -4.986  1.00  0.00     0.060 A 
ATOM     25  C   UNL     1      -2.857   5.176  -3.814  1.00  0.00     0.016 A 
ATOM     26  C   UNL     1      -2.992   5.025  -6.222  1.00  0.00     0.016 A 
ATOM     27  C   UNL     1      -3.220   6.516  -3.856  1.00  0.00     0.010 A 
ATOM     28  C   UNL     1      -3.347   6.380  -6.268  1.00  0.00     0.010 A 
ATOM     29  C   UNL     1      -3.470   7.134  -5.084  1.00  0.00    -0.014 A 
BRANCH  29  30
ATOM     30  C   UNL     1      -3.942   8.541  -5.102  1.00  0.00     0.031 A 
ATOM     31  C   UNL     1      -5.359   8.839  -5.504  1.00  0.00     0.074 A 
ATOM     32  C   UNL     1      -3.127   9.540  -4.708  1.00  0.00     0.049 A 
ATOM     33  N   UNL     1      -5.938   9.992  -5.708  1.00  0.00    -0.248 NA
ATOM     34  C   UNL     1      -6.243   7.678  -5.701  1.00  0.00     0.031 C 
ATOM     35  C   UNL     1      -1.762   9.371  -4.207  1.00  0.00     0.029 A 
ATOM     36  N   UNL     1      -3.330  10.898  -4.666  1.00  0.00    -0.354 N 
ATOM     37  C   UNL     1      -7.240   9.700  -6.095  1.00  0.00     0.074 A 
ATOM     38  C   UNL     1      -7.364   8.258  -6.104  1.00  0.00     0.031 C 
ATOM     39  C   UNL     1      -1.251  10.576  -3.909  1.00  0.00     0.029 A 
ATOM     40  C   UNL     1      -2.222  11.607  -4.263  1.00  0.00     0.049 A 
ATOM     41  H   UNL     1      -4.186  11.323  -4.902  1.00  0.00     0.167 HD
ATOM     42  C   UNL     1      -8.237  10.559  -6.414  1.00  0.00     0.037 A 
ATOM     43  C   UNL     1      -1.998  12.936  -4.229  1.00  0.00     0.037 A 
ATOM     44  C   UNL     1      -8.103  11.993  -6.376  1.00  0.00     0.049 A 
ATOM     45  C   UNL     1      -3.095  13.870  -4.670  1.00  0.00     0.074 A 
ATOM     46  C   UNL     1      -9.052  12.954  -6.681  1.00  0.00     0.029 A 
ATOM     47  N   UNL     1      -6.950  12.674  -6.011  1.00  0.00    -0.354 N 
ATOM     48  N   UNL     1      -4.311  13.584  -5.071  1.00  0.00    -0.248 NA
ATOM     49  C   UNL     1      -2.787  15.307  -4.664  1.00  0.00     0.031 C 
ATOM     50  C   UNL     1      -8.456  14.213  -6.555  1.00  0.00     0.029 A 
ATOM     51  C   UNL     1      -7.155  14.041  -6.109  1.00  0.00     0.049 A 
ATOM     52  H   UNL     1      -6.110  12.248  -5.724  1.00  0.00     0.167 HD
ATOM     53  C   UNL     1      -4.920  14.805  -5.344  1.00  0.00     0.074 A 
ATOM     54  C   UNL     1      -3.943  15.832  -5.045  1.00  0.00     0.031 C 
ATOM     55  C   UNL     1      -6.173  15.052  -5.801  1.00  0.00     0.037 A 
BRANCH  42  56
ATOM     56  C   UNL     1      -9.542   9.975  -6.882  1.00  0.00     0.058 A 
ATOM     57  C   UNL     1     -10.419   9.307  -6.014  1.00  0.00     0.135 A 
ATOM     58  C   UNL     1      -9.933  10.115  -8.225  1.00  0.00     0.135 A 
ATOM     59  F   UNL     1     -10.088   9.125  -4.726  1.00  0.00    -0.206 F 
ATOM     60  C   UNL     1     -11.626   8.779  -6.464  1.00  0.00     0.059 A 
ATOM     61  C   UNL     1     -11.148   9.622  -8.690  1.00  0.00     0.059 A 
ATOM     62  F   UNL     1      -9.131  10.741  -9.101  1.00  0.00    -0.206 F 
ATOM     63  C   UNL     1     -11.982   8.943  -7.804  1.00  0.00     0.060 A 
BRANCH  63  64
ATOM     64  S   UNL     1     -13.554   8.259  -8.370  1.00  0.00     0.124 S 
ATOM     65  O   UNL     1     -13.277   6.826  -8.338  1.00  0.00    -0.237 OA
ATOM     66  O   UNL     1     -14.487   8.745  -7.359  1.00  0.00    -0.237 OA
ATOM     67  O   UNL     1     -13.718   8.835  -9.701  1.00  0.00    -0.744 OA
ENDBRANCH  63  64
ENDBRANCH  42  56
BRANCH  43  68
ATOM     68  C   UNL     1      -0.667  13.460  -3.814  1.00  0.00     0.058 A 
ATOM     69  C   UNL     1      -0.512  14.212  -2.640  1.00  0.00     0.135 A 
ATOM     70  C   UNL     1       0.480  13.220  -4.589  1.00  0.00     0.135 A 
ATOM     71  F   UNL     1      -1.578  14.483  -1.871  1.00  0.00    -0.206 F 
ATOM     72  C   UNL     1       0.726  14.720  -2.257  1.00  0.00     0.059 A 
ATOM     73  C   UNL     1       1.734  13.689  -4.210  1.00  0.00     0.059 A 
ATOM     74  F   UNL     1       0.391  12.503  -5.720  1.00  0.00    -0.206 F 
ATOM     75  C   UNL     1       1.845  14.449  -3.047  1.00  0.00     0.060 A 
BRANCH  75  76
ATOM     76  S   UNL     1       3.453  15.079  -2.521  1.00  0.00     0.124 S 
ATOM     77  O   UNL     1       3.308  16.507  -2.779  1.00  0.00    -0.237 OA
ATOM     78  O   UNL     1       3.491  14.686  -1.116  1.00  0.00    -0.237 OA
ATOM     79  O   UNL     1       4.392  14.373  -3.388  1.00  0.00    -0.744 OA
ENDBRANCH  75  76
ENDBRANCH  43  68
BRANCH  55  80
ATOM     80  C   UNL     1      -6.577  16.492  -5.969  1.00  0.00     0.058 A 
ATOM     81  C   UNL     1      -6.057  17.293  -6.998  1.00  0.00     0.135 A 
ATOM     82  C   UNL     1      -7.538  17.062  -5.118  1.00  0.00     0.135 A 
ATOM     83  F   UNL     1      -5.131  16.801  -7.836  1.00  0.00    -0.206 F 
ATOM     84  C   UNL     1      -6.457  18.616  -7.162  1.00  0.00     0.059 A 
ATOM     85  C   UNL     1      -7.977  18.372  -5.284  1.00  0.00     0.059 A 
ATOM     86  F   UNL     1      -8.076  16.338  -4.124  1.00  0.00    -0.206 F 
ATOM     87  C   UNL     1      -7.421  19.145  -6.301  1.00  0.00     0.060 A 
BRANCH  87  88
ATOM     88  S   UNL     1      -7.956  20.852  -6.547  1.00  0.00     0.124 S 
ATOM     89  O   UNL     1      -6.789  21.596  -6.085  1.00  0.00    -0.237 OA
ATOM     90  O   UNL     1      -8.208  20.895  -7.984  1.00  0.00    -0.237 OA
ATOM     91  O   UNL     1      -9.144  20.961  -5.706  1.00  0.00    -0.744 OA
ENDBRANCH  87  88
ENDBRANCH  55  80
ENDBRANCH  29  30
ENDBRANCH  22  24
ENDBRANCH  21  22
ENDBRANCH   1  21
TORSDOF 15
