REMARK SMILES Cc1c(/C=C/C(=O)OCCOC(=O)c2ccc(-c3c4nc(c(-c5c(F)cc(S(=O)(=O)[O-])cc5F)c5ccc([nH]5)c(-c5c(F)cc(S(=O)(=O)[O-])cc5F)c5nc(c(-c6c(F)cc(S(=O)(=O)[O-])cc6F)c6ccc3[nH]6)C=C5)C=C4)cc2)cccc1C(=O)N1C[C@@H](C)[C@@H](C)C1
REMARK SMILES IDX 9 1 8 2 6 3 7 4 5 5 4 6 3 7 1 8 2 9 83 10 80 11 82 12 81 13
REMARK SMILES IDX 84 14 85 15 86 16 87 17 92 18 88 19 90 20 89 21 91 22 10 23
REMARK SMILES IDX 11 24 12 25 13 26 14 27 15 28 79 29 16 30 78 31 17 32 18 33
REMARK SMILES IDX 19 34 72 35 20 36 77 37 71 38 73 39 21 40 76 41 70 42 69 43
REMARK SMILES IDX 22 45 56 46 35 47 55 48 36 49 39 50 54 51 74 52 37 53 38 54
REMARK SMILES IDX 53 56 75 57 40 58 23 59 24 60 33 61 25 62 26 63 32 64 34 65
REMARK SMILES IDX 27 66 28 67 29 68 30 69 31 70 57 71 58 72 67 73 59 74 60 75
REMARK SMILES IDX 66 76 68 77 61 78 62 79 63 80 64 81 65 82 41 83 42 84 51 85
REMARK SMILES IDX 43 86 44 87 50 88 52 89 45 90 46 91 47 92 48 93 49 94
REMARK H PARENT 73 44 39 55
REMARK Flexibility Score: inf
ROOT
ATOM      1  C   UNL     1       2.979  -7.572   0.836  1.00  0.00     0.275 C 
ENDROOT
BRANCH   1   2
ATOM      2  O   UNL     1       2.965  -6.324   0.129  1.00  0.00    -0.459 OA
BRANCH   2   3
ATOM      3  C   UNL     1       1.656  -5.776  -0.182  1.00  0.00     0.330 C 
ATOM      4  O   UNL     1       0.926  -6.770  -0.418  1.00  0.00    -0.247 OA
BRANCH   3   5
ATOM      5  C   UNL     1       1.238  -3.679  -0.258  1.00  0.00     0.094 C 
ATOM      6  C   UNL     1       1.276  -2.476   0.440  1.00  0.00     0.016 C 
BRANCH   6   7
ATOM      7  C   UNL     1       0.672  -1.184   0.023  1.00  0.00    -0.022 A 
ATOM      8  C   UNL     1       2.840  -0.078   0.601  1.00  0.00     0.046 C 
ATOM      9  C   UNL     1       1.404   0.024   0.153  1.00  0.00    -0.031 A 
ATOM     10  C   UNL     1       0.736   1.256  -0.060  1.00  0.00     0.043 A 
ATOM     11  C   UNL     1      -0.703  -1.148  -0.260  1.00  0.00     0.008 A 
ATOM     12  C   UNL     1      -0.653   1.259  -0.294  1.00  0.00     0.014 A 
ATOM     13  C   UNL     1      -1.367   0.067  -0.394  1.00  0.00     0.001 A 
BRANCH  10  14
ATOM     14  C   UNL     1       1.338   2.591   0.229  1.00  0.00     0.254 C 
ATOM     15  O   UNL     1       0.668   3.399   0.876  1.00  0.00    -0.269 OA
BRANCH  14  16
ATOM     16  N   UNL     1       2.649   2.861  -0.109  1.00  0.00    -0.338 N 
ATOM     17  C   UNL     1       3.458   3.632   0.805  1.00  0.00     0.123 C 
ATOM     18  C   UNL     1       3.373   2.505  -1.323  1.00  0.00     0.123 C 
ATOM     19  C   UNL     1       4.713   4.010   0.033  1.00  0.00     0.010 C 
ATOM     20  C   UNL     1       4.832   2.928  -1.067  1.00  0.00     0.010 C 
ATOM     21  C   UNL     1       5.904   4.170   0.967  1.00  0.00     0.010 C 
ATOM     22  C   UNL     1       5.729   1.742  -0.721  1.00  0.00     0.010 C 
ENDBRANCH  14  16
ENDBRANCH  10  14
ENDBRANCH   6   7
ENDBRANCH   3   5
ENDBRANCH   2   3
ENDBRANCH   1   2
BRANCH   1  23
ATOM     23  C   UNL     1       2.821  -7.277   2.332  1.00  0.00     0.275 C 
BRANCH  23  24
ATOM     24  O   UNL     1       1.534  -6.746   2.737  1.00  0.00    -0.458 OA
BRANCH  24  25
ATOM     25  C   UNL     1       1.376  -5.407   2.889  1.00  0.00     0.338 C 
ATOM     26  O   UNL     1       1.260  -4.799   3.938  1.00  0.00    -0.246 OA
BRANCH  25  27
ATOM     27  C   UNL     1       1.308  -4.752   1.585  1.00  0.00     0.060 A 
ATOM     28  C   UNL     1      -0.169  -5.005   0.554  1.00  0.00     0.016 A 
ATOM     29  C   UNL     1       2.914  -4.338   0.833  1.00  0.00     0.016 A 
ATOM     30  C   UNL     1      -0.027  -5.038  -1.266  1.00  0.00     0.010 A 
ATOM     31  C   UNL     1       3.065  -4.385  -0.977  1.00  0.00     0.010 A 
ATOM     32  C   UNL     1       1.622  -4.815  -2.005  1.00  0.00    -0.014 A 
BRANCH  32  33
ATOM     33  C   UNL     1       2.005  -5.219  -3.323  1.00  0.00     0.031 A 
ATOM     34  C   UNL     1       2.614  -4.179  -4.149  1.00  0.00     0.074 A 
ATOM     35  C   UNL     1       2.071  -6.545  -3.559  1.00  0.00     0.049 A 
ATOM     36  N   UNL     1       2.850  -4.310  -5.397  1.00  0.00    -0.248 NA
ATOM     37  C   UNL     1       2.982  -2.859  -3.638  1.00  0.00     0.031 C 
ATOM     38  C   UNL     1       2.869  -7.265  -4.542  1.00  0.00     0.029 A 
ATOM     39  N   UNL     1       1.316  -7.556  -2.997  1.00  0.00    -0.354 N 
ATOM     40  C   UNL     1       3.740  -3.318  -5.741  1.00  0.00     0.074 A 
ATOM     41  C   UNL     1       3.679  -2.366  -4.663  1.00  0.00     0.031 C 
ATOM     42  C   UNL     1       2.355  -8.501  -4.702  1.00  0.00     0.029 A 
ATOM     43  C   UNL     1       1.126  -8.574  -3.927  1.00  0.00     0.049 A 
ATOM     44  H   UNL     1       0.964  -7.556  -2.077  1.00  0.00     0.167 HD
ATOM     45  C   UNL     1       4.545  -3.550  -6.813  1.00  0.00     0.037 A 
ATOM     46  C   UNL     1      -0.120  -8.764  -4.468  1.00  0.00     0.037 A 
ATOM     47  C   UNL     1       4.169  -4.826  -7.444  1.00  0.00     0.049 A 
ATOM     48  C   UNL     1      -0.230  -8.234  -5.901  1.00  0.00     0.074 A 
ATOM     49  C   UNL     1       4.665  -6.119  -7.407  1.00  0.00     0.029 A 
ATOM     50  N   UNL     1       2.877  -4.949  -7.918  1.00  0.00    -0.354 N 
ATOM     51  N   UNL     1       0.742  -7.630  -6.537  1.00  0.00    -0.248 NA
ATOM     52  C   UNL     1      -1.434  -8.314  -6.727  1.00  0.00     0.031 C 
ATOM     53  C   UNL     1       3.632  -7.006  -7.853  1.00  0.00     0.029 A 
ATOM     54  C   UNL     1       2.516  -6.253  -8.171  1.00  0.00     0.049 A 
ATOM     55  H   UNL     1       2.276  -4.182  -8.060  1.00  0.00     0.167 HD
ATOM     56  C   UNL     1       0.331  -7.205  -7.773  1.00  0.00     0.074 A 
ATOM     57  C   UNL     1      -1.055  -7.647  -7.836  1.00  0.00     0.031 C 
ATOM     58  C   UNL     1       1.152  -6.512  -8.629  1.00  0.00     0.037 A 
BRANCH  45  59
ATOM     59  C   UNL     1       5.804  -2.780  -7.137  1.00  0.00     0.058 A 
ATOM     60  C   UNL     1       6.794  -3.379  -7.944  1.00  0.00     0.135 A 
ATOM     61  C   UNL     1       6.126  -1.481  -6.686  1.00  0.00     0.135 A 
ATOM     62  F   UNL     1       6.615  -4.587  -8.495  1.00  0.00    -0.206 F 
ATOM     63  C   UNL     1       8.015  -2.773  -8.229  1.00  0.00     0.059 A 
ATOM     64  C   UNL     1       7.361  -0.870  -6.922  1.00  0.00     0.059 A 
ATOM     65  F   UNL     1       5.242  -0.710  -6.044  1.00  0.00    -0.206 F 
ATOM     66  C   UNL     1       8.299  -1.523  -7.703  1.00  0.00     0.060 A 
BRANCH  66  67
ATOM     67  S   UNL     1       9.879  -0.759  -8.097  1.00  0.00     0.124 S 
ATOM     68  O   UNL     1      10.828  -1.773  -7.647  1.00  0.00    -0.237 OA
ATOM     69  O   UNL     1       9.773  -0.581  -9.541  1.00  0.00    -0.237 OA
ATOM     70  O   UNL     1       9.867   0.472  -7.311  1.00  0.00    -0.744 OA
ENDBRANCH  66  67
ENDBRANCH  45  59
BRANCH  46  71
ATOM     71  C   UNL     1      -1.173  -8.778  -3.399  1.00  0.00     0.058 A 
ATOM     72  C   UNL     1      -1.063  -9.790  -2.416  1.00  0.00     0.135 A 
ATOM     73  C   UNL     1      -1.928  -7.649  -3.055  1.00  0.00     0.135 A 
ATOM     74  F   UNL     1      -0.394 -10.921  -2.695  1.00  0.00    -0.206 F 
ATOM     75  C   UNL     1      -1.498  -9.606  -1.105  1.00  0.00     0.059 A 
ATOM     76  C   UNL     1      -2.414  -7.464  -1.750  1.00  0.00     0.059 A 
ATOM     77  F   UNL     1      -2.082  -6.646  -3.932  1.00  0.00    -0.206 F 
ATOM     78  C   UNL     1      -2.131  -8.415  -0.767  1.00  0.00     0.060 A 
BRANCH  78  79
ATOM     79  S   UNL     1      -2.451  -8.090   0.988  1.00  0.00     0.124 S 
ATOM     80  O   UNL     1      -3.457  -9.099   1.302  1.00  0.00    -0.237 OA
ATOM     81  O   UNL     1      -1.141  -8.302   1.595  1.00  0.00    -0.237 OA
ATOM     82  O   UNL     1      -2.933  -6.712   0.999  1.00  0.00    -0.744 OA
ENDBRANCH  78  79
ENDBRANCH  46  71
BRANCH  58  83
ATOM     83  C   UNL     1       0.733  -5.974  -9.986  1.00  0.00     0.058 A 
ATOM     84  C   UNL     1      -0.104  -6.683 -10.860  1.00  0.00     0.135 A 
ATOM     85  C   UNL     1       1.246  -4.757 -10.509  1.00  0.00     0.135 A 
ATOM     86  F   UNL     1      -0.541  -7.913 -10.551  1.00  0.00    -0.206 F 
ATOM     87  C   UNL     1      -0.494  -6.171 -12.101  1.00  0.00     0.059 A 
ATOM     88  C   UNL     1       0.931  -4.264 -11.768  1.00  0.00     0.059 A 
ATOM     89  F   UNL     1       2.060  -3.952  -9.816  1.00  0.00    -0.206 F 
ATOM     90  C   UNL     1       0.024  -4.955 -12.542  1.00  0.00     0.060 A 
BRANCH  90  91
ATOM     91  S   UNL     1      -0.475  -4.290 -14.135  1.00  0.00     0.124 S 
ATOM     92  O   UNL     1      -0.371  -5.458 -15.004  1.00  0.00    -0.237 OA
ATOM     93  O   UNL     1      -1.829  -3.830 -13.846  1.00  0.00    -0.237 OA
ATOM     94  O   UNL     1       0.503  -3.237 -14.390  1.00  0.00    -0.744 OA
ENDBRANCH  90  91
ENDBRANCH  58  83
ENDBRANCH  32  33
ENDBRANCH  25  27
ENDBRANCH  24  25
ENDBRANCH  23  24
ENDBRANCH   1  23
TORSDOF 17
