REMARK SMILES COC(=O)[C@@H]1[C@@H](NC(=O)COCC(=O)OCCOC(=O)c2ccc(-c3c4nc(c(-c5c(F)cc(S(=O)(=O)[O-])cc5F)c5ccc([nH]5)c(-c5c(F)cc(S(=O)(=O)[O-])cc5F)c5nc(c(-c6c(F)cc(S(=O)(=O)[O-])cc6F)c6ccc3[nH]6)C=C5)C=C4)cc2)CCN1C(C)=O
REMARK SMILES IDX 15 1 13 2 14 3 12 4 11 5 10 6 8 7 7 8 9 10 6 11 5 12 89 13
REMARK SMILES IDX 87 14 88 15 3 16 4 17 2 18 1 19 90 20 91 21 92 22 16 23
REMARK SMILES IDX 17 24 18 25 19 26 20 27 21 28 22 29 86 30 23 31 85 32 24 33
REMARK SMILES IDX 25 34 26 35 79 36 27 37 84 38 78 39 80 40 28 41 83 42 77 43
REMARK SMILES IDX 76 44 29 46 63 47 42 48 62 49 43 50 46 51 61 52 81 53 44 54
REMARK SMILES IDX 45 55 60 57 82 58 47 59 30 60 31 61 40 62 32 63 33 64 39 65
REMARK SMILES IDX 41 66 34 67 35 68 36 69 37 70 38 71 64 72 65 73 74 74 66 75
REMARK SMILES IDX 67 76 73 77 75 78 68 79 69 80 70 81 71 82 72 83 48 84 49 85
REMARK SMILES IDX 58 86 50 87 51 88 57 89 59 90 52 91 53 92 54 93 55 94 56 95
REMARK H PARENT 7 9 80 45 46 56
REMARK Flexibility Score: inf
ROOT
ATOM      1  O   UNL     1      -4.641  -1.534   4.418  1.00  0.00    -0.460 OA
ENDROOT
BRANCH   1   2
ATOM      2  C   UNL     1      -3.938  -1.224   3.298  1.00  0.00     0.332 C 
ATOM      3  O   UNL     1      -4.411  -0.702   2.293  1.00  0.00    -0.250 OA
BRANCH   2   4
ATOM      4  C   UNL     1      -2.461  -1.603   3.384  1.00  0.00     0.283 C 
BRANCH   4   5
ATOM      5  O   UNL     1      -1.840  -2.142   4.539  1.00  0.00    -0.360 OA
BRANCH   5   6
ATOM      6  C   UNL     1      -1.539  -1.208   5.555  1.00  0.00     0.260 C 
BRANCH   6   7
ATOM      7  C   UNL     1      -0.727   0.067   5.271  1.00  0.00     0.246 C 
ATOM      8  N   UNL     1       0.497   0.060   4.689  1.00  0.00    -0.349 N 
ATOM      9  H   UNL     1       0.816   0.965   4.468  1.00  0.00     0.163 HD
ATOM     10  O   UNL     1      -1.164   1.169   5.608  1.00  0.00    -0.272 OA
BRANCH   8  11
ATOM     11  C   UNL     1       1.453  -0.979   4.313  1.00  0.00     0.118 C 
ATOM     12  C   UNL     1       1.036  -1.966   3.216  1.00  0.00     0.217 C 
ATOM     13  N   UNL     1       1.393  -3.288   3.720  1.00  0.00    -0.327 N 
ATOM     14  C   UNL     1       1.954  -1.812   5.495  1.00  0.00     0.049 C 
ATOM     15  C   UNL     1       1.697  -3.262   5.132  1.00  0.00     0.122 C 
BRANCH  12  16
ATOM     16  C   UNL     1       1.713  -1.563   1.904  1.00  0.00     0.330 C 
ATOM     17  O   UNL     1       2.844  -1.877   1.559  1.00  0.00    -0.250 OA
BRANCH  16  18
ATOM     18  O   UNL     1       0.881  -0.710   1.231  1.00  0.00    -0.467 OA
ATOM     19  C   UNL     1       1.381  -0.197  -0.004  1.00  0.00     0.282 C 
ENDBRANCH  16  18
ENDBRANCH  12  16
BRANCH  13  20
ATOM     20  C   UNL     1       1.058  -4.413   2.999  1.00  0.00     0.220 C 
ATOM     21  C   UNL     1       1.427  -5.741   3.611  1.00  0.00     0.114 C 
ATOM     22  O   UNL     1       0.522  -4.350   1.894  1.00  0.00    -0.275 OA
ENDBRANCH  13  20
ENDBRANCH   8  11
ENDBRANCH   6   7
ENDBRANCH   5   6
ENDBRANCH   4   5
ENDBRANCH   2   4
ENDBRANCH   1   2
BRANCH   1  23
ATOM     23  C   UNL     1      -6.031  -1.159   4.370  1.00  0.00     0.274 C 
BRANCH  23  24
ATOM     24  C   UNL     1      -6.263   0.184   5.057  1.00  0.00     0.275 C 
BRANCH  24  25
ATOM     25  O   UNL     1      -5.416   1.196   4.485  1.00  0.00    -0.458 OA
BRANCH  25  26
ATOM     26  C   UNL     1      -4.489   1.714   5.327  1.00  0.00     0.338 C 
ATOM     27  O   UNL     1      -4.334   1.431   6.503  1.00  0.00    -0.246 OA
BRANCH  26  28
ATOM     28  C   UNL     1      -3.699   2.744   4.628  1.00  0.00     0.060 A 
ATOM     29  C   UNL     1      -2.928   2.422   3.508  1.00  0.00     0.016 A 
ATOM     30  C   UNL     1      -3.640   4.024   5.180  1.00  0.00     0.016 A 
ATOM     31  C   UNL     1      -2.036   3.362   2.988  1.00  0.00     0.010 A 
ATOM     32  C   UNL     1      -2.809   4.987   4.605  1.00  0.00     0.010 A 
ATOM     33  C   UNL     1      -1.976   4.659   3.522  1.00  0.00    -0.014 A 
BRANCH  33  34
ATOM     34  C   UNL     1      -1.063   5.688   2.957  1.00  0.00     0.031 A 
ATOM     35  C   UNL     1       0.020   6.300   3.807  1.00  0.00     0.074 A 
ATOM     36  C   UNL     1      -1.242   6.117   1.693  1.00  0.00     0.049 A 
ATOM     37  N   UNL     1       0.775   7.340   3.560  1.00  0.00    -0.248 NA
ATOM     38  C   UNL     1       0.280   5.665   5.109  1.00  0.00     0.031 C 
ATOM     39  C   UNL     1      -2.240   5.596   0.756  1.00  0.00     0.029 A 
ATOM     40  N   UNL     1      -0.604   7.104   0.984  1.00  0.00    -0.354 N 
ATOM     41  C   UNL     1       1.568   7.514   4.688  1.00  0.00     0.074 A 
ATOM     42  C   UNL     1       1.203   6.469   5.622  1.00  0.00     0.031 C 
ATOM     43  C   UNL     1      -2.145   6.264  -0.404  1.00  0.00     0.029 A 
ATOM     44  C   UNL     1      -1.130   7.304  -0.271  1.00  0.00     0.049 A 
ATOM     45  H   UNL     1       0.156   7.620   1.339  1.00  0.00     0.167 HD
ATOM     46  C   UNL     1       2.510   8.460   4.923  1.00  0.00     0.037 A 
ATOM     47  C   UNL     1      -0.863   8.244  -1.197  1.00  0.00     0.037 A 
ATOM     48  C   UNL     1       2.893   9.479   3.978  1.00  0.00     0.049 A 
ATOM     49  C   UNL     1       0.166   9.297  -0.906  1.00  0.00     0.074 A 
ATOM     50  C   UNL     1       3.858  10.463   4.114  1.00  0.00     0.029 A 
ATOM     51  N   UNL     1       2.333   9.644   2.719  1.00  0.00    -0.354 N 
ATOM     52  N   UNL     1       0.890   9.462   0.175  1.00  0.00    -0.248 NA
ATOM     53  C   UNL     1       0.405  10.298  -1.953  1.00  0.00     0.031 C 
ATOM     54  C   UNL     1       3.863  11.239   2.949  1.00  0.00     0.029 A 
ATOM     55  C   UNL     1       2.924  10.719   2.074  1.00  0.00     0.049 A 
ATOM     56  H   UNL     1       1.621   9.080   2.340  1.00  0.00     0.167 HD
ATOM     57  C   UNL     1       1.677  10.582  -0.065  1.00  0.00     0.074 A 
ATOM     58  C   UNL     1       1.351  11.045  -1.399  1.00  0.00     0.031 C 
ATOM     59  C   UNL     1       2.587  11.172   0.748  1.00  0.00     0.037 A 
BRANCH  46  60
ATOM     60  C   UNL     1       3.182   8.458   6.268  1.00  0.00     0.058 A 
ATOM     61  C   UNL     1       4.162   7.512   6.604  1.00  0.00     0.135 A 
ATOM     62  C   UNL     1       2.870   9.445   7.218  1.00  0.00     0.135 A 
ATOM     63  F   UNL     1       4.488   6.540   5.738  1.00  0.00    -0.206 F 
ATOM     64  C   UNL     1       4.795   7.530   7.844  1.00  0.00     0.059 A 
ATOM     65  C   UNL     1       3.504   9.494   8.457  1.00  0.00     0.059 A 
ATOM     66  F   UNL     1       1.941  10.375   6.947  1.00  0.00    -0.206 F 
ATOM     67  C   UNL     1       4.456   8.523   8.766  1.00  0.00     0.060 A 
BRANCH  67  68
ATOM     68  S   UNL     1       5.285   8.538  10.370  1.00  0.00     0.124 S 
ATOM     69  O   UNL     1       4.592   7.457  11.065  1.00  0.00    -0.237 OA
ATOM     70  O   UNL     1       6.674   8.270  10.011  1.00  0.00    -0.237 OA
ATOM     71  O   UNL     1       5.021   9.882  10.876  1.00  0.00    -0.744 OA
ENDBRANCH  67  68
ENDBRANCH  46  60
BRANCH  47  72
ATOM     72  C   UNL     1      -1.612   8.237  -2.478  1.00  0.00     0.058 A 
ATOM     73  C   UNL     1      -1.000   7.813  -3.665  1.00  0.00     0.135 A 
ATOM     74  C   UNL     1      -2.966   8.602  -2.529  1.00  0.00     0.135 A 
ATOM     75  F   UNL     1       0.295   7.463  -3.664  1.00  0.00    -0.206 F 
ATOM     76  C   UNL     1      -1.705   7.747  -4.862  1.00  0.00     0.059 A 
ATOM     77  C   UNL     1      -3.698   8.524  -3.709  1.00  0.00     0.059 A 
ATOM     78  F   UNL     1      -3.597   9.001  -1.414  1.00  0.00    -0.206 F 
ATOM     79  C   UNL     1      -3.056   8.099  -4.872  1.00  0.00     0.060 A 
BRANCH  79  80
ATOM     80  S   UNL     1      -3.989   7.928  -6.409  1.00  0.00     0.124 S 
ATOM     81  O   UNL     1      -3.583   9.128  -7.132  1.00  0.00    -0.237 OA
ATOM     82  O   UNL     1      -3.488   6.664  -6.938  1.00  0.00    -0.237 OA
ATOM     83  O   UNL     1      -5.376   7.901  -5.954  1.00  0.00    -0.744 OA
ENDBRANCH  79  80
ENDBRANCH  47  72
BRANCH  59  84
ATOM     84  C   UNL     1       3.310  12.371   0.206  1.00  0.00     0.058 A 
ATOM     85  C   UNL     1       2.693  13.629   0.137  1.00  0.00     0.135 A 
ATOM     86  C   UNL     1       4.642  12.265  -0.223  1.00  0.00     0.135 A 
ATOM     87  F   UNL     1       1.417  13.778   0.527  1.00  0.00    -0.206 F 
ATOM     88  C   UNL     1       3.366  14.740  -0.360  1.00  0.00     0.059 A 
ATOM     89  C   UNL     1       5.340  13.367  -0.707  1.00  0.00     0.059 A 
ATOM     90  F   UNL     1       5.277  11.084  -0.171  1.00  0.00    -0.206 F 
ATOM     91  C   UNL     1       4.690  14.598  -0.783  1.00  0.00     0.060 A 
BRANCH  91  92
ATOM     92  S   UNL     1       5.565  16.049  -1.408  1.00  0.00     0.124 S 
ATOM     93  O   UNL     1       5.036  16.149  -2.764  1.00  0.00    -0.237 OA
ATOM     94  O   UNL     1       5.143  17.096  -0.483  1.00  0.00    -0.237 OA
ATOM     95  O   UNL     1       6.970  15.663  -1.308  1.00  0.00    -0.744 OA
ENDBRANCH  91  92
ENDBRANCH  59  84
ENDBRANCH  33  34
ENDBRANCH  26  28
ENDBRANCH  25  26
ENDBRANCH  24  25
ENDBRANCH  23  24
ENDBRANCH   1  23
TORSDOF 21
