REMARK SMILES CC[C@@]1(CC(=O)OCCOC(=O)c2ccc(-c3c4nc(c(-c5c(F)cc(S(=O)(=O)[O-])cc5F)c5ccc([nH]5)c(-c5c(F)cc(S(=O)(=O)[O-])cc5F)c5nc(c(-c6c(F)cc(S(=O)(=O)[O-])cc6F)c6ccc3[nH]6)C=C5)C=C4)cc2)OC[C@H](Cc2ccccc2)c2c1[nH]c1ccccc21
REMARK SMILES IDX 8 1 7 2 5 3 6 4 4 5 3 6 79 7 90 8 80 9 89 10 91 11 81 12
REMARK SMILES IDX 97 13 92 14 96 16 93 17 95 18 94 19 2 20 1 21 82 22 83 23
REMARK SMILES IDX 84 24 88 25 85 26 87 27 86 28 9 29 10 30 11 31 12 32 13 33
REMARK SMILES IDX 14 34 78 35 15 36 77 37 16 38 17 39 18 40 71 41 19 42 76 43
REMARK SMILES IDX 70 44 72 45 20 46 75 47 69 48 68 49 21 51 55 52 34 53 54 54
REMARK SMILES IDX 35 55 38 56 53 57 73 58 36 59 37 60 52 62 74 63 39 64 22 65
REMARK SMILES IDX 23 66 32 67 24 68 25 69 31 70 33 71 26 72 27 73 28 74 29 75
REMARK SMILES IDX 30 76 56 77 57 78 66 79 58 80 59 81 65 82 67 83 60 84 61 85
REMARK SMILES IDX 62 86 63 87 64 88 40 89 41 90 50 91 42 92 43 93 49 94 51 95
REMARK SMILES IDX 44 96 45 97 46 98 47 99 48 100
REMARK H PARENT 91 15 72 50 38 61
REMARK Flexibility Score: inf
ROOT
ATOM      1  C   UNL     1       1.323   2.279   0.663  1.00  0.00     0.274 C 
ENDROOT
BRANCH   1   2
ATOM      2  O   UNL     1       0.745   1.000   0.991  1.00  0.00    -0.462 OA
BRANCH   2   3
ATOM      3  C   UNL     1       0.361   0.163   0.003  1.00  0.00     0.309 C 
ATOM      4  O   UNL     1       0.296   0.533  -1.163  1.00  0.00    -0.252 OA
BRANCH   3   5
ATOM      5  C   UNL     1      -0.031  -1.264   0.500  1.00  0.00     0.164 C 
BRANCH   5   6
ATOM      6  C   UNL     1       0.767  -1.955   1.688  1.00  0.00     0.118 C 
ATOM      7  O   UNL     1       2.059  -2.584   1.419  1.00  0.00    -0.368 OA
ATOM      8  C   UNL     1      -0.040  -3.110   2.173  1.00  0.00     0.053 A 
ATOM      9  C   UNL     1       2.131  -3.814   0.649  1.00  0.00     0.170 C 
ATOM     10  C   UNL     1       0.152  -4.455   1.933  1.00  0.00    -0.011 A 
ATOM     11  N   UNL     1      -1.177  -2.982   2.897  1.00  0.00    -0.356 N 
ATOM     12  C   UNL     1       1.248  -4.987   1.092  1.00  0.00     0.052 C 
ATOM     13  C   UNL     1      -0.874  -5.162   2.594  1.00  0.00     0.003 A 
ATOM     14  C   UNL     1      -1.672  -4.209   3.213  1.00  0.00     0.046 A 
ATOM     15  H   UNL     1      -1.586  -2.124   3.156  1.00  0.00     0.166 HD
ATOM     16  C   UNL     1      -1.221  -6.516   2.701  1.00  0.00     0.010 A 
ATOM     17  C   UNL     1      -2.791  -4.518   3.969  1.00  0.00     0.026 A 
ATOM     18  C   UNL     1      -2.362  -6.848   3.431  1.00  0.00     0.001 A 
ATOM     19  C   UNL     1      -3.124  -5.864   4.062  1.00  0.00     0.002 A 
BRANCH   6  20
ATOM     20  C   UNL     1       1.035  -0.944   2.837  1.00  0.00     0.039 C 
ATOM     21  C   UNL     1      -0.174  -0.087   3.243  1.00  0.00     0.007 C 
ENDBRANCH   6  20
BRANCH  12  22
ATOM     22  C   UNL     1       0.673  -5.726  -0.153  1.00  0.00     0.046 C 
BRANCH  22  23
ATOM     23  C   UNL     1       1.737  -6.363  -1.008  1.00  0.00    -0.047 A 
ATOM     24  C   UNL     1       2.678  -7.252  -0.496  1.00  0.00     0.004 A 
ATOM     25  C   UNL     1       1.801  -6.059  -2.357  1.00  0.00     0.004 A 
ATOM     26  C   UNL     1       3.768  -7.662  -1.268  1.00  0.00     0.000 A 
ATOM     27  C   UNL     1       2.866  -6.510  -3.143  1.00  0.00     0.000 A 
ATOM     28  C   UNL     1       3.887  -7.252  -2.586  1.00  0.00     0.000 A 
ENDBRANCH  22  23
ENDBRANCH  12  22
ENDBRANCH   5   6
ENDBRANCH   3   5
ENDBRANCH   2   3
ENDBRANCH   1   2
BRANCH   1  29
ATOM     29  C   UNL     1       2.852   2.155   0.645  1.00  0.00     0.275 C 
BRANCH  29  30
ATOM     30  O   UNL     1       3.282   1.439  -0.543  1.00  0.00    -0.458 OA
BRANCH  30  31
ATOM     31  C   UNL     1       3.608   0.141  -0.400  1.00  0.00     0.338 C 
ATOM     32  O   UNL     1       3.838  -0.401   0.709  1.00  0.00    -0.246 OA
BRANCH  31  33
ATOM     33  C   UNL     1       3.203  -0.629  -1.623  1.00  0.00     0.060 A 
ATOM     34  C   UNL     1       3.189  -0.338  -2.959  1.00  0.00     0.016 A 
ATOM     35  C   UNL     1       2.321  -1.622  -1.340  1.00  0.00     0.016 A 
ATOM     36  C   UNL     1       2.010  -0.769  -3.756  1.00  0.00     0.010 A 
ATOM     37  C   UNL     1       1.387  -2.204  -2.212  1.00  0.00     0.010 A 
ATOM     38  C   UNL     1       0.836  -1.432  -3.198  1.00  0.00    -0.014 A 
BRANCH  38  39
ATOM     39  C   UNL     1      -0.529  -2.124  -3.914  1.00  0.00     0.031 A 
ATOM     40  C   UNL     1       0.403  -3.037  -4.996  1.00  0.00     0.074 A 
ATOM     41  C   UNL     1      -2.071  -2.068  -3.692  1.00  0.00     0.049 A 
ATOM     42  N   UNL     1       0.807  -2.647  -6.175  1.00  0.00    -0.248 NA
ATOM     43  C   UNL     1       1.445  -4.101  -4.665  1.00  0.00     0.031 C 
ATOM     44  C   UNL     1      -3.157  -1.364  -2.711  1.00  0.00     0.029 A 
ATOM     45  N   UNL     1      -3.198  -2.647  -4.461  1.00  0.00    -0.354 N 
ATOM     46  C   UNL     1       1.355  -3.795  -6.788  1.00  0.00     0.074 A 
ATOM     47  C   UNL     1       1.990  -4.534  -5.804  1.00  0.00     0.031 C 
ATOM     48  C   UNL     1      -4.455  -1.899  -2.752  1.00  0.00     0.029 A 
ATOM     49  C   UNL     1      -4.581  -2.854  -3.837  1.00  0.00     0.049 A 
ATOM     50  H   UNL     1      -3.053  -2.907  -5.400  1.00  0.00     0.167 HD
ATOM     51  C   UNL     1       0.796  -4.286  -7.910  1.00  0.00     0.037 A 
ATOM     52  C   UNL     1      -5.779  -3.449  -4.373  1.00  0.00     0.037 A 
ATOM     53  C   UNL     1      -0.040  -3.239  -8.410  1.00  0.00     0.049 A 
ATOM     54  C   UNL     1      -5.431  -3.704  -5.793  1.00  0.00     0.074 A 
ATOM     55  C   UNL     1       0.243  -1.929  -8.755  1.00  0.00     0.029 A 
ATOM     56  N   UNL     1      -1.260  -3.246  -7.799  1.00  0.00    -0.354 N 
ATOM     57  N   UNL     1      -5.263  -2.716  -6.627  1.00  0.00    -0.248 NA
ATOM     58  C   UNL     1      -4.589  -4.889  -5.926  1.00  0.00     0.031 C 
ATOM     59  C   UNL     1      -0.803  -1.140  -8.203  1.00  0.00     0.029 A 
ATOM     60  C   UNL     1      -1.795  -1.998  -7.754  1.00  0.00     0.049 A 
ATOM     61  H   UNL     1      -1.697  -4.052  -7.439  1.00  0.00     0.167 HD
ATOM     62  C   UNL     1      -3.958  -2.889  -7.040  1.00  0.00     0.074 A 
ATOM     63  C   UNL     1      -3.593  -4.278  -6.582  1.00  0.00     0.031 C 
ATOM     64  C   UNL     1      -3.140  -1.811  -7.311  1.00  0.00     0.037 A 
BRANCH  51  65
ATOM     65  C   UNL     1       0.610  -5.737  -8.258  1.00  0.00     0.058 A 
ATOM     66  C   UNL     1       0.335  -5.964  -9.608  1.00  0.00     0.135 A 
ATOM     67  C   UNL     1       0.489  -6.861  -7.393  1.00  0.00     0.135 A 
ATOM     68  F   UNL     1       0.425  -4.958 -10.491  1.00  0.00    -0.206 F 
ATOM     69  C   UNL     1      -0.048  -7.200 -10.090  1.00  0.00     0.059 A 
ATOM     70  C   UNL     1       0.141  -8.134  -7.868  1.00  0.00     0.059 A 
ATOM     71  F   UNL     1       0.661  -6.762  -6.065  1.00  0.00    -0.206 F 
ATOM     72  C   UNL     1      -0.136  -8.282  -9.222  1.00  0.00     0.060 A 
BRANCH  72  73
ATOM     73  S   UNL     1      -0.605  -9.860  -9.949  1.00  0.00     0.124 S 
ATOM     74  O   UNL     1      -1.928  -9.558 -10.484  1.00  0.00    -0.237 OA
ATOM     75  O   UNL     1       0.452 -10.045 -10.940  1.00  0.00    -0.237 OA
ATOM     76  O   UNL     1      -0.569 -10.783  -8.821  1.00  0.00    -0.744 OA
ENDBRANCH  72  73
ENDBRANCH  51  65
BRANCH  52  77
ATOM     77  C   UNL     1      -6.944  -4.385  -3.790  1.00  0.00     0.058 A 
ATOM     78  C   UNL     1      -8.164  -4.900  -4.394  1.00  0.00     0.135 A 
ATOM     79  C   UNL     1      -6.578  -5.110  -2.655  1.00  0.00     0.135 A 
ATOM     80  F   UNL     1      -8.708  -4.317  -5.480  1.00  0.00    -0.206 F 
ATOM     81  C   UNL     1      -8.879  -6.059  -3.908  1.00  0.00     0.059 A 
ATOM     82  C   UNL     1      -7.242  -6.261  -2.183  1.00  0.00     0.059 A 
ATOM     83  F   UNL     1      -5.470  -4.752  -2.000  1.00  0.00    -0.206 F 
ATOM     84  C   UNL     1      -8.376  -6.759  -2.814  1.00  0.00     0.060 A 
BRANCH  84  85
ATOM     85  S   UNL     1      -9.116  -8.333  -2.228  1.00  0.00     0.124 S 
ATOM     86  O   UNL     1     -10.456  -7.926  -1.817  1.00  0.00    -0.237 OA
ATOM     87  O   UNL     1      -9.049  -9.184  -3.411  1.00  0.00    -0.237 OA
ATOM     88  O   UNL     1      -8.234  -8.732  -1.132  1.00  0.00    -0.744 OA
ENDBRANCH  84  85
ENDBRANCH  52  77
BRANCH  64  89
ATOM     89  C   UNL     1      -3.629  -0.363  -7.307  1.00  0.00     0.058 A 
ATOM     90  C   UNL     1      -3.738   0.528  -6.210  1.00  0.00     0.135 A 
ATOM     91  C   UNL     1      -3.752   0.229  -8.566  1.00  0.00     0.135 A 
ATOM     92  F   UNL     1      -3.403   0.150  -4.972  1.00  0.00    -0.206 F 
ATOM     93  C   UNL     1      -4.101   1.879  -6.355  1.00  0.00     0.059 A 
ATOM     94  C   UNL     1      -4.053   1.578  -8.742  1.00  0.00     0.059 A 
ATOM     95  F   UNL     1      -3.478  -0.494  -9.662  1.00  0.00    -0.206 F 
ATOM     96  C   UNL     1      -4.277   2.389  -7.636  1.00  0.00     0.060 A 
BRANCH  96  97
ATOM     97  S   UNL     1      -4.774   4.113  -7.852  1.00  0.00     0.124 S 
ATOM     98  O   UNL     1      -6.095   4.130  -7.230  1.00  0.00    -0.237 OA
ATOM     99  O   UNL     1      -3.731   4.839  -7.134  1.00  0.00    -0.237 OA
ATOM    100  O   UNL     1      -4.766   4.291  -9.301  1.00  0.00    -0.744 OA
ENDBRANCH  96  97
ENDBRANCH  64  89
ENDBRANCH  38  39
ENDBRANCH  31  33
ENDBRANCH  30  31
ENDBRANCH  29  30
ENDBRANCH   1  29
TORSDOF 18
