REMARK SMILES CS(=O)(=O)c1ccc(C2=NN(c3ccc(C(=O)OCCOC(=O)c4ccc(-c5c6nc(c(-c7c(F)cc(S(=O)(=O)[O-])cc7F)c7ccc([nH]7)c(-c7c(F)cc(S(=O)(=O)[O-])cc7F)c7nc(c(-c8c(F)cc(S(=O)(=O)[O-])cc8F)c8ccc5[nH]8)C=C7)C=C6)cc4)cc3)[C@H](c3ccccc3)C2)cc1
REMARK SMILES IDX 19 1 18 2 16 3 17 4 15 5 12 6 13 7 91 8 14 9 90 10 11 11
REMARK SMILES IDX 9 12 10 13 99 14 92 15 8 16 5 17 6 18 101 19 7 20 100 21
REMARK SMILES IDX 2 22 1 23 3 24 4 25 93 26 94 27 98 28 95 29 97 30 96 31
REMARK SMILES IDX 20 32 21 33 22 34 23 35 24 36 25 37 89 38 26 39 88 40 27 41
REMARK SMILES IDX 28 42 29 43 82 44 30 45 87 46 81 47 83 48 31 49 86 50 80 51
REMARK SMILES IDX 79 52 32 54 66 55 45 56 65 57 46 58 49 59 64 60 84 61 47 62
REMARK SMILES IDX 48 63 63 65 85 66 50 67 33 68 34 69 43 70 35 71 36 72 42 73
REMARK SMILES IDX 44 74 37 75 38 76 39 77 40 78 41 79 67 80 68 81 77 82 69 83
REMARK SMILES IDX 70 84 76 85 78 86 71 87 72 88 73 89 74 90 75 91 51 92 52 93
REMARK SMILES IDX 61 94 53 95 54 96 60 97 62 98 55 99 56 100 57 101 58 102
REMARK SMILES IDX 59 103
REMARK H PARENT 83 53 49 64
REMARK Flexibility Score: inf
ROOT
ATOM      1  C   UNL     1      -0.373 -15.456  -4.601  1.00  0.00     0.275 C 
ENDROOT
BRANCH   1   2
ATOM      2  O   UNL     1      -0.079 -14.299  -3.796  1.00  0.00    -0.458 OA
BRANCH   2   3
ATOM      3  C   UNL     1       0.783 -13.411  -4.348  1.00  0.00     0.338 C 
ATOM      4  O   UNL     1       1.351 -13.530  -5.423  1.00  0.00    -0.246 OA
BRANCH   3   5
ATOM      5  C   UNL     1       0.942 -12.207  -3.493  1.00  0.00     0.060 A 
ATOM      6  C   UNL     1       1.464  -9.924  -1.940  1.00  0.00     0.060 A 
ATOM      7  C   UNL     1       1.714  -9.913  -3.314  1.00  0.00     0.029 A 
ATOM      8  C   UNL     1       0.882 -11.063  -1.366  1.00  0.00     0.029 A 
ATOM      9  C   UNL     1       1.483 -11.054  -4.080  1.00  0.00     0.018 A 
ATOM     10  C   UNL     1       0.616 -12.201  -2.135  1.00  0.00     0.018 A 
BRANCH   6  11
ATOM     11  N   UNL     1       1.951  -8.909  -1.116  1.00  0.00    -0.257 N 
ATOM     12  C   UNL     1       2.132  -6.840  -0.650  1.00  0.00     0.071 C 
ATOM     13  N   UNL     1       1.264  -7.749  -0.975  1.00  0.00    -0.176 NA
ATOM     14  C   UNL     1       3.571  -7.289  -0.634  1.00  0.00     0.091 C 
ATOM     15  C   UNL     1       3.402  -8.777  -0.949  1.00  0.00     0.144 C 
BRANCH  12  16
ATOM     16  C   UNL     1       1.754  -5.456  -0.290  1.00  0.00    -0.002 A 
ATOM     17  C   UNL     1       1.027  -2.902   0.569  1.00  0.00     0.067 A 
ATOM     18  C   UNL     1       0.123  -3.960   0.699  1.00  0.00     0.021 A 
ATOM     19  C   UNL     1       2.284  -3.107  -0.011  1.00  0.00     0.021 A 
ATOM     20  C   UNL     1       0.487  -5.235   0.263  1.00  0.00     0.011 A 
ATOM     21  C   UNL     1       2.647  -4.388  -0.441  1.00  0.00     0.011 A 
BRANCH  17  22
ATOM     22  S   UNL     1       0.590  -1.300   1.203  1.00  0.00     0.175 S 
ATOM     23  C   UNL     1       0.971  -0.153  -0.093  1.00  0.00     0.163 C 
ATOM     24  O   UNL     1       1.486  -1.043   2.315  1.00  0.00    -0.224 OA
ATOM     25  O   UNL     1      -0.849  -1.280   1.389  1.00  0.00    -0.224 OA
ENDBRANCH  17  22
ENDBRANCH  12  16
BRANCH  15  26
ATOM     26  C   UNL     1       3.876  -9.796   0.077  1.00  0.00    -0.023 A 
ATOM     27  C   UNL     1       3.866  -9.559   1.458  1.00  0.00     0.006 A 
ATOM     28  C   UNL     1       4.208 -11.091  -0.372  1.00  0.00     0.006 A 
ATOM     29  C   UNL     1       4.185 -10.581   2.358  1.00  0.00     0.000 A 
ATOM     30  C   UNL     1       4.502 -12.116   0.527  1.00  0.00     0.000 A 
ATOM     31  C   UNL     1       4.492 -11.859   1.894  1.00  0.00     0.000 A 
ENDBRANCH  15  26
ENDBRANCH   6  11
ENDBRANCH   3   5
ENDBRANCH   2   3
ENDBRANCH   1   2
BRANCH   1  32
ATOM     32  C   UNL     1      -1.713 -15.296  -5.315  1.00  0.00     0.275 C 
BRANCH  32  33
ATOM     33  O   UNL     1      -1.645 -14.224  -6.273  1.00  0.00    -0.458 OA
BRANCH  33  34
ATOM     34  C   UNL     1      -2.391 -13.132  -5.984  1.00  0.00     0.338 C 
ATOM     35  O   UNL     1      -3.147 -12.976  -5.043  1.00  0.00    -0.246 OA
BRANCH  34  36
ATOM     36  C   UNL     1      -2.139 -12.093  -6.994  1.00  0.00     0.060 A 
ATOM     37  C   UNL     1      -0.988 -11.315  -6.888  1.00  0.00     0.016 A 
ATOM     38  C   UNL     1      -3.093 -11.809  -7.969  1.00  0.00     0.016 A 
ATOM     39  C   UNL     1      -0.803 -10.216  -7.723  1.00  0.00     0.010 A 
ATOM     40  C   UNL     1      -2.879 -10.740  -8.847  1.00  0.00     0.010 A 
ATOM     41  C   UNL     1      -1.745  -9.915  -8.716  1.00  0.00    -0.014 A 
BRANCH  41  42
ATOM     42  C   UNL     1      -1.579  -8.707  -9.571  1.00  0.00     0.031 A 
ATOM     43  C   UNL     1      -2.594  -7.596  -9.503  1.00  0.00     0.074 A 
ATOM     44  C   UNL     1      -0.519  -8.589 -10.394  1.00  0.00     0.049 A 
ATOM     45  N   UNL     1      -2.729  -6.548 -10.276  1.00  0.00    -0.248 NA
ATOM     46  C   UNL     1      -3.597  -7.682  -8.430  1.00  0.00     0.031 C 
ATOM     47  C   UNL     1       0.567  -9.562 -10.523  1.00  0.00     0.029 A 
ATOM     48  N   UNL     1      -0.178  -7.595 -11.279  1.00  0.00    -0.354 N 
ATOM     49  C   UNL     1      -3.861  -5.882  -9.819  1.00  0.00     0.074 A 
ATOM     50  C   UNL     1      -4.375  -6.643  -8.700  1.00  0.00     0.031 C 
ATOM     51  C   UNL     1       1.464  -9.105 -11.411  1.00  0.00     0.029 A 
ATOM     52  C   UNL     1       0.984  -7.845 -11.970  1.00  0.00     0.049 A 
ATOM     53  H   UNL     1      -0.716  -6.780 -11.406  1.00  0.00     0.167 HD
ATOM     54  C   UNL     1      -4.421  -4.742 -10.292  1.00  0.00     0.037 A 
ATOM     55  C   UNL     1       1.578  -7.160 -12.966  1.00  0.00     0.037 A 
ATOM     56  C   UNL     1      -3.876  -3.959 -11.371  1.00  0.00     0.049 A 
ATOM     57  C   UNL     1       0.932  -5.907 -13.486  1.00  0.00     0.074 A 
ATOM     58  C   UNL     1      -4.367  -2.787 -11.920  1.00  0.00     0.029 A 
ATOM     59  N   UNL     1      -2.706  -4.259 -12.054  1.00  0.00    -0.354 N 
ATOM     60  N   UNL     1      -0.174  -5.324 -13.088  1.00  0.00    -0.248 NA
ATOM     61  C   UNL     1       1.602  -5.228 -14.604  1.00  0.00     0.031 C 
ATOM     62  C   UNL     1      -3.506  -2.390 -12.950  1.00  0.00     0.029 A 
ATOM     63  C   UNL     1      -2.461  -3.297 -13.020  1.00  0.00     0.049 A 
ATOM     64  H   UNL     1      -2.134  -5.041 -11.878  1.00  0.00     0.167 HD
ATOM     65  C   UNL     1      -0.329  -4.208 -13.901  1.00  0.00     0.074 A 
ATOM     66  C   UNL     1       0.806  -4.185 -14.802  1.00  0.00     0.031 C 
ATOM     67  C   UNL     1      -1.324  -3.288 -13.906  1.00  0.00     0.037 A 
BRANCH  54  68
ATOM     68  C   UNL     1      -5.712  -4.293  -9.668  1.00  0.00     0.058 A 
ATOM     69  C   UNL     1      -5.759  -3.711  -8.392  1.00  0.00     0.135 A 
ATOM     70  C   UNL     1      -6.920  -4.429 -10.371  1.00  0.00     0.135 A 
ATOM     71  F   UNL     1      -4.635  -3.572  -7.671  1.00  0.00    -0.206 F 
ATOM     72  C   UNL     1      -6.963  -3.305  -7.822  1.00  0.00     0.059 A 
ATOM     73  C   UNL     1      -8.132  -4.009  -9.831  1.00  0.00     0.059 A 
ATOM     74  F   UNL     1      -6.931  -4.978 -11.596  1.00  0.00    -0.206 F 
ATOM     75  C   UNL     1      -8.145  -3.463  -8.548  1.00  0.00     0.060 A 
BRANCH  75  76
ATOM     76  S   UNL     1      -9.702  -2.937  -7.800  1.00  0.00     0.124 S 
ATOM     77  O   UNL     1      -9.961  -4.030  -6.869  1.00  0.00    -0.237 OA
ATOM     78  O   UNL     1      -9.344  -1.659  -7.193  1.00  0.00    -0.237 OA
ATOM     79  O   UNL     1     -10.613  -2.851  -8.938  1.00  0.00    -0.744 OA
ENDBRANCH  75  76
ENDBRANCH  54  68
BRANCH  55  80
ATOM     80  C   UNL     1       2.844  -7.668 -13.559  1.00  0.00     0.058 A 
ATOM     81  C   UNL     1       4.062  -7.012 -13.329  1.00  0.00     0.135 A 
ATOM     82  C   UNL     1       2.865  -8.832 -14.342  1.00  0.00     0.135 A 
ATOM     83  F   UNL     1       4.091  -5.888 -12.597  1.00  0.00    -0.206 F 
ATOM     84  C   UNL     1       5.257  -7.492 -13.855  1.00  0.00     0.059 A 
ATOM     85  C   UNL     1       4.050  -9.345 -14.859  1.00  0.00     0.059 A 
ATOM     86  F   UNL     1       1.726  -9.501 -14.583  1.00  0.00    -0.206 F 
ATOM     87  C   UNL     1       5.241  -8.663 -14.615  1.00  0.00     0.060 A 
BRANCH  87  88
ATOM     88  S   UNL     1       6.805  -9.323 -15.232  1.00  0.00     0.124 S 
ATOM     89  O   UNL     1       7.058  -8.455 -16.376  1.00  0.00    -0.237 OA
ATOM     90  O   UNL     1       7.692  -9.143 -14.086  1.00  0.00    -0.237 OA
ATOM     91  O   UNL     1       6.480 -10.710 -15.549  1.00  0.00    -0.744 OA
ENDBRANCH  87  88
ENDBRANCH  55  80
BRANCH  67  92
ATOM     92  C   UNL     1      -1.217  -2.165 -14.897  1.00  0.00     0.058 A 
ATOM     93  C   UNL     1      -1.506  -2.356 -16.256  1.00  0.00     0.135 A 
ATOM     94  C   UNL     1      -0.862  -0.874 -14.474  1.00  0.00     0.135 A 
ATOM     95  F   UNL     1      -1.844  -3.574 -16.710  1.00  0.00    -0.206 F 
ATOM     96  C   UNL     1      -1.428  -1.309 -17.169  1.00  0.00     0.059 A 
ATOM     97  C   UNL     1      -0.797   0.192 -15.365  1.00  0.00     0.059 A 
ATOM     98  F   UNL     1      -0.583  -0.638 -13.182  1.00  0.00    -0.206 F 
ATOM     99  C   UNL     1      -1.071  -0.038 -16.713  1.00  0.00     0.060 A 
BRANCH  99 100
ATOM    100  S   UNL     1      -0.998   1.322 -17.899  1.00  0.00     0.124 S 
ATOM    101  O   UNL     1       0.274   1.063 -18.565  1.00  0.00    -0.237 OA
ATOM    102  O   UNL     1      -2.193   1.101 -18.707  1.00  0.00    -0.237 OA
ATOM    103  O   UNL     1      -1.034   2.511 -17.052  1.00  0.00    -0.744 OA
ENDBRANCH  99 100
ENDBRANCH  67  92
ENDBRANCH  41  42
ENDBRANCH  34  36
ENDBRANCH  33  34
ENDBRANCH  32  33
ENDBRANCH   1  32
TORSDOF 18
