REMARK SMILES CS(=O)(=O)c1ccc(/C=C(/C(=O)OCCOC(=O)c2ccc(-c3c4nc(c(-c5c(F)cc(S(=O)(=O)[O-])cc5F)c5ccc([nH]5)c(-c5c(F)cc(S(=O)(=O)[O-])cc5F)c5nc(c(-c6c(F)cc(S(=O)(=O)[O-])cc6F)c6ccc3[nH]6)C=C5)C=C4)cc2)c2ccc(-c3ccc(F)cc3F)cc2)cc1
REMARK SMILES IDX 15 1 14 2 13 3 11 4 12 5 10 6 9 7 8 8 5 9 6 10 100 11 7 12
REMARK SMILES IDX 99 13 2 14 1 15 3 16 4 17 85 18 86 19 98 20 87 21 97 22
REMARK SMILES IDX 88 23 89 24 90 25 95 26 91 27 94 28 96 29 92 30 93 31 16 32
REMARK SMILES IDX 17 33 18 34 19 35 20 36 84 37 21 38 83 39 22 40 23 41 24 42
REMARK SMILES IDX 77 43 25 44 82 45 76 46 78 47 26 48 81 49 75 50 74 51 27 53
REMARK SMILES IDX 61 54 40 55 60 56 41 57 44 58 59 59 79 60 42 61 43 62 58 64
REMARK SMILES IDX 80 65 45 66 28 67 29 68 38 69 30 70 31 71 37 72 39 73 32 74
REMARK SMILES IDX 33 75 34 76 35 77 36 78 62 79 63 80 72 81 64 82 65 83 71 84
REMARK SMILES IDX 73 85 66 86 67 87 68 88 69 89 70 90 46 91 47 92 56 93 48 94
REMARK SMILES IDX 49 95 55 96 57 97 50 98 51 99 52 100 53 101 54 102
REMARK H PARENT 78 52 44 63
REMARK Flexibility Score: inf
ROOT
ATOM      1  C   UNL     1       3.429  10.951   1.642  1.00  0.00     0.275 C 
ENDROOT
BRANCH   1   2
ATOM      2  C   UNL     1       3.555  10.395   0.222  1.00  0.00     0.275 C 
BRANCH   2   3
ATOM      3  O   UNL     1       3.006   9.061   0.119  1.00  0.00    -0.458 OA
BRANCH   3   4
ATOM      4  C   UNL     1       3.911   8.059  -0.039  1.00  0.00     0.338 C 
ATOM      5  O   UNL     1       5.125   8.213  -0.075  1.00  0.00    -0.246 OA
BRANCH   4   6
ATOM      6  C   UNL     1       3.268   6.703  -0.081  1.00  0.00     0.067 C 
ATOM      7  C   UNL     1       2.011   6.515  -0.552  1.00  0.00     0.024 C 
BRANCH   7   8
ATOM      8  C   UNL     1       1.329   5.203  -0.686  1.00  0.00    -0.025 A 
ATOM      9  C   UNL     1       0.466   2.577  -1.185  1.00  0.00     0.067 A 
ATOM     10  C   UNL     1       1.023   2.892   0.045  1.00  0.00     0.021 A 
ATOM     11  C   UNL     1       0.228   3.586  -2.126  1.00  0.00     0.021 A 
ATOM     12  C   UNL     1       1.385   4.212   0.305  1.00  0.00     0.009 A 
ATOM     13  C   UNL     1       0.666   4.894  -1.878  1.00  0.00     0.009 A 
BRANCH   9  14
ATOM     14  S   UNL     1       0.086   0.902  -1.626  1.00  0.00     0.175 S 
ATOM     15  C   UNL     1       0.779  -0.146  -0.373  1.00  0.00     0.163 C 
ATOM     16  O   UNL     1       0.803   0.631  -2.861  1.00  0.00    -0.224 OA
ATOM     17  O   UNL     1      -1.357   0.781  -1.563  1.00  0.00    -0.224 OA
ENDBRANCH   9  14
ENDBRANCH   7   8
BRANCH   6  18
ATOM     18  C   UNL     1       4.039   5.590   0.511  1.00  0.00    -0.011 A 
ATOM     19  C   UNL     1       3.929   5.448   1.892  1.00  0.00     0.009 A 
ATOM     20  C   UNL     1       4.755   4.629  -0.205  1.00  0.00     0.009 A 
ATOM     21  C   UNL     1       4.536   4.386   2.552  1.00  0.00     0.009 A 
ATOM     22  C   UNL     1       5.378   3.560   0.475  1.00  0.00     0.009 A 
ATOM     23  C   UNL     1       5.304   3.426   1.877  1.00  0.00    -0.015 A 
BRANCH  23  24
ATOM     24  C   UNL     1       6.020   2.389   2.666  1.00  0.00     0.018 A 
ATOM     25  C   UNL     1       5.553   2.008   3.948  1.00  0.00     0.015 A 
ATOM     26  C   UNL     1       7.226   1.802   2.246  1.00  0.00     0.133 A 
ATOM     27  C   UNL     1       6.282   1.156   4.781  1.00  0.00     0.040 A 
ATOM     28  C   UNL     1       7.936   0.915   3.052  1.00  0.00     0.079 A 
ATOM     29  F   UNL     1       7.755   2.102   1.050  1.00  0.00    -0.206 F 
ATOM     30  C   UNL     1       7.469   0.615   4.321  1.00  0.00     0.126 A 
ATOM     31  F   UNL     1       8.163  -0.217   5.105  1.00  0.00    -0.207 F 
ENDBRANCH  23  24
ENDBRANCH   6  18
ENDBRANCH   4   6
ENDBRANCH   3   4
ENDBRANCH   2   3
ENDBRANCH   1   2
BRANCH   1  32
ATOM     32  O   UNL     1       4.363  10.295   2.522  1.00  0.00    -0.458 OA
BRANCH  32  33
ATOM     33  C   UNL     1       3.820   9.607   3.554  1.00  0.00     0.338 C 
ATOM     34  O   UNL     1       2.640   9.521   3.843  1.00  0.00    -0.246 OA
BRANCH  33  35
ATOM     35  C   UNL     1       4.858   8.820   4.244  1.00  0.00     0.060 A 
ATOM     36  C   UNL     1       5.417   7.774   3.534  1.00  0.00     0.016 A 
ATOM     37  C   UNL     1       5.102   8.931   5.615  1.00  0.00     0.016 A 
ATOM     38  C   UNL     1       6.063   6.752   4.218  1.00  0.00     0.010 A 
ATOM     39  C   UNL     1       5.870   7.947   6.279  1.00  0.00     0.010 A 
ATOM     40  C   UNL     1       6.306   6.797   5.599  1.00  0.00    -0.014 A 
BRANCH  40  41
ATOM     41  C   UNL     1       6.950   5.599   6.247  1.00  0.00     0.031 A 
ATOM     42  C   UNL     1       6.274   4.848   7.378  1.00  0.00     0.074 A 
ATOM     43  C   UNL     1       8.062   5.053   5.699  1.00  0.00     0.049 A 
ATOM     44  N   UNL     1       6.678   3.772   8.013  1.00  0.00    -0.248 NA
ATOM     45  C   UNL     1       4.967   5.342   7.836  1.00  0.00     0.031 C 
ATOM     46  C   UNL     1       8.761   5.573   4.520  1.00  0.00     0.029 A 
ATOM     47  N   UNL     1       8.755   3.901   5.995  1.00  0.00    -0.354 N 
ATOM     48  C   UNL     1       5.711   3.498   8.977  1.00  0.00     0.074 A 
ATOM     49  C   UNL     1       4.683   4.505   8.825  1.00  0.00     0.031 C 
ATOM     50  C   UNL     1       9.672   4.681   4.114  1.00  0.00     0.029 A 
ATOM     51  C   UNL     1       9.760   3.611   5.096  1.00  0.00     0.049 A 
ATOM     52  H   UNL     1       8.552   3.336   6.776  1.00  0.00     0.167 HD
ATOM     53  C   UNL     1       5.688   2.513   9.911  1.00  0.00     0.037 A 
ATOM     54  C   UNL     1      10.684   2.628   5.070  1.00  0.00     0.037 A 
ATOM     55  C   UNL     1       6.695   1.487  10.049  1.00  0.00     0.049 A 
ATOM     56  C   UNL     1      10.693   1.614   6.180  1.00  0.00     0.074 A 
ATOM     57  C   UNL     1       6.773   0.481  11.000  1.00  0.00     0.029 A 
ATOM     58  N   UNL     1       7.794   1.326   9.218  1.00  0.00    -0.354 N 
ATOM     59  N   UNL     1       9.835   1.454   7.159  1.00  0.00    -0.248 NA
ATOM     60  C   UNL     1      11.810   0.661   6.194  1.00  0.00     0.031 C 
ATOM     61  C   UNL     1       7.950  -0.245  10.783  1.00  0.00     0.029 A 
ATOM     62  C   UNL     1       8.570   0.261   9.655  1.00  0.00     0.049 A 
ATOM     63  H   UNL     1       7.994   1.886   8.433  1.00  0.00     0.167 HD
ATOM     64  C   UNL     1      10.297   0.362   7.888  1.00  0.00     0.074 A 
ATOM     65  C   UNL     1      11.492  -0.111   7.223  1.00  0.00     0.031 C 
ATOM     66  C   UNL     1       9.779  -0.193   9.012  1.00  0.00     0.037 A 
BRANCH  53  67
ATOM     67  C   UNL     1       4.581   2.544  10.935  1.00  0.00     0.058 A 
ATOM     68  C   UNL     1       3.258   2.185  10.639  1.00  0.00     0.135 A 
ATOM     69  C   UNL     1       4.875   2.911  12.261  1.00  0.00     0.135 A 
ATOM     70  F   UNL     1       2.915   1.839   9.387  1.00  0.00    -0.206 F 
ATOM     71  C   UNL     1       2.260   2.217  11.612  1.00  0.00     0.059 A 
ATOM     72  C   UNL     1       3.901   2.923  13.255  1.00  0.00     0.059 A 
ATOM     73  F   UNL     1       6.125   3.259  12.603  1.00  0.00    -0.206 F 
ATOM     74  C   UNL     1       2.592   2.591  12.917  1.00  0.00     0.060 A 
BRANCH  74  75
ATOM     75  S   UNL     1       1.287   2.650  14.164  1.00  0.00     0.124 S 
ATOM     76  O   UNL     1       0.522   3.815  13.728  1.00  0.00    -0.237 OA
ATOM     77  O   UNL     1       0.630   1.359  13.989  1.00  0.00    -0.237 OA
ATOM     78  O   UNL     1       2.018   2.815  15.416  1.00  0.00    -0.744 OA
ENDBRANCH  74  75
ENDBRANCH  53  67
BRANCH  54  79
ATOM     79  C   UNL     1      11.712   2.582   3.984  1.00  0.00     0.058 A 
ATOM     80  C   UNL     1      11.835   1.472   3.132  1.00  0.00     0.135 A 
ATOM     81  C   UNL     1      12.615   3.641   3.788  1.00  0.00     0.135 A 
ATOM     82  F   UNL     1      11.044   0.403   3.300  1.00  0.00    -0.206 F 
ATOM     83  C   UNL     1      12.800   1.415   2.132  1.00  0.00     0.059 A 
ATOM     84  C   UNL     1      13.564   3.624   2.771  1.00  0.00     0.059 A 
ATOM     85  F   UNL     1      12.566   4.725   4.578  1.00  0.00    -0.206 F 
ATOM     86  C   UNL     1      13.658   2.500   1.956  1.00  0.00     0.060 A 
BRANCH  86  87
ATOM     87  S   UNL     1      14.899   2.420   0.649  1.00  0.00     0.124 S 
ATOM     88  O   UNL     1      15.818   1.419   1.179  1.00  0.00    -0.237 OA
ATOM     89  O   UNL     1      14.103   2.011  -0.504  1.00  0.00    -0.237 OA
ATOM     90  O   UNL     1      15.416   3.784   0.594  1.00  0.00    -0.744 OA
ENDBRANCH  86  87
ENDBRANCH  54  79
BRANCH  66  91
ATOM     91  C   UNL     1      10.512  -1.374   9.597  1.00  0.00     0.058 A 
ATOM     92  C   UNL     1      11.789  -1.240  10.168  1.00  0.00     0.135 A 
ATOM     93  C   UNL     1       9.935  -2.655   9.591  1.00  0.00     0.135 A 
ATOM     94  F   UNL     1      12.393  -0.041  10.199  1.00  0.00    -0.206 F 
ATOM     95  C   UNL     1      12.486  -2.336  10.666  1.00  0.00     0.059 A 
ATOM     96  C   UNL     1      10.599  -3.760  10.116  1.00  0.00     0.059 A 
ATOM     97  F   UNL     1       8.712  -2.845   9.072  1.00  0.00    -0.206 F 
ATOM     98  C   UNL     1      11.884  -3.594  10.633  1.00  0.00     0.060 A 
BRANCH  98  99
ATOM     99  S   UNL     1      12.797  -5.008  11.287  1.00  0.00     0.124 S 
ATOM    100  O   UNL     1      13.799  -5.218  10.247  1.00  0.00    -0.237 OA
ATOM    101  O   UNL     1      13.300  -4.494  12.557  1.00  0.00    -0.237 OA
ATOM    102  O   UNL     1      11.780  -6.049  11.398  1.00  0.00    -0.744 OA
ENDBRANCH  98  99
ENDBRANCH  66  91
ENDBRANCH  40  41
ENDBRANCH  33  35
ENDBRANCH  32  33
ENDBRANCH   1  32
TORSDOF 18
