REMARK SMILES O=C(C[N@@H+](CC(F)(F)F)[C@H]1CCCC[C@H]1O)OCCOC(=O)c1ccc(-c2c3nc(c(-c4c(F)cc(S(=O)(=O)[O-])cc4F)c4ccc([nH]4)c(-c4c(F)cc(S(=O)(=O)[O-])cc4F)c4nc(c(-c5c(F)cc(S(=O)(=O)[O-])cc5F)c5ccc2[nH]5)C=C4)C=C3)cc1
REMARK SMILES IDX 18 1 17 2 2 3 1 4 3 5 4 6 5 8 6 9 7 10 8 11 9 12 10 13 11 14
REMARK SMILES IDX 15 15 12 16 14 17 13 18 16 19 19 21 20 22 21 23 22 24 23 25
REMARK SMILES IDX 24 26 88 27 25 28 87 29 26 30 27 31 28 32 81 33 29 34 86 35
REMARK SMILES IDX 80 36 82 37 30 38 85 39 79 40 78 41 31 43 65 44 44 45 64 46
REMARK SMILES IDX 45 47 48 48 63 49 83 50 46 51 47 52 62 54 84 55 49 56 32 57
REMARK SMILES IDX 33 58 42 59 34 60 35 61 41 62 43 63 36 64 37 65 38 66 39 67
REMARK SMILES IDX 40 68 66 69 67 70 76 71 68 72 69 73 75 74 77 75 70 76 71 77
REMARK SMILES IDX 72 78 73 79 74 80 50 81 51 82 60 83 52 84 53 85 59 86 61 87
REMARK SMILES IDX 54 88 55 89 56 90 57 91 58 92
REMARK H PARENT 4 7 16 20 82 42 48 53
REMARK Flexibility Score: inf
ROOT
ATOM      1  C   UNL     1       4.666  -0.749   0.960  1.00  0.00     0.274 C 
ENDROOT
BRANCH   1   2
ATOM      2  O   UNL     1       3.396  -0.087   1.137  1.00  0.00    -0.458 OA
BRANCH   2   3
ATOM      3  C   UNL     1       2.715   0.566   0.164  1.00  0.00     0.361 C 
ATOM      4  O   UNL     1       1.618   1.066   0.417  1.00  0.00    -0.245 OA
BRANCH   3   5
ATOM      5  C   UNL     1       3.331   0.668  -1.232  1.00  0.00     0.387 C 
BRANCH   5   6
ATOM      6  N   UNL     1       4.059   1.937  -1.460  1.00  0.00    -0.314 N 
ATOM      7  H   UNL     1       4.630   2.143  -0.640  1.00  0.00     0.349 HD
BRANCH   6   8
ATOM      8  C   UNL     1       5.018   1.805  -2.606  1.00  0.00     0.380 C 
BRANCH   8   9
ATOM      9  C   UNL     1       4.812   0.794  -3.765  1.00  0.00     0.438 C 
ATOM     10  F   UNL     1       3.519   0.594  -4.072  1.00  0.00    -0.165 F 
ATOM     11  F   UNL     1       5.466   1.184  -4.879  1.00  0.00    -0.165 F 
ATOM     12  F   UNL     1       5.323  -0.415  -3.409  1.00  0.00    -0.165 F 
ENDBRANCH   8   9
ENDBRANCH   6   8
BRANCH   6  13
ATOM     13  C   UNL     1       3.116   3.085  -1.588  1.00  0.00     0.213 C 
ATOM     14  C   UNL     1       3.859   4.425  -1.401  1.00  0.00     0.068 C 
ATOM     15  C   UNL     1       2.216   3.143  -2.858  1.00  0.00     0.172 C 
ATOM     16  C   UNL     1       2.868   5.585  -1.298  1.00  0.00     0.006 C 
ATOM     17  C   UNL     1       1.232   4.316  -2.771  1.00  0.00     0.038 C 
ATOM     18  C   UNL     1       1.924   5.652  -2.496  1.00  0.00     0.003 C 
BRANCH  15  19
ATOM     19  O   UNL     1       3.012   3.240  -4.041  1.00  0.00    -0.387 OA
ATOM     20  H   UNL     1       3.531   4.058  -4.015  1.00  0.00     0.211 HD
ENDBRANCH  15  19
ENDBRANCH   6  13
ENDBRANCH   5   6
ENDBRANCH   3   5
ENDBRANCH   2   3
ENDBRANCH   1   2
BRANCH   1  21
ATOM     21  C   UNL     1       4.482  -2.237   0.645  1.00  0.00     0.275 C 
BRANCH  21  22
ATOM     22  O   UNL     1       3.995  -2.421  -0.698  1.00  0.00    -0.458 OA
BRANCH  22  23
ATOM     23  C   UNL     1       2.662  -2.639  -0.838  1.00  0.00     0.338 C 
ATOM     24  O   UNL     1       1.863  -2.807   0.068  1.00  0.00    -0.246 OA
BRANCH  23  25
ATOM     25  C   UNL     1       2.274  -2.435  -2.258  1.00  0.00     0.060 A 
ATOM     26  C   UNL     1       1.015  -1.881  -2.528  1.00  0.00     0.016 A 
ATOM     27  C   UNL     1       3.147  -2.719  -3.314  1.00  0.00     0.016 A 
ATOM     28  C   UNL     1       0.624  -1.621  -3.847  1.00  0.00     0.010 A 
ATOM     29  C   UNL     1       2.754  -2.460  -4.633  1.00  0.00     0.010 A 
ATOM     30  C   UNL     1       1.483  -1.926  -4.911  1.00  0.00    -0.014 A 
BRANCH  30  31
ATOM     31  C   UNL     1       1.007  -1.844  -6.316  1.00  0.00     0.031 A 
ATOM     32  C   UNL     1       0.527  -3.104  -6.984  1.00  0.00     0.074 A 
ATOM     33  C   UNL     1       1.010  -0.687  -7.005  1.00  0.00     0.049 A 
ATOM     34  N   UNL     1       0.087  -3.283  -8.203  1.00  0.00    -0.248 NA
ATOM     35  C   UNL     1       0.547  -4.327  -6.165  1.00  0.00     0.031 C 
ATOM     36  C   UNL     1       1.429   0.612  -6.485  1.00  0.00     0.029 A 
ATOM     37  N   UNL     1       0.662  -0.426  -8.310  1.00  0.00    -0.354 N 
ATOM     38  C   UNL     1      -0.238  -4.630  -8.292  1.00  0.00     0.074 A 
ATOM     39  C   UNL     1       0.103  -5.234  -7.022  1.00  0.00     0.031 C 
ATOM     40  C   UNL     1       1.351   1.525  -7.469  1.00  0.00     0.029 A 
ATOM     41  C   UNL     1       0.876   0.878  -8.690  1.00  0.00     0.049 A 
ATOM     42  H   UNL     1       0.294  -1.110  -8.915  1.00  0.00     0.167 HD
ATOM     43  C   UNL     1      -0.792  -5.304  -9.327  1.00  0.00     0.037 A 
ATOM     44  C   UNL     1       0.715   1.478  -9.887  1.00  0.00     0.037 A 
ATOM     45  C   UNL     1      -1.122  -4.717 -10.598  1.00  0.00     0.049 A 
ATOM     46  C   UNL     1       0.173   0.691 -11.053  1.00  0.00     0.074 A 
ATOM     47  C   UNL     1      -1.712  -5.318 -11.695  1.00  0.00     0.029 A 
ATOM     48  N   UNL     1      -0.879  -3.398 -10.947  1.00  0.00    -0.354 N 
ATOM     49  N   UNL     1      -0.192  -0.568 -11.101  1.00  0.00    -0.248 NA
ATOM     50  C   UNL     1       0.005   1.412 -12.325  1.00  0.00     0.031 C 
ATOM     51  C   UNL     1      -1.790  -4.372 -12.723  1.00  0.00     0.029 A 
ATOM     52  C   UNL     1      -1.286  -3.171 -12.251  1.00  0.00     0.049 A 
ATOM     53  H   UNL     1      -0.477  -2.722 -10.355  1.00  0.00     0.167 HD
ATOM     54  C   UNL     1      -0.668  -0.777 -12.392  1.00  0.00     0.074 A 
ATOM     55  C   UNL     1      -0.542   0.482 -13.095  1.00  0.00     0.031 C 
ATOM     56  C   UNL     1      -1.174  -1.910 -12.940  1.00  0.00     0.037 A 
BRANCH  43  57
ATOM     57  C   UNL     1      -1.072  -6.763  -9.118  1.00  0.00     0.058 A 
ATOM     58  C   UNL     1      -2.130  -7.191  -8.300  1.00  0.00     0.135 A 
ATOM     59  C   UNL     1      -0.282  -7.741  -9.741  1.00  0.00     0.135 A 
ATOM     60  F   UNL     1      -2.902  -6.294  -7.667  1.00  0.00    -0.206 F 
ATOM     61  C   UNL     1      -2.376  -8.542  -8.082  1.00  0.00     0.059 A 
ATOM     62  C   UNL     1      -0.525  -9.098  -9.554  1.00  0.00     0.059 A 
ATOM     63  F   UNL     1       0.743  -7.381 -10.529  1.00  0.00    -0.206 F 
ATOM     64  C   UNL     1      -1.564  -9.488  -8.709  1.00  0.00     0.060 A 
BRANCH  64  65
ATOM     65  S   UNL     1      -1.884 -11.238  -8.405  1.00  0.00     0.124 S 
ATOM     66  O   UNL     1      -1.341 -11.402  -7.060  1.00  0.00    -0.237 OA
ATOM     67  O   UNL     1      -3.337 -11.315  -8.515  1.00  0.00    -0.237 OA
ATOM     68  O   UNL     1      -1.142 -11.908  -9.468  1.00  0.00    -0.744 OA
ENDBRANCH  64  65
ENDBRANCH  43  57
BRANCH  44  69
ATOM     69  C   UNL     1       1.060   2.915 -10.053  1.00  0.00     0.058 A 
ATOM     70  C   UNL     1       0.060   3.886 -10.204  1.00  0.00     0.135 A 
ATOM     71  C   UNL     1       2.397   3.341 -10.089  1.00  0.00     0.135 A 
ATOM     72  F   UNL     1      -1.232   3.526 -10.191  1.00  0.00    -0.206 F 
ATOM     73  C   UNL     1       0.371   5.228 -10.403  1.00  0.00     0.059 A 
ATOM     74  C   UNL     1       2.733   4.680 -10.267  1.00  0.00     0.059 A 
ATOM     75  F   UNL     1       3.390   2.450  -9.947  1.00  0.00    -0.206 F 
ATOM     76  C   UNL     1       1.712   5.615 -10.434  1.00  0.00     0.060 A 
BRANCH  76  77
ATOM     77  S   UNL     1       2.105   7.364 -10.654  1.00  0.00     0.124 S 
ATOM     78  O   UNL     1       1.834   7.551 -12.074  1.00  0.00    -0.237 OA
ATOM     79  O   UNL     1       1.172   8.007  -9.735  1.00  0.00    -0.237 OA
ATOM     80  O   UNL     1       3.510   7.443 -10.262  1.00  0.00    -0.744 OA
ENDBRANCH  76  77
ENDBRANCH  44  69
BRANCH  56  81
ATOM     81  C   UNL     1      -1.676  -1.841 -14.356  1.00  0.00     0.058 A 
ATOM     82  C   UNL     1      -0.799  -1.793 -15.450  1.00  0.00     0.135 A 
ATOM     83  C   UNL     1      -3.054  -1.893 -14.622  1.00  0.00     0.135 A 
ATOM     84  F   UNL     1       0.527  -1.736 -15.251  1.00  0.00    -0.206 F 
ATOM     85  C   UNL     1      -1.271  -1.785 -16.759  1.00  0.00     0.059 A 
ATOM     86  C   UNL     1      -3.547  -1.909 -15.923  1.00  0.00     0.059 A 
ATOM     87  F   UNL     1      -3.936  -1.950 -13.611  1.00  0.00    -0.206 F 
ATOM     88  C   UNL     1      -2.648  -1.846 -16.986  1.00  0.00     0.060 A 
BRANCH  88  89
ATOM     89  S   UNL     1      -3.249  -1.886 -18.689  1.00  0.00     0.124 S 
ATOM     90  O   UNL     1      -3.102  -0.489 -19.085  1.00  0.00    -0.237 OA
ATOM     91  O   UNL     1      -2.330  -2.825 -19.326  1.00  0.00    -0.237 OA
ATOM     92  O   UNL     1      -4.623  -2.360 -18.553  1.00  0.00    -0.744 OA
ENDBRANCH  88  89
ENDBRANCH  56  81
ENDBRANCH  30  31
ENDBRANCH  23  25
ENDBRANCH  22  23
ENDBRANCH  21  22
ENDBRANCH   1  21
TORSDOF 19
