REMARK SMILES O=C(C[C@H](Cc1ccc(Cl)cc1)C(=O)Nc1cc(Cl)ccc1Cl)OCCOC(=O)c1ccc(-c2c3nc(c(-c4c(F)cc(S(=O)(=O)[O-])cc4F)c4ccc([nH]4)c(-c4c(F)cc(S(=O)(=O)[O-])cc4F)c4nc(c(-c5c(F)cc(S(=O)(=O)[O-])cc5F)c5ccc2[nH]5)C=C4)C=C3)cc1
REMARK SMILES IDX 25 1 24 2 2 3 1 4 3 5 4 6 13 7 14 8 15 9 16 11 17 12 22 13
REMARK SMILES IDX 18 14 21 15 23 16 19 17 20 18 5 19 6 20 7 21 12 22 8 23
REMARK SMILES IDX 11 24 9 25 10 26 26 27 27 28 28 29 29 30 30 31 31 32 95 33
REMARK SMILES IDX 32 34 94 35 33 36 34 37 35 38 88 39 36 40 93 41 87 42 89 43
REMARK SMILES IDX 37 44 92 45 86 46 85 47 38 49 72 50 51 51 71 52 52 53 55 54
REMARK SMILES IDX 70 55 90 56 53 57 54 58 69 60 91 61 56 62 39 63 40 64 49 65
REMARK SMILES IDX 41 66 42 67 48 68 50 69 43 70 44 71 45 72 46 73 47 74 73 75
REMARK SMILES IDX 74 76 83 77 75 78 76 79 82 80 84 81 77 82 78 83 79 84 80 85
REMARK SMILES IDX 81 86 57 87 58 88 67 89 59 90 60 91 66 92 68 93 61 94 62 95
REMARK SMILES IDX 63 96 64 97 65 98
REMARK H PARENT 15 10 89 48 55 59
REMARK Flexibility Score: inf
ROOT
ATOM      1  C   UNL     1       4.768   2.343   3.654  1.00  0.00     0.274 C 
ENDROOT
BRANCH   1   2
ATOM      2  O   UNL     1       4.115   1.077   3.585  1.00  0.00    -0.462 OA
BRANCH   2   3
ATOM      3  C   UNL     1       3.722   0.579   2.397  1.00  0.00     0.306 C 
ATOM      4  O   UNL     1       3.226  -0.540   2.340  1.00  0.00    -0.252 OA
BRANCH   3   5
ATOM      5  C   UNL     1       3.957   1.437   1.175  1.00  0.00     0.136 C 
BRANCH   5   6
ATOM      6  C   UNL     1       2.712   2.123   0.548  1.00  0.00     0.094 C 
BRANCH   6   7
ATOM      7  C   UNL     1       3.319   3.401  -0.168  1.00  0.00     0.228 C 
ATOM      8  O   UNL     1       3.265   4.493   0.412  1.00  0.00    -0.274 OA
ATOM      9  N   UNL     1       4.171   3.313  -1.243  1.00  0.00    -0.324 N 
ATOM     10  H   UNL     1       4.695   4.113  -1.476  1.00  0.00     0.169 HD
BRANCH   9  11
ATOM     11  C   UNL     1       4.348   2.179  -2.024  1.00  0.00     0.061 A 
ATOM     12  C   UNL     1       3.024   1.093  -2.113  1.00  0.00     0.048 A 
ATOM     13  C   UNL     1       5.805   1.675  -2.510  1.00  0.00     0.064 A 
ATOM     14  C   UNL     1       3.187  -0.848  -2.695  1.00  0.00     0.043 A 
ATOM     15  C   UNL     1       6.076   0.018  -3.027  1.00  0.00     0.024 A 
ATOM     16  Cl  UNL     1       7.118   2.772  -2.197  1.00  0.00    -0.082 Cl
ATOM     17  Cl  UNL     1       2.132  -2.250  -2.954  1.00  0.00    -0.084 Cl
ATOM     18  C   UNL     1       4.897  -1.346  -3.093  1.00  0.00     0.022 A 
ENDBRANCH   9  11
ENDBRANCH   6   7
BRANCH   6  19
ATOM     19  C   UNL     1       1.414   1.283  -0.017  1.00  0.00     0.049 C 
BRANCH  19  20
ATOM     20  C   UNL     1       1.582  -0.069  -1.053  1.00  0.00    -0.047 A 
ATOM     21  C   UNL     1       1.115   0.346  -2.749  1.00  0.00     0.005 A 
ATOM     22  C   UNL     1       3.194  -0.433  -0.585  1.00  0.00     0.005 A 
ATOM     23  C   UNL     1       2.293   0.699  -4.013  1.00  0.00     0.021 A 
ATOM     24  C   UNL     1       4.494   0.029  -1.674  1.00  0.00     0.021 A 
ATOM     25  C   UNL     1       4.044   0.580  -3.595  1.00  0.00     0.041 A 
ATOM     26  Cl  UNL     1       4.412  -0.192  -5.297  1.00  0.00    -0.084 Cl
ENDBRANCH  19  20
ENDBRANCH   6  19
ENDBRANCH   5   6
ENDBRANCH   3   5
ENDBRANCH   2   3
ENDBRANCH   1   2
BRANCH   1  27
ATOM     27  C   UNL     1       6.298   2.249   3.394  1.00  0.00     0.275 C 
BRANCH  27  28
ATOM     28  O   UNL     1       6.792   1.680   2.114  1.00  0.00    -0.458 OA
BRANCH  28  29
ATOM     29  C   UNL     1       7.211   0.368   2.060  1.00  0.00     0.338 C 
ATOM     30  O   UNL     1       7.054  -0.416   2.984  1.00  0.00    -0.246 OA
BRANCH  29  31
ATOM     31  C   UNL     1       7.807  -0.071   0.701  1.00  0.00     0.060 A 
ATOM     32  C   UNL     1       7.520  -1.337   0.160  1.00  0.00     0.016 A 
ATOM     33  C   UNL     1       8.674   0.711  -0.076  1.00  0.00     0.016 A 
ATOM     34  C   UNL     1       7.938  -1.716  -1.182  1.00  0.00     0.010 A 
ATOM     35  C   UNL     1       9.110   0.326  -1.411  1.00  0.00     0.010 A 
ATOM     36  C   UNL     1       8.681  -0.848  -2.055  1.00  0.00    -0.014 A 
BRANCH  36  37
ATOM     37  C   UNL     1       8.783  -1.112  -3.710  1.00  0.00     0.031 A 
ATOM     38  C   UNL     1       9.863  -2.015  -4.098  1.00  0.00     0.074 A 
ATOM     39  C   UNL     1       8.286  -0.466  -4.869  1.00  0.00     0.049 A 
ATOM     40  N   UNL     1      10.139  -2.391  -5.305  1.00  0.00    -0.248 NA
ATOM     41  C   UNL     1      10.873  -2.273  -3.073  1.00  0.00     0.031 C 
ATOM     42  C   UNL     1       7.824   0.920  -4.966  1.00  0.00     0.029 A 
ATOM     43  N   UNL     1       7.882  -0.923  -6.164  1.00  0.00    -0.354 N 
ATOM     44  C   UNL     1      11.444  -2.767  -5.235  1.00  0.00     0.074 A 
ATOM     45  C   UNL     1      11.876  -2.628  -3.854  1.00  0.00     0.031 C 
ATOM     46  C   UNL     1       6.967   1.101  -5.990  1.00  0.00     0.029 A 
ATOM     47  C   UNL     1       6.915  -0.086  -6.824  1.00  0.00     0.049 A 
ATOM     48  H   UNL     1       8.239  -1.745  -6.571  1.00  0.00     0.167 HD
ATOM     49  C   UNL     1      12.225  -3.123  -6.263  1.00  0.00     0.037 A 
ATOM     50  C   UNL     1       6.080  -0.274  -7.916  1.00  0.00     0.037 A 
ATOM     51  C   UNL     1      11.840  -3.102  -7.643  1.00  0.00     0.049 A 
ATOM     52  C   UNL     1       6.796  -1.055  -8.979  1.00  0.00     0.074 A 
ATOM     53  C   UNL     1      12.595  -3.535  -8.712  1.00  0.00     0.029 A 
ATOM     54  N   UNL     1      10.652  -2.589  -8.162  1.00  0.00    -0.354 N 
ATOM     55  N   UNL     1       7.912  -1.716  -8.828  1.00  0.00    -0.248 NA
ATOM     56  C   UNL     1       6.340  -0.939 -10.377  1.00  0.00     0.031 C 
ATOM     57  C   UNL     1      11.895  -3.253  -9.881  1.00  0.00     0.029 A 
ATOM     58  C   UNL     1      10.661  -2.724  -9.545  1.00  0.00     0.049 A 
ATOM     59  H   UNL     1       9.922  -2.194  -7.632  1.00  0.00     0.167 HD
ATOM     60  C   UNL     1       8.365  -1.959 -10.100  1.00  0.00     0.074 A 
ATOM     61  C   UNL     1       7.324  -1.552 -11.021  1.00  0.00     0.031 C 
ATOM     62  C   UNL     1       9.597  -2.372 -10.452  1.00  0.00     0.037 A 
BRANCH  49  63
ATOM     63  C   UNL     1      13.576  -3.558  -5.849  1.00  0.00     0.058 A 
ATOM     64  C   UNL     1      13.722  -4.710  -5.057  1.00  0.00     0.135 A 
ATOM     65  C   UNL     1      14.699  -2.778  -6.138  1.00  0.00     0.135 A 
ATOM     66  F   UNL     1      12.645  -5.422  -4.684  1.00  0.00    -0.206 F 
ATOM     67  C   UNL     1      14.952  -5.073  -4.557  1.00  0.00     0.059 A 
ATOM     68  C   UNL     1      15.952  -3.157  -5.690  1.00  0.00     0.059 A 
ATOM     69  F   UNL     1      14.576  -1.633  -6.828  1.00  0.00    -0.206 F 
ATOM     70  C   UNL     1      16.064  -4.307  -4.906  1.00  0.00     0.060 A 
BRANCH  70  71
ATOM     71  S   UNL     1      17.672  -4.895  -4.368  1.00  0.00     0.124 S 
ATOM     72  O   UNL     1      17.598  -4.671  -2.928  1.00  0.00    -0.237 OA
ATOM     73  O   UNL     1      17.637  -6.290  -4.797  1.00  0.00    -0.237 OA
ATOM     74  O   UNL     1      18.604  -4.038  -5.093  1.00  0.00    -0.744 OA
ENDBRANCH  70  71
ENDBRANCH  49  63
BRANCH  50  75
ATOM     75  C   UNL     1       4.697   0.353  -8.334  1.00  0.00     0.058 A 
ATOM     76  C   UNL     1       3.689  -0.462  -8.950  1.00  0.00     0.135 A 
ATOM     77  C   UNL     1       4.296   1.692  -8.178  1.00  0.00     0.135 A 
ATOM     78  F   UNL     1       3.919  -1.772  -9.146  1.00  0.00    -0.206 F 
ATOM     79  C   UNL     1       2.451   0.023  -9.433  1.00  0.00     0.059 A 
ATOM     80  C   UNL     1       3.036   2.186  -8.592  1.00  0.00     0.059 A 
ATOM     81  F   UNL     1       5.123   2.598  -7.648  1.00  0.00    -0.206 F 
ATOM     82  C   UNL     1       2.130   1.360  -9.249  1.00  0.00     0.060 A 
BRANCH  82  83
ATOM     83  S   UNL     1       0.547   2.014  -9.866  1.00  0.00     0.124 S 
ATOM     84  O   UNL     1       0.760   2.021 -11.308  1.00  0.00    -0.237 OA
ATOM     85  O   UNL     1      -0.418   1.037  -9.371  1.00  0.00    -0.237 OA
ATOM     86  O   UNL     1       0.462   3.332  -9.240  1.00  0.00    -0.744 OA
ENDBRANCH  82  83
ENDBRANCH  50  75
BRANCH  62  87
ATOM     87  C   UNL     1       9.839  -2.517 -11.913  1.00  0.00     0.058 A 
ATOM     88  C   UNL     1       9.995  -1.414 -12.764  1.00  0.00     0.135 A 
ATOM     89  C   UNL     1       9.950  -3.806 -12.448  1.00  0.00     0.135 A 
ATOM     90  F   UNL     1       9.863  -0.163 -12.292  1.00  0.00    -0.206 F 
ATOM     91  C   UNL     1      10.253  -1.590 -14.114  1.00  0.00     0.059 A 
ATOM     92  C   UNL     1      10.250  -4.004 -13.782  1.00  0.00     0.059 A 
ATOM     93  F   UNL     1       9.793  -4.882 -11.660  1.00  0.00    -0.206 F 
ATOM     94  C   UNL     1      10.394  -2.890 -14.608  1.00  0.00     0.060 A 
BRANCH  94  95
ATOM     95  S   UNL     1      10.804  -3.109 -16.346  1.00  0.00     0.124 S 
ATOM     96  O   UNL     1       9.575  -2.667 -16.995  1.00  0.00    -0.237 OA
ATOM     97  O   UNL     1      11.958  -2.230 -16.501  1.00  0.00    -0.237 OA
ATOM     98  O   UNL     1      11.090  -4.537 -16.450  1.00  0.00    -0.744 OA
ENDBRANCH  94  95
ENDBRANCH  62  87
ENDBRANCH  36  37
ENDBRANCH  29  31
ENDBRANCH  28  29
ENDBRANCH  27  28
ENDBRANCH   1  27
TORSDOF 19
