REMARK SMILES C[C@@H](C(=O)OCCOC(=O)c1ccc(-c2c3nc(c(-c4c(F)cc(S(=O)(=O)[O-])cc4F)c4ccc([nH]4)c(-c4c(F)cc(S(=O)(=O)[O-])cc4F)c4nc(c(-c5c(F)cc(S(=O)(=O)[O-])cc5F)c5ccc2[nH]5)C=C4)C=C3)cc1)c1ccc(C[C@H]2CCC[C@@H]2O)cc1Br
REMARK SMILES IDX 6 1 5 2 3 3 4 4 2 5 1 6 77 7 78 8 89 9 79 10 88 11 90 12
REMARK SMILES IDX 80 13 81 14 82 15 83 16 86 17 84 18 85 19 87 20 7 22 8 23
REMARK SMILES IDX 9 24 10 25 11 26 12 27 76 28 13 29 75 30 14 31 15 32 16 33
REMARK SMILES IDX 69 34 17 35 74 36 68 37 70 38 18 39 73 40 67 41 66 42 19 44
REMARK SMILES IDX 53 45 32 46 52 47 33 48 36 49 51 50 71 51 34 52 35 53 50 55
REMARK SMILES IDX 72 56 37 57 20 58 21 59 30 60 22 61 23 62 29 63 31 64 24 65
REMARK SMILES IDX 25 66 26 67 27 68 28 69 54 70 55 71 64 72 56 73 57 74 63 75
REMARK SMILES IDX 65 76 58 77 59 78 60 79 61 80 62 81 38 82 39 83 48 84 40 85
REMARK SMILES IDX 41 86 47 87 49 88 42 89 43 90 44 91 45 92 46 93
REMARK H PARENT 87 21 70 43 36 54
REMARK Flexibility Score: inf
ROOT
ATOM      1  C   UNL     1       2.289   0.532   3.889  1.00  0.00     0.274 C 
ENDROOT
BRANCH   1   2
ATOM      2  O   UNL     1       2.037   0.168   2.517  1.00  0.00    -0.462 OA
BRANCH   2   3
ATOM      3  C   UNL     1       0.880  -0.513   2.274  1.00  0.00     0.313 C 
ATOM      4  O   UNL     1       0.058  -0.790   3.141  1.00  0.00    -0.252 OA
BRANCH   3   5
ATOM      5  C   UNL     1       0.799  -0.964   0.806  1.00  0.00     0.127 C 
ATOM      6  C   UNL     1       1.303   0.123  -0.150  1.00  0.00     0.025 C 
BRANCH   5   7
ATOM      7  C   UNL     1      -0.607  -1.459   0.469  1.00  0.00    -0.020 A 
ATOM      8  C   UNL     1      -1.590  -0.555   0.026  1.00  0.00     0.006 A 
ATOM      9  C   UNL     1      -1.007  -2.786   0.719  1.00  0.00     0.022 A 
ATOM     10  C   UNL     1      -2.933  -0.933  -0.061  1.00  0.00     0.004 A 
ATOM     11  C   UNL     1      -2.350  -3.160   0.625  1.00  0.00     0.019 A 
ATOM     12  Br  UNL     1       0.194  -4.142   1.300  1.00  0.00    -0.050 Br
ATOM     13  C   UNL     1      -3.333  -2.215   0.333  1.00  0.00    -0.047 A 
BRANCH  13  14
ATOM     14  C   UNL     1      -4.785  -2.532   0.637  1.00  0.00     0.041 C 
BRANCH  14  15
ATOM     15  C   UNL     1      -5.176  -2.313   2.119  1.00  0.00     0.022 C 
ATOM     16  C   UNL     1      -4.497  -3.210   3.171  1.00  0.00     0.007 C 
ATOM     17  C   UNL     1      -4.877  -0.886   2.570  1.00  0.00     0.117 C 
ATOM     18  C   UNL     1      -4.338  -2.331   4.404  1.00  0.00     0.003 C 
ATOM     19  C   UNL     1      -3.987  -0.987   3.805  1.00  0.00     0.032 C 
BRANCH  17  20
ATOM     20  O   UNL     1      -6.092  -0.233   2.858  1.00  0.00    -0.393 OA
ATOM     21  H   UNL     1      -6.569  -0.726   3.544  1.00  0.00     0.210 HD
ENDBRANCH  17  20
ENDBRANCH  14  15
ENDBRANCH  13  14
ENDBRANCH   5   7
ENDBRANCH   3   5
ENDBRANCH   2   3
ENDBRANCH   1   2
BRANCH   1  22
ATOM     22  C   UNL     1       1.899   1.985   4.167  1.00  0.00     0.275 C 
BRANCH  22  23
ATOM     23  O   UNL     1       0.472   2.119   4.336  1.00  0.00    -0.458 OA
BRANCH  23  24
ATOM     24  C   UNL     1      -0.146   3.026   3.541  1.00  0.00     0.338 C 
ATOM     25  O   UNL     1       0.372   3.733   2.694  1.00  0.00    -0.246 OA
BRANCH  24  26
ATOM     26  C   UNL     1      -1.608   2.975   3.761  1.00  0.00     0.060 A 
ATOM     27  C   UNL     1      -2.356   2.205   2.883  1.00  0.00     0.016 A 
ATOM     28  C   UNL     1      -2.264   3.760   4.721  1.00  0.00     0.016 A 
ATOM     29  C   UNL     1      -3.748   2.210   2.984  1.00  0.00     0.010 A 
ATOM     30  C   UNL     1      -3.675   3.708   4.848  1.00  0.00     0.010 A 
ATOM     31  C   UNL     1      -4.439   2.903   3.994  1.00  0.00    -0.014 A 
BRANCH  31  32
ATOM     32  C   UNL     1      -5.941   2.787   3.995  1.00  0.00     0.031 A 
ATOM     33  C   UNL     1      -6.707   3.438   2.873  1.00  0.00     0.074 A 
ATOM     34  C   UNL     1      -6.602   1.898   4.778  1.00  0.00     0.049 A 
ATOM     35  N   UNL     1      -7.957   3.283   2.515  1.00  0.00    -0.248 NA
ATOM     36  C   UNL     1      -5.952   4.378   2.028  1.00  0.00     0.031 C 
ATOM     37  C   UNL     1      -5.985   1.067   5.804  1.00  0.00     0.029 A 
ATOM     38  N   UNL     1      -7.901   1.407   4.699  1.00  0.00    -0.354 N 
ATOM     39  C   UNL     1      -8.160   4.162   1.462  1.00  0.00     0.074 A 
ATOM     40  C   UNL     1      -6.879   4.769   1.167  1.00  0.00     0.031 C 
ATOM     41  C   UNL     1      -6.809   0.043   6.092  1.00  0.00     0.029 A 
ATOM     42  C   UNL     1      -8.064   0.192   5.352  1.00  0.00     0.049 A 
ATOM     43  H   UNL     1      -8.630   1.873   4.230  1.00  0.00     0.167 HD
ATOM     44  C   UNL     1      -9.322   4.500   0.852  1.00  0.00     0.037 A 
ATOM     45  C   UNL     1      -9.077  -0.712   5.324  1.00  0.00     0.037 A 
ATOM     46  C   UNL     1     -10.610   3.940   1.163  1.00  0.00     0.049 A 
ATOM     47  C   UNL     1     -10.366  -0.344   4.619  1.00  0.00     0.074 A 
ATOM     48  C   UNL     1     -11.859   4.361   0.738  1.00  0.00     0.029 A 
ATOM     49  N   UNL     1     -10.816   2.836   1.970  1.00  0.00    -0.354 N 
ATOM     50  N   UNL     1     -10.600   0.615   3.756  1.00  0.00    -0.248 NA
ATOM     51  C   UNL     1     -11.562  -1.137   4.962  1.00  0.00     0.031 C 
ATOM     52  C   UNL     1     -12.826   3.530   1.319  1.00  0.00     0.029 A 
ATOM     53  C   UNL     1     -12.172   2.564   2.064  1.00  0.00     0.049 A 
ATOM     54  H   UNL     1     -10.105   2.319   2.413  1.00  0.00     0.167 HD
ATOM     55  C   UNL     1     -11.973   0.586   3.518  1.00  0.00     0.074 A 
ATOM     56  C   UNL     1     -12.506  -0.546   4.241  1.00  0.00     0.031 C 
ATOM     57  C   UNL     1     -12.726   1.461   2.807  1.00  0.00     0.037 A 
BRANCH  44  58
ATOM     58  C   UNL     1      -9.260   5.667  -0.085  1.00  0.00     0.058 A 
ATOM     59  C   UNL     1      -8.778   5.562  -1.396  1.00  0.00     0.135 A 
ATOM     60  C   UNL     1      -9.662   6.931   0.377  1.00  0.00     0.135 A 
ATOM     61  F   UNL     1      -8.350   4.381  -1.868  1.00  0.00    -0.206 F 
ATOM     62  C   UNL     1      -8.671   6.684  -2.212  1.00  0.00     0.059 A 
ATOM     63  C   UNL     1      -9.583   8.059  -0.427  1.00  0.00     0.059 A 
ATOM     64  F   UNL     1     -10.117   7.079   1.631  1.00  0.00    -0.206 F 
ATOM     65  C   UNL     1      -9.068   7.928  -1.714  1.00  0.00     0.060 A 
BRANCH  65  66
ATOM     66  S   UNL     1      -8.880   9.383  -2.764  1.00  0.00     0.124 S 
ATOM     67  O   UNL     1      -7.432   9.565  -2.750  1.00  0.00    -0.237 OA
ATOM     68  O   UNL     1      -9.451   8.931  -4.028  1.00  0.00    -0.237 OA
ATOM     69  O   UNL     1      -9.647  10.409  -2.064  1.00  0.00    -0.744 OA
ENDBRANCH  65  66
ENDBRANCH  44  58
BRANCH  45  70
ATOM     70  C   UNL     1      -8.999  -2.041   6.026  1.00  0.00     0.058 A 
ATOM     71  C   UNL     1      -9.230  -3.248   5.334  1.00  0.00     0.135 A 
ATOM     72  C   UNL     1      -8.794  -2.140   7.410  1.00  0.00     0.135 A 
ATOM     73  F   UNL     1      -9.480  -3.231   4.015  1.00  0.00    -0.206 F 
ATOM     74  C   UNL     1      -9.270  -4.484   5.985  1.00  0.00     0.059 A 
ATOM     75  C   UNL     1      -8.783  -3.365   8.075  1.00  0.00     0.059 A 
ATOM     76  F   UNL     1      -8.614  -1.033   8.147  1.00  0.00    -0.206 F 
ATOM     77  C   UNL     1      -9.040  -4.532   7.359  1.00  0.00     0.060 A 
BRANCH  77  78
ATOM     78  S   UNL     1      -9.042  -6.125   8.216  1.00  0.00     0.124 S 
ATOM     79  O   UNL     1     -10.460  -6.306   8.502  1.00  0.00    -0.237 OA
ATOM     80  O   UNL     1      -8.474  -7.027   7.218  1.00  0.00    -0.237 OA
ATOM     81  O   UNL     1      -8.190  -5.874   9.375  1.00  0.00    -0.744 OA
ENDBRANCH  77  78
ENDBRANCH  45  70
BRANCH  57  82
ATOM     82  C   UNL     1     -14.224   1.298   2.837  1.00  0.00     0.058 A 
ATOM     83  C   UNL     1     -14.960   1.598   3.996  1.00  0.00     0.135 A 
ATOM     84  C   UNL     1     -14.943   0.916   1.693  1.00  0.00     0.135 A 
ATOM     85  F   UNL     1     -14.326   1.974   5.119  1.00  0.00    -0.206 F 
ATOM     86  C   UNL     1     -16.349   1.508   4.027  1.00  0.00     0.059 A 
ATOM     87  C   UNL     1     -16.335   0.839   1.695  1.00  0.00     0.059 A 
ATOM     88  F   UNL     1     -14.296   0.631   0.552  1.00  0.00    -0.206 F 
ATOM     89  C   UNL     1     -17.029   1.128   2.870  1.00  0.00     0.060 A 
BRANCH  89  90
ATOM     90  S   UNL     1     -18.834   1.052   2.913  1.00  0.00     0.124 S 
ATOM     91  O   UNL     1     -19.061  -0.166   3.683  1.00  0.00    -0.237 OA
ATOM     92  O   UNL     1     -19.186   2.300   3.584  1.00  0.00    -0.237 OA
ATOM     93  O   UNL     1     -19.205   0.981   1.503  1.00  0.00    -0.744 OA
ENDBRANCH  89  90
ENDBRANCH  57  82
ENDBRANCH  31  32
ENDBRANCH  24  26
ENDBRANCH  23  24
ENDBRANCH  22  23
ENDBRANCH   1  22
TORSDOF 18
