REMARK SMILES C[C@H](C(=O)OCCOC(=O)c1ccc(-c2c3nc(c(-c4c(F)cc(S(=O)(=O)[O-])cc4F)c4ccc([nH]4)c(-c4c(F)cc(S(=O)(=O)[O-])cc4F)c4nc(c(-c5c(F)cc(S(=O)(=O)[O-])cc5F)c5ccc2[nH]5)C=C4)C=C3)cc1)[C@H](C)[N@@H+]1CC[C@H]([NH+]2CCCCC2)C1
REMARK SMILES IDX 6 1 5 2 3 3 4 4 2 5 1 6 77 7 78 8 79 9 80 10 89 11 81 13
REMARK SMILES IDX 82 14 83 15 84 16 88 17 85 19 87 20 86 21 7 22 8 23 9 24
REMARK SMILES IDX 10 25 11 26 12 27 76 28 13 29 75 30 14 31 15 32 16 33 69 34
REMARK SMILES IDX 17 35 74 36 68 37 70 38 18 39 73 40 67 41 66 42 19 44 53 45
REMARK SMILES IDX 32 46 52 47 33 48 36 49 51 50 71 51 34 52 35 53 50 55 72 56
REMARK SMILES IDX 37 57 20 58 21 59 30 60 22 61 23 62 29 63 31 64 24 65 25 66
REMARK SMILES IDX 26 67 27 68 28 69 54 70 55 71 64 72 56 73 57 74 63 75 65 76
REMARK SMILES IDX 58 77 59 78 60 79 61 80 62 81 38 82 39 83 48 84 40 85 41 86
REMARK SMILES IDX 47 87 49 88 42 89 43 90 44 91 45 92 46 93
REMARK H PARENT 79 12 83 18 70 43 36 54
REMARK Flexibility Score: inf
ROOT
ATOM      1  C   UNL     1      -2.867  -1.326  -4.389  1.00  0.00     0.274 C 
ENDROOT
BRANCH   1   2
ATOM      2  O   UNL     1      -1.840  -1.278  -3.373  1.00  0.00    -0.462 OA
BRANCH   2   3
ATOM      3  C   UNL     1      -2.008  -0.309  -2.429  1.00  0.00     0.314 C 
ATOM      4  O   UNL     1      -2.972   0.450  -2.395  1.00  0.00    -0.252 OA
BRANCH   3   5
ATOM      5  C   UNL     1      -0.789  -0.147  -1.525  1.00  0.00     0.154 C 
ATOM      6  C   UNL     1      -1.004   1.097  -0.639  1.00  0.00     0.026 C 
BRANCH   5   7
ATOM      7  C   UNL     1      -0.280  -1.332  -0.616  1.00  0.00     0.195 C 
ATOM      8  C   UNL     1       1.229  -1.476  -0.924  1.00  0.00     0.076 C 
BRANCH   7   9
ATOM      9  N   UNL     1      -0.977  -2.639  -0.706  1.00  0.00    -0.327 N 
ATOM     10  C   UNL     1      -2.378  -2.535  -0.271  1.00  0.00     0.269 C 
ATOM     11  C   UNL     1      -0.422  -3.704   0.186  1.00  0.00     0.328 C 
ATOM     12  H   UNL     1      -0.861  -2.886  -1.689  1.00  0.00     0.348 HD
ATOM     13  C   UNL     1      -2.397  -2.804   1.218  1.00  0.00     0.132 C 
ATOM     14  C   UNL     1      -1.431  -3.970   1.340  1.00  0.00     0.245 C 
BRANCH  14  15
ATOM     15  N   UNL     1      -0.921  -4.268   2.695  1.00  0.00    -0.328 N 
ATOM     16  C   UNL     1       0.043  -3.290   3.218  1.00  0.00     0.262 C 
ATOM     17  C   UNL     1      -2.038  -4.449   3.648  1.00  0.00     0.262 C 
ATOM     18  H   UNL     1      -0.401  -5.140   2.597  1.00  0.00     0.348 HD
ATOM     19  C   UNL     1       0.580  -3.707   4.592  1.00  0.00     0.062 C 
ATOM     20  C   UNL     1      -1.567  -4.887   5.033  1.00  0.00     0.062 C 
ATOM     21  C   UNL     1      -0.548  -3.907   5.595  1.00  0.00     0.012 C 
ENDBRANCH  14  15
ENDBRANCH   7   9
ENDBRANCH   5   7
ENDBRANCH   3   5
ENDBRANCH   2   3
ENDBRANCH   1   2
BRANCH   1  22
ATOM     22  C   UNL     1      -4.014  -2.271  -4.022  1.00  0.00     0.275 C 
BRANCH  22  23
ATOM     23  O   UNL     1      -4.656  -1.822  -2.821  1.00  0.00    -0.458 OA
BRANCH  23  24
ATOM     24  C   UNL     1      -5.509  -2.700  -2.245  1.00  0.00     0.338 C 
ATOM     25  O   UNL     1      -5.882  -3.758  -2.737  1.00  0.00    -0.246 OA
BRANCH  24  26
ATOM     26  C   UNL     1      -5.840  -2.264  -0.858  1.00  0.00     0.060 A 
ATOM     27  C   UNL     1      -5.316  -1.089  -0.311  1.00  0.00     0.016 A 
ATOM     28  C   UNL     1      -6.610  -3.100  -0.044  1.00  0.00     0.016 A 
ATOM     29  C   UNL     1      -5.458  -0.815   1.051  1.00  0.00     0.010 A 
ATOM     30  C   UNL     1      -6.852  -2.759   1.294  1.00  0.00     0.010 A 
ATOM     31  C   UNL     1      -6.264  -1.620   1.869  1.00  0.00    -0.014 A 
BRANCH  31  32
ATOM     32  C   UNL     1      -6.551  -1.237   3.284  1.00  0.00     0.031 A 
ATOM     33  C   UNL     1      -6.306  -2.191   4.429  1.00  0.00     0.074 A 
ATOM     34  C   UNL     1      -7.088  -0.027   3.549  1.00  0.00     0.049 A 
ATOM     35  N   UNL     1      -6.661  -2.082   5.686  1.00  0.00    -0.248 NA
ATOM     36  C   UNL     1      -5.563  -3.424   4.129  1.00  0.00     0.031 C 
ATOM     37  C   UNL     1      -7.361   1.018   2.559  1.00  0.00     0.029 A 
ATOM     38  N   UNL     1      -7.522   0.524   4.731  1.00  0.00    -0.354 N 
ATOM     39  C   UNL     1      -6.203  -3.232   6.320  1.00  0.00     0.074 A 
ATOM     40  C   UNL     1      -5.551  -4.035   5.308  1.00  0.00     0.031 C 
ATOM     41  C   UNL     1      -7.902   2.079   3.170  1.00  0.00     0.029 A 
ATOM     42  C   UNL     1      -8.113   1.756   4.575  1.00  0.00     0.049 A 
ATOM     43  H   UNL     1      -7.421   0.080   5.604  1.00  0.00     0.167 HD
ATOM     44  C   UNL     1      -6.316  -3.587   7.623  1.00  0.00     0.037 A 
ATOM     45  C   UNL     1      -8.815   2.521   5.432  1.00  0.00     0.037 A 
ATOM     46  C   UNL     1      -6.971  -2.798   8.635  1.00  0.00     0.049 A 
ATOM     47  C   UNL     1      -9.048   2.044   6.832  1.00  0.00     0.074 A 
ATOM     48  C   UNL     1      -7.106  -3.071   9.987  1.00  0.00     0.029 A 
ATOM     49  N   UNL     1      -7.618  -1.594   8.408  1.00  0.00    -0.354 N 
ATOM     50  N   UNL     1      -8.614   0.952   7.410  1.00  0.00    -0.248 NA
ATOM     51  C   UNL     1      -9.886   2.893   7.689  1.00  0.00     0.031 C 
ATOM     52  C   UNL     1      -7.876  -2.056  10.567  1.00  0.00     0.029 A 
ATOM     53  C   UNL     1      -8.186  -1.131   9.585  1.00  0.00     0.049 A 
ATOM     54  H   UNL     1      -7.666  -1.135   7.538  1.00  0.00     0.167 HD
ATOM     55  C   UNL     1      -9.118   0.985   8.705  1.00  0.00     0.074 A 
ATOM     56  C   UNL     1      -9.881   2.211   8.827  1.00  0.00     0.031 C 
ATOM     57  C   UNL     1      -8.957   0.080   9.700  1.00  0.00     0.037 A 
BRANCH  44  58
ATOM     58  C   UNL     1      -5.738  -4.910   8.043  1.00  0.00     0.058 A 
ATOM     59  C   UNL     1      -4.362  -5.075   8.262  1.00  0.00     0.135 A 
ATOM     60  C   UNL     1      -6.581  -6.003   8.304  1.00  0.00     0.135 A 
ATOM     61  F   UNL     1      -3.514  -4.064   8.018  1.00  0.00    -0.206 F 
ATOM     62  C   UNL     1      -3.839  -6.283   8.714  1.00  0.00     0.059 A 
ATOM     63  C   UNL     1      -6.082  -7.214   8.772  1.00  0.00     0.059 A 
ATOM     64  F   UNL     1      -7.905  -5.894   8.111  1.00  0.00    -0.206 F 
ATOM     65  C   UNL     1      -4.707  -7.347   8.966  1.00  0.00     0.060 A 
BRANCH  65  66
ATOM     66  S   UNL     1      -4.019  -8.903   9.572  1.00  0.00     0.124 S 
ATOM     67  O   UNL     1      -3.414  -9.444   8.359  1.00  0.00    -0.237 OA
ATOM     68  O   UNL     1      -3.085  -8.455  10.600  1.00  0.00    -0.237 OA
ATOM     69  O   UNL     1      -5.189  -9.623  10.065  1.00  0.00    -0.744 OA
ENDBRANCH  65  66
ENDBRANCH  44  58
BRANCH  45  70
ATOM     70  C   UNL     1      -9.411   3.791   4.945  1.00  0.00     0.058 A 
ATOM     71  C   UNL     1      -8.891   5.031   5.338  1.00  0.00     0.135 A 
ATOM     72  C   UNL     1     -10.476   3.783   4.029  1.00  0.00     0.135 A 
ATOM     73  F   UNL     1      -7.882   5.086   6.220  1.00  0.00    -0.206 F 
ATOM     74  C   UNL     1      -9.399   6.222   4.832  1.00  0.00     0.059 A 
ATOM     75  C   UNL     1     -10.983   4.958   3.489  1.00  0.00     0.059 A 
ATOM     76  F   UNL     1     -10.998   2.618   3.615  1.00  0.00    -0.206 F 
ATOM     77  C   UNL     1     -10.439   6.175   3.900  1.00  0.00     0.060 A 
BRANCH  77  78
ATOM     78  S   UNL     1     -11.031   7.718   3.174  1.00  0.00     0.124 S 
ATOM     79  O   UNL     1     -11.888   8.230   4.236  1.00  0.00    -0.237 OA
ATOM     80  O   UNL     1      -9.789   8.450   2.946  1.00  0.00    -0.237 OA
ATOM     81  O   UNL     1     -11.716   7.274   1.964  1.00  0.00    -0.744 OA
ENDBRANCH  77  78
ENDBRANCH  45  70
BRANCH  57  82
ATOM     82  C   UNL     1      -9.604   0.391  11.018  1.00  0.00     0.058 A 
ATOM     83  C   UNL     1     -10.988   0.256  11.206  1.00  0.00     0.135 A 
ATOM     84  C   UNL     1      -8.831   0.816  12.110  1.00  0.00     0.135 A 
ATOM     85  F   UNL     1     -11.772  -0.136  10.189  1.00  0.00    -0.206 F 
ATOM     86  C   UNL     1     -11.588   0.554  12.425  1.00  0.00     0.059 A 
ATOM     87  C   UNL     1      -9.406   1.099  13.344  1.00  0.00     0.059 A 
ATOM     88  F   UNL     1      -7.501   0.955  11.983  1.00  0.00    -0.206 F 
ATOM     89  C   UNL     1     -10.788   0.980  13.488  1.00  0.00     0.060 A 
BRANCH  89  90
ATOM     90  S   UNL     1     -11.571   1.354  15.071  1.00  0.00     0.124 S 
ATOM     91  O   UNL     1     -12.144   2.670  14.810  1.00  0.00    -0.237 OA
ATOM     92  O   UNL     1     -12.530   0.263  15.214  1.00  0.00    -0.237 OA
ATOM     93  O   UNL     1     -10.457   1.328  16.013  1.00  0.00    -0.744 OA
ENDBRANCH  89  90
ENDBRANCH  57  82
ENDBRANCH  31  32
ENDBRANCH  24  26
ENDBRANCH  23  24
ENDBRANCH  22  23
ENDBRANCH   1  22
TORSDOF 17
