REMARK SMILES COc1ccc(-n2c(SCC(=O)OCCOC(=O)c3ccc(-c4c5nc(c(-c6c(F)cc(S(=O)(=O)[O-])cc6F)c6ccc([nH]6)c(-c6c(F)cc(S(=O)(=O)[O-])cc6F)c6nc(c(-c7c(F)cc(S(=O)(=O)[O-])cc7F)c7ccc4[nH]7)C=C6)C=C5)cc3)nc3sc4c(c3c2=O)CC[N@H+](C)C4)cc1
REMARK SMILES IDX 14 1 13 2 11 3 12 4 10 5 9 6 8 7 7 8 91 9 85 10 90 11 92 12
REMARK SMILES IDX 86 13 89 14 87 15 88 16 93 17 97 18 94 19 95 20 96 21 6 23
REMARK SMILES IDX 3 24 4 25 99 26 5 27 98 28 2 29 1 30 15 31 16 32 17 33 18 34
REMARK SMILES IDX 19 35 20 36 84 37 21 38 83 39 22 40 23 41 24 42 77 43 25 44
REMARK SMILES IDX 82 45 76 46 78 47 26 48 81 49 75 50 74 51 27 53 61 54 40 55
REMARK SMILES IDX 60 56 41 57 44 58 59 59 79 60 42 61 43 62 58 64 80 65 45 66
REMARK SMILES IDX 28 67 29 68 38 69 30 70 31 71 37 72 39 73 32 74 33 75 34 76
REMARK SMILES IDX 35 77 36 78 62 79 63 80 72 81 64 82 65 83 71 84 73 85 66 86
REMARK SMILES IDX 67 87 68 88 69 89 70 90 46 91 47 92 56 93 48 94 49 95 55 96
REMARK SMILES IDX 57 97 50 98 51 99 52 100 53 101 54 102
REMARK H PARENT 95 22 78 52 44 63
REMARK Flexibility Score: inf
ROOT
ATOM      1  C   UNL     1       5.152   1.182   3.513  1.00  0.00     0.274 C 
ENDROOT
BRANCH   1   2
ATOM      2  O   UNL     1       5.355   2.625   3.420  1.00  0.00    -0.461 OA
BRANCH   2   3
ATOM      3  C   UNL     1       5.646   3.121   2.186  1.00  0.00     0.316 C 
ATOM      4  O   UNL     1       5.968   2.413   1.231  1.00  0.00    -0.251 OA
BRANCH   3   5
ATOM      5  C   UNL     1       5.271   4.582   1.972  1.00  0.00     0.200 C 
BRANCH   5   6
ATOM      6  S   UNL     1       5.116   5.757   3.287  1.00  0.00    -0.076 SA
BRANCH   6   7
ATOM      7  C   UNL     1       4.022   5.478   4.627  1.00  0.00     0.177 A 
ATOM      8  N   UNL     1       2.743   4.891   4.607  1.00  0.00    -0.255 N 
ATOM      9  C   UNL     1       2.171   4.564   5.845  1.00  0.00     0.267 A 
ATOM     10  N   UNL     1       4.520   6.055   5.700  1.00  0.00    -0.212 NA
ATOM     11  C   UNL     1       2.640   5.286   6.973  1.00  0.00     0.081 A 
ATOM     12  O   UNL     1       1.359   3.672   6.040  1.00  0.00    -0.268 OA
ATOM     13  C   UNL     1       3.758   6.043   6.825  1.00  0.00     0.132 A 
ATOM     14  C   UNL     1       2.100   5.272   8.277  1.00  0.00    -0.008 A 
ATOM     15  S   UNL     1       4.035   6.953   8.258  1.00  0.00    -0.114 S 
ATOM     16  C   UNL     1       2.692   6.236   9.060  1.00  0.00     0.065 A 
ATOM     17  C   UNL     1       0.968   4.420   8.765  1.00  0.00     0.099 C 
ATOM     18  C   UNL     1       2.216   6.570  10.458  1.00  0.00     0.310 C 
ATOM     19  C   UNL     1       0.791   4.566  10.283  1.00  0.00     0.267 C 
ATOM     20  N   UNL     1       0.882   5.956  10.758  1.00  0.00    -0.333 N 
ATOM     21  C   UNL     1      -0.200   6.757  10.183  1.00  0.00     0.333 C 
ATOM     22  H   UNL     1       0.784   5.942  11.774  1.00  0.00     0.348 HD
BRANCH   8  23
ATOM     23  C   UNL     1       1.906   4.479   3.514  1.00  0.00     0.052 A 
ATOM     24  C   UNL     1      -0.287   2.259   1.433  1.00  0.00     0.119 A 
ATOM     25  C   UNL     1      -1.073   3.364   2.606  1.00  0.00     0.048 A 
ATOM     26  C   UNL     1       1.444   2.307   1.300  1.00  0.00     0.048 A 
ATOM     27  C   UNL     1       0.117   4.553   3.747  1.00  0.00     0.030 A 
ATOM     28  C   UNL     1       2.467   3.387   2.281  1.00  0.00     0.030 A 
BRANCH  24  29
ATOM     29  O   UNL     1      -1.063   1.363   0.758  1.00  0.00    -0.497 OA
ATOM     30  C   UNL     1      -0.309   0.310   0.159  1.00  0.00     0.278 C 
ENDBRANCH  24  29
ENDBRANCH   8  23
ENDBRANCH   6   7
ENDBRANCH   5   6
ENDBRANCH   3   5
ENDBRANCH   2   3
ENDBRANCH   1   2
BRANCH   1  31
ATOM     31  C   UNL     1       3.828   0.899   4.248  1.00  0.00     0.275 C 
BRANCH  31  32
ATOM     32  O   UNL     1       2.731   1.275   3.379  1.00  0.00    -0.458 OA
BRANCH  32  33
ATOM     33  C   UNL     1       1.543   1.561   3.991  1.00  0.00     0.338 C 
ATOM     34  O   UNL     1       1.272   0.995   5.046  1.00  0.00    -0.246 OA
BRANCH  33  35
ATOM     35  C   UNL     1       0.572   2.737   3.372  1.00  0.00     0.060 A 
ATOM     36  C   UNL     1       0.482   4.190   1.940  1.00  0.00     0.016 A 
ATOM     37  C   UNL     1      -0.735   2.788   4.624  1.00  0.00     0.016 A 
ATOM     38  C   UNL     1      -0.829   5.433   2.030  1.00  0.00     0.010 A 
ATOM     39  C   UNL     1      -1.925   4.074   4.582  1.00  0.00     0.010 A 
ATOM     40  C   UNL     1      -1.981   5.358   3.350  1.00  0.00    -0.014 A 
BRANCH  40  41
ATOM     41  C   UNL     1      -3.123   6.346   3.426  1.00  0.00     0.031 A 
ATOM     42  C   UNL     1      -4.326   5.716   4.072  1.00  0.00     0.074 A 
ATOM     43  C   UNL     1      -3.039   7.677   3.709  1.00  0.00     0.049 A 
ATOM     44  N   UNL     1      -4.477   5.705   5.365  1.00  0.00    -0.248 NA
ATOM     45  C   UNL     1      -5.190   4.764   3.375  1.00  0.00     0.031 C 
ATOM     46  C   UNL     1      -1.995   8.267   4.559  1.00  0.00     0.029 A 
ATOM     47  N   UNL     1      -3.986   8.701   3.598  1.00  0.00    -0.354 N 
ATOM     48  C   UNL     1      -5.346   4.670   5.674  1.00  0.00     0.074 A 
ATOM     49  C   UNL     1      -5.805   4.153   4.402  1.00  0.00     0.031 C 
ATOM     50  C   UNL     1      -2.435   9.455   5.029  1.00  0.00     0.029 A 
ATOM     51  C   UNL     1      -3.726   9.795   4.423  1.00  0.00     0.049 A 
ATOM     52  H   UNL     1      -4.763   8.653   2.994  1.00  0.00     0.167 HD
ATOM     53  C   UNL     1      -5.570   4.253   6.954  1.00  0.00     0.037 A 
ATOM     54  C   UNL     1      -4.602  10.705   4.944  1.00  0.00     0.037 A 
ATOM     55  C   UNL     1      -4.869   4.925   8.036  1.00  0.00     0.049 A 
ATOM     56  C   UNL     1      -5.050  10.049   6.213  1.00  0.00     0.074 A 
ATOM     57  C   UNL     1      -4.431   4.638   9.317  1.00  0.00     0.029 A 
ATOM     58  N   UNL     1      -4.490   6.226   7.837  1.00  0.00    -0.354 N 
ATOM     59  N   UNL     1      -4.488  10.133   7.383  1.00  0.00    -0.248 NA
ATOM     60  C   UNL     1      -6.139   9.056   6.111  1.00  0.00     0.031 C 
ATOM     61  C   UNL     1      -4.020   5.877   9.924  1.00  0.00     0.029 A 
ATOM     62  C   UNL     1      -4.266   6.891   9.015  1.00  0.00     0.049 A 
ATOM     63  H   UNL     1      -4.390   6.637   6.949  1.00  0.00     0.167 HD
ATOM     64  C   UNL     1      -4.946   9.005   8.045  1.00  0.00     0.074 A 
ATOM     65  C   UNL     1      -6.082   8.494   7.311  1.00  0.00     0.031 C 
ATOM     66  C   UNL     1      -4.178   8.326   8.935  1.00  0.00     0.037 A 
BRANCH  53  67
ATOM     67  C   UNL     1      -6.666   3.303   7.287  1.00  0.00     0.058 A 
ATOM     68  C   UNL     1      -7.871   3.853   7.758  1.00  0.00     0.135 A 
ATOM     69  C   UNL     1      -6.546   1.908   7.287  1.00  0.00     0.135 A 
ATOM     70  F   UNL     1      -8.040   5.186   7.764  1.00  0.00    -0.206 F 
ATOM     71  C   UNL     1      -8.904   3.062   8.245  1.00  0.00     0.059 A 
ATOM     72  C   UNL     1      -7.576   1.089   7.766  1.00  0.00     0.059 A 
ATOM     73  F   UNL     1      -5.421   1.325   6.844  1.00  0.00    -0.206 F 
ATOM     74  C   UNL     1      -8.744   1.678   8.259  1.00  0.00     0.060 A 
BRANCH  74  75
ATOM     75  S   UNL     1     -10.085   0.680   8.949  1.00  0.00     0.124 S 
ATOM     76  O   UNL     1     -10.111   1.125  10.339  1.00  0.00    -0.237 OA
ATOM     77  O   UNL     1     -11.222   1.089   8.130  1.00  0.00    -0.237 OA
ATOM     78  O   UNL     1      -9.631  -0.692   8.740  1.00  0.00    -0.744 OA
ENDBRANCH  74  75
ENDBRANCH  53  67
BRANCH  54  79
ATOM     79  C   UNL     1      -5.602  11.481   4.148  1.00  0.00     0.058 A 
ATOM     80  C   UNL     1      -5.200  12.130   2.970  1.00  0.00     0.135 A 
ATOM     81  C   UNL     1      -6.939  11.702   4.542  1.00  0.00     0.135 A 
ATOM     82  F   UNL     1      -3.905  12.146   2.615  1.00  0.00    -0.206 F 
ATOM     83  C   UNL     1      -6.108  12.782   2.136  1.00  0.00     0.059 A 
ATOM     84  C   UNL     1      -7.875  12.310   3.711  1.00  0.00     0.059 A 
ATOM     85  F   UNL     1      -7.384  11.321   5.747  1.00  0.00    -0.206 F 
ATOM     86  C   UNL     1      -7.457  12.804   2.484  1.00  0.00     0.060 A 
BRANCH  86  87
ATOM     87  S   UNL     1      -8.663  13.361   1.264  1.00  0.00     0.124 S 
ATOM     88  O   UNL     1      -8.393  14.793   1.197  1.00  0.00    -0.237 OA
ATOM     89  O   UNL     1      -8.274  12.584   0.090  1.00  0.00    -0.237 OA
ATOM     90  O   UNL     1      -9.943  12.986   1.856  1.00  0.00    -0.744 OA
ENDBRANCH  86  87
ENDBRANCH  54  79
BRANCH  66  91
ATOM     91  C   UNL     1      -3.128   9.132   9.581  1.00  0.00     0.058 A 
ATOM     92  C   UNL     1      -3.425   9.878  10.726  1.00  0.00     0.135 A 
ATOM     93  C   UNL     1      -1.841   9.222   9.044  1.00  0.00     0.135 A 
ATOM     94  F   UNL     1      -4.672   9.887  11.224  1.00  0.00    -0.206 F 
ATOM     95  C   UNL     1      -2.440  10.594  11.396  1.00  0.00     0.059 A 
ATOM     96  C   UNL     1      -0.841   9.939   9.691  1.00  0.00     0.059 A 
ATOM     97  F   UNL     1      -1.520   8.540   7.932  1.00  0.00    -0.206 F 
ATOM     98  C   UNL     1      -1.139  10.578  10.895  1.00  0.00     0.060 A 
BRANCH  98  99
ATOM     99  S   UNL     1       0.219  11.198  11.910  1.00  0.00     0.124 S 
ATOM    100  O   UNL     1       0.432  12.530  11.358  1.00  0.00    -0.237 OA
ATOM    101  O   UNL     1      -0.332  11.153  13.262  1.00  0.00    -0.237 OA
ATOM    102  O   UNL     1       1.280  10.228  11.649  1.00  0.00    -0.744 OA
ENDBRANCH  98  99
ENDBRANCH  66  91
ENDBRANCH  40  41
ENDBRANCH  33  35
ENDBRANCH  32  33
ENDBRANCH  31  32
ENDBRANCH   1  31
TORSDOF 18
