REMARK SMILES O=C(OCCOC(=O)c1ccc(-c2c3nc(c(-c4c(F)cc(S(=O)(=O)[O-])cc4F)c4ccc([nH]4)c(-c4c(F)cc(S(=O)(=O)[O-])cc4F)c4nc(c(-c5c(F)cc(S(=O)(=O)[O-])cc5F)c5ccc2[nH]5)C=C4)C=C3)cc1)c1ccc(N/C=C\C(=O)c2ccco2)cc1
REMARK SMILES IDX 4 1 3 2 2 3 1 4 75 5 76 6 90 7 77 8 89 9 78 10 79 11 80 13
REMARK SMILES IDX 81 14 82 15 83 16 84 17 85 18 88 19 86 20 87 21 5 22 6 23
REMARK SMILES IDX 7 24 8 25 9 26 10 27 74 28 11 29 73 30 12 31 13 32 14 33
REMARK SMILES IDX 67 34 15 35 72 36 66 37 68 38 16 39 71 40 65 41 64 42 17 44
REMARK SMILES IDX 51 45 30 46 50 47 31 48 34 49 49 50 69 51 32 52 33 53 48 55
REMARK SMILES IDX 70 56 35 57 18 58 19 59 28 60 20 61 21 62 27 63 29 64 22 65
REMARK SMILES IDX 23 66 24 67 25 68 26 69 52 70 53 71 62 72 54 73 55 74 61 75
REMARK SMILES IDX 63 76 56 77 57 78 58 79 59 80 60 81 36 82 37 83 46 84 38 85
REMARK SMILES IDX 39 86 45 87 47 88 40 89 41 90 42 91 43 92 44 93
REMARK H PARENT 79 12 68 43 34 54
REMARK Flexibility Score: inf
ROOT
ATOM      1  C   UNL     1       4.168   0.217  -1.566  1.00  0.00     0.275 C 
ENDROOT
BRANCH   1   2
ATOM      2  O   UNL     1       3.103  -0.560  -0.990  1.00  0.00    -0.458 OA
BRANCH   2   3
ATOM      3  C   UNL     1       3.075  -1.203   0.205  1.00  0.00     0.338 C 
ATOM      4  O   UNL     1       2.281  -2.126   0.371  1.00  0.00    -0.246 OA
BRANCH   3   5
ATOM      5  C   UNL     1       3.833  -0.709   1.394  1.00  0.00     0.060 A 
ATOM      6  C   UNL     1       5.128  -0.190   1.376  1.00  0.00     0.018 A 
ATOM      7  C   UNL     1       3.176  -0.780   2.630  1.00  0.00     0.018 A 
ATOM      8  C   UNL     1       5.686   0.393   2.521  1.00  0.00     0.027 A 
ATOM      9  C   UNL     1       3.759  -0.238   3.780  1.00  0.00     0.027 A 
ATOM     10  C   UNL     1       4.997   0.409   3.731  1.00  0.00     0.038 A 
BRANCH  10  11
ATOM     11  N   UNL     1       5.487   1.027   4.888  1.00  0.00    -0.362 N 
ATOM     12  H   UNL     1       4.907   0.966   5.681  1.00  0.00     0.166 HD
BRANCH  11  13
ATOM     13  C   UNL     1       6.663   1.703   5.066  1.00  0.00     0.087 C 
ATOM     14  C   UNL     1       7.430   1.815   6.160  1.00  0.00     0.074 C 
BRANCH  14  15
ATOM     15  C   UNL     1       7.267   1.119   7.473  1.00  0.00     0.222 C 
ATOM     16  O   UNL     1       8.072   1.392   8.364  1.00  0.00    -0.286 OA
BRANCH  15  17
ATOM     17  C   UNL     1       6.212   0.148   7.615  1.00  0.00     0.173 A 
ATOM     18  C   UNL     1       6.062  -1.142   7.136  1.00  0.00     0.054 A 
ATOM     19  O   UNL     1       5.051   0.556   8.202  1.00  0.00    -0.461 OA
ATOM     20  C   UNL     1       4.737  -1.536   7.447  1.00  0.00     0.043 A 
ATOM     21  C   UNL     1       4.173  -0.471   8.106  1.00  0.00     0.196 A 
ENDBRANCH  15  17
ENDBRANCH  14  15
ENDBRANCH  11  13
ENDBRANCH  10  11
ENDBRANCH   3   5
ENDBRANCH   2   3
ENDBRANCH   1   2
BRANCH   1  22
ATOM     22  C   UNL     1       4.067   1.727  -1.329  1.00  0.00     0.275 C 
BRANCH  22  23
ATOM     23  O   UNL     1       3.698   2.070   0.016  1.00  0.00    -0.458 OA
BRANCH  23  24
ATOM     24  C   UNL     1       2.367   2.270   0.202  1.00  0.00     0.338 C 
ATOM     25  O   UNL     1       1.514   2.254  -0.672  1.00  0.00    -0.246 OA
BRANCH  24  26
ATOM     26  C   UNL     1       2.038   2.408   1.643  1.00  0.00     0.060 A 
ATOM     27  C   UNL     1       0.799   1.917   2.072  1.00  0.00     0.016 A 
ATOM     28  C   UNL     1       2.900   3.006   2.568  1.00  0.00     0.016 A 
ATOM     29  C   UNL     1       0.407   2.045   3.409  1.00  0.00     0.010 A 
ATOM     30  C   UNL     1       2.511   3.118   3.914  1.00  0.00     0.010 A 
ATOM     31  C   UNL     1       1.251   2.661   4.344  1.00  0.00    -0.014 A 
BRANCH  31  32
ATOM     32  C   UNL     1       0.760   2.926   5.728  1.00  0.00     0.031 A 
ATOM     33  C   UNL     1       0.386   4.334   6.122  1.00  0.00     0.074 A 
ATOM     34  C   UNL     1       0.590   1.932   6.625  1.00  0.00     0.049 A 
ATOM     35  N   UNL     1      -0.117   4.770   7.250  1.00  0.00    -0.248 NA
ATOM     36  C   UNL     1       0.585   5.382   5.109  1.00  0.00     0.031 C 
ATOM     37  C   UNL     1       0.848   0.513   6.389  1.00  0.00     0.029 A 
ATOM     38  N   UNL     1       0.162   1.972   7.933  1.00  0.00    -0.354 N 
ATOM     39  C   UNL     1      -0.346   6.128   7.063  1.00  0.00     0.074 A 
ATOM     40  C   UNL     1       0.157   6.462   5.747  1.00  0.00     0.031 C 
ATOM     41  C   UNL     1       0.626  -0.173   7.525  1.00  0.00     0.029 A 
ATOM     42  C   UNL     1       0.204   0.755   8.571  1.00  0.00     0.049 A 
ATOM     43  H   UNL     1      -0.146   2.798   8.371  1.00  0.00     0.167 HD
ATOM     44  C   UNL     1      -0.962   7.012   7.886  1.00  0.00     0.037 A 
ATOM     45  C   UNL     1      -0.059   0.423   9.852  1.00  0.00     0.037 A 
ATOM     46  C   UNL     1      -1.453   6.703   9.203  1.00  0.00     0.049 A 
ATOM     47  C   UNL     1      -0.605   1.452  10.800  1.00  0.00     0.074 A 
ATOM     48  C   UNL     1      -2.115   7.535  10.091  1.00  0.00     0.029 A 
ATOM     49  N   UNL     1      -1.325   5.474   9.831  1.00  0.00    -0.354 N 
ATOM     50  N   UNL     1      -0.864   2.717  10.583  1.00  0.00    -0.248 NA
ATOM     51  C   UNL     1      -0.939   0.990  12.155  1.00  0.00     0.031 C 
ATOM     52  C   UNL     1      -2.349   6.822  11.272  1.00  0.00     0.029 A 
ATOM     53  C   UNL     1      -1.874   5.533  11.103  1.00  0.00     0.049 A 
ATOM     54  H   UNL     1      -0.906   4.677   9.433  1.00  0.00     0.167 HD
ATOM     55  C   UNL     1      -1.437   3.191  11.759  1.00  0.00     0.074 A 
ATOM     56  C   UNL     1      -1.474   2.080  12.687  1.00  0.00     0.031 C 
ATOM     57  C   UNL     1      -1.913   4.431  12.030  1.00  0.00     0.037 A 
BRANCH  44  58
ATOM     58  C   UNL     1      -1.169   8.406   7.364  1.00  0.00     0.058 A 
ATOM     59  C   UNL     1      -2.120   8.671   6.365  1.00  0.00     0.135 A 
ATOM     60  C   UNL     1      -0.451   9.489   7.893  1.00  0.00     0.135 A 
ATOM     61  F   UNL     1      -2.824   7.668   5.817  1.00  0.00    -0.206 F 
ATOM     62  C   UNL     1      -2.335   9.960   5.891  1.00  0.00     0.059 A 
ATOM     63  C   UNL     1      -0.668  10.791   7.450  1.00  0.00     0.059 A 
ATOM     64  F   UNL     1       0.468   9.289   8.850  1.00  0.00    -0.206 F 
ATOM     65  C   UNL     1      -1.603  11.014   6.439  1.00  0.00     0.060 A 
BRANCH  65  66
ATOM     66  S   UNL     1      -1.897  12.681   5.814  1.00  0.00     0.124 S 
ATOM     67  O   UNL     1      -1.254  12.618   4.505  1.00  0.00    -0.237 OA
ATOM     68  O   UNL     1      -3.354  12.759   5.802  1.00  0.00    -0.237 OA
ATOM     69  O   UNL     1      -1.235  13.534   6.797  1.00  0.00    -0.744 OA
ENDBRANCH  65  66
ENDBRANCH  44  58
BRANCH  45  70
ATOM     70  C   UNL     1       0.197  -0.956  10.342  1.00  0.00     0.058 A 
ATOM     71  C   UNL     1      -0.834  -1.894  10.476  1.00  0.00     0.135 A 
ATOM     72  C   UNL     1       1.485  -1.333  10.746  1.00  0.00     0.135 A 
ATOM     73  F   UNL     1      -2.091  -1.560  10.147  1.00  0.00    -0.206 F 
ATOM     74  C   UNL     1      -0.593  -3.167  10.986  1.00  0.00     0.059 A 
ATOM     75  C   UNL     1       1.758  -2.607  11.228  1.00  0.00     0.059 A 
ATOM     76  F   UNL     1       2.488  -0.445  10.697  1.00  0.00    -0.206 F 
ATOM     77  C   UNL     1       0.708  -3.516  11.354  1.00  0.00     0.060 A 
BRANCH  77  78
ATOM     78  S   UNL     1       1.035  -5.184  11.965  1.00  0.00     0.124 S 
ATOM     79  O   UNL     1       0.670  -5.057  13.370  1.00  0.00    -0.237 OA
ATOM     80  O   UNL     1       0.145  -5.998  11.143  1.00  0.00    -0.237 OA
ATOM     81  O   UNL     1       2.458  -5.359  11.690  1.00  0.00    -0.744 OA
ENDBRANCH  77  78
ENDBRANCH  45  70
BRANCH  57  82
ATOM     82  C   UNL     1      -2.565   4.647  13.368  1.00  0.00     0.058 A 
ATOM     83  C   UNL     1      -1.822   4.706  14.557  1.00  0.00     0.135 A 
ATOM     84  C   UNL     1      -3.957   4.822  13.456  1.00  0.00     0.135 A 
ATOM     85  F   UNL     1      -0.491   4.535  14.530  1.00  0.00    -0.206 F 
ATOM     86  C   UNL     1      -2.438   4.903  15.790  1.00  0.00     0.059 A 
ATOM     87  C   UNL     1      -4.590   5.047  14.675  1.00  0.00     0.059 A 
ATOM     88  F   UNL     1      -4.715   4.782  12.349  1.00  0.00    -0.206 F 
ATOM     89  C   UNL     1      -3.823   5.071  15.839  1.00  0.00     0.060 A 
BRANCH  89  90
ATOM     90  S   UNL     1      -4.610   5.346  17.441  1.00  0.00     0.124 S 
ATOM     91  O   UNL     1      -4.582   4.006  18.016  1.00  0.00    -0.237 OA
ATOM     92  O   UNL     1      -3.721   6.322  18.064  1.00  0.00    -0.237 OA
ATOM     93  O   UNL     1      -5.933   5.851  17.087  1.00  0.00    -0.744 OA
ENDBRANCH  89  90
ENDBRANCH  57  82
ENDBRANCH  31  32
ENDBRANCH  24  26
ENDBRANCH  23  24
ENDBRANCH  22  23
ENDBRANCH   1  22
TORSDOF 18
