REMARK SMILES CC1(C)CC[C@@]2(C(=O)OCCOC(=O)c3ccc(-c4c5nc(c(-c6c(F)cc(S(=O)(=O)[O-])cc6F)c6ccc([nH]6)c(-c6c(F)cc(S(=O)(=O)[O-])cc6F)c6nc(c(-c7c(F)cc(S(=O)(=O)[O-])cc7F)c7ccc4[nH]7)C=C6)C=C5)cc3)CC[C@@]3(C)C(=CC[C@H]4[C@@]5(C)CC[C@H](O)C(C)(C)[C@@H]5CC[C@]43C)[C@@H]2C1
REMARK SMILES IDX 11 1 10 2 9 3 7 4 8 5 6 6 1 7 2 8 3 9 4 10 104 11 5 12
REMARK SMILES IDX 103 13 85 14 81 15 83 16 86 17 82 18 84 19 101 20 87 21
REMARK SMILES IDX 88 22 100 23 102 24 89 25 99 26 90 27 91 28 98 29 92 30
REMARK SMILES IDX 95 31 93 32 96 33 97 34 94 35 12 37 13 38 14 39 15 40 16 41
REMARK SMILES IDX 80 42 17 43 79 44 18 45 19 46 20 47 73 48 21 49 78 50 72 51
REMARK SMILES IDX 74 52 22 53 77 54 71 55 70 56 23 58 57 59 36 60 56 61 37 62
REMARK SMILES IDX 40 63 55 64 75 65 38 66 39 67 54 69 76 70 41 71 24 72 25 73
REMARK SMILES IDX 34 74 26 75 27 76 33 77 35 78 28 79 29 80 30 81 31 82 32 83
REMARK SMILES IDX 58 84 59 85 68 86 60 87 61 88 67 89 69 90 62 91 63 92 64 93
REMARK SMILES IDX 65 94 66 95 42 96 43 97 52 98 44 99 45 100 51 101 53 102
REMARK SMILES IDX 46 103 47 104 48 105 49 106 50 107
REMARK H PARENT 94 36 74 57 40 68
REMARK Flexibility Score: inf
ROOT
ATOM      1  C   UNL     1      -1.215   4.387  -2.326  1.00  0.00     0.275 C 
ENDROOT
BRANCH   1   2
ATOM      2  C   UNL     1      -0.271   3.311  -1.932  1.00  0.00     0.274 C 
BRANCH   2   3
ATOM      3  O   UNL     1      -0.899   2.334  -1.197  1.00  0.00    -0.462 OA
BRANCH   3   4
ATOM      4  C   UNL     1      -0.825   2.800   0.063  1.00  0.00     0.312 C 
ATOM      5  O   UNL     1      -1.831   3.138   0.677  1.00  0.00    -0.252 OA
BRANCH   4   6
ATOM      6  C   UNL     1       0.579   2.658   0.684  1.00  0.00     0.075 C 
ATOM      7  C   UNL     1       1.647  -1.370   0.747  1.00  0.00     0.011 C 
ATOM      8  C   UNL     1       0.974  -0.297  -0.128  1.00  0.00    -0.035 C 
ATOM      9  C   UNL     1       0.517  -1.000  -1.437  1.00  0.00     0.011 C 
ATOM     10  C   UNL     1      -0.210   0.223   0.705  1.00  0.00     0.007 C 
ATOM     11  C   UNL     1       1.972   0.795  -0.579  1.00  0.00     0.015 C 
ATOM     12  C   UNL     1       0.175   1.455   1.602  1.00  0.00     0.020 C 
ATOM     13  C   UNL     1       1.930   2.233   0.001  1.00  0.00     0.033 C 
ATOM     14  C   UNL     1       2.686   3.226  -0.961  1.00  0.00    -0.063 C 
ATOM     15  C   UNL     1       0.901   4.077   1.246  1.00  0.00     0.020 C 
ATOM     16  C   UNL     1       2.515   4.758  -0.924  1.00  0.00    -0.006 C 
ATOM     17  C   UNL     1       3.588   2.725  -1.834  1.00  0.00    -0.027 C 
ATOM     18  C   UNL     1       1.371   5.157   0.142  1.00  0.00     0.013 C 
ATOM     19  C   UNL     1       3.787   5.310  -0.154  1.00  0.00     0.017 C 
ATOM     20  C   UNL     1       2.470   5.313  -2.665  1.00  0.00    -0.020 C 
ATOM     21  C   UNL     1       3.442   2.933  -3.325  1.00  0.00     0.032 C 
ATOM     22  C   UNL     1       2.569   4.110  -3.797  1.00  0.00     0.006 C 
ATOM     23  C   UNL     1       1.436   6.382  -3.219  1.00  0.00     0.008 C 
ATOM     24  C   UNL     1       3.846   6.102  -2.824  1.00  0.00     0.012 C 
ATOM     25  C   UNL     1       1.427   3.728  -4.991  1.00  0.00    -0.025 C 
ATOM     26  C   UNL     1       0.793   6.195  -4.691  1.00  0.00     0.005 C 
ATOM     27  C   UNL     1       2.193   3.785  -6.340  1.00  0.00     0.012 C 
ATOM     28  C   UNL     1       0.864   2.249  -4.980  1.00  0.00     0.010 C 
ATOM     29  C   UNL     1       0.273   4.770  -5.056  1.00  0.00     0.003 C 
ATOM     30  C   UNL     1      -0.426   1.976  -5.774  1.00  0.00     0.033 C 
ATOM     31  C   UNL     1      -1.018   4.485  -5.998  1.00  0.00    -0.006 C 
ATOM     32  C   UNL     1      -1.519   3.033  -5.652  1.00  0.00     0.120 C 
ATOM     33  C   UNL     1      -0.831   4.581  -7.523  1.00  0.00     0.014 C 
ATOM     34  C   UNL     1      -2.218   5.435  -5.693  1.00  0.00     0.014 C 
BRANCH  32  35
ATOM     35  O   UNL     1      -2.648   2.681  -6.456  1.00  0.00    -0.393 OA
ATOM     36  H   UNL     1      -2.387   2.662  -7.390  1.00  0.00     0.210 HD
ENDBRANCH  32  35
ENDBRANCH   4   6
ENDBRANCH   3   4
ENDBRANCH   2   3
ENDBRANCH   1   2
BRANCH   1  37
ATOM     37  O   UNL     1      -1.845   5.063  -1.286  1.00  0.00    -0.458 OA
BRANCH  37  38
ATOM     38  C   UNL     1      -2.106   6.326  -1.735  1.00  0.00     0.338 C 
ATOM     39  O   UNL     1      -2.281   6.707  -2.855  1.00  0.00    -0.246 OA
BRANCH  38  40
ATOM     40  C   UNL     1      -1.661   7.169  -0.640  1.00  0.00     0.060 A 
ATOM     41  C   UNL     1      -2.003   6.789   0.653  1.00  0.00     0.016 A 
ATOM     42  C   UNL     1      -0.847   8.271  -0.944  1.00  0.00     0.016 A 
ATOM     43  C   UNL     1      -1.648   7.622   1.670  1.00  0.00     0.010 A 
ATOM     44  C   UNL     1      -0.466   9.102   0.085  1.00  0.00     0.010 A 
ATOM     45  C   UNL     1      -0.982   8.817   1.351  1.00  0.00    -0.014 A 
BRANCH  45  46
ATOM     46  C   UNL     1      -1.273   9.903   2.278  1.00  0.00     0.031 A 
ATOM     47  C   UNL     1      -2.532  10.673   2.003  1.00  0.00     0.074 A 
ATOM     48  C   UNL     1      -0.589   9.918   3.425  1.00  0.00     0.049 A 
ATOM     49  N   UNL     1      -3.219  11.432   2.805  1.00  0.00    -0.248 NA
ATOM     50  C   UNL     1      -3.138  10.524   0.662  1.00  0.00     0.031 C 
ATOM     51  C   UNL     1       0.572   9.074   3.727  1.00  0.00     0.029 A 
ATOM     52  N   UNL     1      -0.823  10.608   4.570  1.00  0.00    -0.354 N 
ATOM     53  C   UNL     1      -4.341  11.818   2.079  1.00  0.00     0.074 A 
ATOM     54  C   UNL     1      -4.237  11.248   0.763  1.00  0.00     0.031 C 
ATOM     55  C   UNL     1       0.934   9.283   5.002  1.00  0.00     0.029 A 
ATOM     56  C   UNL     1       0.042  10.280   5.580  1.00  0.00     0.049 A 
ATOM     57  H   UNL     1      -1.541  11.275   4.665  1.00  0.00     0.167 HD
ATOM     58  C   UNL     1      -5.372  12.579   2.498  1.00  0.00     0.037 A 
ATOM     59  C   UNL     1       0.079  10.755   6.835  1.00  0.00     0.037 A 
ATOM     60  C   UNL     1      -5.397  13.155   3.811  1.00  0.00     0.049 A 
ATOM     61  C   UNL     1      -1.022  11.699   7.235  1.00  0.00     0.074 A 
ATOM     62  C   UNL     1      -6.316  14.024   4.361  1.00  0.00     0.029 A 
ATOM     63  N   UNL     1      -4.426  12.918   4.780  1.00  0.00    -0.354 N 
ATOM     64  N   UNL     1      -2.065  12.094   6.536  1.00  0.00    -0.248 NA
ATOM     65  C   UNL     1      -0.953  12.250   8.587  1.00  0.00     0.031 C 
ATOM     66  C   UNL     1      -5.865  14.362   5.641  1.00  0.00     0.029 A 
ATOM     67  C   UNL     1      -4.704  13.649   5.916  1.00  0.00     0.049 A 
ATOM     68  H   UNL     1      -3.654  12.317   4.670  1.00  0.00     0.167 HD
ATOM     69  C   UNL     1      -2.788  12.934   7.372  1.00  0.00     0.074 A 
ATOM     70  C   UNL     1      -2.074  12.955   8.637  1.00  0.00     0.031 C 
ATOM     71  C   UNL     1      -3.929  13.633   7.133  1.00  0.00     0.037 A 
BRANCH  58  72
ATOM     72  C   UNL     1      -6.461  12.879   1.509  1.00  0.00     0.058 A 
ATOM     73  C   UNL     1      -7.376  11.902   1.080  1.00  0.00     0.135 A 
ATOM     74  C   UNL     1      -6.569  14.162   0.951  1.00  0.00     0.135 A 
ATOM     75  F   UNL     1      -7.288  10.644   1.541  1.00  0.00    -0.206 F 
ATOM     76  C   UNL     1      -8.356  12.187   0.132  1.00  0.00     0.059 A 
ATOM     77  C   UNL     1      -7.556  14.476   0.021  1.00  0.00     0.059 A 
ATOM     78  F   UNL     1      -5.699  15.123   1.297  1.00  0.00    -0.206 F 
ATOM     79  C   UNL     1      -8.441  13.480  -0.387  1.00  0.00     0.060 A 
BRANCH  79  80
ATOM     80  S   UNL     1      -9.736  13.847  -1.592  1.00  0.00     0.124 S 
ATOM     81  O   UNL     1      -9.268  13.110  -2.762  1.00  0.00    -0.237 OA
ATOM     82  O   UNL     1     -10.927  13.312  -0.940  1.00  0.00    -0.237 OA
ATOM     83  O   UNL     1      -9.689  15.301  -1.709  1.00  0.00    -0.744 OA
ENDBRANCH  79  80
ENDBRANCH  58  72
BRANCH  59  84
ATOM     84  C   UNL     1       1.185  10.366   7.744  1.00  0.00     0.058 A 
ATOM     85  C   UNL     1       0.960   9.641   8.921  1.00  0.00     0.135 A 
ATOM     86  C   UNL     1       2.512  10.711   7.434  1.00  0.00     0.135 A 
ATOM     87  F   UNL     1      -0.287   9.277   9.258  1.00  0.00    -0.206 F 
ATOM     88  C   UNL     1       2.005   9.299   9.775  1.00  0.00     0.059 A 
ATOM     89  C   UNL     1       3.575  10.354   8.254  1.00  0.00     0.059 A 
ATOM     90  F   UNL     1       2.789  11.385   6.306  1.00  0.00    -0.206 F 
ATOM     91  C   UNL     1       3.309   9.662   9.432  1.00  0.00     0.060 A 
BRANCH  91  92
ATOM     92  S   UNL     1       4.660   9.205  10.539  1.00  0.00     0.124 S 
ATOM     93  O   UNL     1       4.428  10.097  11.668  1.00  0.00    -0.237 OA
ATOM     94  O   UNL     1       4.396   7.790  10.775  1.00  0.00    -0.237 OA
ATOM     95  O   UNL     1       5.854   9.489   9.746  1.00  0.00    -0.744 OA
ENDBRANCH  91  92
ENDBRANCH  59  84
BRANCH  71  96
ATOM     96  C   UNL     1      -4.450  14.453   8.276  1.00  0.00     0.058 A 
ATOM     97  C   UNL     1      -3.780  15.603   8.718  1.00  0.00     0.135 A 
ATOM     98  C   UNL     1      -5.637  14.083   8.925  1.00  0.00     0.135 A 
ATOM     99  F   UNL     1      -2.641  15.995   8.124  1.00  0.00    -0.206 F 
ATOM    100  C   UNL     1      -4.237  16.325   9.811  1.00  0.00     0.059 A 
ATOM    101  C   UNL     1      -6.135  14.815   9.993  1.00  0.00     0.059 A 
ATOM    102  F   UNL     1      -6.325  13.003   8.519  1.00  0.00    -0.206 F 
ATOM    103  C   UNL     1      -5.412  15.917  10.446  1.00  0.00     0.060 A 
BRANCH 103 104
ATOM    104  S   UNL     1      -5.980  16.846  11.881  1.00  0.00     0.124 S 
ATOM    105  O   UNL     1      -5.035  16.408  12.903  1.00  0.00    -0.237 OA
ATOM    106  O   UNL     1      -5.838  18.228  11.435  1.00  0.00    -0.237 OA
ATOM    107  O   UNL     1      -7.355  16.388  12.059  1.00  0.00    -0.744 OA
ENDBRANCH 103 104
ENDBRANCH  71  96
ENDBRANCH  45  46
ENDBRANCH  38  40
ENDBRANCH  37  38
ENDBRANCH   1  37
TORSDOF 15
