REMARK SMILES O=C(OCCOC(=O)c1cnc(OCC2CC2)c(Cl)c1)c1ccc(-c2c3nc(c(-c4c(F)cc(S(=O)(=O)[O-])cc4F)c4ccc([nH]4)c(-c4c(F)cc(S(=O)(=O)[O-])cc4F)c4nc(c(-c5c(F)cc(S(=O)(=O)[O-])cc5F)c5ccc2[nH]5)C=C4)C=C3)cc1
REMARK SMILES IDX 4 1 3 2 2 3 1 4 21 5 22 6 86 7 23 8 85 9 24 10 25 11 26 12
REMARK SMILES IDX 79 13 27 14 84 15 78 16 80 17 28 18 83 19 77 20 76 21 29 23
REMARK SMILES IDX 63 24 42 25 62 26 43 27 46 28 61 29 81 30 44 31 45 32 60 34
REMARK SMILES IDX 82 35 47 36 30 37 31 38 40 39 32 40 33 41 39 42 41 43 34 44
REMARK SMILES IDX 35 45 36 46 37 47 38 48 64 49 65 50 74 51 66 52 67 53 73 54
REMARK SMILES IDX 75 55 68 56 69 57 70 58 71 59 72 60 48 61 49 62 58 63 50 64
REMARK SMILES IDX 51 65 57 66 59 67 52 68 53 69 54 70 55 71 56 72 5 73 6 74
REMARK SMILES IDX 7 75 8 76 9 77 10 78 20 79 11 80 18 81 12 82 19 83 13 84
REMARK SMILES IDX 14 85 15 86 16 87 17 88
REMARK H PARENT 80 22 46 33
REMARK Flexibility Score: inf
ROOT
ATOM      1  C   UNL     1       4.090  -0.227  -1.602  1.00  0.00     0.275 C 
ENDROOT
BRANCH   1   2
ATOM      2  O   UNL     1       3.017  -0.832  -0.863  1.00  0.00    -0.458 OA
BRANCH   2   3
ATOM      3  C   UNL     1       2.852  -0.990   0.471  1.00  0.00     0.338 C 
ATOM      4  O   UNL     1       1.872  -1.620   0.867  1.00  0.00    -0.246 OA
BRANCH   3   5
ATOM      5  C   UNL     1       3.718  -0.330   1.500  1.00  0.00     0.060 A 
ATOM      6  C   UNL     1       5.036   0.095   1.315  1.00  0.00     0.016 A 
ATOM      7  C   UNL     1       3.129  -0.106   2.758  1.00  0.00     0.016 A 
ATOM      8  C   UNL     1       5.726   0.782   2.313  1.00  0.00     0.010 A 
ATOM      9  C   UNL     1       3.809   0.589   3.759  1.00  0.00     0.010 A 
ATOM     10  C   UNL     1       5.122   1.028   3.542  1.00  0.00    -0.014 A 
BRANCH  10  11
ATOM     11  C   UNL     1       5.944   1.556   4.651  1.00  0.00     0.031 A 
ATOM     12  C   UNL     1       6.324   0.594   5.741  1.00  0.00     0.074 A 
ATOM     13  C   UNL     1       6.337   2.845   4.665  1.00  0.00     0.049 A 
ATOM     14  N   UNL     1       6.983   0.812   6.845  1.00  0.00    -0.248 NA
ATOM     15  C   UNL     1       5.908  -0.811   5.558  1.00  0.00     0.031 C 
ATOM     16  C   UNL     1       6.027   3.844   3.635  1.00  0.00     0.029 A 
ATOM     17  N   UNL     1       7.018   3.560   5.617  1.00  0.00    -0.354 N 
ATOM     18  C   UNL     1       7.096  -0.430   7.461  1.00  0.00     0.074 A 
ATOM     19  C   UNL     1       6.349  -1.376   6.669  1.00  0.00     0.031 C 
ATOM     20  C   UNL     1       6.438   5.055   4.055  1.00  0.00     0.029 A 
ATOM     21  C   UNL     1       7.028   4.918   5.381  1.00  0.00     0.049 A 
ATOM     22  H   UNL     1       7.456   3.144   6.394  1.00  0.00     0.167 HD
ATOM     23  C   UNL     1       7.813  -0.756   8.561  1.00  0.00     0.037 A 
ATOM     24  C   UNL     1       7.422   5.928   6.182  1.00  0.00     0.037 A 
ATOM     25  C   UNL     1       8.528   0.220   9.334  1.00  0.00     0.049 A 
ATOM     26  C   UNL     1       8.047   5.570   7.502  1.00  0.00     0.074 A 
ATOM     27  C   UNL     1       9.340   0.030  10.435  1.00  0.00     0.029 A 
ATOM     28  N   UNL     1       8.492   1.588   9.088  1.00  0.00    -0.354 N 
ATOM     29  N   UNL     1       8.210   4.385   8.044  1.00  0.00    -0.248 NA
ATOM     30  C   UNL     1       8.585   6.679   8.296  1.00  0.00     0.031 C 
ATOM     31  C   UNL     1       9.748   1.290  10.889  1.00  0.00     0.029 A 
ATOM     32  C   UNL     1       9.243   2.259  10.033  1.00  0.00     0.049 A 
ATOM     33  H   UNL     1       8.003   2.016   8.349  1.00  0.00     0.167 HD
ATOM     34  C   UNL     1       8.941   4.596   9.206  1.00  0.00     0.074 A 
ATOM     35  C   UNL     1       9.147   6.029   9.306  1.00  0.00     0.031 C 
ATOM     36  C   UNL     1       9.435   3.689  10.087  1.00  0.00     0.037 A 
BRANCH  23  37
ATOM     37  C   UNL     1       7.851  -2.207   8.959  1.00  0.00     0.058 A 
ATOM     38  C   UNL     1       8.476  -3.175   8.152  1.00  0.00     0.135 A 
ATOM     39  C   UNL     1       7.245  -2.645  10.146  1.00  0.00     0.135 A 
ATOM     40  F   UNL     1       9.057  -2.820   6.995  1.00  0.00    -0.206 F 
ATOM     41  C   UNL     1       8.459  -4.526   8.484  1.00  0.00     0.059 A 
ATOM     42  C   UNL     1       7.243  -3.989  10.514  1.00  0.00     0.059 A 
ATOM     43  F   UNL     1       6.629  -1.768  10.954  1.00  0.00    -0.206 F 
ATOM     44  C   UNL     1       7.836  -4.924   9.667  1.00  0.00     0.060 A 
BRANCH  44  45
ATOM     45  S   UNL     1       7.812  -6.683  10.076  1.00  0.00     0.124 S 
ATOM     46  O   UNL     1       6.869  -7.199   9.089  1.00  0.00    -0.237 OA
ATOM     47  O   UNL     1       9.207  -7.066   9.879  1.00  0.00    -0.237 OA
ATOM     48  O   UNL     1       7.348  -6.704  11.460  1.00  0.00    -0.744 OA
ENDBRANCH  44  45
ENDBRANCH  23  37
BRANCH  24  49
ATOM     49  C   UNL     1       7.260   7.350   5.773  1.00  0.00     0.058 A 
ATOM     50  C   UNL     1       8.326   8.073   5.221  1.00  0.00     0.135 A 
ATOM     51  C   UNL     1       6.045   8.030   5.949  1.00  0.00     0.135 A 
ATOM     52  F   UNL     1       9.522   7.487   5.067  1.00  0.00    -0.206 F 
ATOM     53  C   UNL     1       8.189   9.410   4.847  1.00  0.00     0.059 A 
ATOM     54  C   UNL     1       5.872   9.355   5.558  1.00  0.00     0.059 A 
ATOM     55  F   UNL     1       5.008   7.420   6.536  1.00  0.00    -0.206 F 
ATOM     56  C   UNL     1       6.954  10.040   5.012  1.00  0.00     0.060 A 
BRANCH  56  57
ATOM     57  S   UNL     1       6.763  11.755   4.476  1.00  0.00     0.124 S 
ATOM     58  O   UNL     1       7.451  12.475   5.540  1.00  0.00    -0.237 OA
ATOM     59  O   UNL     1       7.428  11.746   3.176  1.00  0.00    -0.237 OA
ATOM     60  O   UNL     1       5.315  11.931   4.426  1.00  0.00    -0.744 OA
ENDBRANCH  56  57
ENDBRANCH  24  49
BRANCH  36  61
ATOM     61  C   UNL     1      10.330   4.216  11.171  1.00  0.00     0.058 A 
ATOM     62  C   UNL     1       9.838   4.949  12.259  1.00  0.00     0.135 A 
ATOM     63  C   UNL     1      11.706   3.933  11.129  1.00  0.00     0.135 A 
ATOM     64  F   UNL     1       8.533   5.254  12.336  1.00  0.00    -0.206 F 
ATOM     65  C   UNL     1      10.687   5.411  13.258  1.00  0.00     0.059 A 
ATOM     66  C   UNL     1      12.566   4.353  12.135  1.00  0.00     0.059 A 
ATOM     67  F   UNL     1      12.222   3.225  10.112  1.00  0.00    -0.206 F 
ATOM     68  C   UNL     1      12.048   5.105  13.188  1.00  0.00     0.060 A 
BRANCH  68  69
ATOM     69  S   UNL     1      13.135   5.685  14.505  1.00  0.00     0.124 S 
ATOM     70  O   UNL     1      13.221   7.110  14.206  1.00  0.00    -0.237 OA
ATOM     71  O   UNL     1      12.383   5.332  15.706  1.00  0.00    -0.237 OA
ATOM     72  O   UNL     1      14.362   4.922  14.294  1.00  0.00    -0.744 OA
ENDBRANCH  68  69
ENDBRANCH  36  61
ENDBRANCH  10  11
ENDBRANCH   3   5
ENDBRANCH   2   3
ENDBRANCH   1   2
BRANCH   1  73
ATOM     73  C   UNL     1       4.034   1.303  -1.713  1.00  0.00     0.275 C 
BRANCH  73  74
ATOM     74  O   UNL     1       3.619   1.981  -0.515  1.00  0.00    -0.458 OA
BRANCH  74  75
ATOM     75  C   UNL     1       2.284   2.190  -0.402  1.00  0.00     0.339 C 
ATOM     76  O   UNL     1       1.425   1.877  -1.214  1.00  0.00    -0.246 OA
BRANCH  75  77
ATOM     77  C   UNL     1       1.970   2.756   0.914  1.00  0.00     0.080 A 
ATOM     78  C   UNL     1       1.038   2.121   1.707  1.00  0.00     0.131 A 
ATOM     79  C   UNL     1       2.528   3.936   1.389  1.00  0.00     0.043 A 
ATOM     80  N   UNL     1       0.703   2.546   2.948  1.00  0.00    -0.220 NA
ATOM     81  C   UNL     1       2.144   4.437   2.649  1.00  0.00     0.104 A 
ATOM     82  C   UNL     1       1.258   3.692   3.436  1.00  0.00     0.232 A 
ATOM     83  Cl  UNL     1       2.775   5.998   3.010  1.00  0.00    -0.078 Cl
BRANCH  82  84
ATOM     84  O   UNL     1       0.790   3.897   4.689  1.00  0.00    -0.476 OA
BRANCH  84  85
ATOM     85  C   UNL     1       1.237   4.900   5.590  1.00  0.00     0.235 C 
BRANCH  85  86
ATOM     86  C   UNL     1       2.320   4.416   6.511  1.00  0.00     0.027 C 
ATOM     87  C   UNL     1       3.443   3.522   6.062  1.00  0.00     0.007 C 
ATOM     88  C   UNL     1       3.713   4.963   6.357  1.00  0.00     0.007 C 
ENDBRANCH  85  86
ENDBRANCH  84  85
ENDBRANCH  82  84
ENDBRANCH  75  77
ENDBRANCH  74  75
ENDBRANCH  73  74
ENDBRANCH   1  73
TORSDOF 17
