REMARK SMILES CC(C)CN(C)c1cc2c(cc1Cl)C=C(C(=O)OCCOC(=O)c1ccc(-c3c4nc(c(-c5c(F)cc(S(=O)(=O)[O-])cc5F)c5ccc([nH]5)c(-c5c(F)cc(S(=O)(=O)[O-])cc5F)c5nc(c(-c6c(F)cc(S(=O)(=O)[O-])cc6F)c6ccc3[nH]6)C=C5)C=C4)cc1)[C@@H](C(F)(F)F)O2
REMARK SMILES IDX 19 1 18 2 16 3 17 4 15 5 7 6 8 7 12 8 9 9 11 10 13 11 10 12
REMARK SMILES IDX 95 13 14 14 90 15 5 16 6 17 4 18 2 19 1 20 3 21 91 22 92 23
REMARK SMILES IDX 93 24 94 25 20 26 21 27 22 28 23 29 24 30 25 31 89 32 26 33
REMARK SMILES IDX 88 34 27 35 28 36 29 37 82 38 30 39 87 40 81 41 83 42 31 43
REMARK SMILES IDX 86 44 80 45 79 46 32 48 66 49 45 50 65 51 46 52 49 53 64 54
REMARK SMILES IDX 84 55 47 56 48 57 63 59 85 60 50 61 33 62 34 63 43 64 35 65
REMARK SMILES IDX 36 66 42 67 44 68 37 69 38 70 39 71 40 72 41 73 67 74 68 75
REMARK SMILES IDX 77 76 69 77 70 78 76 79 78 80 71 81 72 82 73 83 74 84 75 85
REMARK SMILES IDX 51 86 52 87 61 88 53 89 54 90 60 91 62 92 55 93 56 94 57 95
REMARK SMILES IDX 58 96 59 97
REMARK H PARENT 83 47 49 58
REMARK Flexibility Score: inf
ROOT
ATOM      1  C   UNL     1      -1.481  -3.124  -9.083  1.00  0.00     0.275 C 
ENDROOT
BRANCH   1   2
ATOM      2  O   UNL     1      -1.834  -2.798  -7.719  1.00  0.00    -0.459 OA
BRANCH   2   3
ATOM      3  C   UNL     1      -1.009  -3.328  -6.787  1.00  0.00     0.338 C 
ATOM      4  O   UNL     1      -0.039  -4.039  -7.012  1.00  0.00    -0.246 OA
BRANCH   3   5
ATOM      5  C   UNL     1      -1.377  -2.914  -5.421  1.00  0.00     0.087 C 
ATOM      6  C   UNL     1      -1.146  -1.957  -0.473  1.00  0.00     0.059 A 
ATOM      7  C   UNL     1      -2.189  -1.924  -1.429  1.00  0.00     0.074 A 
ATOM      8  C   UNL     1       0.129  -2.374  -0.911  1.00  0.00     0.065 A 
ATOM      9  C   UNL     1      -1.951  -2.242  -2.771  1.00  0.00     0.130 A 
ATOM     10  C   UNL     1       0.388  -2.578  -2.260  1.00  0.00     0.034 A 
ATOM     11  Cl  UNL     1       1.422  -2.744   0.176  1.00  0.00    -0.082 Cl
ATOM     12  C   UNL     1      -0.649  -2.504  -3.183  1.00  0.00     0.019 A 
ATOM     13  O   UNL     1      -3.009  -2.256  -3.648  1.00  0.00    -0.475 OA
ATOM     14  C   UNL     1      -0.358  -2.736  -4.576  1.00  0.00     0.027 C 
ATOM     15  C   UNL     1      -2.800  -2.926  -4.939  1.00  0.00     0.316 C 
BRANCH   6  16
ATOM     16  N   UNL     1      -1.369  -1.583   0.856  1.00  0.00    -0.373 N 
ATOM     17  C   UNL     1      -2.368  -2.350   1.584  1.00  0.00     0.143 C 
BRANCH  16  18
ATOM     18  C   UNL     1      -1.191  -0.160   1.214  1.00  0.00     0.119 C 
BRANCH  18  19
ATOM     19  C   UNL     1       0.289   0.238   1.410  1.00  0.00     0.002 C 
ATOM     20  C   UNL     1       0.886   0.874   0.149  1.00  0.00     0.009 C 
ATOM     21  C   UNL     1       0.465   1.211   2.580  1.00  0.00     0.009 C 
ENDBRANCH  18  19
ENDBRANCH  16  18
ENDBRANCH   6  16
BRANCH  15  22
ATOM     22  C   UNL     1      -3.311  -4.378  -4.882  1.00  0.00     0.430 C 
ATOM     23  F   UNL     1      -4.592  -4.441  -4.447  1.00  0.00    -0.167 F 
ATOM     24  F   UNL     1      -3.293  -4.951  -6.112  1.00  0.00    -0.167 F 
ATOM     25  F   UNL     1      -2.567  -5.159  -4.066  1.00  0.00    -0.167 F 
ENDBRANCH  15  22
ENDBRANCH   3   5
ENDBRANCH   2   3
ENDBRANCH   1   2
BRANCH   1  26
ATOM     26  C   UNL     1      -0.733  -1.982  -9.776  1.00  0.00     0.275 C 
BRANCH  26  27
ATOM     27  O   UNL     1       0.551  -1.752  -9.168  1.00  0.00    -0.458 OA
BRANCH  27  28
ATOM     28  C   UNL     1       0.653  -0.612  -8.445  1.00  0.00     0.338 C 
ATOM     29  O   UNL     1      -0.214   0.223  -8.260  1.00  0.00    -0.246 OA
BRANCH  28  30
ATOM     30  C   UNL     1       1.980  -0.533  -7.813  1.00  0.00     0.060 A 
ATOM     31  C   UNL     1       2.913   0.423  -8.195  1.00  0.00     0.016 A 
ATOM     32  C   UNL     1       2.219  -1.327  -6.698  1.00  0.00     0.016 A 
ATOM     33  C   UNL     1       4.094   0.559  -7.450  1.00  0.00     0.010 A 
ATOM     34  C   UNL     1       3.320  -1.091  -5.878  1.00  0.00     0.010 A 
ATOM     35  C   UNL     1       4.298  -0.165  -6.256  1.00  0.00    -0.014 A 
BRANCH  35  36
ATOM     36  C   UNL     1       5.518   0.045  -5.415  1.00  0.00     0.031 A 
ATOM     37  C   UNL     1       6.413  -1.114  -5.027  1.00  0.00     0.074 A 
ATOM     38  C   UNL     1       5.820   1.284  -4.971  1.00  0.00     0.049 A 
ATOM     39  N   UNL     1       7.525  -1.102  -4.331  1.00  0.00    -0.248 NA
ATOM     40  C   UNL     1       5.990  -2.465  -5.430  1.00  0.00     0.031 C 
ATOM     41  C   UNL     1       4.993   2.479  -5.165  1.00  0.00     0.029 A 
ATOM     42  N   UNL     1       6.914   1.755  -4.284  1.00  0.00    -0.354 N 
ATOM     43  C   UNL     1       7.910  -2.433  -4.197  1.00  0.00     0.074 A 
ATOM     44  C   UNL     1       6.876  -3.232  -4.812  1.00  0.00     0.031 C 
ATOM     45  C   UNL     1       5.648   3.552  -4.696  1.00  0.00     0.029 A 
ATOM     46  C   UNL     1       6.922   3.123  -4.130  1.00  0.00     0.049 A 
ATOM     47  H   UNL     1       7.624   1.169  -3.936  1.00  0.00     0.167 HD
ATOM     48  C   UNL     1       9.043  -2.948  -3.660  1.00  0.00     0.037 A 
ATOM     49  C   UNL     1       7.858   3.946  -3.616  1.00  0.00     0.037 A 
ATOM     50  C   UNL     1      10.110  -2.151  -3.115  1.00  0.00     0.049 A 
ATOM     51  C   UNL     1       9.143   3.364  -3.094  1.00  0.00     0.074 A 
ATOM     52  C   UNL     1      11.335  -2.571  -2.627  1.00  0.00     0.029 A 
ATOM     53  N   UNL     1      10.086  -0.769  -3.005  1.00  0.00    -0.354 N 
ATOM     54  N   UNL     1       9.518   2.108  -3.048  1.00  0.00    -0.248 NA
ATOM     55  C   UNL     1      10.133   4.308  -2.557  1.00  0.00     0.031 C 
ATOM     56  C   UNL     1      12.044  -1.444  -2.200  1.00  0.00     0.029 A 
ATOM     57  C   UNL     1      11.274  -0.320  -2.452  1.00  0.00     0.049 A 
ATOM     58  H   UNL     1       9.337  -0.193  -3.278  1.00  0.00     0.167 HD
ATOM     59  C   UNL     1      10.790   2.112  -2.488  1.00  0.00     0.074 A 
ATOM     60  C   UNL     1      11.130   3.496  -2.231  1.00  0.00     0.031 C 
ATOM     61  C   UNL     1      11.599   1.062  -2.206  1.00  0.00     0.037 A 
BRANCH  48  62
ATOM     62  C   UNL     1       9.215  -4.445  -3.685  1.00  0.00     0.058 A 
ATOM     63  C   UNL     1       9.437  -5.134  -4.889  1.00  0.00     0.135 A 
ATOM     64  C   UNL     1       9.204  -5.194  -2.498  1.00  0.00     0.135 A 
ATOM     65  F   UNL     1       9.445  -4.470  -6.056  1.00  0.00    -0.206 F 
ATOM     66  C   UNL     1       9.609  -6.513  -4.919  1.00  0.00     0.059 A 
ATOM     67  C   UNL     1       9.404  -6.574  -2.501  1.00  0.00     0.059 A 
ATOM     68  F   UNL     1       9.003  -4.589  -1.317  1.00  0.00    -0.206 F 
ATOM     69  C   UNL     1       9.592  -7.225  -3.720  1.00  0.00     0.060 A 
BRANCH  69  70
ATOM     70  S   UNL     1       9.833  -9.014  -3.781  1.00  0.00     0.124 S 
ATOM     71  O   UNL     1       8.564  -9.460  -4.346  1.00  0.00    -0.237 OA
ATOM     72  O   UNL     1      10.994  -9.142  -4.656  1.00  0.00    -0.237 OA
ATOM     73  O   UNL     1      10.061  -9.376  -2.385  1.00  0.00    -0.744 OA
ENDBRANCH  69  70
ENDBRANCH  48  62
BRANCH  49  74
ATOM     74  C   UNL     1       7.642   5.418  -3.641  1.00  0.00     0.058 A 
ATOM     75  C   UNL     1       8.353   6.229  -4.539  1.00  0.00     0.135 A 
ATOM     76  C   UNL     1       6.700   6.038  -2.807  1.00  0.00     0.135 A 
ATOM     77  F   UNL     1       9.269   5.684  -5.354  1.00  0.00    -0.206 F 
ATOM     78  C   UNL     1       8.141   7.603  -4.608  1.00  0.00     0.059 A 
ATOM     79  C   UNL     1       6.455   7.407  -2.872  1.00  0.00     0.059 A 
ATOM     80  F   UNL     1       5.983   5.304  -1.942  1.00  0.00    -0.206 F 
ATOM     81  C   UNL     1       7.184   8.182  -3.773  1.00  0.00     0.060 A 
BRANCH  81  82
ATOM     82  S   UNL     1       6.868   9.954  -3.922  1.00  0.00     0.124 S 
ATOM     83  O   UNL     1       8.072  10.520  -3.322  1.00  0.00    -0.237 OA
ATOM     84  O   UNL     1       6.735  10.121  -5.366  1.00  0.00    -0.237 OA
ATOM     85  O   UNL     1       5.636  10.141  -3.162  1.00  0.00    -0.744 OA
ENDBRANCH  81  82
ENDBRANCH  49  74
BRANCH  61  86
ATOM     86  C   UNL     1      12.937   1.359  -1.592  1.00  0.00     0.058 A 
ATOM     87  C   UNL     1      13.054   1.722  -0.243  1.00  0.00     0.135 A 
ATOM     88  C   UNL     1      14.116   1.201  -2.338  1.00  0.00     0.135 A 
ATOM     89  F   UNL     1      11.956   1.891   0.510  1.00  0.00    -0.206 F 
ATOM     90  C   UNL     1      14.297   1.929   0.346  1.00  0.00     0.059 A 
ATOM     91  C   UNL     1      15.370   1.381  -1.763  1.00  0.00     0.059 A 
ATOM     92  F   UNL     1      14.056   0.846  -3.631  1.00  0.00    -0.206 F 
ATOM     93  C   UNL     1      15.450   1.751  -0.421  1.00  0.00     0.060 A 
BRANCH  93  94
ATOM     94  S   UNL     1      17.056   1.972   0.372  1.00  0.00     0.124 S 
ATOM     95  O   UNL     1      17.111   3.423   0.525  1.00  0.00    -0.237 OA
ATOM     96  O   UNL     1      16.902   1.210   1.607  1.00  0.00    -0.237 OA
ATOM     97  O   UNL     1      17.994   1.408  -0.594  1.00  0.00    -0.744 OA
ENDBRANCH  93  94
ENDBRANCH  61  86
ENDBRANCH  35  36
ENDBRANCH  28  30
ENDBRANCH  27  28
ENDBRANCH  26  27
ENDBRANCH   1  26
TORSDOF 18
