REMARK SMILES O=C(OCCOC(=O)c1cc(S(=O)(=O)Nc2ccc(F)c(C(F)(F)F)c2)c[nH]1)c1ccc(-c2c3nc(c(-c4c(F)cc(S(=O)(=O)[O-])cc4F)c4ccc([nH]4)c(-c4c(F)cc(S(=O)(=O)[O-])cc4F)c4nc(c(-c5c(F)cc(S(=O)(=O)[O-])cc5F)c5ccc2[nH]5)C=C4)C=C3)cc1
REMARK SMILES IDX 5 1 4 2 3 3 2 4 1 5 29 6 30 7 94 8 31 9 93 10 32 11 33 12
REMARK SMILES IDX 34 13 87 14 35 15 92 16 86 17 88 18 36 19 91 20 85 21 84 22
REMARK SMILES IDX 37 24 71 25 50 26 70 27 51 28 54 29 69 30 89 31 52 32 53 33
REMARK SMILES IDX 68 35 90 36 55 37 38 38 39 39 48 40 40 41 41 42 47 43 49 44
REMARK SMILES IDX 42 45 43 46 44 47 45 48 46 49 72 50 73 51 82 52 74 53 75 54
REMARK SMILES IDX 81 55 83 56 76 57 77 58 78 59 79 60 80 61 56 62 57 63 66 64
REMARK SMILES IDX 58 65 59 66 65 67 67 68 60 69 61 70 62 71 63 72 64 73 6 74
REMARK SMILES IDX 7 75 8 76 9 77 10 78 28 79 11 80 27 81 12 83 13 84 14 85
REMARK SMILES IDX 15 86 16 88 17 89 26 90 18 91 21 92 19 93 20 94 22 95 23 96
REMARK SMILES IDX 24 97 25 98
REMARK H PARENT 88 23 54 34 28 82 15 87
REMARK Flexibility Score: inf
ROOT
ATOM      1  C   UNL     1       4.463   0.791   1.333  1.00  0.00     0.275 C 
ENDROOT
BRANCH   1   2
ATOM      2  C   UNL     1       4.357   1.387  -0.072  1.00  0.00     0.275 C 
BRANCH   2   3
ATOM      3  O   UNL     1       3.023   1.487  -0.618  1.00  0.00    -0.458 OA
BRANCH   3   4
ATOM      4  C   UNL     1       2.156   0.447  -0.586  1.00  0.00     0.338 C 
ATOM      5  O   UNL     1       1.144   0.448   0.105  1.00  0.00    -0.246 OA
BRANCH   4   6
ATOM      6  C   UNL     1       2.337  -0.564  -1.654  1.00  0.00     0.060 A 
ATOM      7  C   UNL     1       3.576  -1.124  -1.965  1.00  0.00     0.016 A 
ATOM      8  C   UNL     1       1.186  -1.005  -2.330  1.00  0.00     0.016 A 
ATOM      9  C   UNL     1       3.682  -2.054  -2.991  1.00  0.00     0.010 A 
ATOM     10  C   UNL     1       1.286  -1.955  -3.346  1.00  0.00     0.010 A 
ATOM     11  C   UNL     1       2.541  -2.465  -3.688  1.00  0.00    -0.014 A 
BRANCH  11  12
ATOM     12  C   UNL     1       2.731  -3.486  -4.744  1.00  0.00     0.031 A 
ATOM     13  C   UNL     1       2.959  -4.886  -4.186  1.00  0.00     0.074 A 
ATOM     14  C   UNL     1       2.814  -3.032  -6.028  1.00  0.00     0.049 A 
ATOM     15  N   UNL     1       3.782  -5.807  -4.586  1.00  0.00    -0.248 NA
ATOM     16  C   UNL     1       2.270  -5.273  -2.928  1.00  0.00     0.031 C 
ATOM     17  C   UNL     1       2.583  -1.630  -6.421  1.00  0.00     0.029 A 
ATOM     18  N   UNL     1       3.110  -3.619  -7.243  1.00  0.00    -0.354 N 
ATOM     19  C   UNL     1       3.587  -6.931  -3.758  1.00  0.00     0.074 A 
ATOM     20  C   UNL     1       2.744  -6.498  -2.681  1.00  0.00     0.031 C 
ATOM     21  C   UNL     1       2.792  -1.465  -7.742  1.00  0.00     0.029 A 
ATOM     22  C   UNL     1       3.198  -2.722  -8.337  1.00  0.00     0.049 A 
ATOM     23  H   UNL     1       3.249  -4.589  -7.342  1.00  0.00     0.167 HD
ATOM     24  C   UNL     1       4.027  -8.184  -4.074  1.00  0.00     0.037 A 
ATOM     25  C   UNL     1       3.613  -2.950  -9.622  1.00  0.00     0.037 A 
ATOM     26  C   UNL     1       4.627  -8.195  -5.368  1.00  0.00     0.049 A 
ATOM     27  C   UNL     1       3.883  -4.399  -9.722  1.00  0.00     0.074 A 
ATOM     28  C   UNL     1       5.839  -7.788  -5.859  1.00  0.00     0.029 A 
ATOM     29  N   UNL     1       3.793  -8.471  -6.426  1.00  0.00    -0.354 N 
ATOM     30  N   UNL     1       2.983  -5.335  -9.702  1.00  0.00    -0.248 NA
ATOM     31  C   UNL     1       5.280  -4.848  -9.804  1.00  0.00     0.031 C 
ATOM     32  C   UNL     1       5.591  -7.481  -7.215  1.00  0.00     0.029 A 
ATOM     33  C   UNL     1       4.254  -7.768  -7.513  1.00  0.00     0.049 A 
ATOM     34  H   UNL     1       3.009  -9.065  -6.408  1.00  0.00     0.167 HD
ATOM     35  C   UNL     1       3.719  -6.467  -9.442  1.00  0.00     0.074 A 
ATOM     36  C   UNL     1       5.088  -6.164  -9.791  1.00  0.00     0.031 C 
ATOM     37  C   UNL     1       3.283  -7.338  -8.499  1.00  0.00     0.037 A 
BRANCH  24  38
ATOM     38  C   UNL     1       3.779  -9.529  -3.443  1.00  0.00     0.058 A 
ATOM     39  C   UNL     1       2.539  -9.940  -2.935  1.00  0.00     0.135 A 
ATOM     40  C   UNL     1       4.731 -10.555  -3.670  1.00  0.00     0.135 A 
ATOM     41  F   UNL     1       1.565  -9.052  -2.696  1.00  0.00    -0.206 F 
ATOM     42  C   UNL     1       2.233 -11.292  -2.741  1.00  0.00     0.059 A 
ATOM     43  C   UNL     1       4.434 -11.907  -3.523  1.00  0.00     0.059 A 
ATOM     44  F   UNL     1       5.965 -10.258  -4.113  1.00  0.00    -0.206 F 
ATOM     45  C   UNL     1       3.171 -12.269  -3.078  1.00  0.00     0.060 A 
BRANCH  45  46
ATOM     46  S   UNL     1       2.692 -14.012  -3.053  1.00  0.00     0.124 S 
ATOM     47  O   UNL     1       2.752 -14.316  -1.628  1.00  0.00    -0.237 OA
ATOM     48  O   UNL     1       1.357 -13.982  -3.642  1.00  0.00    -0.237 OA
ATOM     49  O   UNL     1       3.715 -14.656  -3.873  1.00  0.00    -0.744 OA
ENDBRANCH  45  46
ENDBRANCH  24  38
BRANCH  25  50
ATOM     50  C   UNL     1       3.988  -2.119 -10.836  1.00  0.00     0.058 A 
ATOM     51  C   UNL     1       4.459  -2.776 -12.010  1.00  0.00     0.135 A 
ATOM     52  C   UNL     1       4.092  -0.721 -10.888  1.00  0.00     0.135 A 
ATOM     53  F   UNL     1       4.293  -4.095 -12.188  1.00  0.00    -0.206 F 
ATOM     54  C   UNL     1       5.169  -2.138 -13.025  1.00  0.00     0.059 A 
ATOM     55  C   UNL     1       4.752  -0.047 -11.928  1.00  0.00     0.059 A 
ATOM     56  F   UNL     1       3.594   0.058  -9.925  1.00  0.00    -0.206 F 
ATOM     57  C   UNL     1       5.359  -0.772 -12.948  1.00  0.00     0.060 A 
BRANCH  57  58
ATOM     58  S   UNL     1       6.426   0.033 -14.157  1.00  0.00     0.124 S 
ATOM     59  O   UNL     1       7.746  -0.211 -13.582  1.00  0.00    -0.237 OA
ATOM     60  O   UNL     1       6.130  -0.692 -15.388  1.00  0.00    -0.237 OA
ATOM     61  O   UNL     1       5.974   1.421 -14.128  1.00  0.00    -0.744 OA
ENDBRANCH  57  58
ENDBRANCH  25  50
BRANCH  37  62
ATOM     62  C   UNL     1       1.774  -7.349  -8.333  1.00  0.00     0.058 A 
ATOM     63  C   UNL     1       1.116  -6.809  -7.216  1.00  0.00     0.135 A 
ATOM     64  C   UNL     1       0.949  -7.809  -9.371  1.00  0.00     0.135 A 
ATOM     65  F   UNL     1       1.816  -6.308  -6.201  1.00  0.00    -0.206 F 
ATOM     66  C   UNL     1      -0.273  -6.745  -7.109  1.00  0.00     0.059 A 
ATOM     67  C   UNL     1      -0.448  -7.739  -9.301  1.00  0.00     0.059 A 
ATOM     68  F   UNL     1       1.498  -8.329 -10.481  1.00  0.00    -0.206 F 
ATOM     69  C   UNL     1      -1.051  -7.206  -8.164  1.00  0.00     0.060 A 
BRANCH  69  70
ATOM     70  S   UNL     1      -2.848  -7.099  -8.015  1.00  0.00     0.124 S 
ATOM     71  O   UNL     1      -3.102  -7.850  -6.789  1.00  0.00    -0.237 OA
ATOM     72  O   UNL     1      -3.068  -5.658  -7.922  1.00  0.00    -0.237 OA
ATOM     73  O   UNL     1      -3.333  -7.726  -9.241  1.00  0.00    -0.744 OA
ENDBRANCH  69  70
ENDBRANCH  37  62
ENDBRANCH  11  12
ENDBRANCH   4   6
ENDBRANCH   3   4
ENDBRANCH   2   3
ENDBRANCH   1   2
BRANCH   1  74
ATOM     74  O   UNL     1       4.047  -0.582   1.349  1.00  0.00    -0.457 OA
BRANCH  74  75
ATOM     75  C   UNL     1       2.932  -0.840   2.083  1.00  0.00     0.354 C 
ATOM     76  O   UNL     1       2.348  -0.036   2.804  1.00  0.00    -0.244 OA
BRANCH  75  77
ATOM     77  C   UNL     1       2.519  -2.201   1.904  1.00  0.00     0.126 A 
ATOM     78  C   UNL     1       3.267  -3.365   1.929  1.00  0.00     0.057 A 
ATOM     79  N   UNL     1       1.199  -2.576   1.773  1.00  0.00    -0.354 N 
ATOM     80  C   UNL     1       2.353  -4.419   2.202  1.00  0.00     0.106 A 
ATOM     81  C   UNL     1       1.081  -3.925   1.994  1.00  0.00     0.105 A 
ATOM     82  H   UNL     1       0.455  -1.969   1.554  1.00  0.00     0.166 HD
BRANCH  80  83
ATOM     83  S   UNL     1       2.815  -5.968   2.819  1.00  0.00     0.263 S 
ATOM     84  O   UNL     1       1.578  -6.727   2.911  1.00  0.00    -0.201 OA
ATOM     85  O   UNL     1       3.918  -6.383   2.000  1.00  0.00    -0.201 OA
BRANCH  83  86
ATOM     86  N   UNL     1       3.405  -5.817   4.422  1.00  0.00    -0.280 N 
ATOM     87  H   UNL     1       3.192  -6.487   5.111  1.00  0.00     0.180 HD
BRANCH  86  88
ATOM     88  C   UNL     1       4.218  -4.679   4.719  1.00  0.00     0.050 A 
ATOM     89  C   UNL     1       3.582  -3.502   5.120  1.00  0.00     0.030 A 
ATOM     90  C   UNL     1       5.602  -4.696   4.532  1.00  0.00     0.043 A 
ATOM     91  C   UNL     1       4.321  -2.337   5.315  1.00  0.00     0.042 A 
ATOM     92  C   UNL     1       6.361  -3.528   4.756  1.00  0.00     0.093 A 
ATOM     93  C   UNL     1       5.701  -2.360   5.138  1.00  0.00     0.135 A 
ATOM     94  F   UNL     1       6.384  -1.227   5.343  1.00  0.00    -0.206 F 
BRANCH  92  95
ATOM     95  C   UNL     1       7.856  -3.548   4.625  1.00  0.00     0.419 C 
ATOM     96  F   UNL     1       8.444  -4.223   5.653  1.00  0.00    -0.166 F 
ATOM     97  F   UNL     1       8.271  -4.174   3.489  1.00  0.00    -0.166 F 
ATOM     98  F   UNL     1       8.448  -2.323   4.603  1.00  0.00    -0.166 F 
ENDBRANCH  92  95
ENDBRANCH  86  88
ENDBRANCH  83  86
ENDBRANCH  80  83
ENDBRANCH  75  77
ENDBRANCH  74  75
ENDBRANCH   1  74
TORSDOF 18
