REMARK SMILES COc1cccc([C@@H]2[NH2+][C@@](C)(C(=O)OCCOC(=O)c3ccc(-c4c5nc(c(-c6c(F)cc(S(=O)(=O)[O-])cc6F)c6ccc([nH]6)c(-c6c(F)cc(S(=O)(=O)[O-])cc6F)c6nc(c(-c7c(F)cc(S(=O)(=O)[O-])cc7F)c7ccc4[nH]7)C=C6)C=C5)cc3)[C@@H]3C(=O)N(C)C(=O)[C@@H]32)c1O
REMARK SMILES IDX 16 1 15 2 14 3 12 4 13 5 10 6 8 7 9 8 93 9 86 12 91 13 11 14
REMARK SMILES IDX 87 15 89 16 92 17 88 18 90 19 7 20 3 21 4 22 94 23 5 24 6 25
REMARK SMILES IDX 2 26 1 27 95 28 17 30 18 31 19 32 20 33 21 34 85 35 22 36
REMARK SMILES IDX 84 37 23 38 24 39 25 40 78 41 26 42 83 43 77 44 79 45 27 46
REMARK SMILES IDX 82 47 76 48 75 49 28 51 62 52 41 53 61 54 42 55 45 56 60 57
REMARK SMILES IDX 80 58 43 59 44 60 59 62 81 63 46 64 29 65 30 66 39 67 31 68
REMARK SMILES IDX 32 69 38 70 40 71 33 72 34 73 35 74 36 75 37 76 63 77 64 78
REMARK SMILES IDX 73 79 65 80 66 81 72 82 74 83 67 84 68 85 69 86 70 87 71 88
REMARK SMILES IDX 47 89 48 90 57 91 49 92 50 93 56 94 58 95 51 96 52 97 53 98
REMARK SMILES IDX 54 99 55 100
REMARK H PARENT 9 10 9 11 95 29 79 50 45 61
REMARK Flexibility Score: inf
ROOT
ATOM      1  C   UNL     1      -4.545  -5.309  -6.660  1.00  0.00     0.275 C 
ENDROOT
BRANCH   1   2
ATOM      2  C   UNL     1      -4.802  -5.565  -5.178  1.00  0.00     0.274 C 
BRANCH   2   3
ATOM      3  O   UNL     1      -4.099  -4.612  -4.355  1.00  0.00    -0.457 OA
BRANCH   3   4
ATOM      4  C   UNL     1      -2.970  -5.074  -3.752  1.00  0.00     0.368 C 
ATOM      5  O   UNL     1      -2.532  -6.212  -3.907  1.00  0.00    -0.245 OA
BRANCH   4   6
ATOM      6  C   UNL     1      -2.286  -4.051  -2.805  1.00  0.00     0.204 C 
ATOM      7  C   UNL     1      -1.863  -1.915  -3.848  1.00  0.00     0.232 C 
ATOM      8  N   UNL     1      -2.804  -2.663  -2.977  1.00  0.00    -0.325 N 
ATOM      9  C   UNL     1      -0.685  -2.835  -4.147  1.00  0.00     0.161 C 
ATOM     10  H   UNL     1      -3.726  -2.691  -3.411  1.00  0.00     0.347 HD
ATOM     11  H   UNL     1      -2.881  -2.204  -2.069  1.00  0.00     0.347 HD
ATOM     12  C   UNL     1      -0.816  -4.007  -3.192  1.00  0.00     0.170 C 
ATOM     13  C   UNL     1       0.712  -2.344  -3.891  1.00  0.00     0.239 C 
ATOM     14  C   UNL     1      -2.592  -4.555  -1.392  1.00  0.00     0.093 C 
ATOM     15  C   UNL     1       0.242  -3.740  -2.155  1.00  0.00     0.240 C 
ATOM     16  N   UNL     1       1.153  -2.886  -2.716  1.00  0.00    -0.285 N 
ATOM     17  O   UNL     1       1.331  -1.598  -4.634  1.00  0.00    -0.274 OA
ATOM     18  O   UNL     1       0.330  -4.291  -1.068  1.00  0.00    -0.274 OA
ATOM     19  C   UNL     1       2.460  -2.615  -2.167  1.00  0.00     0.156 C 
BRANCH   7  20
ATOM     20  C   UNL     1      -1.473  -0.547  -3.328  1.00  0.00     0.056 A 
ATOM     21  C   UNL     1      -0.561   0.920  -1.608  1.00  0.00     0.161 A 
ATOM     22  C   UNL     1      -0.437   1.961  -2.519  1.00  0.00     0.050 A 
ATOM     23  C   UNL     1      -1.113  -0.304  -2.000  1.00  0.00     0.166 A 
ATOM     24  C   UNL     1      -0.833   1.758  -3.841  1.00  0.00     0.005 A 
ATOM     25  C   UNL     1      -1.333   0.514  -4.243  1.00  0.00     0.014 A 
BRANCH  21  26
ATOM     26  O   UNL     1      -0.180   1.101  -0.303  1.00  0.00    -0.493 OA
ATOM     27  C   UNL     1       1.130   0.564  -0.088  1.00  0.00     0.278 C 
ENDBRANCH  21  26
BRANCH  23  28
ATOM     28  O   UNL     1      -1.286  -1.285  -1.059  1.00  0.00    -0.504 OA
ATOM     29  H   UNL     1      -1.047  -1.127  -0.167  1.00  0.00     0.293 HD
ENDBRANCH  23  28
ENDBRANCH   7  20
ENDBRANCH   4   6
ENDBRANCH   3   4
ENDBRANCH   2   3
ENDBRANCH   1   2
BRANCH   1  30
ATOM     30  O   UNL     1      -3.144  -5.457  -6.949  1.00  0.00    -0.458 OA
BRANCH  30  31
ATOM     31  C   UNL     1      -2.556  -4.396  -7.549  1.00  0.00     0.338 C 
ATOM     32  O   UNL     1      -3.102  -3.369  -7.919  1.00  0.00    -0.246 OA
BRANCH  31  33
ATOM     33  C   UNL     1      -1.096  -4.600  -7.665  1.00  0.00     0.060 A 
ATOM     34  C   UNL     1      -0.374  -5.170  -6.619  1.00  0.00     0.016 A 
ATOM     35  C   UNL     1      -0.416  -4.039  -8.746  1.00  0.00     0.016 A 
ATOM     36  C   UNL     1       1.014  -5.017  -6.572  1.00  0.00     0.010 A 
ATOM     37  C   UNL     1       0.983  -4.027  -8.763  1.00  0.00     0.010 A 
ATOM     38  C   UNL     1       1.724  -4.464  -7.651  1.00  0.00    -0.014 A 
BRANCH  38  39
ATOM     39  C   UNL     1       3.216  -4.321  -7.625  1.00  0.00     0.031 A 
ATOM     40  C   UNL     1       3.871  -3.010  -8.005  1.00  0.00     0.074 A 
ATOM     41  C   UNL     1       4.006  -5.362  -7.289  1.00  0.00     0.049 A 
ATOM     42  N   UNL     1       5.111  -2.774  -8.355  1.00  0.00    -0.248 NA
ATOM     43  C   UNL     1       3.012  -1.814  -8.021  1.00  0.00     0.031 C 
ATOM     44  C   UNL     1       3.544  -6.685  -6.862  1.00  0.00     0.029 A 
ATOM     45  N   UNL     1       5.378  -5.475  -7.261  1.00  0.00    -0.354 N 
ATOM     46  C   UNL     1       5.162  -1.428  -8.711  1.00  0.00     0.074 A 
ATOM     47  C   UNL     1       3.827  -0.898  -8.529  1.00  0.00     0.031 C 
ATOM     48  C   UNL     1       4.601  -7.455  -6.571  1.00  0.00     0.029 A 
ATOM     49  C   UNL     1       5.818  -6.732  -6.913  1.00  0.00     0.049 A 
ATOM     50  H   UNL     1       5.985  -4.729  -7.469  1.00  0.00     0.167 HD
ATOM     51  C   UNL     1       6.223  -0.705  -9.149  1.00  0.00     0.037 A 
ATOM     52  C   UNL     1       7.048  -7.281  -6.933  1.00  0.00     0.037 A 
ATOM     53  C   UNL     1       7.570  -1.216  -9.239  1.00  0.00     0.049 A 
ATOM     54  C   UNL     1       8.210  -6.467  -7.419  1.00  0.00     0.074 A 
ATOM     55  C   UNL     1       8.716  -0.561  -9.660  1.00  0.00     0.029 A 
ATOM     56  N   UNL     1       7.959  -2.494  -8.867  1.00  0.00    -0.354 N 
ATOM     57  N   UNL     1       8.222  -5.231  -7.856  1.00  0.00    -0.248 NA
ATOM     58  C   UNL     1       9.521  -7.129  -7.439  1.00  0.00     0.031 C 
ATOM     59  C   UNL     1       9.793  -1.449  -9.563  1.00  0.00     0.029 A 
ATOM     60  C   UNL     1       9.326  -2.645  -9.045  1.00  0.00     0.049 A 
ATOM     61  H   UNL     1       7.354  -3.192  -8.526  1.00  0.00     0.167 HD
ATOM     62  C   UNL     1       9.541  -4.967  -8.203  1.00  0.00     0.074 A 
ATOM     63  C   UNL     1      10.302  -6.162  -7.900  1.00  0.00     0.031 C 
ATOM     64  C   UNL     1      10.071  -3.838  -8.734  1.00  0.00     0.037 A 
BRANCH  51  65
ATOM     65  C   UNL     1       5.981   0.716  -9.591  1.00  0.00     0.058 A 
ATOM     66  C   UNL     1       5.724   1.750  -8.680  1.00  0.00     0.135 A 
ATOM     67  C   UNL     1       6.068   1.055 -10.953  1.00  0.00     0.135 A 
ATOM     68  F   UNL     1       5.624   1.486  -7.368  1.00  0.00    -0.206 F 
ATOM     69  C   UNL     1       5.536   3.064  -9.102  1.00  0.00     0.059 A 
ATOM     70  C   UNL     1       5.909   2.366 -11.396  1.00  0.00     0.059 A 
ATOM     71  F   UNL     1       6.320   0.108 -11.871  1.00  0.00    -0.206 F 
ATOM     72  C   UNL     1       5.629   3.362 -10.464  1.00  0.00     0.060 A 
BRANCH  72  73
ATOM     73  S   UNL     1       5.393   5.072 -10.997  1.00  0.00     0.124 S 
ATOM     74  O   UNL     1       3.945   5.217 -10.878  1.00  0.00    -0.237 OA
ATOM     75  O   UNL     1       6.185   5.818 -10.024  1.00  0.00    -0.237 OA
ATOM     76  O   UNL     1       5.914   5.079 -12.360  1.00  0.00    -0.744 OA
ENDBRANCH  72  73
ENDBRANCH  51  65
BRANCH  52  77
ATOM     77  C   UNL     1       7.220  -8.707  -6.545  1.00  0.00     0.058 A 
ATOM     78  C   UNL     1       7.870  -9.060  -5.355  1.00  0.00     0.135 A 
ATOM     79  C   UNL     1       6.699  -9.742  -7.340  1.00  0.00     0.135 A 
ATOM     80  F   UNL     1       8.394  -8.107  -4.569  1.00  0.00    -0.206 F 
ATOM     81  C   UNL     1       8.000 -10.388  -4.965  1.00  0.00     0.059 A 
ATOM     82  C   UNL     1       6.789 -11.074  -6.955  1.00  0.00     0.059 A 
ATOM     83  F   UNL     1       6.053  -9.454  -8.481  1.00  0.00    -0.206 F 
ATOM     84  C   UNL     1       7.450 -11.389  -5.769  1.00  0.00     0.060 A 
BRANCH  84  85
ATOM     85  S   UNL     1       7.556 -13.106  -5.223  1.00  0.00     0.124 S 
ATOM     86  O   UNL     1       8.934 -13.437  -5.566  1.00  0.00    -0.237 OA
ATOM     87  O   UNL     1       7.262 -12.997  -3.797  1.00  0.00    -0.237 OA
ATOM     88  O   UNL     1       6.528 -13.772  -6.016  1.00  0.00    -0.744 OA
ENDBRANCH  84  85
ENDBRANCH  52  77
BRANCH  64  89
ATOM     89  C   UNL     1      11.551  -3.834  -8.989  1.00  0.00     0.058 A 
ATOM     90  C   UNL     1      12.113  -4.532 -10.069  1.00  0.00     0.135 A 
ATOM     91  C   UNL     1      12.414  -3.105  -8.156  1.00  0.00     0.135 A 
ATOM     92  F   UNL     1      11.331  -5.253 -10.888  1.00  0.00    -0.206 F 
ATOM     93  C   UNL     1      13.484  -4.527 -10.301  1.00  0.00     0.059 A 
ATOM     94  C   UNL     1      13.786  -3.068  -8.382  1.00  0.00     0.059 A 
ATOM     95  F   UNL     1      11.925  -2.416  -7.113  1.00  0.00    -0.206 F 
ATOM     96  C   UNL     1      14.313  -3.794  -9.450  1.00  0.00     0.060 A 
BRANCH  96  97
ATOM     97  S   UNL     1      16.090  -3.779  -9.770  1.00  0.00     0.124 S 
ATOM     98  O   UNL     1      16.486  -5.098  -9.288  1.00  0.00    -0.237 OA
ATOM     99  O   UNL     1      16.147  -3.589 -11.216  1.00  0.00    -0.237 OA
ATOM    100  O   UNL     1      16.568  -2.650  -8.977  1.00  0.00    -0.744 OA
ENDBRANCH  96  97
ENDBRANCH  64  89
ENDBRANCH  38  39
ENDBRANCH  31  33
ENDBRANCH  30  31
ENDBRANCH   1  30
TORSDOF 17
