REMARK SMILES [NH3+]Cc1c(-c2ccccc2)c(C(=O)OCCOC(=O)c2ccc(-c3c4nc(c(-c5c(F)cc(S(=O)(=O)[O-])cc5F)c5ccc([nH]5)c(-c5c(F)cc(S(=O)(=O)[O-])cc5F)c5nc(c(-c6c(F)cc(S(=O)(=O)[O-])cc6F)c6ccc3[nH]6)C=C5)C=C4)cc2)c2ccccn12
REMARK SMILES IDX 16 1 15 2 14 3 12 4 13 5 11 6 3 7 4 8 91 9 86 10 90 11 87 12
REMARK SMILES IDX 89 13 88 14 2 15 1 16 5 20 6 21 10 22 7 23 9 24 8 25 17 26
REMARK SMILES IDX 18 27 19 28 20 29 21 30 85 31 22 32 84 33 23 34 24 35 25 36
REMARK SMILES IDX 78 37 26 38 83 39 77 40 79 41 27 42 82 43 76 44 75 45 28 47
REMARK SMILES IDX 62 48 41 49 61 50 42 51 45 52 60 53 80 54 43 55 44 56 59 58
REMARK SMILES IDX 81 59 46 60 29 61 30 62 39 63 31 64 32 65 38 66 40 67 33 68
REMARK SMILES IDX 34 69 35 70 36 71 37 72 63 73 64 74 73 75 65 76 66 77 72 78
REMARK SMILES IDX 74 79 67 80 68 81 69 82 70 83 71 84 47 85 48 86 57 87 49 88
REMARK SMILES IDX 50 89 56 90 58 91 51 92 52 93 53 94 54 95 55 96
REMARK H PARENT 1 17 1 18 1 19 79 46 45 57
REMARK Flexibility Score: inf
ROOT
ATOM      1  C   UNL     1       0.981  -8.724  -0.495  1.00  0.00     0.275 C 
ENDROOT
BRANCH   1   2
ATOM      2  C   UNL     1       1.919  -8.009  -1.460  1.00  0.00     0.275 C 
BRANCH   2   3
ATOM      3  O   UNL     1       2.125  -6.650  -1.023  1.00  0.00    -0.458 OA
BRANCH   3   4
ATOM      4  C   UNL     1       1.495  -5.693  -1.767  1.00  0.00     0.341 C 
ATOM      5  O   UNL     1       0.914  -5.920  -2.822  1.00  0.00    -0.246 OA
BRANCH   4   6
ATOM      6  C   UNL     1       1.691  -4.341  -1.258  1.00  0.00     0.093 A 
ATOM      7  C   UNL     1       1.391  -2.103  -0.961  1.00  0.00     0.086 A 
ATOM      8  C   UNL     1       0.722  -3.326  -0.894  1.00  0.00     0.024 A 
ATOM      9  N   UNL     1       2.745  -2.362  -1.183  1.00  0.00    -0.314 N 
ATOM     10  C   UNL     1       2.929  -3.734  -1.293  1.00  0.00     0.061 A 
ATOM     11  C   UNL     1       3.806  -1.466  -1.393  1.00  0.00     0.092 A 
ATOM     12  C   UNL     1       4.238  -4.222  -1.595  1.00  0.00     0.027 A 
ATOM     13  C   UNL     1       5.032  -1.927  -1.699  1.00  0.00     0.018 A 
ATOM     14  C   UNL     1       5.246  -3.357  -1.794  1.00  0.00     0.004 A 
BRANCH   7  15
ATOM     15  C   UNL     1       0.850  -0.711  -0.984  1.00  0.00     0.315 C 
BRANCH  15  16
ATOM     16  N   UNL     1       1.123  -0.028   0.269  1.00  0.00    -0.353 N 
ATOM     17  H   UNL     1       0.746   0.919   0.229  1.00  0.00     0.344 HD
ATOM     18  H   UNL     1       2.131   0.015   0.420  1.00  0.00     0.344 HD
ATOM     19  H   UNL     1       0.685  -0.537   1.036  1.00  0.00     0.344 HD
ENDBRANCH  15  16
ENDBRANCH   7  15
BRANCH   8  20
ATOM     20  C   UNL     1      -0.745  -3.475  -0.985  1.00  0.00    -0.015 A 
ATOM     21  C   UNL     1      -1.752  -4.182   0.348  1.00  0.00     0.009 A 
ATOM     22  C   UNL     1      -1.284  -3.718  -2.649  1.00  0.00     0.009 A 
ATOM     23  C   UNL     1      -3.377  -5.289  -0.191  1.00  0.00     0.001 A 
ATOM     24  C   UNL     1      -2.713  -4.662  -3.096  1.00  0.00     0.001 A 
ATOM     25  C   UNL     1      -3.748  -5.466  -1.934  1.00  0.00     0.000 A 
ENDBRANCH   8  20
ENDBRANCH   4   6
ENDBRANCH   3   4
ENDBRANCH   2   3
ENDBRANCH   1   2
BRANCH   1  26
ATOM     26  O   UNL     1      -0.280  -8.036  -0.498  1.00  0.00    -0.458 OA
BRANCH  26  27
ATOM     27  C   UNL     1      -0.452  -7.223   0.562  1.00  0.00     0.338 C 
ATOM     28  O   UNL     1       0.238  -7.153   1.567  1.00  0.00    -0.246 OA
BRANCH  27  29
ATOM     29  C   UNL     1      -1.577  -6.322   0.352  1.00  0.00     0.060 A 
ATOM     30  C   UNL     1      -1.752  -5.349  -1.145  1.00  0.00     0.016 A 
ATOM     31  C   UNL     1      -2.432  -5.809   1.792  1.00  0.00     0.016 A 
ATOM     32  C   UNL     1      -2.905  -3.672  -1.057  1.00  0.00     0.010 A 
ATOM     33  C   UNL     1      -3.482  -4.385   1.846  1.00  0.00     0.010 A 
ATOM     34  C   UNL     1      -3.768  -3.291   0.483  1.00  0.00    -0.014 A 
BRANCH  34  35
ATOM     35  C   UNL     1      -4.941  -2.317   0.579  1.00  0.00     0.031 A 
ATOM     36  C   UNL     1      -5.298  -1.632   1.895  1.00  0.00     0.074 A 
ATOM     37  C   UNL     1      -5.826  -2.177  -0.440  1.00  0.00     0.049 A 
ATOM     38  N   UNL     1      -6.402  -1.008   2.242  1.00  0.00    -0.248 NA
ATOM     39  C   UNL     1      -4.308  -1.695   2.980  1.00  0.00     0.031 C 
ATOM     40  C   UNL     1      -5.729  -2.800  -1.749  1.00  0.00     0.029 A 
ATOM     41  N   UNL     1      -7.022  -1.488  -0.535  1.00  0.00    -0.354 N 
ATOM     42  C   UNL     1      -6.261  -0.670   3.589  1.00  0.00     0.074 A 
ATOM     43  C   UNL     1      -4.992  -1.222   4.014  1.00  0.00     0.031 C 
ATOM     44  C   UNL     1      -6.765  -2.475  -2.520  1.00  0.00     0.029 A 
ATOM     45  C   UNL     1      -7.666  -1.653  -1.747  1.00  0.00     0.049 A 
ATOM     46  H   UNL     1      -7.381  -0.931   0.193  1.00  0.00     0.167 HD
ATOM     47  C   UNL     1      -7.081   0.063   4.390  1.00  0.00     0.037 A 
ATOM     48  C   UNL     1      -8.849  -1.230  -2.231  1.00  0.00     0.037 A 
ATOM     49  C   UNL     1      -8.293   0.705   3.936  1.00  0.00     0.049 A 
ATOM     50  C   UNL     1      -9.695  -0.356  -1.375  1.00  0.00     0.074 A 
ATOM     51  C   UNL     1      -9.125   1.570   4.630  1.00  0.00     0.029 A 
ATOM     52  N   UNL     1      -8.837   0.572   2.666  1.00  0.00    -0.354 N 
ATOM     53  N   UNL     1      -9.506  -0.019  -0.124  1.00  0.00    -0.248 NA
ATOM     54  C   UNL     1     -10.892   0.223  -1.994  1.00  0.00     0.031 C 
ATOM     55  C   UNL     1     -10.182   1.938   3.789  1.00  0.00     0.029 A 
ATOM     56  C   UNL     1      -9.992   1.334   2.558  1.00  0.00     0.049 A 
ATOM     57  H   UNL     1      -8.459   0.018   1.945  1.00  0.00     0.167 HD
ATOM     58  C   UNL     1     -10.548   0.835   0.193  1.00  0.00     0.074 A 
ATOM     59  C   UNL     1     -11.358   0.971  -1.003  1.00  0.00     0.031 C 
ATOM     60  C   UNL     1     -10.801   1.453   1.371  1.00  0.00     0.037 A 
BRANCH  47  61
ATOM     61  C   UNL     1      -6.680   0.250   5.840  1.00  0.00     0.058 A 
ATOM     62  C   UNL     1      -5.542   0.987   6.210  1.00  0.00     0.135 A 
ATOM     63  C   UNL     1      -7.458  -0.291   6.880  1.00  0.00     0.135 A 
ATOM     64  F   UNL     1      -4.761   1.540   5.268  1.00  0.00    -0.206 F 
ATOM     65  C   UNL     1      -5.153   1.123   7.540  1.00  0.00     0.059 A 
ATOM     66  C   UNL     1      -7.108  -0.138   8.222  1.00  0.00     0.059 A 
ATOM     67  F   UNL     1      -8.574  -0.983   6.601  1.00  0.00    -0.206 F 
ATOM     68  C   UNL     1      -5.936   0.547   8.541  1.00  0.00     0.060 A 
BRANCH  68  69
ATOM     69  S   UNL     1      -5.394   0.696  10.258  1.00  0.00     0.124 S 
ATOM     70  O   UNL     1      -4.292  -0.260  10.299  1.00  0.00    -0.237 OA
ATOM     71  O   UNL     1      -5.014   2.102  10.348  1.00  0.00    -0.237 OA
ATOM     72  O   UNL     1      -6.579   0.320  11.023  1.00  0.00    -0.744 OA
ENDBRANCH  68  69
ENDBRANCH  47  61
BRANCH  48  73
ATOM     73  C   UNL     1      -9.232  -1.587  -3.628  1.00  0.00     0.058 A 
ATOM     74  C   UNL     1      -9.105  -0.650  -4.663  1.00  0.00     0.135 A 
ATOM     75  C   UNL     1      -9.591  -2.901  -3.977  1.00  0.00     0.135 A 
ATOM     76  F   UNL     1      -8.755   0.614  -4.383  1.00  0.00    -0.206 F 
ATOM     77  C   UNL     1      -9.312  -1.000  -5.994  1.00  0.00     0.059 A 
ATOM     78  C   UNL     1      -9.779  -3.280  -5.304  1.00  0.00     0.059 A 
ATOM     79  F   UNL     1      -9.687  -3.846  -3.029  1.00  0.00    -0.206 F 
ATOM     80  C   UNL     1      -9.636  -2.322  -6.307  1.00  0.00     0.060 A 
BRANCH  80  81
ATOM     81  S   UNL     1      -9.796  -2.783  -8.047  1.00  0.00     0.124 S 
ATOM     82  O   UNL     1     -11.059  -2.149  -8.405  1.00  0.00    -0.237 OA
ATOM     83  O   UNL     1      -8.597  -2.193  -8.633  1.00  0.00    -0.237 OA
ATOM     84  O   UNL     1      -9.811  -4.243  -8.008  1.00  0.00    -0.744 OA
ENDBRANCH  80  81
ENDBRANCH  48  73
BRANCH  60  85
ATOM     85  C   UNL     1     -12.001   2.350   1.407  1.00  0.00     0.058 A 
ATOM     86  C   UNL     1     -13.304   1.829   1.423  1.00  0.00     0.135 A 
ATOM     87  C   UNL     1     -11.845   3.744   1.423  1.00  0.00     0.135 A 
ATOM     88  F   UNL     1     -13.502   0.502   1.389  1.00  0.00    -0.206 F 
ATOM     89  C   UNL     1     -14.415   2.663   1.428  1.00  0.00     0.059 A 
ATOM     90  C   UNL     1     -12.942   4.597   1.453  1.00  0.00     0.059 A 
ATOM     91  F   UNL     1     -10.618   4.289   1.405  1.00  0.00    -0.206 F 
ATOM     92  C   UNL     1     -14.224   4.046   1.442  1.00  0.00     0.060 A 
BRANCH  92  93
ATOM     93  S   UNL     1     -15.675   5.118   1.472  1.00  0.00     0.124 S 
ATOM     94  O   UNL     1     -16.143   5.016   0.094  1.00  0.00    -0.237 OA
ATOM     95  O   UNL     1     -16.517   4.476   2.477  1.00  0.00    -0.237 OA
ATOM     96  O   UNL     1     -15.130   6.416   1.858  1.00  0.00    -0.744 OA
ENDBRANCH  92  93
ENDBRANCH  60  85
ENDBRANCH  34  35
ENDBRANCH  27  29
ENDBRANCH  26  27
ENDBRANCH   1  26
TORSDOF 17
