REMARK SMILES C[NH2+][C@](CSc1cccc(F)c1)(C(=O)OCCOC(=O)c1ccc(-c2c3nc(c(-c4c(F)cc(S(=O)(=O)[O-])cc4F)c4ccc([nH]4)c(-c4c(F)cc(S(=O)(=O)[O-])cc4F)c4nc(c(-c5c(F)cc(S(=O)(=O)[O-])cc5F)c5ccc2[nH]5)C=C4)C=C3)cc1)c1ccccc1
REMARK SMILES IDX 16 1 15 2 13 3 14 4 3 5 2 6 1 7 87 10 88 11 92 12 89 13
REMARK SMILES IDX 91 14 90 15 4 16 5 17 6 18 7 19 12 20 8 21 10 22 9 23 11 24
REMARK SMILES IDX 17 25 18 26 19 27 20 28 21 29 22 30 86 31 23 32 85 33 24 34
REMARK SMILES IDX 25 35 26 36 79 37 27 38 84 39 78 40 80 41 28 42 83 43 77 44
REMARK SMILES IDX 76 45 29 47 63 48 42 49 62 50 43 51 46 52 61 53 81 54 44 55
REMARK SMILES IDX 45 56 60 58 82 59 47 60 30 61 31 62 40 63 32 64 33 65 39 66
REMARK SMILES IDX 41 67 34 68 35 69 36 70 37 71 38 72 64 73 65 74 74 75 66 76
REMARK SMILES IDX 67 77 73 78 75 79 68 80 69 81 70 82 71 83 72 84 48 85 49 86
REMARK SMILES IDX 58 87 50 88 51 89 57 90 59 91 52 92 53 93 54 94 55 95 56 96
REMARK H PARENT 2 8 2 9 80 46 46 57
REMARK Flexibility Score: inf
ROOT
ATOM      1  C   UNL     1      -1.395  -4.655   1.540  1.00  0.00     0.274 C 
ENDROOT
BRANCH   1   2
ATOM      2  O   UNL     1      -0.866  -3.426   0.994  1.00  0.00    -0.457 OA
BRANCH   2   3
ATOM      3  C   UNL     1      -1.749  -2.381   0.859  1.00  0.00     0.374 C 
ATOM      4  O   UNL     1      -2.914  -2.476   1.226  1.00  0.00    -0.244 OA
BRANCH   3   5
ATOM      5  C   UNL     1      -1.114  -1.159   0.013  1.00  0.00     0.229 C 
BRANCH   5   6
ATOM      6  N   UNL     1      -1.692  -1.251  -1.363  1.00  0.00    -0.330 N 
ATOM      7  C   UNL     1      -1.664  -2.561  -1.986  1.00  0.00     0.332 C 
ATOM      8  H   UNL     1      -2.666  -0.953  -1.311  1.00  0.00     0.347 HD
ATOM      9  H   UNL     1      -1.101  -0.660  -1.946  1.00  0.00     0.347 HD
ENDBRANCH   5   6
BRANCH   5  10
ATOM     10  C   UNL     1      -1.591   0.221   0.587  1.00  0.00     0.025 A 
ATOM     11  C   UNL     1      -0.797   1.382   0.568  1.00  0.00     0.011 A 
ATOM     12  C   UNL     1      -2.913   0.410   1.048  1.00  0.00     0.011 A 
ATOM     13  C   UNL     1      -1.265   2.628   1.016  1.00  0.00     0.001 A 
ATOM     14  C   UNL     1      -3.378   1.645   1.526  1.00  0.00     0.001 A 
ATOM     15  C   UNL     1      -2.551   2.756   1.514  1.00  0.00     0.000 A 
ENDBRANCH   5  10
BRANCH   5  16
ATOM     16  C   UNL     1       0.461  -1.381   0.052  1.00  0.00     0.161 C 
BRANCH  16  17
ATOM     17  S   UNL     1       1.774  -0.365  -0.785  1.00  0.00    -0.118 SA
BRANCH  17  18
ATOM     18  C   UNL     1       1.173  -0.191  -2.442  1.00  0.00     0.010 A 
ATOM     19  C   UNL     1       1.121  -1.283  -3.313  1.00  0.00     0.015 A 
ATOM     20  C   UNL     1       0.759   1.067  -2.889  1.00  0.00     0.054 A 
ATOM     21  C   UNL     1       0.580  -1.138  -4.593  1.00  0.00     0.004 A 
ATOM     22  C   UNL     1       0.234   1.203  -4.167  1.00  0.00     0.124 A 
ATOM     23  C   UNL     1       0.124   0.109  -5.017  1.00  0.00     0.039 A 
ATOM     24  F   UNL     1      -0.182   2.405  -4.585  1.00  0.00    -0.207 F 
ENDBRANCH  17  18
ENDBRANCH  16  17
ENDBRANCH   5  16
ENDBRANCH   3   5
ENDBRANCH   2   3
ENDBRANCH   1   2
BRANCH   1  25
ATOM     25  C   UNL     1      -0.992  -4.811   3.002  1.00  0.00     0.275 C 
BRANCH  25  26
ATOM     26  O   UNL     1      -1.540  -3.711   3.737  1.00  0.00    -0.458 OA
BRANCH  26  27
ATOM     27  C   UNL     1      -0.833  -3.303   4.813  1.00  0.00     0.338 C 
ATOM     28  O   UNL     1       0.135  -3.864   5.310  1.00  0.00    -0.246 OA
BRANCH  27  29
ATOM     29  C   UNL     1      -1.403  -2.031   5.296  1.00  0.00     0.060 A 
ATOM     30  C   UNL     1      -1.752  -1.040   4.378  1.00  0.00     0.016 A 
ATOM     31  C   UNL     1      -1.522  -1.786   6.666  1.00  0.00     0.016 A 
ATOM     32  C   UNL     1      -2.179   0.206   4.825  1.00  0.00     0.010 A 
ATOM     33  C   UNL     1      -2.014  -0.552   7.110  1.00  0.00     0.010 A 
ATOM     34  C   UNL     1      -2.323   0.468   6.193  1.00  0.00    -0.014 A 
BRANCH  34  35
ATOM     35  C   UNL     1      -2.688   1.845   6.628  1.00  0.00     0.031 A 
ATOM     36  C   UNL     1      -1.691   2.673   7.393  1.00  0.00     0.074 A 
ATOM     37  C   UNL     1      -3.853   2.404   6.241  1.00  0.00     0.049 A 
ATOM     38  N   UNL     1      -1.833   3.865   7.914  1.00  0.00    -0.248 NA
ATOM     39  C   UNL     1      -0.357   2.086   7.598  1.00  0.00     0.031 C 
ATOM     40  C   UNL     1      -4.878   1.749   5.426  1.00  0.00     0.029 A 
ATOM     41  N   UNL     1      -4.349   3.670   6.438  1.00  0.00    -0.354 N 
ATOM     42  C   UNL     1      -0.630   4.148   8.549  1.00  0.00     0.074 A 
ATOM     43  C   UNL     1       0.235   3.006   8.346  1.00  0.00     0.031 C 
ATOM     44  C   UNL     1      -5.836   2.640   5.124  1.00  0.00     0.029 A 
ATOM     45  C   UNL     1      -5.538   3.907   5.788  1.00  0.00     0.049 A 
ATOM     46  H   UNL     1      -3.896   4.345   6.994  1.00  0.00     0.167 HD
ATOM     47  C   UNL     1      -0.278   5.257   9.241  1.00  0.00     0.037 A 
ATOM     48  C   UNL     1      -6.309   5.012   5.742  1.00  0.00     0.037 A 
ATOM     49  C   UNL     1      -1.116   6.416   9.402  1.00  0.00     0.049 A 
ATOM     50  C   UNL     1      -5.911   6.222   6.543  1.00  0.00     0.074 A 
ATOM     51  C   UNL     1      -0.866   7.565  10.132  1.00  0.00     0.029 A 
ATOM     52  N   UNL     1      -2.353   6.585   8.800  1.00  0.00    -0.354 N 
ATOM     53  N   UNL     1      -4.822   6.425   7.245  1.00  0.00    -0.248 NA
ATOM     54  C   UNL     1      -6.867   7.339   6.578  1.00  0.00     0.031 C 
ATOM     55  C   UNL     1      -1.964   8.422   9.989  1.00  0.00     0.029 A 
ATOM     56  C   UNL     1      -2.882   7.819   9.145  1.00  0.00     0.049 A 
ATOM     57  H   UNL     1      -2.791   5.927   8.215  1.00  0.00     0.167 HD
ATOM     58  C   UNL     1      -4.972   7.681   7.823  1.00  0.00     0.074 A 
ATOM     59  C   UNL     1      -6.235   8.211   7.352  1.00  0.00     0.031 C 
ATOM     60  C   UNL     1      -4.148   8.327   8.684  1.00  0.00     0.037 A 
BRANCH  47  61
ATOM     61  C   UNL     1       1.061   5.250   9.919  1.00  0.00     0.058 A 
ATOM     62  C   UNL     1       1.143   5.064  11.308  1.00  0.00     0.135 A 
ATOM     63  C   UNL     1       2.255   5.447   9.210  1.00  0.00     0.135 A 
ATOM     64  F   UNL     1       0.030   4.859  12.030  1.00  0.00    -0.206 F 
ATOM     65  C   UNL     1       2.363   5.081  11.973  1.00  0.00     0.059 A 
ATOM     66  C   UNL     1       3.490   5.449   9.852  1.00  0.00     0.059 A 
ATOM     67  F   UNL     1       2.231   5.599   7.876  1.00  0.00    -0.206 F 
ATOM     68  C   UNL     1       3.532   5.275  11.237  1.00  0.00     0.060 A 
BRANCH  68  69
ATOM     69  S   UNL     1       5.114   5.241  12.108  1.00  0.00     0.124 S 
ATOM     70  O   UNL     1       5.102   6.525  12.799  1.00  0.00    -0.237 OA
ATOM     71  O   UNL     1       4.974   4.060  12.955  1.00  0.00    -0.237 OA
ATOM     72  O   UNL     1       6.089   5.113  11.029  1.00  0.00    -0.744 OA
ENDBRANCH  68  69
ENDBRANCH  47  61
BRANCH  48  73
ATOM     73  C   UNL     1      -7.558   5.020   4.934  1.00  0.00     0.058 A 
ATOM     74  C   UNL     1      -8.665   4.237   5.293  1.00  0.00     0.135 A 
ATOM     75  C   UNL     1      -7.667   5.815   3.782  1.00  0.00     0.135 A 
ATOM     76  F   UNL     1      -8.616   3.462   6.388  1.00  0.00    -0.206 F 
ATOM     77  C   UNL     1      -9.823   4.216   4.525  1.00  0.00     0.059 A 
ATOM     78  C   UNL     1      -8.826   5.832   3.011  1.00  0.00     0.059 A 
ATOM     79  F   UNL     1      -6.643   6.600   3.411  1.00  0.00    -0.206 F 
ATOM     80  C   UNL     1      -9.893   5.013   3.382  1.00  0.00     0.060 A 
BRANCH  80  81
ATOM     81  S   UNL     1     -11.408   4.979   2.400  1.00  0.00     0.124 S 
ATOM     82  O   UNL     1     -11.271   3.706   1.700  1.00  0.00    -0.237 OA
ATOM     83  O   UNL     1     -12.444   5.032   3.426  1.00  0.00    -0.237 OA
ATOM     84  O   UNL     1     -11.294   6.172   1.567  1.00  0.00    -0.744 OA
ENDBRANCH  80  81
ENDBRANCH  48  73
BRANCH  60  85
ATOM     85  C   UNL     1      -4.597   9.665   9.197  1.00  0.00     0.058 A 
ATOM     86  C   UNL     1      -3.991  10.849   8.750  1.00  0.00     0.135 A 
ATOM     87  C   UNL     1      -5.601   9.768  10.173  1.00  0.00     0.135 A 
ATOM     88  F   UNL     1      -3.023  10.805   7.821  1.00  0.00    -0.206 F 
ATOM     89  C   UNL     1      -4.362  12.090   9.257  1.00  0.00     0.059 A 
ATOM     90  C   UNL     1      -6.002  11.001  10.680  1.00  0.00     0.059 A 
ATOM     91  F   UNL     1      -6.218   8.665  10.625  1.00  0.00    -0.206 F 
ATOM     92  C   UNL     1      -5.366  12.156  10.225  1.00  0.00     0.060 A 
BRANCH  92  93
ATOM     93  S   UNL     1      -5.862  13.775  10.852  1.00  0.00     0.124 S 
ATOM     94  O   UNL     1      -4.758  14.098  11.749  1.00  0.00    -0.237 OA
ATOM     95  O   UNL     1      -5.942  14.572   9.631  1.00  0.00    -0.237 OA
ATOM     96  O   UNL     1      -7.143  13.508  11.501  1.00  0.00    -0.744 OA
ENDBRANCH  92  93
ENDBRANCH  60  85
ENDBRANCH  34  35
ENDBRANCH  27  29
ENDBRANCH  26  27
ENDBRANCH  25  26
ENDBRANCH   1  25
TORSDOF 19
