REMARK SMILES Cc1ccc2[nH]c3c(=O)n(CC(=O)OCCOC(=O)c4ccc(-c5c6nc(c(-c7c(F)cc(S(=O)(=O)[O-])cc7F)c7ccc([nH]7)c(-c7c(F)cc(S(=O)(=O)[O-])cc7F)c7nc(c(-c8c(F)cc(S(=O)(=O)[O-])cc8F)c8ccc5[nH]8)C=C7)C=C6)cc4)cnc3c2c1
REMARK SMILES IDX 16 1 15 2 14 3 12 4 13 5 11 6 10 7 1 8 2 9 3 10 90 11 4 12
REMARK SMILES IDX 89 13 5 14 88 15 6 16 7 17 87 18 8 20 86 21 9 22 17 23 18 24
REMARK SMILES IDX 19 25 20 26 21 27 85 28 22 29 84 30 23 31 24 32 25 33 78 34
REMARK SMILES IDX 26 35 83 36 77 37 79 38 27 39 82 40 76 41 75 42 28 44 62 45
REMARK SMILES IDX 41 46 61 47 42 48 45 49 60 50 80 51 43 52 44 53 59 55 81 56
REMARK SMILES IDX 46 57 29 58 30 59 39 60 31 61 32 62 38 63 40 64 33 65 34 66
REMARK SMILES IDX 35 67 36 68 37 69 63 70 64 71 73 72 65 73 66 74 72 75 74 76
REMARK SMILES IDX 67 77 68 78 69 79 70 80 71 81 47 82 48 83 57 84 49 85 50 86
REMARK SMILES IDX 56 87 58 88 51 89 52 90 53 91 54 92 55 93
REMARK H PARENT 6 19 79 43 45 54
REMARK Flexibility Score: inf
ROOT
ATOM      1  C   UNL     1       2.069  -4.062   9.767  1.00  0.00     0.275 C 
ENDROOT
BRANCH   1   2
ATOM      2  C   UNL     1       2.539  -5.382   9.119  1.00  0.00     0.274 C 
BRANCH   2   3
ATOM      3  O   UNL     1       1.883  -5.595   7.841  1.00  0.00    -0.461 OA
BRANCH   3   4
ATOM      4  C   UNL     1       0.713  -6.275   7.914  1.00  0.00     0.326 C 
ATOM      5  O   UNL     1       0.386  -6.891   8.927  1.00  0.00    -0.250 OA
BRANCH   4   6
ATOM      6  C   UNL     1      -0.151  -6.212   6.583  1.00  0.00     0.249 C 
BRANCH   6   7
ATOM      7  N   UNL     1      -0.106  -5.035   5.716  1.00  0.00    -0.286 N 
ATOM      8  C   UNL     1       1.071   0.066  -0.005  1.00  0.00     0.044 C 
ATOM      9  C   UNL     1       0.593  -0.280   1.369  1.00  0.00    -0.050 A 
ATOM     10  C   UNL     1       0.154   0.726   2.239  1.00  0.00     0.005 A 
ATOM     11  C   UNL     1       0.650  -1.614   1.796  1.00  0.00     0.016 A 
ATOM     12  C   UNL     1      -0.252   0.438   3.542  1.00  0.00     0.027 A 
ATOM     13  C   UNL     1       0.260  -1.927   3.103  1.00  0.00     0.026 A 
ATOM     14  C   UNL     1      -0.192  -0.897   3.942  1.00  0.00     0.048 A 
ATOM     15  C   UNL     1       0.183  -3.116   3.845  1.00  0.00     0.103 A 
ATOM     16  N   UNL     1      -0.549  -1.475   5.139  1.00  0.00    -0.349 N 
ATOM     17  C   UNL     1      -0.381  -2.823   5.039  1.00  0.00     0.132 A 
ATOM     18  N   UNL     1       0.492  -4.424   3.469  1.00  0.00    -0.236 NA
ATOM     19  H   UNL     1      -0.872  -0.995   5.935  1.00  0.00     0.167 HD
ATOM     20  C   UNL     1      -0.789  -3.828   5.941  1.00  0.00     0.278 A 
ATOM     21  C   UNL     1       0.347  -5.276   4.437  1.00  0.00     0.203 A 
ATOM     22  O   UNL     1      -1.732  -3.579   6.676  1.00  0.00    -0.267 OA
ENDBRANCH   6   7
ENDBRANCH   4   6
ENDBRANCH   3   4
ENDBRANCH   2   3
ENDBRANCH   1   2
BRANCH   1  23
ATOM     23  O   UNL     1       0.666  -4.151  10.232  1.00  0.00    -0.458 OA
BRANCH  23  24
ATOM     24  C   UNL     1      -0.262  -3.880   9.260  1.00  0.00     0.338 C 
ATOM     25  O   UNL     1       0.137  -3.353   8.228  1.00  0.00    -0.246 OA
BRANCH  24  26
ATOM     26  C   UNL     1      -1.703  -4.540   9.428  1.00  0.00     0.060 A 
ATOM     27  C   UNL     1      -2.205  -5.140  10.539  1.00  0.00     0.016 A 
ATOM     28  C   UNL     1      -2.177  -5.329   8.368  1.00  0.00     0.016 A 
ATOM     29  C   UNL     1      -2.819  -6.581  10.389  1.00  0.00     0.010 A 
ATOM     30  C   UNL     1      -3.107  -6.421   8.256  1.00  0.00     0.010 A 
ATOM     31  C   UNL     1      -2.785  -7.446   9.110  1.00  0.00    -0.014 A 
BRANCH  31  32
ATOM     32  C   UNL     1      -3.355  -9.085   8.546  1.00  0.00     0.031 A 
ATOM     33  C   UNL     1      -4.999  -8.504   9.121  1.00  0.00     0.074 A 
ATOM     34  C   UNL     1      -2.739 -10.480   7.820  1.00  0.00     0.049 A 
ATOM     35  N   UNL     1      -5.378  -8.468  10.388  1.00  0.00    -0.248 NA
ATOM     36  C   UNL     1      -5.992  -7.285   8.592  1.00  0.00     0.031 C 
ATOM     37  C   UNL     1      -1.344 -11.182   7.027  1.00  0.00     0.029 A 
ATOM     38  N   UNL     1      -3.214 -11.898   7.596  1.00  0.00    -0.354 N 
ATOM     39  C   UNL     1      -6.782  -8.304  10.320  1.00  0.00     0.074 A 
ATOM     40  C   UNL     1      -7.097  -7.339   9.363  1.00  0.00     0.031 C 
ATOM     41  C   UNL     1      -1.343 -12.351   6.219  1.00  0.00     0.029 A 
ATOM     42  C   UNL     1      -2.766 -12.813   6.449  1.00  0.00     0.049 A 
ATOM     43  H   UNL     1      -3.865 -12.263   8.239  1.00  0.00     0.167 HD
ATOM     44  C   UNL     1      -7.564  -9.377  10.528  1.00  0.00     0.037 A 
ATOM     45  C   UNL     1      -3.492 -13.906   5.835  1.00  0.00     0.037 A 
ATOM     46  C   UNL     1      -6.720 -10.374  11.097  1.00  0.00     0.049 A 
ATOM     47  C   UNL     1      -4.678 -13.979   6.740  1.00  0.00     0.074 A 
ATOM     48  C   UNL     1      -5.898 -10.372  12.204  1.00  0.00     0.029 A 
ATOM     49  N   UNL     1      -6.129 -11.146  10.149  1.00  0.00    -0.354 N 
ATOM     50  N   UNL     1      -4.552 -14.345   7.995  1.00  0.00    -0.248 NA
ATOM     51  C   UNL     1      -5.615 -12.897   6.413  1.00  0.00     0.031 C 
ATOM     52  C   UNL     1      -4.767 -11.155  11.869  1.00  0.00     0.029 A 
ATOM     53  C   UNL     1      -4.991 -11.715  10.619  1.00  0.00     0.049 A 
ATOM     54  H   UNL     1      -6.481 -11.275   9.239  1.00  0.00     0.167 HD
ATOM     55  C   UNL     1      -4.992 -13.238   8.713  1.00  0.00     0.074 A 
ATOM     56  C   UNL     1      -5.711 -12.379   7.650  1.00  0.00     0.031 C 
ATOM     57  C   UNL     1      -4.364 -12.772   9.880  1.00  0.00     0.037 A 
BRANCH  44  58
ATOM     58  C   UNL     1      -8.851  -9.688   9.834  1.00  0.00     0.058 A 
ATOM     59  C   UNL     1      -9.646 -10.572  10.560  1.00  0.00     0.135 A 
ATOM     60  C   UNL     1      -9.300  -9.341   8.529  1.00  0.00     0.135 A 
ATOM     61  F   UNL     1      -9.284 -10.938  11.799  1.00  0.00    -0.206 F 
ATOM     62  C   UNL     1     -10.811 -11.097  10.052  1.00  0.00     0.059 A 
ATOM     63  C   UNL     1     -10.499  -9.832   8.008  1.00  0.00     0.059 A 
ATOM     64  F   UNL     1      -8.595  -8.546   7.706  1.00  0.00    -0.206 F 
ATOM     65  C   UNL     1     -11.236 -10.721   8.782  1.00  0.00     0.060 A 
BRANCH  65  66
ATOM     66  S   UNL     1     -12.781 -11.433   8.207  1.00  0.00     0.124 S 
ATOM     67  O   UNL     1     -12.472 -12.858   8.226  1.00  0.00    -0.237 OA
ATOM     68  O   UNL     1     -13.710 -10.969   9.234  1.00  0.00    -0.237 OA
ATOM     69  O   UNL     1     -12.961 -10.838   6.888  1.00  0.00    -0.744 OA
ENDBRANCH  65  66
ENDBRANCH  44  58
BRANCH  45  70
ATOM     70  C   UNL     1      -3.651 -14.292   4.276  1.00  0.00     0.058 A 
ATOM     71  C   UNL     1      -4.167 -15.455   3.592  1.00  0.00     0.135 A 
ATOM     72  C   UNL     1      -3.496 -13.202   3.402  1.00  0.00     0.135 A 
ATOM     73  F   UNL     1      -4.313 -16.635   4.221  1.00  0.00    -0.206 F 
ATOM     74  C   UNL     1      -4.542 -15.460   2.196  1.00  0.00     0.059 A 
ATOM     75  C   UNL     1      -3.871 -13.175   2.043  1.00  0.00     0.059 A 
ATOM     76  F   UNL     1      -2.998 -12.060   3.888  1.00  0.00    -0.206 F 
ATOM     77  C   UNL     1      -4.424 -14.294   1.440  1.00  0.00     0.060 A 
BRANCH  77  78
ATOM     78  S   UNL     1      -5.021 -14.210  -0.288  1.00  0.00     0.124 S 
ATOM     79  O   UNL     1      -4.201 -15.215  -0.956  1.00  0.00    -0.237 OA
ATOM     80  O   UNL     1      -6.435 -14.540  -0.148  1.00  0.00    -0.237 OA
ATOM     81  O   UNL     1      -4.744 -12.829  -0.680  1.00  0.00    -0.744 OA
ENDBRANCH  77  78
ENDBRANCH  45  70
BRANCH  57  82
ATOM     82  C   UNL     1      -3.106 -13.382  10.603  1.00  0.00     0.058 A 
ATOM     83  C   UNL     1      -1.713 -13.102  10.425  1.00  0.00     0.135 A 
ATOM     84  C   UNL     1      -3.369 -14.089  11.774  1.00  0.00     0.135 A 
ATOM     85  F   UNL     1      -1.289 -12.207   9.536  1.00  0.00    -0.206 F 
ATOM     86  C   UNL     1      -0.676 -13.639  11.215  1.00  0.00     0.059 A 
ATOM     87  C   UNL     1      -2.366 -14.571  12.628  1.00  0.00     0.059 A 
ATOM     88  F   UNL     1      -4.642 -14.238  12.167  1.00  0.00    -0.206 F 
ATOM     89  C   UNL     1      -1.021 -14.386  12.324  1.00  0.00     0.060 A 
BRANCH  89  90
ATOM     90  S   UNL     1       0.284 -15.079  13.364  1.00  0.00     0.124 S 
ATOM     91  O   UNL     1       0.968 -15.976  12.439  1.00  0.00    -0.237 OA
ATOM     92  O   UNL     1       1.039 -13.895  13.763  1.00  0.00    -0.237 OA
ATOM     93  O   UNL     1      -0.456 -15.734  14.439  1.00  0.00    -0.744 OA
ENDBRANCH  89  90
ENDBRANCH  57  82
ENDBRANCH  31  32
ENDBRANCH  24  26
ENDBRANCH  23  24
ENDBRANCH   1  23
TORSDOF 15
