REMARK SMILES Cc1c(CC(=O)OCCOC(=O)c2ccc(-c3c4nc(c(-c5c(F)cc(S(=O)(=O)[O-])cc5F)c5ccc([nH]5)c(-c5c(F)cc(S(=O)(=O)[O-])cc5F)c5nc(c(-c6c(F)cc(S(=O)(=O)[O-])cc6F)c6ccc3[nH]6)C=C5)C=C4)cc2)c2ccccc2n1C(=O)c1ccc(Cl)cc1
REMARK SMILES IDX 8 1 7 2 5 3 6 4 4 5 3 6 1 7 2 8 85 9 79 10 84 11 80 12 83 13
REMARK SMILES IDX 81 14 82 15 86 16 87 17 88 18 89 19 94 20 90 21 93 22 91 23
REMARK SMILES IDX 92 24 9 25 10 26 11 27 12 28 13 29 14 30 78 31 15 32 77 33
REMARK SMILES IDX 16 34 17 35 18 36 71 37 19 38 76 39 70 40 72 41 20 42 75 43
REMARK SMILES IDX 69 44 68 45 21 47 55 48 34 49 54 50 35 51 38 52 53 53 73 54
REMARK SMILES IDX 36 55 37 56 52 58 74 59 39 60 22 61 23 62 32 63 24 64 25 65
REMARK SMILES IDX 31 66 33 67 26 68 27 69 28 70 29 71 30 72 56 73 57 74 66 75
REMARK SMILES IDX 58 76 59 77 65 78 67 79 60 80 61 81 62 82 63 83 64 84 40 85
REMARK SMILES IDX 41 86 50 87 42 88 43 89 49 90 51 91 44 92 45 93 46 94 47 95
REMARK SMILES IDX 48 96
REMARK H PARENT 72 46 38 57
REMARK Flexibility Score: inf
ROOT
ATOM      1  C   UNL     1      -2.202  -4.680   0.447  1.00  0.00     0.274 C 
ENDROOT
BRANCH   1   2
ATOM      2  O   UNL     1      -1.389  -3.525   0.106  1.00  0.00    -0.462 OA
BRANCH   2   3
ATOM      3  C   UNL     1      -0.064  -3.652   0.376  1.00  0.00     0.310 C 
ATOM      4  O   UNL     1       0.395  -4.603   1.005  1.00  0.00    -0.252 OA
BRANCH   3   5
ATOM      5  C   UNL     1       0.822  -2.516  -0.121  1.00  0.00     0.160 C 
BRANCH   5   6
ATOM      6  C   UNL     1       0.424  -1.693  -1.360  1.00  0.00    -0.008 A 
ATOM      7  C   UNL     1       0.797   0.383   0.048  1.00  0.00     0.065 C 
ATOM      8  C   UNL     1       0.345  -0.322  -1.196  1.00  0.00     0.028 A 
ATOM      9  N   UNL     1      -0.158   0.263  -2.348  1.00  0.00    -0.280 N 
ATOM     10  C   UNL     1       0.252  -1.919  -2.805  1.00  0.00     0.004 A 
ATOM     11  C   UNL     1      -0.232  -0.724  -3.350  1.00  0.00     0.056 A 
ATOM     12  C   UNL     1       0.438  -2.955  -3.781  1.00  0.00     0.010 A 
ATOM     13  C   UNL     1      -0.640  -0.690  -4.718  1.00  0.00     0.027 A 
ATOM     14  C   UNL     1      -0.174  -2.975  -5.042  1.00  0.00     0.001 A 
ATOM     15  C   UNL     1      -0.743  -1.831  -5.506  1.00  0.00     0.002 A 
BRANCH   9  16
ATOM     16  C   UNL     1      -0.517   1.629  -2.473  1.00  0.00     0.262 C 
ATOM     17  O   UNL     1      -0.320   2.406  -1.555  1.00  0.00    -0.268 OA
BRANCH  16  18
ATOM     18  C   UNL     1      -1.084   2.211  -3.688  1.00  0.00     0.040 A 
ATOM     19  C   UNL     1      -2.322   1.778  -4.171  1.00  0.00     0.015 A 
ATOM     20  C   UNL     1      -0.255   3.059  -4.424  1.00  0.00     0.015 A 
ATOM     21  C   UNL     1      -2.659   2.079  -5.491  1.00  0.00     0.021 A 
ATOM     22  C   UNL     1      -0.628   3.403  -5.718  1.00  0.00     0.021 A 
ATOM     23  C   UNL     1      -1.802   2.873  -6.261  1.00  0.00     0.041 A 
ATOM     24  Cl  UNL     1      -2.152   3.129  -7.925  1.00  0.00    -0.084 Cl
ENDBRANCH  16  18
ENDBRANCH   9  16
ENDBRANCH   5   6
ENDBRANCH   3   5
ENDBRANCH   2   3
ENDBRANCH   1   2
BRANCH   1  25
ATOM     25  C   UNL     1      -2.435  -5.586  -0.774  1.00  0.00     0.275 C 
BRANCH  25  26
ATOM     26  O   UNL     1      -1.234  -6.362  -1.072  1.00  0.00    -0.458 OA
BRANCH  26  27
ATOM     27  C   UNL     1      -0.428  -5.729  -1.962  1.00  0.00     0.338 C 
ATOM     28  O   UNL     1      -0.848  -4.807  -2.619  1.00  0.00    -0.246 OA
BRANCH  27  29
ATOM     29  C   UNL     1       1.055  -5.981  -1.753  1.00  0.00     0.060 A 
ATOM     30  C   UNL     1       1.765  -7.056  -1.312  1.00  0.00     0.016 A 
ATOM     31  C   UNL     1       1.798  -4.829  -1.678  1.00  0.00     0.016 A 
ATOM     32  C   UNL     1       2.855  -6.787  -0.368  1.00  0.00     0.010 A 
ATOM     33  C   UNL     1       3.007  -4.672  -1.000  1.00  0.00     0.010 A 
ATOM     34  C   UNL     1       3.195  -5.458   0.109  1.00  0.00    -0.014 A 
BRANCH  34  35
ATOM     35  C   UNL     1       4.417  -4.938   1.093  1.00  0.00     0.031 A 
ATOM     36  C   UNL     1       5.622  -5.602   0.189  1.00  0.00     0.074 A 
ATOM     37  C   UNL     1       4.510  -4.126   2.368  1.00  0.00     0.049 A 
ATOM     38  N   UNL     1       5.978  -6.852   0.325  1.00  0.00    -0.248 NA
ATOM     39  C   UNL     1       6.074  -5.213  -1.225  1.00  0.00     0.031 C 
ATOM     40  C   UNL     1       3.550  -3.345   3.366  1.00  0.00     0.029 A 
ATOM     41  N   UNL     1       5.655  -3.857   3.240  1.00  0.00    -0.354 N 
ATOM     42  C   UNL     1       7.087  -7.041  -0.504  1.00  0.00     0.074 A 
ATOM     43  C   UNL     1       6.904  -6.194  -1.613  1.00  0.00     0.031 C 
ATOM     44  C   UNL     1       4.201  -2.506   4.275  1.00  0.00     0.029 A 
ATOM     45  C   UNL     1       5.641  -2.689   4.193  1.00  0.00     0.049 A 
ATOM     46  H   UNL     1       6.444  -4.445   3.203  1.00  0.00     0.167 HD
ATOM     47  C   UNL     1       8.236  -7.498   0.049  1.00  0.00     0.037 A 
ATOM     48  C   UNL     1       6.633  -2.223   5.114  1.00  0.00     0.037 A 
ATOM     49  C   UNL     1       7.898  -8.037   1.341  1.00  0.00     0.049 A 
ATOM     50  C   UNL     1       7.657  -3.304   5.112  1.00  0.00     0.074 A 
ATOM     51  C   UNL     1       7.066  -9.053   1.765  1.00  0.00     0.029 A 
ATOM     52  N   UNL     1       7.872  -7.068   2.304  1.00  0.00    -0.354 N 
ATOM     53  N   UNL     1       7.391  -4.472   5.637  1.00  0.00    -0.248 NA
ATOM     54  C   UNL     1       8.508  -3.255   3.924  1.00  0.00     0.031 C 
ATOM     55  C   UNL     1       6.402  -8.565   2.927  1.00  0.00     0.029 A 
ATOM     56  C   UNL     1       6.985  -7.359   3.296  1.00  0.00     0.049 A 
ATOM     57  H   UNL     1       8.428  -6.256   2.284  1.00  0.00     0.167 HD
ATOM     58  C   UNL     1       7.577  -5.341   4.578  1.00  0.00     0.074 A 
ATOM     59  C   UNL     1       8.268  -4.515   3.534  1.00  0.00     0.031 C 
ATOM     60  C   UNL     1       6.819  -6.484   4.426  1.00  0.00     0.037 A 
BRANCH  47  61
ATOM     61  C   UNL     1       9.626  -7.008  -0.279  1.00  0.00     0.058 A 
ATOM     62  C   UNL     1      10.686  -7.761   0.248  1.00  0.00     0.135 A 
ATOM     63  C   UNL     1       9.985  -5.766  -0.866  1.00  0.00     0.135 A 
ATOM     64  F   UNL     1      10.448  -8.937   0.848  1.00  0.00    -0.206 F 
ATOM     65  C   UNL     1      12.004  -7.330   0.204  1.00  0.00     0.059 A 
ATOM     66  C   UNL     1      11.312  -5.331  -0.961  1.00  0.00     0.059 A 
ATOM     67  F   UNL     1       9.068  -4.899  -1.320  1.00  0.00    -0.206 F 
ATOM     68  C   UNL     1      12.312  -6.122  -0.412  1.00  0.00     0.060 A 
BRANCH  68  69
ATOM     69  S   UNL     1      14.045  -5.642  -0.477  1.00  0.00     0.124 S 
ATOM     70  O   UNL     1      14.382  -5.545   0.938  1.00  0.00    -0.237 OA
ATOM     71  O   UNL     1      14.630  -6.773  -1.194  1.00  0.00    -0.237 OA
ATOM     72  O   UNL     1      14.025  -4.383  -1.214  1.00  0.00    -0.744 OA
ENDBRANCH  68  69
ENDBRANCH  47  61
BRANCH  48  73
ATOM     73  C   UNL     1       7.142  -0.771   5.508  1.00  0.00     0.058 A 
ATOM     74  C   UNL     1       8.123  -0.330   6.481  1.00  0.00     0.135 A 
ATOM     75  C   UNL     1       6.827   0.227   4.583  1.00  0.00     0.135 A 
ATOM     76  F   UNL     1       8.536  -1.140   7.473  1.00  0.00    -0.206 F 
ATOM     77  C   UNL     1       8.741   0.976   6.463  1.00  0.00     0.059 A 
ATOM     78  C   UNL     1       7.435   1.494   4.531  1.00  0.00     0.059 A 
ATOM     79  F   UNL     1       5.944  -0.043   3.617  1.00  0.00    -0.206 F 
ATOM     80  C   UNL     1       8.408   1.870   5.449  1.00  0.00     0.060 A 
BRANCH  80  81
ATOM     81  S   UNL     1       9.248   3.485   5.240  1.00  0.00     0.124 S 
ATOM     82  O   UNL     1       8.902   4.190   6.470  1.00  0.00    -0.237 OA
ATOM     83  O   UNL     1      10.650   3.104   5.103  1.00  0.00    -0.237 OA
ATOM     84  O   UNL     1       8.637   4.028   4.029  1.00  0.00    -0.744 OA
ENDBRANCH  80  81
ENDBRANCH  48  73
BRANCH  60  85
ATOM     85  C   UNL     1       5.802  -6.957   5.469  1.00  0.00     0.058 A 
ATOM     86  C   UNL     1       4.451  -6.550   5.596  1.00  0.00     0.135 A 
ATOM     87  C   UNL     1       6.143  -8.104   6.192  1.00  0.00     0.135 A 
ATOM     88  F   UNL     1       3.942  -5.603   4.803  1.00  0.00    -0.206 F 
ATOM     89  C   UNL     1       3.536  -7.175   6.467  1.00  0.00     0.059 A 
ATOM     90  C   UNL     1       5.242  -8.776   7.022  1.00  0.00     0.059 A 
ATOM     91  F   UNL     1       7.352  -8.658   6.010  1.00  0.00    -0.206 F 
ATOM     92  C   UNL     1       3.950  -8.290   7.187  1.00  0.00     0.060 A 
BRANCH  92  93
ATOM     93  S   UNL     1       2.780  -9.113   8.298  1.00  0.00     0.124 S 
ATOM     94  O   UNL     1       2.526  -8.090   9.296  1.00  0.00    -0.237 OA
ATOM     95  O   UNL     1       1.673  -9.441   7.418  1.00  0.00    -0.237 OA
ATOM     96  O   UNL     1       3.547 -10.280   8.787  1.00  0.00    -0.744 OA
ENDBRANCH  92  93
ENDBRANCH  60  85
ENDBRANCH  34  35
ENDBRANCH  27  29
ENDBRANCH  26  27
ENDBRANCH  25  26
ENDBRANCH   1  25
TORSDOF 17
