REMARK SMILES CC[NH2+][C@]1(C(=O)OCCOC(=O)c2ccc(-c3c4nc(c(-c5c(F)cc(S(=O)(=O)[O-])cc5F)c5ccc([nH]5)c(-c5c(F)cc(S(=O)(=O)[O-])cc5F)c5nc(c(-c6c(F)cc(S(=O)(=O)[O-])cc6F)c6ccc3[nH]6)C=C5)C=C4)cc2)CCC[C@H]1CCSc1ccc(Cl)cc1
REMARK SMILES IDX 8 1 7 2 5 3 6 4 4 5 79 6 82 7 80 8 81 9 3 10 2 13 1 14 83 15
REMARK SMILES IDX 84 16 85 17 86 18 87 19 92 20 88 21 91 22 89 23 90 24 9 25
REMARK SMILES IDX 10 26 11 27 12 28 13 29 14 30 78 31 15 32 77 33 16 34 17 35
REMARK SMILES IDX 18 36 71 37 19 38 76 39 70 40 72 41 20 42 75 43 69 44 68 45
REMARK SMILES IDX 21 47 55 48 34 49 54 50 35 51 38 52 53 53 73 54 36 55 37 56
REMARK SMILES IDX 52 58 74 59 39 60 22 61 23 62 32 63 24 64 25 65 31 66 33 67
REMARK SMILES IDX 26 68 27 69 28 70 29 71 30 72 56 73 57 74 66 75 58 76 59 77
REMARK SMILES IDX 65 78 67 79 60 80 61 81 62 82 63 83 64 84 40 85 41 86 50 87
REMARK SMILES IDX 42 88 43 89 49 90 51 91 44 92 45 93 46 94 47 95 48 96
REMARK H PARENT 3 11 3 12 72 46 38 57
REMARK Flexibility Score: inf
ROOT
ATOM      1  C   UNL     1       2.206   0.464   0.866  1.00  0.00     0.274 C 
ENDROOT
BRANCH   1   2
ATOM      2  O   UNL     1       1.562  -0.449   1.784  1.00  0.00    -0.457 OA
BRANCH   2   3
ATOM      3  C   UNL     1       1.208   0.029   2.993  1.00  0.00     0.368 C 
ATOM      4  O   UNL     1       1.360   1.210   3.297  1.00  0.00    -0.245 OA
BRANCH   3   5
ATOM      5  C   UNL     1       0.583  -1.051   3.945  1.00  0.00     0.197 C 
ATOM      6  C   UNL     1      -0.946  -1.165   3.777  1.00  0.00     0.081 C 
ATOM      7  C   UNL     1       0.998  -2.559   3.819  1.00  0.00     0.063 C 
ATOM      8  C   UNL     1      -1.357  -2.444   4.515  1.00  0.00     0.008 C 
ATOM      9  C   UNL     1      -0.065  -3.232   4.739  1.00  0.00     0.011 C 
BRANCH   5  10
ATOM     10  N   UNL     1       0.759  -0.522   5.340  1.00  0.00    -0.332 N 
ATOM     11  H   UNL     1       0.327   0.401   5.381  1.00  0.00     0.347 HD
ATOM     12  H   UNL     1       0.326  -1.212   5.953  1.00  0.00     0.347 HD
BRANCH  10  13
ATOM     13  C   UNL     1       2.131  -0.392   5.802  1.00  0.00     0.257 C 
ATOM     14  C   UNL     1       2.212   0.723   6.832  1.00  0.00     0.071 C 
ENDBRANCH  10  13
ENDBRANCH   5  10
BRANCH   7  15
ATOM     15  C   UNL     1       0.900  -3.324   2.459  1.00  0.00     0.022 C 
BRANCH  15  16
ATOM     16  C   UNL     1       1.921  -3.226   1.317  1.00  0.00     0.075 C 
BRANCH  16  17
ATOM     17  S   UNL     1       3.643  -3.813   1.504  1.00  0.00    -0.126 SA
BRANCH  17  18
ATOM     18  C   UNL     1       4.218  -3.064   3.003  1.00  0.00     0.007 A 
ATOM     19  C   UNL     1       4.271  -3.867   4.149  1.00  0.00     0.016 A 
ATOM     20  C   UNL     1       4.710  -1.756   3.061  1.00  0.00     0.016 A 
ATOM     21  C   UNL     1       4.766  -3.362   5.351  1.00  0.00     0.021 A 
ATOM     22  C   UNL     1       5.231  -1.255   4.261  1.00  0.00     0.021 A 
ATOM     23  C   UNL     1       5.249  -2.058   5.402  1.00  0.00     0.041 A 
ATOM     24  Cl  UNL     1       5.846  -1.433   6.888  1.00  0.00    -0.084 Cl
ENDBRANCH  17  18
ENDBRANCH  16  17
ENDBRANCH  15  16
ENDBRANCH   7  15
ENDBRANCH   3   5
ENDBRANCH   2   3
ENDBRANCH   1   2
BRANCH   1  25
ATOM     25  C   UNL     1       1.308   0.739  -0.336  1.00  0.00     0.275 C 
BRANCH  25  26
ATOM     26  O   UNL     1       0.153   1.479   0.083  1.00  0.00    -0.458 OA
BRANCH  26  27
ATOM     27  C   UNL     1      -0.945   0.730   0.331  1.00  0.00     0.338 C 
ATOM     28  O   UNL     1      -1.097  -0.462   0.136  1.00  0.00    -0.246 OA
BRANCH  27  29
ATOM     29  C   UNL     1      -1.935   1.578   1.002  1.00  0.00     0.060 A 
ATOM     30  C   UNL     1      -1.813   1.779   2.376  1.00  0.00     0.016 A 
ATOM     31  C   UNL     1      -3.018   2.096   0.303  1.00  0.00     0.016 A 
ATOM     32  C   UNL     1      -2.809   2.429   3.084  1.00  0.00     0.010 A 
ATOM     33  C   UNL     1      -3.978   2.832   1.001  1.00  0.00     0.010 A 
ATOM     34  C   UNL     1      -3.888   2.987   2.398  1.00  0.00    -0.014 A 
BRANCH  34  35
ATOM     35  C   UNL     1      -4.938   3.721   3.135  1.00  0.00     0.031 A 
ATOM     36  C   UNL     1      -6.342   3.202   3.107  1.00  0.00     0.074 A 
ATOM     37  C   UNL     1      -4.629   4.851   3.800  1.00  0.00     0.049 A 
ATOM     38  N   UNL     1      -7.455   3.817   3.399  1.00  0.00    -0.248 NA
ATOM     39  C   UNL     1      -6.517   1.804   2.677  1.00  0.00     0.031 C 
ATOM     40  C   UNL     1      -3.278   5.391   3.979  1.00  0.00     0.029 A 
ATOM     41  N   UNL     1      -5.434   5.759   4.436  1.00  0.00    -0.354 N 
ATOM     42  C   UNL     1      -8.468   2.904   3.134  1.00  0.00     0.074 A 
ATOM     43  C   UNL     1      -7.837   1.688   2.670  1.00  0.00     0.031 C 
ATOM     44  C   UNL     1      -3.349   6.536   4.675  1.00  0.00     0.029 A 
ATOM     45  C   UNL     1      -4.752   6.857   4.904  1.00  0.00     0.049 A 
ATOM     46  H   UNL     1      -6.405   5.637   4.547  1.00  0.00     0.167 HD
ATOM     47  C   UNL     1      -9.803   3.086   3.257  1.00  0.00     0.037 A 
ATOM     48  C   UNL     1      -5.212   8.023   5.395  1.00  0.00     0.037 A 
ATOM     49  C   UNL     1     -10.391   4.304   3.751  1.00  0.00     0.049 A 
ATOM     50  C   UNL     1      -6.698   8.232   5.460  1.00  0.00     0.074 A 
ATOM     51  C   UNL     1     -11.728   4.627   3.885  1.00  0.00     0.029 A 
ATOM     52  N   UNL     1      -9.665   5.396   4.208  1.00  0.00    -0.354 N 
ATOM     53  N   UNL     1      -7.659   7.408   5.112  1.00  0.00    -0.248 NA
ATOM     54  C   UNL     1      -7.167   9.532   5.955  1.00  0.00     0.031 C 
ATOM     55  C   UNL     1     -11.810   5.925   4.402  1.00  0.00     0.029 A 
ATOM     56  C   UNL     1     -10.525   6.395   4.625  1.00  0.00     0.049 A 
ATOM     57  H   UNL     1      -8.682   5.451   4.231  1.00  0.00     0.167 HD
ATOM     58  C   UNL     1      -8.847   8.080   5.367  1.00  0.00     0.074 A 
ATOM     59  C   UNL     1      -8.484   9.379   5.900  1.00  0.00     0.031 C 
ATOM     60  C   UNL     1     -10.123   7.665   5.178  1.00  0.00     0.037 A 
BRANCH  47  61
ATOM     61  C   UNL     1     -10.704   1.972   2.808  1.00  0.00     0.058 A 
ATOM     62  C   UNL     1     -10.851   0.789   3.547  1.00  0.00     0.135 A 
ATOM     63  C   UNL     1     -11.442   2.096   1.619  1.00  0.00     0.135 A 
ATOM     64  F   UNL     1     -10.151   0.608   4.679  1.00  0.00    -0.206 F 
ATOM     65  C   UNL     1     -11.679  -0.242   3.113  1.00  0.00     0.059 A 
ATOM     66  C   UNL     1     -12.293   1.088   1.177  1.00  0.00     0.059 A 
ATOM     67  F   UNL     1     -11.334   3.204   0.869  1.00  0.00    -0.206 F 
ATOM     68  C   UNL     1     -12.393  -0.085   1.923  1.00  0.00     0.060 A 
BRANCH  68  69
ATOM     69  S   UNL     1     -13.458  -1.433   1.366  1.00  0.00     0.124 S 
ATOM     70  O   UNL     1     -12.476  -2.390   0.865  1.00  0.00    -0.237 OA
ATOM     71  O   UNL     1     -14.147  -1.817   2.593  1.00  0.00    -0.237 OA
ATOM     72  O   UNL     1     -14.297  -0.805   0.350  1.00  0.00    -0.744 OA
ENDBRANCH  68  69
ENDBRANCH  47  61
BRANCH  48  73
ATOM     73  C   UNL     1      -4.258   9.090   5.798  1.00  0.00     0.058 A 
ATOM     74  C   UNL     1      -4.088   9.435   7.146  1.00  0.00     0.135 A 
ATOM     75  C   UNL     1      -3.474   9.765   4.847  1.00  0.00     0.135 A 
ATOM     76  F   UNL     1      -4.819   8.824   8.091  1.00  0.00    -0.206 F 
ATOM     77  C   UNL     1      -3.184  10.417   7.538  1.00  0.00     0.059 A 
ATOM     78  C   UNL     1      -2.544  10.731   5.217  1.00  0.00     0.059 A 
ATOM     79  F   UNL     1      -3.586   9.462   3.544  1.00  0.00    -0.206 F 
ATOM     80  C   UNL     1      -2.414  11.058   6.566  1.00  0.00     0.060 A 
BRANCH  80  81
ATOM     81  S   UNL     1      -1.208  12.298   7.088  1.00  0.00     0.124 S 
ATOM     82  O   UNL     1      -2.068  13.440   7.374  1.00  0.00    -0.237 OA
ATOM     83  O   UNL     1      -0.588  11.660   8.245  1.00  0.00    -0.237 OA
ATOM     84  O   UNL     1      -0.343  12.435   5.920  1.00  0.00    -0.744 OA
ENDBRANCH  80  81
ENDBRANCH  48  73
BRANCH  60  85
ATOM     85  C   UNL     1     -11.217   8.596   5.602  1.00  0.00     0.058 A 
ATOM     86  C   UNL     1     -11.602   9.686   4.809  1.00  0.00     0.135 A 
ATOM     87  C   UNL     1     -11.947   8.334   6.772  1.00  0.00     0.135 A 
ATOM     88  F   UNL     1     -10.926   9.979   3.688  1.00  0.00    -0.206 F 
ATOM     89  C   UNL     1     -12.682  10.488   5.162  1.00  0.00     0.059 A 
ATOM     90  C   UNL     1     -13.041   9.110   7.133  1.00  0.00     0.059 A 
ATOM     91  F   UNL     1     -11.616   7.297   7.558  1.00  0.00    -0.206 F 
ATOM     92  C   UNL     1     -13.400  10.186   6.322  1.00  0.00     0.060 A 
BRANCH  92  93
ATOM     93  S   UNL     1     -14.848  11.184   6.728  1.00  0.00     0.124 S 
ATOM     94  O   UNL     1     -14.230  12.401   7.244  1.00  0.00    -0.237 OA
ATOM     95  O   UNL     1     -15.514  11.311   5.435  1.00  0.00    -0.237 OA
ATOM     96  O   UNL     1     -15.555  10.371   7.713  1.00  0.00    -0.744 OA
ENDBRANCH  92  93
ENDBRANCH  60  85
ENDBRANCH  34  35
ENDBRANCH  27  29
ENDBRANCH  26  27
ENDBRANCH  25  26
ENDBRANCH   1  25
TORSDOF 20
