REMARK SMILES O=C(OCCOC(=O)c1nccnc1C(=O)N1CCC(Cc2ccccc2)CC1)c1ccc(-c2c3nc(c(-c4c(F)cc(S(=O)(=O)[O-])cc4F)c4ccc([nH]4)c(-c4c(F)cc(S(=O)(=O)[O-])cc4F)c4nc(c(-c5c(F)cc(S(=O)(=O)[O-])cc5F)c5ccc2[nH]5)C=C4)C=C3)cc1
REMARK SMILES IDX 4 1 3 2 2 3 1 4 30 5 31 6 95 7 32 8 94 9 33 10 34 11 35 12
REMARK SMILES IDX 88 13 36 14 93 15 87 16 89 17 37 18 92 19 86 20 85 21 38 23
REMARK SMILES IDX 72 24 51 25 71 26 52 27 55 28 70 29 90 30 53 31 54 32 69 34
REMARK SMILES IDX 91 35 56 36 39 37 40 38 49 39 41 40 42 41 48 42 50 43 43 44
REMARK SMILES IDX 44 45 45 46 46 47 47 48 73 49 74 50 83 51 75 52 76 53 82 54
REMARK SMILES IDX 84 55 77 56 78 57 79 58 80 59 81 60 57 61 58 62 67 63 59 64
REMARK SMILES IDX 60 65 66 66 68 67 61 68 62 69 63 70 64 71 65 72 5 73 6 74
REMARK SMILES IDX 7 75 8 76 9 77 10 78 14 79 11 80 13 81 12 82 15 83 16 84
REMARK SMILES IDX 17 85 18 86 29 87 19 88 28 89 20 90 21 91 22 92 23 93 27 94
REMARK SMILES IDX 24 95 26 96 25 97
REMARK H PARENT 89 22 55 33
REMARK Flexibility Score: inf
ROOT
ATOM      1  C   UNL     1       4.838   0.353  -2.393  1.00  0.00     0.275 C 
ENDROOT
BRANCH   1   2
ATOM      2  O   UNL     1       5.402   0.117  -1.106  1.00  0.00    -0.458 OA
BRANCH   2   3
ATOM      3  C   UNL     1       4.481  -0.185  -0.162  1.00  0.00     0.338 C 
ATOM      4  O   UNL     1       3.372  -0.642  -0.369  1.00  0.00    -0.246 OA
BRANCH   3   5
ATOM      5  C   UNL     1       4.907   0.441   1.107  1.00  0.00     0.060 A 
ATOM      6  C   UNL     1       6.202   0.928   1.260  1.00  0.00     0.016 A 
ATOM      7  C   UNL     1       3.937   0.706   2.078  1.00  0.00     0.016 A 
ATOM      8  C   UNL     1       6.513   1.691   2.368  1.00  0.00     0.010 A 
ATOM      9  C   UNL     1       4.227   1.500   3.175  1.00  0.00     0.010 A 
ATOM     10  C   UNL     1       5.524   1.980   3.317  1.00  0.00    -0.014 A 
BRANCH  10  11
ATOM     11  C   UNL     1       5.920   2.748   4.497  1.00  0.00     0.031 A 
ATOM     12  C   UNL     1       6.262   1.987   5.731  1.00  0.00     0.074 A 
ATOM     13  C   UNL     1       6.088   4.073   4.360  1.00  0.00     0.049 A 
ATOM     14  N   UNL     1       6.994   2.361   6.739  1.00  0.00    -0.248 NA
ATOM     15  C   UNL     1       5.739   0.613   5.833  1.00  0.00     0.031 C 
ATOM     16  C   UNL     1       5.727   4.849   3.168  1.00  0.00     0.029 A 
ATOM     17  N   UNL     1       6.647   4.989   5.201  1.00  0.00    -0.354 N 
ATOM     18  C   UNL     1       7.071   1.250   7.567  1.00  0.00     0.074 A 
ATOM     19  C   UNL     1       6.245   0.216   6.990  1.00  0.00     0.031 C 
ATOM     20  C   UNL     1       6.099   6.126   3.348  1.00  0.00     0.029 A 
ATOM     21  C   UNL     1       6.755   6.241   4.645  1.00  0.00     0.049 A 
ATOM     22  H   UNL     1       6.942   4.775   6.116  1.00  0.00     0.167 HD
ATOM     23  C   UNL     1       7.809   1.113   8.691  1.00  0.00     0.037 A 
ATOM     24  C   UNL     1       7.381   7.332   5.120  1.00  0.00     0.037 A 
ATOM     25  C   UNL     1       8.580   2.198   9.232  1.00  0.00     0.049 A 
ATOM     26  C   UNL     1       8.182   7.164   6.382  1.00  0.00     0.074 A 
ATOM     27  C   UNL     1       9.374   2.227  10.360  1.00  0.00     0.029 A 
ATOM     28  N   UNL     1       8.631   3.470   8.667  1.00  0.00    -0.354 N 
ATOM     29  N   UNL     1       8.341   6.083   7.115  1.00  0.00    -0.248 NA
ATOM     30  C   UNL     1       8.923   8.334   6.858  1.00  0.00     0.031 C 
ATOM     31  C   UNL     1       9.871   3.529  10.499  1.00  0.00     0.029 A 
ATOM     32  C   UNL     1       9.424   4.300   9.433  1.00  0.00     0.049 A 
ATOM     33  H   UNL     1       8.168   3.739   7.841  1.00  0.00     0.167 HD
ATOM     34  C   UNL     1       9.227   6.431   8.124  1.00  0.00     0.074 A 
ATOM     35  C   UNL     1       9.574   7.825   7.896  1.00  0.00     0.031 C 
ATOM     36  C   UNL     1       9.721   5.683   9.143  1.00  0.00     0.037 A 
BRANCH  23  37
ATOM     37  C   UNL     1       7.781  -0.224   9.372  1.00  0.00     0.058 A 
ATOM     38  C   UNL     1       8.383  -1.356   8.794  1.00  0.00     0.135 A 
ATOM     39  C   UNL     1       7.107  -0.396  10.590  1.00  0.00     0.135 A 
ATOM     40  F   UNL     1       9.016  -1.257   7.614  1.00  0.00    -0.206 F 
ATOM     41  C   UNL     1       8.290  -2.614   9.383  1.00  0.00     0.059 A 
ATOM     42  C   UNL     1       7.020  -1.641  11.208  1.00  0.00     0.059 A 
ATOM     43  F   UNL     1       6.499   0.646  11.178  1.00  0.00    -0.206 F 
ATOM     44  C   UNL     1       7.599  -2.748  10.587  1.00  0.00     0.060 A 
BRANCH  44  45
ATOM     45  S   UNL     1       7.463  -4.390  11.327  1.00  0.00     0.124 S 
ATOM     46  O   UNL     1       6.490  -5.027  10.444  1.00  0.00    -0.237 OA
ATOM     47  O   UNL     1       8.830  -4.892  11.228  1.00  0.00    -0.237 OA
ATOM     48  O   UNL     1       6.996  -4.114  12.682  1.00  0.00    -0.744 OA
ENDBRANCH  44  45
ENDBRANCH  23  37
BRANCH  24  49
ATOM     49  C   UNL     1       7.340   8.605   4.354  1.00  0.00     0.058 A 
ATOM     50  C   UNL     1       8.471   9.107   3.695  1.00  0.00     0.135 A 
ATOM     51  C   UNL     1       6.139   9.323   4.221  1.00  0.00     0.135 A 
ATOM     52  F   UNL     1       9.639   8.451   3.775  1.00  0.00    -0.206 F 
ATOM     53  C   UNL     1       8.423  10.284   2.952  1.00  0.00     0.059 A 
ATOM     54  C   UNL     1       6.060  10.491   3.469  1.00  0.00     0.059 A 
ATOM     55  F   UNL     1       5.017   8.869   4.802  1.00  0.00    -0.206 F 
ATOM     56  C   UNL     1       7.211  10.970   2.846  1.00  0.00     0.060 A 
BRANCH  56  57
ATOM     57  S   UNL     1       7.150  12.477   1.850  1.00  0.00     0.124 S 
ATOM     58  O   UNL     1       7.883  13.415   2.692  1.00  0.00    -0.237 OA
ATOM     59  O   UNL     1       7.820  12.060   0.622  1.00  0.00    -0.237 OA
ATOM     60  O   UNL     1       5.718  12.732   1.718  1.00  0.00    -0.744 OA
ENDBRANCH  56  57
ENDBRANCH  24  49
BRANCH  36  61
ATOM     61  C   UNL     1      10.691   6.366  10.058  1.00  0.00     0.058 A 
ATOM     62  C   UNL     1      10.261   7.307  11.005  1.00  0.00     0.135 A 
ATOM     63  C   UNL     1      12.054   6.037  10.014  1.00  0.00     0.135 A 
ATOM     64  F   UNL     1       8.966   7.652  11.075  1.00  0.00    -0.206 F 
ATOM     65  C   UNL     1      11.160   7.925  11.862  1.00  0.00     0.059 A 
ATOM     66  C   UNL     1      12.966   6.623  10.881  1.00  0.00     0.059 A 
ATOM     67  F   UNL     1      12.505   5.131   9.132  1.00  0.00    -0.206 F 
ATOM     68  C   UNL     1      12.511   7.577  11.791  1.00  0.00     0.060 A 
BRANCH  68  69
ATOM     69  S   UNL     1      13.666   8.368  12.927  1.00  0.00     0.124 S 
ATOM     70  O   UNL     1      13.839   9.675  12.302  1.00  0.00    -0.237 OA
ATOM     71  O   UNL     1      12.927   8.358  14.185  1.00  0.00    -0.237 OA
ATOM     72  O   UNL     1      14.832   7.490  12.886  1.00  0.00    -0.744 OA
ENDBRANCH  68  69
ENDBRANCH  36  61
ENDBRANCH  10  11
ENDBRANCH   3   5
ENDBRANCH   2   3
ENDBRANCH   1   2
BRANCH   1  73
ATOM     73  C   UNL     1       4.030   1.667  -2.463  1.00  0.00     0.275 C 
BRANCH  73  74
ATOM     74  O   UNL     1       3.454   2.084  -1.208  1.00  0.00    -0.457 OA
BRANCH  74  75
ATOM     75  C   UNL     1       2.110   1.989  -0.996  1.00  0.00     0.359 C 
ATOM     76  O   UNL     1       1.283   1.557  -1.780  1.00  0.00    -0.244 OA
BRANCH  75  77
ATOM     77  C   UNL     1       1.827   2.598   0.335  1.00  0.00     0.179 A 
ATOM     78  N   UNL     1       2.513   3.780   0.549  1.00  0.00    -0.245 NA
ATOM     79  C   UNL     1       0.945   2.092   1.286  1.00  0.00     0.161 A 
ATOM     80  C   UNL     1       2.280   4.423   1.714  1.00  0.00     0.132 A 
ATOM     81  N   UNL     1       0.762   2.750   2.483  1.00  0.00    -0.247 NA
ATOM     82  C   UNL     1       1.430   3.912   2.667  1.00  0.00     0.132 A 
BRANCH  79  83
ATOM     83  C   UNL     1       0.015   0.925   1.145  1.00  0.00     0.274 C 
ATOM     84  O   UNL     1      -1.160   1.087   1.488  1.00  0.00    -0.267 OA
ATOM     85  N   UNL     1       0.451  -0.328   0.681  1.00  0.00    -0.337 N 
ATOM     86  C   UNL     1      -0.414  -0.883  -0.360  1.00  0.00     0.120 C 
ATOM     87  C   UNL     1       0.883  -1.325   1.670  1.00  0.00     0.120 C 
ATOM     88  C   UNL     1      -0.442  -2.409  -0.416  1.00  0.00     0.025 C 
ATOM     89  C   UNL     1       1.573  -2.558   1.051  1.00  0.00     0.025 C 
ATOM     90  C   UNL     1       0.983  -2.962  -0.322  1.00  0.00    -0.003 C 
BRANCH  90  91
ATOM     91  C   UNL     1       1.099  -4.485  -0.560  1.00  0.00     0.039 C 
BRANCH  91  92
ATOM     92  C   UNL     1       0.199  -5.008  -1.657  1.00  0.00    -0.048 A 
ATOM     93  C   UNL     1      -0.965  -5.715  -1.320  1.00  0.00     0.004 A 
ATOM     94  C   UNL     1       0.452  -4.717  -3.004  1.00  0.00     0.004 A 
ATOM     95  C   UNL     1      -1.871  -6.102  -2.307  1.00  0.00     0.000 A 
ATOM     96  C   UNL     1      -0.458  -5.106  -3.991  1.00  0.00     0.000 A 
ATOM     97  C   UNL     1      -1.621  -5.792  -3.642  1.00  0.00     0.000 A 
ENDBRANCH  91  92
ENDBRANCH  90  91
ENDBRANCH  79  83
ENDBRANCH  75  77
ENDBRANCH  74  75
ENDBRANCH  73  74
ENDBRANCH   1  73
TORSDOF 17
