REMARK SMILES O=C(OCCOC(=O)[C@@H]1CC2(CC[NH2+]CC2)C[N@@H+]1Cc1cccc2nonc12)c1ccc(-c2c3nc(c(-c4c(F)cc(S(=O)(=O)[O-])cc4F)c4ccc([nH]4)c(-c4c(F)cc(S(=O)(=O)[O-])cc4F)c4nc(c(-c5c(F)cc(S(=O)(=O)[O-])cc5F)c5ccc2[nH]5)C=C4)C=C3)cc1
REMARK SMILES IDX 4 1 3 2 2 3 1 4 29 5 30 6 94 7 31 8 93 9 32 10 33 11 34 12
REMARK SMILES IDX 87 13 35 14 92 15 86 16 88 17 36 18 91 19 85 20 84 21 37 23
REMARK SMILES IDX 71 24 50 25 70 26 51 27 54 28 69 29 89 30 52 31 53 32 68 34
REMARK SMILES IDX 90 35 55 36 38 37 39 38 48 39 40 40 41 41 47 42 49 43 42 44
REMARK SMILES IDX 43 45 44 46 45 47 46 48 72 49 73 50 82 51 74 52 75 53 81 54
REMARK SMILES IDX 83 55 76 56 77 57 78 58 79 59 80 60 56 61 57 62 66 63 58 64
REMARK SMILES IDX 59 65 65 66 67 67 60 68 61 69 62 70 63 71 64 72 5 73 6 74
REMARK SMILES IDX 7 75 8 76 9 77 10 78 18 79 11 80 17 81 12 83 16 84 13 85
REMARK SMILES IDX 15 86 14 87 19 90 20 91 21 92 28 93 22 94 24 95 27 96 23 97
REMARK SMILES IDX 25 98 26 99
REMARK H PARENT 88 22 54 33 18 82 14 88 14 89
REMARK Flexibility Score: inf
ROOT
ATOM      1  C   UNL     1       4.038   0.512  -1.772  1.00  0.00     0.275 C 
ENDROOT
BRANCH   1   2
ATOM      2  O   UNL     1       3.103  -0.493  -1.367  1.00  0.00    -0.458 OA
BRANCH   2   3
ATOM      3  C   UNL     1       2.650  -0.738  -0.123  1.00  0.00     0.338 C 
ATOM      4  O   UNL     1       1.776  -1.592   0.026  1.00  0.00    -0.246 OA
BRANCH   3   5
ATOM      5  C   UNL     1       3.084  -0.006   1.115  1.00  0.00     0.060 A 
ATOM      6  C   UNL     1       1.867  -0.247   2.439  1.00  0.00     0.016 A 
ATOM      7  C   UNL     1       4.579   1.000   1.452  1.00  0.00     0.016 A 
ATOM      8  C   UNL     1       2.125   0.462   4.059  1.00  0.00     0.010 A 
ATOM      9  C   UNL     1       4.890   1.615   3.176  1.00  0.00     0.010 A 
ATOM     10  C   UNL     1       3.576   1.440   4.446  1.00  0.00    -0.014 A 
BRANCH  10  11
ATOM     11  C   UNL     1       3.562   2.301   5.664  1.00  0.00     0.031 A 
ATOM     12  C   UNL     1       4.853   2.952   6.018  1.00  0.00     0.074 A 
ATOM     13  C   UNL     1       2.462   2.956   6.115  1.00  0.00     0.049 A 
ATOM     14  N   UNL     1       5.241   4.102   5.540  1.00  0.00    -0.248 NA
ATOM     15  C   UNL     1       5.865   2.241   6.796  1.00  0.00     0.031 C 
ATOM     16  C   UNL     1       1.122   3.009   5.516  1.00  0.00     0.029 A 
ATOM     17  N   UNL     1       2.377   3.889   7.122  1.00  0.00    -0.354 N 
ATOM     18  C   UNL     1       6.573   4.228   5.861  1.00  0.00     0.074 A 
ATOM     19  C   UNL     1       6.911   3.066   6.662  1.00  0.00     0.031 C 
ATOM     20  C   UNL     1       0.417   4.027   6.051  1.00  0.00     0.029 A 
ATOM     21  C   UNL     1       1.217   4.642   7.089  1.00  0.00     0.049 A 
ATOM     22  H   UNL     1       3.077   4.010   7.803  1.00  0.00     0.167 HD
ATOM     23  C   UNL     1       7.379   5.229   5.432  1.00  0.00     0.037 A 
ATOM     24  C   UNL     1       0.916   5.826   7.685  1.00  0.00     0.037 A 
ATOM     25  C   UNL     1       6.830   6.307   4.670  1.00  0.00     0.049 A 
ATOM     26  C   UNL     1       2.066   6.745   7.360  1.00  0.00     0.074 A 
ATOM     27  C   UNL     1       6.885   6.760   3.372  1.00  0.00     0.029 A 
ATOM     28  N   UNL     1       6.270   7.367   5.340  1.00  0.00    -0.354 N 
ATOM     29  N   UNL     1       2.132   7.592   6.356  1.00  0.00    -0.248 NA
ATOM     30  C   UNL     1       3.340   6.507   8.020  1.00  0.00     0.031 C 
ATOM     31  C   UNL     1       6.031   7.909   3.311  1.00  0.00     0.029 A 
ATOM     32  C   UNL     1       5.347   7.985   4.526  1.00  0.00     0.049 A 
ATOM     33  H   UNL     1       6.494   7.643   6.258  1.00  0.00     0.167 HD
ATOM     34  C   UNL     1       3.497   7.828   6.124  1.00  0.00     0.074 A 
ATOM     35  C   UNL     1       4.172   7.107   7.186  1.00  0.00     0.031 C 
ATOM     36  C   UNL     1       4.039   8.456   5.020  1.00  0.00     0.037 A 
BRANCH  23  37
ATOM     37  C   UNL     1       8.806   5.268   5.784  1.00  0.00     0.058 A 
ATOM     38  C   UNL     1       9.239   6.193   6.741  1.00  0.00     0.135 A 
ATOM     39  C   UNL     1       9.756   4.516   5.084  1.00  0.00     0.135 A 
ATOM     40  F   UNL     1       8.341   6.921   7.427  1.00  0.00    -0.206 F 
ATOM     41  C   UNL     1      10.586   6.402   6.972  1.00  0.00     0.059 A 
ATOM     42  C   UNL     1      11.113   4.705   5.303  1.00  0.00     0.059 A 
ATOM     43  F   UNL     1       9.367   3.620   4.161  1.00  0.00    -0.206 F 
ATOM     44  C   UNL     1      11.515   5.665   6.235  1.00  0.00     0.060 A 
BRANCH  44  45
ATOM     45  S   UNL     1      13.262   6.013   6.500  1.00  0.00     0.124 S 
ATOM     46  O   UNL     1      13.360   7.396   6.045  1.00  0.00    -0.237 OA
ATOM     47  O   UNL     1      13.392   5.803   7.938  1.00  0.00    -0.237 OA
ATOM     48  O   UNL     1      13.933   5.025   5.660  1.00  0.00    -0.744 OA
ENDBRANCH  44  45
ENDBRANCH  23  37
BRANCH  24  49
ATOM     49  C   UNL     1       0.371   5.542   9.059  1.00  0.00     0.058 A 
ATOM     50  C   UNL     1      -0.868   4.870   9.134  1.00  0.00     0.135 A 
ATOM     51  C   UNL     1       1.091   5.640  10.261  1.00  0.00     0.135 A 
ATOM     52  F   UNL     1      -1.678   4.831   8.064  1.00  0.00    -0.206 F 
ATOM     53  C   UNL     1      -1.254   4.148  10.260  1.00  0.00     0.059 A 
ATOM     54  C   UNL     1       0.736   4.911  11.396  1.00  0.00     0.059 A 
ATOM     55  F   UNL     1       2.193   6.392  10.361  1.00  0.00    -0.206 F 
ATOM     56  C   UNL     1      -0.402   4.113  11.359  1.00  0.00     0.060 A 
BRANCH  56  57
ATOM     57  S   UNL     1      -0.732   2.915  12.668  1.00  0.00     0.124 S 
ATOM     58  O   UNL     1      -2.062   3.308  13.117  1.00  0.00    -0.237 OA
ATOM     59  O   UNL     1      -0.652   1.653  11.938  1.00  0.00    -0.237 OA
ATOM     60  O   UNL     1       0.349   3.149  13.622  1.00  0.00    -0.744 OA
ENDBRANCH  56  57
ENDBRANCH  24  49
BRANCH  36  61
ATOM     61  C   UNL     1       3.127   9.396   4.219  1.00  0.00     0.058 A 
ATOM     62  C   UNL     1       2.231  10.288   4.847  1.00  0.00     0.135 A 
ATOM     63  C   UNL     1       3.126   9.483   2.814  1.00  0.00     0.135 A 
ATOM     64  F   UNL     1       2.227  10.416   6.184  1.00  0.00    -0.206 F 
ATOM     65  C   UNL     1       1.331  11.101   4.132  1.00  0.00     0.059 A 
ATOM     66  C   UNL     1       2.263  10.300   2.078  1.00  0.00     0.059 A 
ATOM     67  F   UNL     1       3.892   8.685   2.064  1.00  0.00    -0.206 F 
ATOM     68  C   UNL     1       1.346  11.091   2.740  1.00  0.00     0.060 A 
BRANCH  68  69
ATOM     69  S   UNL     1       0.137  12.029   1.781  1.00  0.00     0.124 S 
ATOM     70  O   UNL     1      -1.049  12.009   2.632  1.00  0.00    -0.237 OA
ATOM     71  O   UNL     1       0.798  13.324   1.651  1.00  0.00    -0.237 OA
ATOM     72  O   UNL     1       0.017  11.267   0.540  1.00  0.00    -0.744 OA
ENDBRANCH  68  69
ENDBRANCH  36  61
ENDBRANCH  10  11
ENDBRANCH   3   5
ENDBRANCH   2   3
ENDBRANCH   1   2
BRANCH   1  73
ATOM     73  C   UNL     1       3.437   1.911  -1.759  1.00  0.00     0.274 C 
BRANCH  73  74
ATOM     74  O   UNL     1       3.082   2.245  -0.417  1.00  0.00    -0.458 OA
BRANCH  74  75
ATOM     75  C   UNL     1       1.799   2.041  -0.024  1.00  0.00     0.365 C 
ATOM     76  O   UNL     1       0.868   1.851  -0.799  1.00  0.00    -0.245 OA
BRANCH  75  77
ATOM     77  C   UNL     1       1.639   2.050   1.514  1.00  0.00     0.296 C 
ATOM     78  C   UNL     1       1.266   3.509   1.825  1.00  0.00     0.091 C 
ATOM     79  N   UNL     1       2.932   1.636   2.451  1.00  0.00    -0.319 N 
ATOM     80  C   UNL     1       2.548   4.292   2.003  1.00  0.00     0.036 C 
ATOM     81  C   UNL     1       3.521   3.235   2.484  1.00  0.00     0.270 C 
ATOM     82  H   UNL     1       2.873   0.847   3.094  1.00  0.00     0.349 HD
ATOM     83  C   UNL     1       2.369   5.427   3.035  1.00  0.00     0.074 C 
ATOM     84  C   UNL     1       3.151   5.002   0.764  1.00  0.00     0.074 C 
ATOM     85  C   UNL     1       1.435   6.499   2.486  1.00  0.00     0.261 C 
ATOM     86  C   UNL     1       2.249   6.087   0.216  1.00  0.00     0.261 C 
ATOM     87  N   UNL     1       1.944   7.069   1.237  1.00  0.00    -0.346 N 
ATOM     88  H   UNL     1       2.796   7.588   1.446  1.00  0.00     0.346 HD
ATOM     89  H   UNL     1       1.202   7.661   0.862  1.00  0.00     0.346 HD
BRANCH  79  90
ATOM     90  C   UNL     1       3.906  -0.138   3.013  1.00  0.00     0.302 C 
BRANCH  90  91
ATOM     91  C   UNL     1       5.385  -0.960   2.384  1.00  0.00     0.038 A 
ATOM     92  C   UNL     1       6.691  -0.418   2.649  1.00  0.00     0.012 A 
ATOM     93  C   UNL     1       5.404  -1.873   1.292  1.00  0.00     0.144 A 
ATOM     94  C   UNL     1       7.746  -0.430   1.693  1.00  0.00     0.003 A 
ATOM     95  C   UNL     1       6.507  -1.896   0.326  1.00  0.00     0.135 A 
ATOM     96  N   UNL     1       4.485  -2.747   0.871  1.00  0.00    -0.049 NA
ATOM     97  C   UNL     1       7.660  -1.104   0.466  1.00  0.00     0.034 A 
ATOM     98  N   UNL     1       6.168  -2.705  -0.684  1.00  0.00    -0.050 NA
ATOM     99  O   UNL     1       4.940  -3.241  -0.337  1.00  0.00    -0.243 OA
ENDBRANCH  90  91
ENDBRANCH  79  90
ENDBRANCH  75  77
ENDBRANCH  74  75
ENDBRANCH  73  74
ENDBRANCH   1  73
TORSDOF 16
