REMARK SMILES Cc1nn2c(nnc3c(=O)n(CCCC(=O)OCCOC(=O)c4ccc(-c5c6nc(c(-c7c(F)cc(S(=O)(=O)[O-])cc7F)c7ccc([nH]7)c(-c7c(F)cc(S(=O)(=O)[O-])cc7F)c7nc(c(-c8c(F)cc(S(=O)(=O)[O-])cc8F)c8ccc5[nH]8)C=C7)C=C6)cc4)ccc32)c1-c1ccc(F)cc1
REMARK SMILES IDX 18 1 17 2 15 3 16 4 14 5 13 6 12 7 11 8 1 9 2 10 3 11 92 12
REMARK SMILES IDX 4 13 5 14 91 15 6 16 8 17 90 18 7 19 9 20 89 21 10 22 93 23
REMARK SMILES IDX 94 24 99 25 95 26 98 27 96 28 97 29 19 30 20 31 21 32 22 33
REMARK SMILES IDX 23 34 24 35 88 36 25 37 87 38 26 39 27 40 28 41 81 42 29 43
REMARK SMILES IDX 86 44 80 45 82 46 30 47 85 48 79 49 78 50 31 52 65 53 44 54
REMARK SMILES IDX 64 55 45 56 48 57 63 58 83 59 46 60 47 61 62 63 84 64 49 65
REMARK SMILES IDX 32 66 33 67 42 68 34 69 35 70 41 71 43 72 36 73 37 74 38 75
REMARK SMILES IDX 39 76 40 77 66 78 67 79 76 80 68 81 69 82 75 83 77 84 70 85
REMARK SMILES IDX 71 86 72 87 73 88 74 89 50 90 51 91 60 92 52 93 53 94 59 95
REMARK SMILES IDX 61 96 54 97 55 98 56 99 57 100 58 101
REMARK H PARENT 82 51 48 62
REMARK Flexibility Score: inf
ROOT
ATOM      1  C   UNL     1      -2.802  10.113   1.230  1.00  0.00     0.274 C 
ENDROOT
BRANCH   1   2
ATOM      2  O   UNL     1      -1.756   9.835   0.286  1.00  0.00    -0.462 OA
BRANCH   2   3
ATOM      3  C   UNL     1      -2.040   9.822  -1.035  1.00  0.00     0.305 C 
ATOM      4  O   UNL     1      -3.137  10.081  -1.518  1.00  0.00    -0.252 OA
BRANCH   3   5
ATOM      5  C   UNL     1      -0.854   9.397  -1.888  1.00  0.00     0.124 C 
BRANCH   5   6
ATOM      6  C   UNL     1       0.574   9.556  -1.345  1.00  0.00     0.034 C 
BRANCH   6   7
ATOM      7  C   UNL     1       0.951   8.879  -0.015  1.00  0.00     0.126 C 
BRANCH   7   8
ATOM      8  N   UNL     1       0.831   7.417  -0.030  1.00  0.00    -0.313 N 
ATOM      9  C   UNL     1       1.183  -0.182  -0.057  1.00  0.00     0.069 C 
ATOM     10  C   UNL     1       0.567   1.146  -0.278  1.00  0.00     0.070 A 
ATOM     11  N   UNL     1       1.299   2.260  -0.128  1.00  0.00    -0.170 NA
ATOM     12  C   UNL     1      -0.769   1.431  -0.637  1.00  0.00     0.051 A 
ATOM     13  N   UNL     1       0.415   3.280  -0.300  1.00  0.00    -0.210 N 
ATOM     14  C   UNL     1      -0.855   2.800  -0.598  1.00  0.00     0.186 A 
ATOM     15  C   UNL     1       0.606   4.652  -0.169  1.00  0.00     0.102 A 
ATOM     16  N   UNL     1      -1.909   3.645  -0.762  1.00  0.00    -0.129 NA
ATOM     17  C   UNL     1      -0.512   5.388  -0.264  1.00  0.00     0.177 A 
ATOM     18  C   UNL     1       1.889   5.290   0.048  1.00  0.00     0.049 A 
ATOM     19  N   UNL     1      -1.756   4.870  -0.558  1.00  0.00    -0.141 NA
ATOM     20  C   UNL     1      -0.435   6.837   0.014  1.00  0.00     0.280 A 
ATOM     21  C   UNL     1       1.972   6.629   0.045  1.00  0.00     0.091 A 
ATOM     22  O   UNL     1      -1.488   7.417   0.256  1.00  0.00    -0.267 OA
BRANCH  12  23
ATOM     23  C   UNL     1      -1.926   0.610  -0.906  1.00  0.00    -0.012 A 
ATOM     24  C   UNL     1      -2.519  -0.133   0.120  1.00  0.00     0.012 A 
ATOM     25  C   UNL     1      -2.519   0.645  -2.178  1.00  0.00     0.012 A 
ATOM     26  C   UNL     1      -3.697  -0.839  -0.128  1.00  0.00     0.040 A 
ATOM     27  C   UNL     1      -3.693  -0.065  -2.423  1.00  0.00     0.040 A 
ATOM     28  C   UNL     1      -4.271  -0.800  -1.395  1.00  0.00     0.123 A 
ATOM     29  F   UNL     1      -5.406  -1.474  -1.625  1.00  0.00    -0.207 F 
ENDBRANCH  12  23
ENDBRANCH   7   8
ENDBRANCH   6   7
ENDBRANCH   5   6
ENDBRANCH   3   5
ENDBRANCH   2   3
ENDBRANCH   1   2
BRANCH   1  30
ATOM     30  C   UNL     1      -2.629  11.522   1.767  1.00  0.00     0.275 C 
BRANCH  30  31
ATOM     31  O   UNL     1      -2.752  12.444   0.691  1.00  0.00    -0.458 OA
BRANCH  31  32
ATOM     32  C   UNL     1      -1.599  12.628   0.010  1.00  0.00     0.338 C 
ATOM     33  O   UNL     1      -0.516  12.103   0.214  1.00  0.00    -0.246 OA
BRANCH  32  34
ATOM     34  C   UNL     1      -1.764  13.705  -0.955  1.00  0.00     0.060 A 
ATOM     35  C   UNL     1      -0.717  13.870  -1.864  1.00  0.00     0.016 A 
ATOM     36  C   UNL     1      -2.655  14.729  -0.615  1.00  0.00     0.016 A 
ATOM     37  C   UNL     1      -0.394  15.152  -2.225  1.00  0.00     0.010 A 
ATOM     38  C   UNL     1      -2.312  16.010  -0.953  1.00  0.00     0.010 A 
ATOM     39  C   UNL     1      -1.139  16.203  -1.677  1.00  0.00    -0.014 A 
BRANCH  39  40
ATOM     40  C   UNL     1      -0.708  17.541  -1.986  1.00  0.00     0.031 A 
ATOM     41  C   UNL     1      -1.104  17.935  -3.345  1.00  0.00     0.074 A 
ATOM     42  C   UNL     1      -0.098  18.344  -1.098  1.00  0.00     0.049 A 
ATOM     43  N   UNL     1      -0.349  18.028  -4.385  1.00  0.00    -0.248 NA
ATOM     44  C   UNL     1      -2.546  18.032  -3.626  1.00  0.00     0.031 C 
ATOM     45  C   UNL     1       0.016  18.143   0.349  1.00  0.00     0.029 A 
ATOM     46  N   UNL     1       0.458  19.570  -1.292  1.00  0.00    -0.354 N 
ATOM     47  C   UNL     1      -1.193  18.493  -5.382  1.00  0.00     0.074 A 
ATOM     48  C   UNL     1      -2.537  18.227  -4.945  1.00  0.00     0.031 C 
ATOM     49  C   UNL     1       0.400  19.305   0.924  1.00  0.00     0.029 A 
ATOM     50  C   UNL     1       0.703  20.270  -0.121  1.00  0.00     0.049 A 
ATOM     51  H   UNL     1       0.668  19.928  -2.185  1.00  0.00     0.167 HD
ATOM     52  C   UNL     1      -0.735  19.393  -6.290  1.00  0.00     0.037 A 
ATOM     53  C   UNL     1       1.067  21.571  -0.032  1.00  0.00     0.037 A 
ATOM     54  C   UNL     1       0.705  19.447  -6.298  1.00  0.00     0.049 A 
ATOM     55  C   UNL     1       1.709  21.952  -1.317  1.00  0.00     0.074 A 
ATOM     56  C   UNL     1       1.735  18.698  -6.822  1.00  0.00     0.029 A 
ATOM     57  N   UNL     1       1.241  20.256  -5.332  1.00  0.00    -0.354 N 
ATOM     58  N   UNL     1       2.824  21.428  -1.753  1.00  0.00    -0.248 NA
ATOM     59  C   UNL     1       0.946  22.705  -2.310  1.00  0.00     0.031 C 
ATOM     60  C   UNL     1       2.901  19.020  -6.064  1.00  0.00     0.029 A 
ATOM     61  C   UNL     1       2.561  19.966  -5.102  1.00  0.00     0.049 A 
ATOM     62  H   UNL     1       0.739  20.959  -4.860  1.00  0.00     0.167 HD
ATOM     63  C   UNL     1       2.691  21.434  -3.126  1.00  0.00     0.074 A 
ATOM     64  C   UNL     1       1.619  22.375  -3.414  1.00  0.00     0.031 C 
ATOM     65  C   UNL     1       3.209  20.435  -3.894  1.00  0.00     0.037 A 
BRANCH  52  66
ATOM     66  C   UNL     1      -1.562  20.550  -6.795  1.00  0.00     0.058 A 
ATOM     67  C   UNL     1      -1.091  21.298  -7.890  1.00  0.00     0.135 A 
ATOM     68  C   UNL     1      -2.640  21.125  -6.081  1.00  0.00     0.135 A 
ATOM     69  F   UNL     1      -0.053  20.859  -8.619  1.00  0.00    -0.206 F 
ATOM     70  C   UNL     1      -1.627  22.541  -8.226  1.00  0.00     0.059 A 
ATOM     71  C   UNL     1      -3.229  22.330  -6.436  1.00  0.00     0.059 A 
ATOM     72  F   UNL     1      -3.111  20.601  -4.943  1.00  0.00    -0.206 F 
ATOM     73  C   UNL     1      -2.692  23.051  -7.488  1.00  0.00     0.060 A 
BRANCH  73  74
ATOM     74  S   UNL     1      -3.337  24.687  -7.869  1.00  0.00     0.124 S 
ATOM     75  O   UNL     1      -2.236  25.540  -7.439  1.00  0.00    -0.237 OA
ATOM     76  O   UNL     1      -3.554  24.597  -9.309  1.00  0.00    -0.237 OA
ATOM     77  O   UNL     1      -4.552  24.764  -7.063  1.00  0.00    -0.744 OA
ENDBRANCH  73  74
ENDBRANCH  52  66
BRANCH  53  78
ATOM     78  C   UNL     1       0.605  22.580   0.955  1.00  0.00     0.058 A 
ATOM     79  C   UNL     1       1.227  23.838   1.031  1.00  0.00     0.135 A 
ATOM     80  C   UNL     1      -0.632  22.452   1.619  1.00  0.00     0.135 A 
ATOM     81  F   UNL     1       2.405  24.047   0.422  1.00  0.00    -0.206 F 
ATOM     82  C   UNL     1       0.621  24.930   1.656  1.00  0.00     0.059 A 
ATOM     83  C   UNL     1      -1.249  23.524   2.261  1.00  0.00     0.059 A 
ATOM     84  F   UNL     1      -1.327  21.306   1.579  1.00  0.00    -0.206 F 
ATOM     85  C   UNL     1      -0.633  24.769   2.243  1.00  0.00     0.060 A 
BRANCH  85  86
ATOM     86  S   UNL     1      -1.506  26.224   2.865  1.00  0.00     0.124 S 
ATOM     87  O   UNL     1      -0.685  26.600   4.011  1.00  0.00    -0.237 OA
ATOM     88  O   UNL     1      -1.452  27.124   1.719  1.00  0.00    -0.237 OA
ATOM     89  O   UNL     1      -2.834  25.709   3.190  1.00  0.00    -0.744 OA
ENDBRANCH  85  86
ENDBRANCH  53  78
BRANCH  65  90
ATOM     90  C   UNL     1       4.413  19.704  -3.384  1.00  0.00     0.058 A 
ATOM     91  C   UNL     1       4.421  18.827  -2.288  1.00  0.00     0.135 A 
ATOM     92  C   UNL     1       5.612  19.855  -4.099  1.00  0.00     0.135 A 
ATOM     93  F   UNL     1       3.299  18.580  -1.596  1.00  0.00    -0.206 F 
ATOM     94  C   UNL     1       5.581  18.146  -1.908  1.00  0.00     0.059 A 
ATOM     95  C   UNL     1       6.770  19.167  -3.755  1.00  0.00     0.059 A 
ATOM     96  F   UNL     1       5.656  20.655  -5.177  1.00  0.00    -0.206 F 
ATOM     97  C   UNL     1       6.750  18.319  -2.652  1.00  0.00     0.060 A 
BRANCH  97  98
ATOM     98  S   UNL     1       8.227  17.377  -2.210  1.00  0.00     0.124 S 
ATOM     99  O   UNL     1       8.609  17.980  -0.937  1.00  0.00    -0.237 OA
ATOM    100  O   UNL     1       7.719  16.010  -2.137  1.00  0.00    -0.237 OA
ATOM    101  O   UNL     1       9.142  17.634  -3.320  1.00  0.00    -0.744 OA
ENDBRANCH  97  98
ENDBRANCH  65  90
ENDBRANCH  39  40
ENDBRANCH  32  34
ENDBRANCH  31  32
ENDBRANCH  30  31
ENDBRANCH   1  30
TORSDOF 18
