REMARK SMILES CC[NH+]1CCN(c2ccc(NS(=O)(=O)c3cccc(F)c3)cc2C(=O)OCCOC(=O)c2ccc(-c3c4nc(c(-c5c(F)cc(S(=O)(=O)[O-])cc5F)c5ccc([nH]5)c(-c5c(F)cc(S(=O)(=O)[O-])cc5F)c5nc(c(-c6c(F)cc(S(=O)(=O)[O-])cc6F)c6ccc3[nH]6)C=C5)C=C4)cc2)CC1
REMARK SMILES IDX 27 1 26 2 24 3 25 4 23 5 7 6 8 7 9 8 22 9 10 10 6 11 3 12
REMARK SMILES IDX 4 13 99 14 5 16 98 17 2 18 1 19 11 20 12 22 13 23 14 24
REMARK SMILES IDX 15 25 16 26 21 27 17 28 19 29 18 30 20 31 28 32 29 33 30 34
REMARK SMILES IDX 31 35 32 36 33 37 97 38 34 39 96 40 35 41 36 42 37 43 90 44
REMARK SMILES IDX 38 45 95 46 89 47 91 48 39 49 94 50 88 51 87 52 40 54 74 55
REMARK SMILES IDX 53 56 73 57 54 58 57 59 72 60 92 61 55 62 56 63 71 65 93 66
REMARK SMILES IDX 58 67 41 68 42 69 51 70 43 71 44 72 50 73 52 74 45 75 46 76
REMARK SMILES IDX 47 77 48 78 49 79 75 80 76 81 85 82 77 83 78 84 84 85 86 86
REMARK SMILES IDX 79 87 80 88 81 89 82 90 83 91 59 92 60 93 69 94 61 95 62 96
REMARK SMILES IDX 68 97 70 98 63 99 64 100 65 101 66 102 67 103
REMARK H PARENT 3 15 11 21 91 53 57 64
REMARK Flexibility Score: inf
ROOT
ATOM      1  C   UNL     1       5.234   3.142  -0.157  1.00  0.00     0.275 C 
ENDROOT
BRANCH   1   2
ATOM      2  O   UNL     1       4.419   3.866   0.786  1.00  0.00    -0.458 OA
BRANCH   2   3
ATOM      3  C   UNL     1       4.806   3.826   2.084  1.00  0.00     0.340 C 
ATOM      4  O   UNL     1       5.800   3.287   2.525  1.00  0.00    -0.246 OA
BRANCH   3   5
ATOM      5  C   UNL     1       3.877   4.655   2.893  1.00  0.00     0.085 A 
ATOM      6  C   UNL     1       2.470   4.472   2.931  1.00  0.00     0.052 A 
ATOM      7  C   UNL     1       1.770   5.460   3.655  1.00  0.00     0.029 A 
ATOM      8  C   UNL     1       2.380   6.598   4.186  1.00  0.00     0.029 A 
ATOM      9  C   UNL     1       4.514   5.748   3.542  1.00  0.00     0.044 A 
ATOM     10  C   UNL     1       3.754   6.751   4.127  1.00  0.00     0.050 A 
BRANCH   6  11
ATOM     11  N   UNL     1       1.742   3.459   2.322  1.00  0.00    -0.360 N 
ATOM     12  N   UNL     1       0.556   1.879   0.094  1.00  0.00    -0.332 N 
ATOM     13  C   UNL     1       0.063   3.222   0.479  1.00  0.00     0.283 C 
ATOM     14  C   UNL     1       1.972   1.781   0.517  1.00  0.00     0.283 C 
ATOM     15  H   UNL     1       0.508   1.754  -0.917  1.00  0.00     0.348 HD
ATOM     16  C   UNL     1       0.322   3.649   1.945  1.00  0.00     0.178 C 
ATOM     17  C   UNL     1       2.245   2.114   2.007  1.00  0.00     0.178 C 
BRANCH  12  18
ATOM     18  C   UNL     1      -0.292   0.813   0.631  1.00  0.00     0.258 C 
ATOM     19  C   UNL     1       0.059  -0.546   0.034  1.00  0.00     0.071 C 
ENDBRANCH  12  18
ENDBRANCH   6  11
BRANCH  10  20
ATOM     20  N   UNL     1       4.330   7.966   4.615  1.00  0.00    -0.280 N 
ATOM     21  H   UNL     1       4.564   8.690   3.990  1.00  0.00     0.180 HD
BRANCH  20  22
ATOM     22  S   UNL     1       4.609   8.152   6.280  1.00  0.00     0.261 S 
ATOM     23  O   UNL     1       5.642   7.210   6.652  1.00  0.00    -0.201 OA
ATOM     24  O   UNL     1       4.773   9.570   6.519  1.00  0.00    -0.201 OA
BRANCH  22  25
ATOM     25  C   UNL     1       3.101   7.649   7.064  1.00  0.00     0.090 A 
ATOM     26  C   UNL     1       2.053   8.562   7.237  1.00  0.00     0.022 A 
ATOM     27  C   UNL     1       2.977   6.324   7.488  1.00  0.00     0.061 A 
ATOM     28  C   UNL     1       0.848   8.124   7.794  1.00  0.00     0.004 A 
ATOM     29  C   UNL     1       1.772   5.907   8.031  1.00  0.00     0.124 A 
ATOM     30  C   UNL     1       0.706   6.790   8.181  1.00  0.00     0.039 A 
ATOM     31  F   UNL     1       1.624   4.628   8.399  1.00  0.00    -0.207 F 
ENDBRANCH  22  25
ENDBRANCH  20  22
ENDBRANCH  10  20
ENDBRANCH   3   5
ENDBRANCH   2   3
ENDBRANCH   1   2
BRANCH   1  32
ATOM     32  C   UNL     1       4.965   3.688  -1.563  1.00  0.00     0.275 C 
BRANCH  32  33
ATOM     33  O   UNL     1       5.619   4.961  -1.690  1.00  0.00    -0.458 OA
BRANCH  33  34
ATOM     34  C   UNL     1       4.885   6.021  -1.279  1.00  0.00     0.338 C 
ATOM     35  O   UNL     1       3.682   6.079  -1.093  1.00  0.00    -0.246 OA
BRANCH  34  36
ATOM     36  C   UNL     1       5.835   7.044  -0.832  1.00  0.00     0.060 A 
ATOM     37  C   UNL     1       6.065   7.144   0.541  1.00  0.00     0.016 A 
ATOM     38  C   UNL     1       6.481   7.887  -1.729  1.00  0.00     0.016 A 
ATOM     39  C   UNL     1       6.920   8.119   1.039  1.00  0.00     0.010 A 
ATOM     40  C   UNL     1       7.361   8.851  -1.231  1.00  0.00     0.010 A 
ATOM     41  C   UNL     1       7.571   8.988   0.156  1.00  0.00    -0.014 A 
BRANCH  41  42
ATOM     42  C   UNL     1       8.396  10.104   0.681  1.00  0.00     0.031 A 
ATOM     43  C   UNL     1       7.931  11.517   0.461  1.00  0.00     0.074 A 
ATOM     44  C   UNL     1       9.532   9.861   1.363  1.00  0.00     0.049 A 
ATOM     45  N   UNL     1       8.574  12.639   0.645  1.00  0.00    -0.248 NA
ATOM     46  C   UNL     1       6.560  11.684  -0.049  1.00  0.00     0.031 C 
ATOM     47  C   UNL     1      10.051   8.535   1.705  1.00  0.00     0.029 A 
ATOM     48  N   UNL     1      10.457  10.725   1.893  1.00  0.00    -0.354 N 
ATOM     49  C   UNL     1       7.708  13.643   0.226  1.00  0.00     0.074 A 
ATOM     50  C   UNL     1       6.495  12.996  -0.226  1.00  0.00     0.031 C 
ATOM     51  C   UNL     1      11.191   8.676   2.402  1.00  0.00     0.029 A 
ATOM     52  C   UNL     1      11.522  10.094   2.492  1.00  0.00     0.049 A 
ATOM     53  H   UNL     1      10.367  11.705   1.848  1.00  0.00     0.167 HD
ATOM     54  C   UNL     1       7.911  14.982   0.220  1.00  0.00     0.037 A 
ATOM     55  C   UNL     1      12.654  10.603   3.018  1.00  0.00     0.037 A 
ATOM     56  C   UNL     1       9.106  15.611   0.716  1.00  0.00     0.049 A 
ATOM     57  C   UNL     1      12.873  12.092   2.969  1.00  0.00     0.074 A 
ATOM     58  C   UNL     1       9.430  16.956   0.736  1.00  0.00     0.029 A 
ATOM     59  N   UNL     1      10.166  14.936   1.305  1.00  0.00    -0.354 N 
ATOM     60  N   UNL     1      12.085  13.025   2.489  1.00  0.00    -0.248 NA
ATOM     61  C   UNL     1      14.140  12.595   3.514  1.00  0.00     0.031 C 
ATOM     62  C   UNL     1      10.696  17.092   1.317  1.00  0.00     0.029 A 
ATOM     63  C   UNL     1      11.144  15.836   1.693  1.00  0.00     0.049 A 
ATOM     64  H   UNL     1      10.216  13.960   1.428  1.00  0.00     0.167 HD
ATOM     65  C   UNL     1      12.753  14.228   2.692  1.00  0.00     0.074 A 
ATOM     66  C   UNL     1      14.003  13.904   3.349  1.00  0.00     0.031 C 
ATOM     67  C   UNL     1      12.372  15.486   2.360  1.00  0.00     0.037 A 
BRANCH  54  68
ATOM     68  C   UNL     1       6.833  15.846  -0.371  1.00  0.00     0.058 A 
ATOM     69  C   UNL     1       5.616  16.072   0.290  1.00  0.00     0.135 A 
ATOM     70  C   UNL     1       7.027  16.470  -1.614  1.00  0.00     0.135 A 
ATOM     71  F   UNL     1       5.367  15.481   1.470  1.00  0.00    -0.206 F 
ATOM     72  C   UNL     1       4.620  16.866  -0.271  1.00  0.00     0.059 A 
ATOM     73  C   UNL     1       6.055  17.288  -2.183  1.00  0.00     0.059 A 
ATOM     74  F   UNL     1       8.171  16.284  -2.292  1.00  0.00    -0.206 F 
ATOM     75  C   UNL     1       4.848  17.467  -1.510  1.00  0.00     0.060 A 
BRANCH  75  76
ATOM     76  S   UNL     1       3.546  18.492  -2.229  1.00  0.00     0.124 S 
ATOM     77  O   UNL     1       2.598  17.480  -2.684  1.00  0.00    -0.237 OA
ATOM     78  O   UNL     1       3.115  19.297  -1.091  1.00  0.00    -0.237 OA
ATOM     79  O   UNL     1       4.236  19.225  -3.286  1.00  0.00    -0.744 OA
ENDBRANCH  75  76
ENDBRANCH  54  68
BRANCH  55  80
ATOM     80  C   UNL     1      13.684   9.699   3.598  1.00  0.00     0.058 A 
ATOM     81  C   UNL     1      13.946   9.691   4.976  1.00  0.00     0.135 A 
ATOM     82  C   UNL     1      14.429   8.827   2.788  1.00  0.00     0.135 A 
ATOM     83  F   UNL     1      13.270  10.515   5.791  1.00  0.00    -0.206 F 
ATOM     84  C   UNL     1      14.919   8.864   5.530  1.00  0.00     0.059 A 
ATOM     85  C   UNL     1      15.388   7.972   3.321  1.00  0.00     0.059 A 
ATOM     86  F   UNL     1      14.212   8.787   1.464  1.00  0.00    -0.206 F 
ATOM     87  C   UNL     1      15.635   8.007   4.693  1.00  0.00     0.060 A 
BRANCH  87  88
ATOM     88  S   UNL     1      16.870   6.908   5.420  1.00  0.00     0.124 S 
ATOM     89  O   UNL     1      17.977   7.827   5.658  1.00  0.00    -0.237 OA
ATOM     90  O   UNL     1      16.184   6.413   6.610  1.00  0.00    -0.237 OA
ATOM     91  O   UNL     1      17.088   5.912   4.375  1.00  0.00    -0.744 OA
ENDBRANCH  87  88
ENDBRANCH  55  80
BRANCH  67  92
ATOM     92  C   UNL     1      13.297  16.606   2.742  1.00  0.00     0.058 A 
ATOM     93  C   UNL     1      14.480  16.858   2.031  1.00  0.00     0.135 A 
ATOM     94  C   UNL     1      12.970  17.464   3.804  1.00  0.00     0.135 A 
ATOM     95  F   UNL     1      14.839  16.062   1.012  1.00  0.00    -0.206 F 
ATOM     96  C   UNL     1      15.319  17.913   2.373  1.00  0.00     0.059 A 
ATOM     97  C   UNL     1      13.783  18.538   4.149  1.00  0.00     0.059 A 
ATOM     98  F   UNL     1      11.844  17.269   4.508  1.00  0.00    -0.206 F 
ATOM     99  C   UNL     1      14.962  18.747   3.435  1.00  0.00     0.060 A 
BRANCH  99 100
ATOM    100  S   UNL     1      16.042  20.133   3.850  1.00  0.00     0.124 S 
ATOM    101  O   UNL     1      17.129  19.458   4.551  1.00  0.00    -0.237 OA
ATOM    102  O   UNL     1      16.375  20.677   2.537  1.00  0.00    -0.237 OA
ATOM    103  O   UNL     1      15.195  20.987   4.677  1.00  0.00    -0.744 OA
ENDBRANCH  99 100
ENDBRANCH  67  92
ENDBRANCH  41  42
ENDBRANCH  34  36
ENDBRANCH  33  34
ENDBRANCH  32  33
ENDBRANCH   1  32
TORSDOF 19
