REMARK SMILES CC1=C(CC(=O)OCCOC(=O)c2ccc(-c3c4nc(c(-c5c(F)cc(S(=O)(=O)[O-])cc5F)c5ccc([nH]5)c(-c5c(F)cc(S(=O)(=O)[O-])cc5F)c5nc(c(-c6c(F)cc(S(=O)(=O)[O-])cc6F)c6ccc3[nH]6)C=C5)C=C4)cc2)c2cc(F)ccc2/C1=C\c1ccc([S@@+](C)[O-])cc1
REMARK SMILES IDX 8 1 7 2 5 3 6 4 4 5 3 6 1 7 2 8 86 9 79 10 85 11 87 12 80 13
REMARK SMILES IDX 84 14 81 15 83 16 82 17 88 18 89 19 96 20 90 21 95 22 91 23
REMARK SMILES IDX 92 24 93 25 94 26 9 27 10 28 11 29 12 30 13 31 14 32 78 33
REMARK SMILES IDX 15 34 77 35 16 36 17 37 18 38 71 39 19 40 76 41 70 42 72 43
REMARK SMILES IDX 20 44 75 45 69 46 68 47 21 49 55 50 34 51 54 52 35 53 38 54
REMARK SMILES IDX 53 55 73 56 36 57 37 58 52 60 74 61 39 62 22 63 23 64 32 65
REMARK SMILES IDX 24 66 25 67 31 68 33 69 26 70 27 71 28 72 29 73 30 74 56 75
REMARK SMILES IDX 57 76 66 77 58 78 59 79 65 80 67 81 60 82 61 83 62 84 63 85
REMARK SMILES IDX 64 86 40 87 41 88 50 89 42 90 43 91 49 92 51 93 44 94 45 95
REMARK SMILES IDX 46 96 47 97 48 98
REMARK H PARENT 72 48 38 59
REMARK Flexibility Score: inf
ROOT
ATOM      1  C   UNL     1      -4.114   0.997   1.072  1.00  0.00     0.274 C 
ENDROOT
BRANCH   1   2
ATOM      2  O   UNL     1      -2.839   1.159   0.416  1.00  0.00    -0.462 OA
BRANCH   2   3
ATOM      3  C   UNL     1      -2.663   0.426  -0.715  1.00  0.00     0.310 C 
ATOM      4  O   UNL     1      -3.492  -0.358  -1.168  1.00  0.00    -0.252 OA
BRANCH   3   5
ATOM      5  C   UNL     1      -1.328   0.648  -1.413  1.00  0.00     0.159 C 
BRANCH   5   6
ATOM      6  C   UNL     1      -0.393   1.640  -0.806  1.00  0.00    -0.025 C 
ATOM      7  C   UNL     1       1.180   0.106   0.489  1.00  0.00     0.045 C 
ATOM      8  C   UNL     1       0.671   1.421   0.001  1.00  0.00    -0.039 C 
ATOM      9  C   UNL     1       1.320   2.703   0.321  1.00  0.00    -0.014 C 
ATOM     10  C   UNL     1      -0.440   3.082  -1.104  1.00  0.00    -0.011 A 
ATOM     11  C   UNL     1       0.595   3.750  -0.429  1.00  0.00    -0.010 A 
ATOM     12  C   UNL     1       2.371   2.836   1.154  1.00  0.00     0.017 C 
ATOM     13  C   UNL     1      -1.291   3.781  -1.946  1.00  0.00     0.048 A 
ATOM     14  C   UNL     1       0.773   5.120  -0.595  1.00  0.00     0.012 A 
ATOM     15  C   UNL     1      -1.127   5.156  -2.081  1.00  0.00     0.123 A 
ATOM     16  C   UNL     1      -0.108   5.829  -1.413  1.00  0.00     0.040 A 
ATOM     17  F   UNL     1      -1.947   5.841  -2.887  1.00  0.00    -0.207 F 
BRANCH  12  18
ATOM     18  C   UNL     1       3.011   4.108   1.486  1.00  0.00    -0.025 A 
ATOM     19  C   UNL     1       2.383   5.004   2.356  1.00  0.00     0.013 A 
ATOM     20  C   UNL     1       4.180   4.490   0.823  1.00  0.00     0.013 A 
ATOM     21  C   UNL     1       2.863   6.311   2.484  1.00  0.00     0.061 A 
ATOM     22  C   UNL     1       4.672   5.789   0.971  1.00  0.00     0.061 A 
ATOM     23  C   UNL     1       4.002   6.718   1.779  1.00  0.00     0.152 A 
BRANCH  23  24
ATOM     24  S   UNL     1       4.529   8.451   1.752  1.00  0.00    -0.018 S 
ATOM     25  C   UNL     1       4.414   8.838   3.509  1.00  0.00     0.346 C 
ATOM     26  O   UNL     1       6.051   8.458   1.361  1.00  0.00    -0.612 OA
ENDBRANCH  23  24
ENDBRANCH  12  18
ENDBRANCH   5   6
ENDBRANCH   3   5
ENDBRANCH   2   3
ENDBRANCH   1   2
BRANCH   1  27
ATOM     27  C   UNL     1      -5.055   2.149   0.733  1.00  0.00     0.275 C 
BRANCH  27  28
ATOM     28  O   UNL     1      -5.229   2.228  -0.691  1.00  0.00    -0.458 OA
BRANCH  28  29
ATOM     29  C   UNL     1      -4.860   3.398  -1.258  1.00  0.00     0.338 C 
ATOM     30  O   UNL     1      -4.464   4.402  -0.694  1.00  0.00    -0.246 OA
BRANCH  29  31
ATOM     31  C   UNL     1      -5.029   3.303  -2.717  1.00  0.00     0.060 A 
ATOM     32  C   UNL     1      -5.816   4.253  -3.363  1.00  0.00     0.016 A 
ATOM     33  C   UNL     1      -4.339   2.337  -3.455  1.00  0.00     0.016 A 
ATOM     34  C   UNL     1      -5.949   4.200  -4.751  1.00  0.00     0.010 A 
ATOM     35  C   UNL     1      -4.390   2.352  -4.847  1.00  0.00     0.010 A 
ATOM     36  C   UNL     1      -5.231   3.257  -5.507  1.00  0.00    -0.014 A 
BRANCH  36  37
ATOM     37  C   UNL     1      -5.410   3.195  -6.980  1.00  0.00     0.031 A 
ATOM     38  C   UNL     1      -6.060   1.993  -7.614  1.00  0.00     0.074 A 
ATOM     39  C   UNL     1      -5.029   4.239  -7.743  1.00  0.00     0.049 A 
ATOM     40  N   UNL     1      -6.431   1.817  -8.856  1.00  0.00    -0.248 NA
ATOM     41  C   UNL     1      -6.314   0.830  -6.747  1.00  0.00     0.031 C 
ATOM     42  C   UNL     1      -4.335   5.433  -7.255  1.00  0.00     0.029 A 
ATOM     43  N   UNL     1      -5.198   4.478  -9.084  1.00  0.00    -0.354 N 
ATOM     44  C   UNL     1      -6.974   0.539  -8.913  1.00  0.00     0.074 A 
ATOM     45  C   UNL     1      -6.816  -0.048  -7.602  1.00  0.00     0.031 C 
ATOM     46  C   UNL     1      -4.193   6.303  -8.268  1.00  0.00     0.029 A 
ATOM     47  C   UNL     1      -4.769   5.724  -9.478  1.00  0.00     0.049 A 
ATOM     48  H   UNL     1      -5.589   3.821  -9.703  1.00  0.00     0.167 HD
ATOM     49  C   UNL     1      -7.588  -0.076  -9.950  1.00  0.00     0.037 A 
ATOM     50  C   UNL     1      -4.857   6.340 -10.673  1.00  0.00     0.037 A 
ATOM     51  C   UNL     1      -7.762   0.516 -11.248  1.00  0.00     0.049 A 
ATOM     52  C   UNL     1      -5.541   5.636 -11.814  1.00  0.00     0.074 A 
ATOM     53  C   UNL     1      -8.407  -0.007 -12.354  1.00  0.00     0.029 A 
ATOM     54  N   UNL     1      -7.288   1.768 -11.614  1.00  0.00    -0.354 N 
ATOM     55  N   UNL     1      -6.113   4.456 -11.829  1.00  0.00    -0.248 NA
ATOM     56  C   UNL     1      -5.599   6.350 -13.097  1.00  0.00     0.031 C 
ATOM     57  C   UNL     1      -8.296   0.915 -13.400  1.00  0.00     0.029 A 
ATOM     58  C   UNL     1      -7.613   2.027 -12.934  1.00  0.00     0.049 A 
ATOM     59  H   UNL     1      -6.795   2.380 -11.022  1.00  0.00     0.167 HD
ATOM     60  C   UNL     1      -6.613   4.292 -13.116  1.00  0.00     0.074 A 
ATOM     61  C   UNL     1      -6.289   5.500 -13.847  1.00  0.00     0.031 C 
ATOM     62  C   UNL     1      -7.279   3.236 -13.645  1.00  0.00     0.037 A 
BRANCH  49  63
ATOM     63  C   UNL     1      -8.147  -1.450  -9.709  1.00  0.00     0.058 A 
ATOM     64  C   UNL     1      -9.294  -1.640  -8.919  1.00  0.00     0.135 A 
ATOM     65  C   UNL     1      -7.560  -2.582 -10.294  1.00  0.00     0.135 A 
ATOM     66  F   UNL     1      -9.884  -0.592  -8.321  1.00  0.00    -0.206 F 
ATOM     67  C   UNL     1      -9.825  -2.906  -8.701  1.00  0.00     0.059 A 
ATOM     68  C   UNL     1      -8.089  -3.857 -10.108  1.00  0.00     0.059 A 
ATOM     69  F   UNL     1      -6.461  -2.457 -11.054  1.00  0.00    -0.206 F 
ATOM     70  C   UNL     1      -9.216  -4.009  -9.300  1.00  0.00     0.060 A 
BRANCH  70  71
ATOM     71  S   UNL     1      -9.928  -5.643  -9.014  1.00  0.00     0.124 S 
ATOM     72  O   UNL     1      -9.553  -5.886  -7.625  1.00  0.00    -0.237 OA
ATOM     73  O   UNL     1     -11.348  -5.411  -9.255  1.00  0.00    -0.237 OA
ATOM     74  O   UNL     1      -9.257  -6.484 -10.001  1.00  0.00    -0.744 OA
ENDBRANCH  70  71
ENDBRANCH  49  63
BRANCH  50  75
ATOM     75  C   UNL     1      -4.338   7.724 -10.831  1.00  0.00     0.058 A 
ATOM     76  C   UNL     1      -5.216   8.812 -10.945  1.00  0.00     0.135 A 
ATOM     77  C   UNL     1      -2.961   7.990 -10.844  1.00  0.00     0.135 A 
ATOM     78  F   UNL     1      -6.542   8.606 -10.944  1.00  0.00    -0.206 F 
ATOM     79  C   UNL     1      -4.749  10.115 -11.073  1.00  0.00     0.059 A 
ATOM     80  C   UNL     1      -2.469   9.287 -10.951  1.00  0.00     0.059 A 
ATOM     81  F   UNL     1      -2.081   6.984 -10.725  1.00  0.00    -0.206 F 
ATOM     82  C   UNL     1      -3.371  10.344 -11.071  1.00  0.00     0.060 A 
BRANCH  82  83
ATOM     83  S   UNL     1      -2.777  12.046 -11.182  1.00  0.00     0.124 S 
ATOM     84  O   UNL     1      -3.058  12.366 -12.576  1.00  0.00    -0.237 OA
ATOM     85  O   UNL     1      -3.608  12.725 -10.191  1.00  0.00    -0.237 OA
ATOM     86  O   UNL     1      -1.365  11.932 -10.832  1.00  0.00    -0.744 OA
ENDBRANCH  82  83
ENDBRANCH  50  75
BRANCH  62  87
ATOM     87  C   UNL     1      -7.708   3.334 -15.080  1.00  0.00     0.058 A 
ATOM     88  C   UNL     1      -6.787   3.185 -16.128  1.00  0.00     0.135 A 
ATOM     89  C   UNL     1      -9.062   3.499 -15.412  1.00  0.00     0.135 A 
ATOM     90  F   UNL     1      -5.480   3.030 -15.861  1.00  0.00    -0.206 F 
ATOM     91  C   UNL     1      -7.192   3.205 -17.457  1.00  0.00     0.059 A 
ATOM     92  C   UNL     1      -9.493   3.500 -16.735  1.00  0.00     0.059 A 
ATOM     93  F   UNL     1      -9.984   3.636 -14.445  1.00  0.00    -0.206 F 
ATOM     94  C   UNL     1      -8.549   3.358 -17.751  1.00  0.00     0.060 A 
BRANCH  94  95
ATOM     95  S   UNL     1      -9.066   3.329 -19.481  1.00  0.00     0.124 S 
ATOM     96  O   UNL     1      -8.605   4.632 -19.947  1.00  0.00    -0.237 OA
ATOM     97  O   UNL     1      -8.341   2.175 -20.004  1.00  0.00    -0.237 OA
ATOM     98  O   UNL     1     -10.514   3.167 -19.400  1.00  0.00    -0.744 OA
ENDBRANCH  94  95
ENDBRANCH  62  87
ENDBRANCH  36  37
ENDBRANCH  29  31
ENDBRANCH  28  29
ENDBRANCH  27  28
ENDBRANCH   1  27
TORSDOF 17
