REMARK SMILES O=C(CNC(=O)c1ccco1)N[C@H]1C=C[C@@H](C(=O)OCCOC(=O)c2ccc(-c3c4nc(c(-c5c(F)cc(S(=O)(=O)[O-])cc5F)c5ccc([nH]5)c(-c5c(F)cc(S(=O)(=O)[O-])cc5F)c5nc(c(-c6c(F)cc(S(=O)(=O)[O-])cc6F)c6ccc3[nH]6)C=C5)C=C4)cc2)C1
REMARK SMILES IDX 20 1 19 2 17 3 18 4 16 5 13 6 14 7 91 8 15 9 12 10 1 11 2 12
REMARK SMILES IDX 3 14 4 15 5 16 6 18 7 19 8 20 11 21 9 22 10 23 21 24 22 25
REMARK SMILES IDX 23 26 24 27 25 28 26 29 90 30 27 31 89 32 28 33 29 34 30 35
REMARK SMILES IDX 83 36 31 37 88 38 82 39 84 40 32 41 87 42 81 43 80 44 33 46
REMARK SMILES IDX 67 47 46 48 66 49 47 50 50 51 65 52 85 53 48 54 49 55 64 57
REMARK SMILES IDX 86 58 51 59 34 60 35 61 44 62 36 63 37 64 43 65 45 66 38 67
REMARK SMILES IDX 39 68 40 69 41 70 42 71 68 72 69 73 78 74 70 75 71 76 77 77
REMARK SMILES IDX 79 78 72 79 73 80 74 81 75 82 76 83 52 84 53 85 62 86 54 87
REMARK SMILES IDX 55 88 61 89 63 90 56 91 57 92 58 93 59 94 60 95
REMARK H PARENT 12 13 4 17 84 45 50 56
REMARK Flexibility Score: inf
ROOT
ATOM      1  C   UNL     1       6.551  -1.051   5.586  1.00  0.00     0.274 C 
ENDROOT
BRANCH   1   2
ATOM      2  O   UNL     1       5.395  -1.050   4.728  1.00  0.00    -0.462 OA
BRANCH   2   3
ATOM      3  C   UNL     1       4.370  -1.865   5.082  1.00  0.00     0.312 C 
ATOM      4  O   UNL     1       4.425  -2.696   5.983  1.00  0.00    -0.252 OA
BRANCH   3   5
ATOM      5  C   UNL     1       3.121  -1.671   4.231  1.00  0.00     0.124 C 
ATOM      6  C   UNL     1       2.266  -0.786   2.126  1.00  0.00     0.106 C 
ATOM      7  C   UNL     1       2.504  -2.261   2.050  1.00  0.00    -0.006 C 
ATOM      8  C   UNL     1       3.024  -0.388   3.396  1.00  0.00     0.048 C 
ATOM      9  C   UNL     1       2.976  -2.751   3.202  1.00  0.00    -0.014 C 
BRANCH   6  10
ATOM     10  N   UNL     1       2.799  -0.167   0.939  1.00  0.00    -0.348 N 
ATOM     11  O   UNL     1       0.882  -0.391  -0.300  1.00  0.00    -0.273 OA
ATOM     12  C   UNL     1       2.041   0.006  -0.196  1.00  0.00     0.239 C 
ATOM     13  H   UNL     1       3.734   0.143   0.941  1.00  0.00     0.164 HD
BRANCH  12  14
ATOM     14  C   UNL     1       2.802   0.549  -1.408  1.00  0.00     0.216 C 
BRANCH  14  15
ATOM     15  N   UNL     1       3.883   1.459  -1.052  1.00  0.00    -0.340 N 
ATOM     16  C   UNL     1       5.243   1.275  -1.039  1.00  0.00     0.287 C 
ATOM     17  H   UNL     1       3.588   2.357  -0.775  1.00  0.00     0.164 HD
ATOM     18  O   UNL     1       5.912   2.151  -0.491  1.00  0.00    -0.266 OA
BRANCH  16  19
ATOM     19  C   UNL     1       5.823   0.085  -1.620  1.00  0.00     0.191 A 
ATOM     20  C   UNL     1       5.577  -0.637  -2.775  1.00  0.00     0.056 A 
ATOM     21  O   UNL     1       6.886  -0.481  -0.963  1.00  0.00    -0.459 OA
ATOM     22  C   UNL     1       6.503  -1.709  -2.799  1.00  0.00     0.043 A 
ATOM     23  C   UNL     1       7.278  -1.566  -1.675  1.00  0.00     0.196 A 
ENDBRANCH  16  19
ENDBRANCH  14  15
ENDBRANCH  12  14
ENDBRANCH   6  10
ENDBRANCH   3   5
ENDBRANCH   2   3
ENDBRANCH   1   2
BRANCH   1  24
ATOM     24  C   UNL     1       6.644   0.266   6.362  1.00  0.00     0.275 C 
BRANCH  24  25
ATOM     25  O   UNL     1       5.575   0.398   7.320  1.00  0.00    -0.458 OA
BRANCH  25  26
ATOM     26  C   UNL     1       4.456   0.998   6.849  1.00  0.00     0.338 C 
ATOM     27  O   UNL     1       4.274   1.444   5.729  1.00  0.00    -0.246 OA
BRANCH  26  28
ATOM     28  C   UNL     1       3.386   0.927   7.856  1.00  0.00     0.060 A 
ATOM     29  C   UNL     1       2.200   0.278   7.504  1.00  0.00     0.016 A 
ATOM     30  C   UNL     1       3.506   1.563   9.093  1.00  0.00     0.016 A 
ATOM     31  C   UNL     1       1.123   0.266   8.384  1.00  0.00     0.010 A 
ATOM     32  C   UNL     1       2.421   1.552   9.977  1.00  0.00     0.010 A 
ATOM     33  C   UNL     1       1.220   0.913   9.622  1.00  0.00    -0.014 A 
BRANCH  33  34
ATOM     34  C   UNL     1       0.038   0.958  10.516  1.00  0.00     0.031 A 
ATOM     35  C   UNL     1      -0.764   2.223  10.632  1.00  0.00     0.074 A 
ATOM     36  C   UNL     1      -0.333  -0.147  11.190  1.00  0.00     0.049 A 
ATOM     37  N   UNL     1      -1.790   2.482  11.400  1.00  0.00    -0.248 NA
ATOM     38  C   UNL     1      -0.360   3.343   9.768  1.00  0.00     0.031 C 
ATOM     39  C   UNL     1       0.344  -1.443  11.121  1.00  0.00     0.029 A 
ATOM     40  N   UNL     1      -1.369  -0.355  12.063  1.00  0.00    -0.354 N 
ATOM     41  C   UNL     1      -2.151   3.795  11.121  1.00  0.00     0.074 A 
ATOM     42  C   UNL     1      -1.220   4.286  10.127  1.00  0.00     0.031 C 
ATOM     43  C   UNL     1      -0.294  -2.312  11.922  1.00  0.00     0.029 A 
ATOM     44  C   UNL     1      -1.398  -1.625  12.588  1.00  0.00     0.049 A 
ATOM     45  H   UNL     1      -2.029   0.338  12.293  1.00  0.00     0.167 HD
ATOM     46  C   UNL     1      -3.169   4.521  11.643  1.00  0.00     0.037 A 
ATOM     47  C   UNL     1      -2.207  -2.165  13.520  1.00  0.00     0.037 A 
ATOM     48  C   UNL     1      -4.094   4.025  12.629  1.00  0.00     0.049 A 
ATOM     49  C   UNL     1      -3.297  -1.323  14.123  1.00  0.00     0.074 A 
ATOM     50  C   UNL     1      -5.146   4.688  13.236  1.00  0.00     0.029 A 
ATOM     51  N   UNL     1      -4.079   2.740  13.151  1.00  0.00    -0.354 N 
ATOM     52  N   UNL     1      -3.611  -0.075  13.867  1.00  0.00    -0.248 NA
ATOM     53  C   UNL     1      -4.142  -1.958  15.144  1.00  0.00     0.031 C 
ATOM     54  C   UNL     1      -5.752   3.812  14.144  1.00  0.00     0.029 A 
ATOM     55  C   UNL     1      -5.098   2.592  14.078  1.00  0.00     0.049 A 
ATOM     56  H   UNL     1      -3.438   2.035  12.900  1.00  0.00     0.167 HD
ATOM     57  C   UNL     1      -4.697   0.219  14.684  1.00  0.00     0.074 A 
ATOM     58  C   UNL     1      -4.996  -0.985  15.431  1.00  0.00     0.031 C 
ATOM     59  C   UNL     1      -5.383   1.382  14.807  1.00  0.00     0.037 A 
BRANCH  46  60
ATOM     60  C   UNL     1      -3.321   5.938  11.170  1.00  0.00     0.058 A 
ATOM     61  C   UNL     1      -3.838   6.238   9.900  1.00  0.00     0.135 A 
ATOM     62  C   UNL     1      -2.969   7.011  12.005  1.00  0.00     0.135 A 
ATOM     63  F   UNL     1      -4.173   5.249   9.056  1.00  0.00    -0.206 F 
ATOM     64  C   UNL     1      -3.979   7.552   9.464  1.00  0.00     0.059 A 
ATOM     65  C   UNL     1      -3.121   8.333  11.598  1.00  0.00     0.059 A 
ATOM     66  F   UNL     1      -2.468   6.779  13.228  1.00  0.00    -0.206 F 
ATOM     67  C   UNL     1      -3.613   8.593  10.319  1.00  0.00     0.060 A 
BRANCH  67  68
ATOM     68  S   UNL     1      -3.796  10.294   9.741  1.00  0.00     0.124 S 
ATOM     69  O   UNL     1      -2.661  10.414   8.832  1.00  0.00    -0.237 OA
ATOM     70  O   UNL     1      -5.112  10.273   9.111  1.00  0.00    -0.237 OA
ATOM     71  O   UNL     1      -3.705  11.080  10.967  1.00  0.00    -0.744 OA
ENDBRANCH  67  68
ENDBRANCH  46  60
BRANCH  47  72
ATOM     72  C   UNL     1      -1.996  -3.568  13.961  1.00  0.00     0.058 A 
ATOM     73  C   UNL     1      -2.904  -4.581  13.622  1.00  0.00     0.135 A 
ATOM     74  C   UNL     1      -0.877  -3.922  14.732  1.00  0.00     0.135 A 
ATOM     75  F   UNL     1      -3.993  -4.289  12.895  1.00  0.00    -0.206 F 
ATOM     76  C   UNL     1      -2.720  -5.894  14.044  1.00  0.00     0.059 A 
ATOM     77  C   UNL     1      -0.659  -5.232  15.146  1.00  0.00     0.059 A 
ATOM     78  F   UNL     1       0.027  -2.990  15.073  1.00  0.00    -0.206 F 
ATOM     79  C   UNL     1      -1.593  -6.209  14.806  1.00  0.00     0.060 A 
BRANCH  79  80
ATOM     80  S   UNL     1      -1.335  -7.923  15.316  1.00  0.00     0.124 S 
ATOM     81  O   UNL     1      -2.258  -8.035  16.440  1.00  0.00    -0.237 OA
ATOM     82  O   UNL     1      -1.700  -8.664  14.113  1.00  0.00    -0.237 OA
ATOM     83  O   UNL     1       0.084  -7.958  15.657  1.00  0.00    -0.744 OA
ENDBRANCH  79  80
ENDBRANCH  47  72
BRANCH  59  84
ATOM     84  C   UNL     1      -6.538   1.399  15.766  1.00  0.00     0.058 A 
ATOM     85  C   UNL     1      -6.339   1.461  17.154  1.00  0.00     0.135 A 
ATOM     86  C   UNL     1      -7.859   1.396  15.290  1.00  0.00     0.135 A 
ATOM     87  F   UNL     1      -5.095   1.459  17.658  1.00  0.00    -0.206 F 
ATOM     88  C   UNL     1      -7.411   1.498  18.039  1.00  0.00     0.059 A 
ATOM     89  C   UNL     1      -8.946   1.454  16.157  1.00  0.00     0.059 A 
ATOM     90  F   UNL     1      -8.101   1.346  13.971  1.00  0.00    -0.206 F 
ATOM     91  C   UNL     1      -8.711   1.493  17.531  1.00  0.00     0.060 A 
BRANCH  91  92
ATOM     92  S   UNL     1     -10.097   1.574  18.686  1.00  0.00     0.124 S 
ATOM     93  O   UNL     1     -10.152   0.200  19.174  1.00  0.00    -0.237 OA
ATOM     94  O   UNL     1      -9.646   2.572  19.651  1.00  0.00    -0.237 OA
ATOM     95  O   UNL     1     -11.215   1.988  17.844  1.00  0.00    -0.744 OA
ENDBRANCH  91  92
ENDBRANCH  59  84
ENDBRANCH  33  34
ENDBRANCH  26  28
ENDBRANCH  25  26
ENDBRANCH  24  25
ENDBRANCH   1  24
TORSDOF 18
