REMARK SMILES CC(C)[C@@H](Cc1nc2ccccc2n1C)C(=O)OCCOC(=O)c1ccc(-c2c3nc(c(-c4c(F)cc(S(=O)(=O)[O-])cc4F)c4ccc([nH]4)c(-c4c(F)cc(S(=O)(=O)[O-])cc4F)c4nc(c(-c5c(F)cc(S(=O)(=O)[O-])cc5F)c5ccc2[nH]5)C=C4)C=C3)cc1
REMARK SMILES IDX 20 1 19 2 18 3 16 4 17 5 4 6 2 7 1 8 3 9 5 10 6 11 7 12
REMARK SMILES IDX 14 13 8 14 13 15 15 16 9 17 12 18 10 19 11 20 21 21 22 22
REMARK SMILES IDX 23 23 24 24 25 25 89 26 26 27 88 28 27 29 28 30 29 31 82 32
REMARK SMILES IDX 30 33 87 34 81 35 83 36 31 37 86 38 80 39 79 40 32 42 66 43
REMARK SMILES IDX 45 44 65 45 46 46 49 47 64 48 84 49 47 50 48 51 63 53 85 54
REMARK SMILES IDX 50 55 33 56 34 57 43 58 35 59 36 60 42 61 44 62 37 63 38 64
REMARK SMILES IDX 39 65 40 66 41 67 67 68 68 69 77 70 69 71 70 72 76 73 78 74
REMARK SMILES IDX 71 75 72 76 73 77 74 78 75 79 51 80 52 81 61 82 53 83 54 84
REMARK SMILES IDX 60 85 62 86 55 87 56 88 57 89 58 90 59 91
REMARK H PARENT 83 41 49 52
REMARK Flexibility Score: inf
ROOT
ATOM      1  C   UNL     1      -1.413  -3.911   3.987  1.00  0.00     0.275 C 
ENDROOT
BRANCH   1   2
ATOM      2  C   UNL     1      -1.601  -4.181   2.495  1.00  0.00     0.274 C 
BRANCH   2   3
ATOM      3  O   UNL     1      -0.912  -3.193   1.709  1.00  0.00    -0.462 OA
BRANCH   3   4
ATOM      4  C   UNL     1      -1.672  -2.135   1.323  1.00  0.00     0.309 C 
ATOM      5  O   UNL     1      -2.849  -1.965   1.624  1.00  0.00    -0.252 OA
BRANCH   4   6
ATOM      6  C   UNL     1      -0.930  -1.151   0.428  1.00  0.00     0.109 C 
BRANCH   6   7
ATOM      7  C   UNL     1       0.617  -1.085   0.575  1.00  0.00    -0.003 C 
ATOM      8  C   UNL     1       1.186   0.113  -0.204  1.00  0.00     0.008 C 
ATOM      9  C   UNL     1       1.088  -0.932   2.030  1.00  0.00     0.008 C 
ENDBRANCH   6   7
BRANCH   6  10
ATOM     10  C   UNL     1      -1.437  -1.392  -1.011  1.00  0.00     0.091 C 
BRANCH  10  11
ATOM     11  C   UNL     1      -1.093  -2.759  -1.519  1.00  0.00     0.110 A 
ATOM     12  N   UNL     1      -1.699  -3.860  -1.119  1.00  0.00    -0.233 NA
ATOM     13  N   UNL     1      -0.083  -3.059  -2.405  1.00  0.00    -0.331 N 
ATOM     14  C   UNL     1      -1.002  -4.898  -1.669  1.00  0.00     0.089 A 
ATOM     15  C   UNL     1       0.030  -4.431  -2.474  1.00  0.00     0.068 A 
ATOM     16  C   UNL     1       0.757  -2.131  -3.119  1.00  0.00     0.151 C 
ATOM     17  C   UNL     1      -1.189  -6.278  -1.506  1.00  0.00     0.030 A 
ATOM     18  C   UNL     1       0.913  -5.291  -3.138  1.00  0.00     0.028 A 
ATOM     19  C   UNL     1      -0.314  -7.155  -2.155  1.00  0.00     0.002 A 
ATOM     20  C   UNL     1       0.719  -6.666  -2.957  1.00  0.00     0.002 A 
ENDBRANCH  10  11
ENDBRANCH   6  10
ENDBRANCH   4   6
ENDBRANCH   3   4
ENDBRANCH   2   3
ENDBRANCH   1   2
BRANCH   1  21
ATOM     21  O   UNL     1      -1.901  -2.597   4.306  1.00  0.00    -0.458 OA
BRANCH  21  22
ATOM     22  C   UNL     1      -1.107  -1.844   5.098  1.00  0.00     0.338 C 
ATOM     23  O   UNL     1      -0.082  -2.186   5.660  1.00  0.00    -0.246 OA
BRANCH  22  24
ATOM     24  C   UNL     1      -1.679  -0.489   5.207  1.00  0.00     0.060 A 
ATOM     25  C   UNL     1      -1.877   0.288   4.064  1.00  0.00     0.016 A 
ATOM     26  C   UNL     1      -1.941   0.041   6.470  1.00  0.00     0.016 A 
ATOM     27  C   UNL     1      -2.302   1.610   4.178  1.00  0.00     0.010 A 
ATOM     28  C   UNL     1      -2.420   1.349   6.582  1.00  0.00     0.010 A 
ATOM     29  C   UNL     1      -2.583   2.151   5.439  1.00  0.00    -0.014 A 
BRANCH  29  30
ATOM     30  C   UNL     1      -3.013   3.565   5.568  1.00  0.00     0.031 A 
ATOM     31  C   UNL     1      -2.103   4.567   6.221  1.00  0.00     0.074 A 
ATOM     32  C   UNL     1      -4.217   3.947   5.101  1.00  0.00     0.049 A 
ATOM     33  N   UNL     1      -2.338   5.814   6.538  1.00  0.00    -0.248 NA
ATOM     34  C   UNL     1      -0.750   4.103   6.569  1.00  0.00     0.031 C 
ATOM     35  C   UNL     1      -5.175   3.075   4.419  1.00  0.00     0.029 A 
ATOM     36  N   UNL     1      -4.842   5.167   5.134  1.00  0.00    -0.354 N 
ATOM     37  C   UNL     1      -1.181   6.274   7.154  1.00  0.00     0.074 A 
ATOM     38  C   UNL     1      -0.244   5.170   7.170  1.00  0.00     0.031 C 
ATOM     39  C   UNL     1      -6.263   3.790   4.091  1.00  0.00     0.029 A 
ATOM     40  C   UNL     1      -6.101   5.154   4.584  1.00  0.00     0.049 A 
ATOM     41  H   UNL     1      -4.428   5.975   5.514  1.00  0.00     0.167 HD
ATOM     42  C   UNL     1      -0.925   7.504   7.660  1.00  0.00     0.037 A 
ATOM     43  C   UNL     1      -7.033   6.124   4.513  1.00  0.00     0.037 A 
ATOM     44  C   UNL     1      -1.851   8.606   7.616  1.00  0.00     0.049 A 
ATOM     45  C   UNL     1      -6.735   7.474   5.100  1.00  0.00     0.074 A 
ATOM     46  C   UNL     1      -1.680   9.896   8.088  1.00  0.00     0.029 A 
ATOM     47  N   UNL     1      -3.121   8.549   7.062  1.00  0.00    -0.354 N 
ATOM     48  N   UNL     1      -5.645   7.887   5.702  1.00  0.00    -0.248 NA
ATOM     49  C   UNL     1      -7.795   8.487   5.009  1.00  0.00     0.031 C 
ATOM     50  C   UNL     1      -2.858  10.612   7.842  1.00  0.00     0.029 A 
ATOM     51  C   UNL     1      -3.750   9.776   7.189  1.00  0.00     0.049 A 
ATOM     52  H   UNL     1      -3.518   7.753   6.640  1.00  0.00     0.167 HD
ATOM     53  C   UNL     1      -5.885   9.209   6.057  1.00  0.00     0.074 A 
ATOM     54  C   UNL     1      -7.217   9.532   5.586  1.00  0.00     0.031 C 
ATOM     55  C   UNL     1      -5.079  10.075   6.718  1.00  0.00     0.037 A 
BRANCH  42  56
ATOM     56  C   UNL     1       0.403   7.712   8.330  1.00  0.00     0.058 A 
ATOM     57  C   UNL     1       1.589   7.851   7.594  1.00  0.00     0.135 A 
ATOM     58  C   UNL     1       0.486   7.790   9.730  1.00  0.00     0.135 A 
ATOM     59  F   UNL     1       1.567   7.765   6.254  1.00  0.00    -0.206 F 
ATOM     60  C   UNL     1       2.817   8.036   8.223  1.00  0.00     0.059 A 
ATOM     61  C   UNL     1       1.700   7.994  10.379  1.00  0.00     0.059 A 
ATOM     62  F   UNL     1      -0.619   7.660  10.480  1.00  0.00    -0.206 F 
ATOM     63  C   UNL     1       2.863   8.100   9.617  1.00  0.00     0.060 A 
BRANCH  63  64
ATOM     64  S   UNL     1       4.461   8.335  10.424  1.00  0.00     0.124 S 
ATOM     65  O   UNL     1       5.030   6.994  10.336  1.00  0.00    -0.237 OA
ATOM     66  O   UNL     1       5.093   9.348   9.584  1.00  0.00    -0.237 OA
ATOM     67  O   UNL     1       4.100   8.778  11.767  1.00  0.00    -0.744 OA
ENDBRANCH  63  64
ENDBRANCH  42  56
BRANCH  43  68
ATOM     68  C   UNL     1      -8.345   5.838   3.877  1.00  0.00     0.058 A 
ATOM     69  C   UNL     1      -8.665   6.362   2.618  1.00  0.00     0.135 A 
ATOM     70  C   UNL     1      -9.289   5.010   4.504  1.00  0.00     0.135 A 
ATOM     71  F   UNL     1      -7.798   7.167   1.986  1.00  0.00    -0.206 F 
ATOM     72  C   UNL     1      -9.878   6.076   1.998  1.00  0.00     0.059 A 
ATOM     73  C   UNL     1     -10.499   4.693   3.896  1.00  0.00     0.059 A 
ATOM     74  F   UNL     1      -9.023   4.477   5.706  1.00  0.00    -0.206 F 
ATOM     75  C   UNL     1     -10.787   5.236   2.645  1.00  0.00     0.060 A 
BRANCH  75  76
ATOM     76  S   UNL     1     -12.329   4.810   1.806  1.00  0.00     0.124 S 
ATOM     77  O   UNL     1     -13.133   6.002   2.049  1.00  0.00    -0.237 OA
ATOM     78  O   UNL     1     -11.890   4.606   0.429  1.00  0.00    -0.237 OA
ATOM     79  O   UNL     1     -12.762   3.601   2.501  1.00  0.00    -0.744 OA
ENDBRANCH  75  76
ENDBRANCH  43  68
BRANCH  55  80
ATOM     80  C   UNL     1      -5.615  11.457   6.957  1.00  0.00     0.058 A 
ATOM     81  C   UNL     1      -6.562  11.709   7.962  1.00  0.00     0.135 A 
ATOM     82  C   UNL     1      -5.157  12.542   6.194  1.00  0.00     0.135 A 
ATOM     83  F   UNL     1      -7.034  10.702   8.713  1.00  0.00    -0.206 F 
ATOM     84  C   UNL     1      -7.056  12.989   8.186  1.00  0.00     0.059 A 
ATOM     85  C   UNL     1      -5.624  13.833   6.414  1.00  0.00     0.059 A 
ATOM     86  F   UNL     1      -4.245  12.351   5.228  1.00  0.00    -0.206 F 
ATOM     87  C   UNL     1      -6.584  14.045   7.403  1.00  0.00     0.060 A 
BRANCH  87  88
ATOM     88  S   UNL     1      -7.216  15.708   7.710  1.00  0.00     0.124 S 
ATOM     89  O   UNL     1      -8.502  15.665   7.023  1.00  0.00    -0.237 OA
ATOM     90  O   UNL     1      -7.277  15.761   9.168  1.00  0.00    -0.237 OA
ATOM     91  O   UNL     1      -6.206  16.570   7.103  1.00  0.00    -0.744 OA
ENDBRANCH  87  88
ENDBRANCH  55  80
ENDBRANCH  29  30
ENDBRANCH  22  24
ENDBRANCH  21  22
ENDBRANCH   1  21
TORSDOF 17
