REMARK SMILES O=C(C[C@H]1CSCCN1C(=O)c1ccc(Br)nc1)OCCOC(=O)c1ccc(-c2c3nc(c(-c4c(F)cc(S(=O)(=O)[O-])cc4F)c4ccc([nH]4)c(-c4c(F)cc(S(=O)(=O)[O-])cc4F)c4nc(c(-c5c(F)cc(S(=O)(=O)[O-])cc5F)c5ccc2[nH]5)C=C4)C=C3)cc1
REMARK SMILES IDX 20 1 19 2 2 3 1 4 3 5 4 6 5 7 9 8 6 9 8 10 7 11 10 12 11 13
REMARK SMILES IDX 12 14 13 15 18 16 14 17 17 18 15 19 16 20 21 21 22 22 23 23
REMARK SMILES IDX 24 24 25 25 26 26 90 27 27 28 89 29 28 30 29 31 30 32 83 33
REMARK SMILES IDX 31 34 88 35 82 36 84 37 32 38 87 39 81 40 80 41 33 43 67 44
REMARK SMILES IDX 46 45 66 46 47 47 50 48 65 49 85 50 48 51 49 52 64 54 86 55
REMARK SMILES IDX 51 56 34 57 35 58 44 59 36 60 37 61 43 62 45 63 38 64 39 65
REMARK SMILES IDX 40 66 41 67 42 68 68 69 69 70 78 71 70 72 71 73 77 74 79 75
REMARK SMILES IDX 72 76 73 77 74 78 75 79 76 80 52 81 53 82 62 83 54 84 55 85
REMARK SMILES IDX 61 86 63 87 56 88 57 89 58 90 59 91 60 92
REMARK H PARENT 84 42 50 53
REMARK Flexibility Score: inf
ROOT
ATOM      1  C   UNL     1       6.496  -2.684  -1.495  1.00  0.00     0.274 C 
ENDROOT
BRANCH   1   2
ATOM      2  O   UNL     1       5.750  -1.509  -1.839  1.00  0.00    -0.462 OA
BRANCH   2   3
ATOM      3  C   UNL     1       5.102  -0.774  -0.909  1.00  0.00     0.308 C 
ATOM      4  O   UNL     1       4.956   0.432  -1.088  1.00  0.00    -0.252 OA
BRANCH   3   5
ATOM      5  C   UNL     1       4.521  -1.462   0.323  1.00  0.00     0.148 C 
BRANCH   5   6
ATOM      6  C   UNL     1       3.440  -2.523   0.144  1.00  0.00     0.106 C 
ATOM      7  C   UNL     1       2.863  -2.463  -1.306  1.00  0.00     0.095 C 
ATOM      8  N   UNL     1       3.631  -3.951   0.672  1.00  0.00    -0.333 N 
ATOM      9  S   UNL     1       1.371  -3.456  -1.607  1.00  0.00    -0.158 SA
ATOM     10  C   UNL     1       2.366  -4.707   0.597  1.00  0.00     0.131 C 
ATOM     11  C   UNL     1       1.959  -4.991  -0.843  1.00  0.00     0.091 C 
BRANCH   8  12
ATOM     12  C   UNL     1       4.695  -4.777   1.103  1.00  0.00     0.255 C 
ATOM     13  O   UNL     1       4.598  -6.011   1.030  1.00  0.00    -0.269 OA
BRANCH  12  14
ATOM     14  C   UNL     1       5.979  -4.391   1.706  1.00  0.00     0.058 A 
ATOM     15  C   UNL     1       6.116  -3.870   2.990  1.00  0.00     0.018 A 
ATOM     16  C   UNL     1       7.138  -4.916   1.139  1.00  0.00     0.126 A 
ATOM     17  C   UNL     1       7.406  -3.689   3.532  1.00  0.00     0.037 A 
ATOM     18  N   UNL     1       8.397  -4.727   1.613  1.00  0.00    -0.249 NA
ATOM     19  C   UNL     1       8.510  -4.069   2.783  1.00  0.00     0.106 A 
ATOM     20  Br  UNL     1      10.246  -3.578   3.360  1.00  0.00    -0.029 Br
ENDBRANCH  12  14
ENDBRANCH   8  12
ENDBRANCH   5   6
ENDBRANCH   3   5
ENDBRANCH   2   3
ENDBRANCH   1   2
BRANCH   1  21
ATOM     21  C   UNL     1       7.773  -2.321  -0.734  1.00  0.00     0.275 C 
BRANCH  21  22
ATOM     22  O   UNL     1       7.433  -1.711   0.532  1.00  0.00    -0.458 OA
BRANCH  22  23
ATOM     23  C   UNL     1       7.887  -0.448   0.739  1.00  0.00     0.338 C 
ATOM     24  O   UNL     1       8.701   0.127   0.033  1.00  0.00    -0.246 OA
BRANCH  23  25
ATOM     25  C   UNL     1       7.215   0.212   1.901  1.00  0.00     0.060 A 
ATOM     26  C   UNL     1       7.281   1.599   2.005  1.00  0.00     0.016 A 
ATOM     27  C   UNL     1       6.541  -0.489   2.904  1.00  0.00     0.016 A 
ATOM     28  C   UNL     1       6.798   2.244   3.149  1.00  0.00     0.010 A 
ATOM     29  C   UNL     1       6.046   0.135   4.046  1.00  0.00     0.010 A 
ATOM     30  C   UNL     1       6.240   1.504   4.200  1.00  0.00    -0.014 A 
BRANCH  30  31
ATOM     31  C   UNL     1       5.984   2.138   5.507  1.00  0.00     0.031 A 
ATOM     32  C   UNL     1       7.072   2.120   6.544  1.00  0.00     0.074 A 
ATOM     33  C   UNL     1       4.786   2.686   5.769  1.00  0.00     0.049 A 
ATOM     34  N   UNL     1       7.174   2.808   7.648  1.00  0.00    -0.248 NA
ATOM     35  C   UNL     1       8.185   1.182   6.315  1.00  0.00     0.031 C 
ATOM     36  C   UNL     1       3.623   2.630   4.884  1.00  0.00     0.029 A 
ATOM     37  N   UNL     1       4.353   3.396   6.855  1.00  0.00    -0.354 N 
ATOM     38  C   UNL     1       8.381   2.423   8.224  1.00  0.00     0.074 A 
ATOM     39  C   UNL     1       8.937   1.382   7.389  1.00  0.00     0.031 C 
ATOM     40  C   UNL     1       2.608   3.300   5.457  1.00  0.00     0.029 A 
ATOM     41  C   UNL     1       3.066   3.858   6.726  1.00  0.00     0.049 A 
ATOM     42  H   UNL     1       4.909   3.560   7.651  1.00  0.00     0.167 HD
ATOM     43  C   UNL     1       8.975   2.923   9.334  1.00  0.00     0.037 A 
ATOM     44  C   UNL     1       2.364   4.686   7.524  1.00  0.00     0.037 A 
ATOM     45  C   UNL     1       8.364   3.939  10.155  1.00  0.00     0.049 A 
ATOM     46  C   UNL     1       3.062   5.291   8.713  1.00  0.00     0.074 A 
ATOM     47  C   UNL     1       8.884   4.596  11.255  1.00  0.00     0.029 A 
ATOM     48  N   UNL     1       7.077   4.428   9.969  1.00  0.00    -0.354 N 
ATOM     49  N   UNL     1       4.277   5.065   9.160  1.00  0.00    -0.248 NA
ATOM     50  C   UNL     1       2.317   6.299   9.476  1.00  0.00     0.031 C 
ATOM     51  C   UNL     1       7.891   5.442  11.764  1.00  0.00     0.029 A 
ATOM     52  C   UNL     1       6.775   5.359  10.945  1.00  0.00     0.049 A 
ATOM     53  H   UNL     1       6.468   4.151   9.246  1.00  0.00     0.167 HD
ATOM     54  C   UNL     1       4.456   5.930  10.234  1.00  0.00     0.074 A 
ATOM     55  C   UNL     1       3.226   6.691  10.357  1.00  0.00     0.031 C 
ATOM     56  C   UNL     1       5.535   6.092  11.041  1.00  0.00     0.037 A 
BRANCH  43  57
ATOM     57  C   UNL     1      10.339   2.400   9.710  1.00  0.00     0.058 A 
ATOM     58  C   UNL     1      11.467   2.638   8.905  1.00  0.00     0.135 A 
ATOM     59  C   UNL     1      10.539   1.695  10.908  1.00  0.00     0.135 A 
ATOM     60  F   UNL     1      11.341   3.297   7.742  1.00  0.00    -0.206 F 
ATOM     61  C   UNL     1      12.731   2.172   9.257  1.00  0.00     0.059 A 
ATOM     62  C   UNL     1      11.800   1.246  11.296  1.00  0.00     0.059 A 
ATOM     63  F   UNL     1       9.502   1.435  11.721  1.00  0.00    -0.206 F 
ATOM     64  C   UNL     1      12.889   1.478  10.457  1.00  0.00     0.060 A 
BRANCH  64  65
ATOM     65  S   UNL     1      14.538   0.894  10.904  1.00  0.00     0.124 S 
ATOM     66  O   UNL     1      14.733  -0.189   9.945  1.00  0.00    -0.237 OA
ATOM     67  O   UNL     1      15.358   2.082  10.692  1.00  0.00    -0.237 OA
ATOM     68  O   UNL     1      14.387   0.479  12.295  1.00  0.00    -0.744 OA
ENDBRANCH  64  65
ENDBRANCH  43  57
BRANCH  44  69
ATOM     69  C   UNL     1       0.980   5.075   7.144  1.00  0.00     0.058 A 
ATOM     70  C   UNL     1       0.699   6.360   6.657  1.00  0.00     0.135 A 
ATOM     71  C   UNL     1      -0.079   4.157   7.211  1.00  0.00     0.135 A 
ATOM     72  F   UNL     1       1.679   7.272   6.566  1.00  0.00    -0.206 F 
ATOM     73  C   UNL     1      -0.584   6.730   6.267  1.00  0.00     0.059 A 
ATOM     74  C   UNL     1      -1.367   4.495   6.806  1.00  0.00     0.059 A 
ATOM     75  F   UNL     1       0.142   2.906   7.643  1.00  0.00    -0.206 F 
ATOM     76  C   UNL     1      -1.612   5.788   6.343  1.00  0.00     0.060 A 
BRANCH  76  77
ATOM     77  S   UNL     1      -3.262   6.263   5.783  1.00  0.00     0.124 S 
ATOM     78  O   UNL     1      -3.678   7.179   6.839  1.00  0.00    -0.237 OA
ATOM     79  O   UNL     1      -2.981   6.869   4.485  1.00  0.00    -0.237 OA
ATOM     80  O   UNL     1      -3.978   4.992   5.731  1.00  0.00    -0.744 OA
ENDBRANCH  76  77
ENDBRANCH  44  69
BRANCH  56  81
ATOM     81  C   UNL     1       5.437   7.151  12.105  1.00  0.00     0.058 A 
ATOM     82  C   UNL     1       4.602   7.001  13.223  1.00  0.00     0.135 A 
ATOM     83  C   UNL     1       6.209   8.320  12.012  1.00  0.00     0.135 A 
ATOM     84  F   UNL     1       3.843   5.902  13.359  1.00  0.00    -0.206 F 
ATOM     85  C   UNL     1       4.502   7.995  14.190  1.00  0.00     0.059 A 
ATOM     86  C   UNL     1       6.149   9.312  12.984  1.00  0.00     0.059 A 
ATOM     87  F   UNL     1       7.037   8.505  10.971  1.00  0.00    -0.206 F 
ATOM     88  C   UNL     1       5.277   9.149  14.059  1.00  0.00     0.060 A 
BRANCH  88  89
ATOM     89  S   UNL     1       5.136  10.433  15.319  1.00  0.00     0.124 S 
ATOM     90  O   UNL     1       3.842  11.024  14.991  1.00  0.00    -0.237 OA
ATOM     91  O   UNL     1       5.185   9.662  16.557  1.00  0.00    -0.237 OA
ATOM     92  O   UNL     1       6.296  11.282  15.070  1.00  0.00    -0.744 OA
ENDBRANCH  88  89
ENDBRANCH  56  81
ENDBRANCH  30  31
ENDBRANCH  23  25
ENDBRANCH  22  23
ENDBRANCH  21  22
ENDBRANCH   1  21
TORSDOF 17
