REMARK SMILES O=C(/C=C/C(=O)OCCOC(=O)c1ccc(-c2c3nc(c(-c4c(F)cc(S(=O)(=O)[O-])cc4F)c4ccc([nH]4)c(-c4c(F)cc(S(=O)(=O)[O-])cc4F)c4nc(c(-c5c(F)cc(S(=O)(=O)[O-])cc5F)c5ccc2[nH]5)C=C4)C=C3)cc1)NNC(=O)CSc1ccc2ccccc2n1
REMARK SMILES IDX 8 1 7 2 5 3 6 4 4 5 3 6 2 7 1 8 79 9 80 11 81 12 82 14 83 15
REMARK SMILES IDX 84 16 85 17 86 18 94 19 87 20 93 21 88 22 92 23 89 24 91 25
REMARK SMILES IDX 90 26 9 27 10 28 11 29 12 30 13 31 14 32 78 33 15 34 77 35
REMARK SMILES IDX 16 36 17 37 18 38 71 39 19 40 76 41 70 42 72 43 20 44 75 45
REMARK SMILES IDX 69 46 68 47 21 49 55 50 34 51 54 52 35 53 38 54 53 55 73 56
REMARK SMILES IDX 36 57 37 58 52 60 74 61 39 62 22 63 23 64 32 65 24 66 25 67
REMARK SMILES IDX 31 68 33 69 26 70 27 71 28 72 29 73 30 74 56 75 57 76 66 77
REMARK SMILES IDX 58 78 59 79 65 80 67 81 60 82 61 83 62 84 63 85 64 86 40 87
REMARK SMILES IDX 41 88 50 89 42 90 43 91 49 92 51 93 44 94 45 95 46 96 47 97
REMARK SMILES IDX 48 98
REMARK H PARENT 79 10 80 13 72 48 38 59
REMARK Flexibility Score: inf
ROOT
ATOM      1  C   UNL     1       5.155   4.596  -1.708  1.00  0.00     0.275 C 
ENDROOT
BRANCH   1   2
ATOM      2  O   UNL     1       4.294   3.482  -1.401  1.00  0.00    -0.459 OA
BRANCH   2   3
ATOM      3  C   UNL     1       4.739   2.268  -1.803  1.00  0.00     0.331 C 
ATOM      4  O   UNL     1       5.752   2.048  -2.446  1.00  0.00    -0.247 OA
BRANCH   3   5
ATOM      5  C   UNL     1       3.903   1.159  -1.304  1.00  0.00     0.099 C 
ATOM      6  C   UNL     1       2.837   1.306  -0.506  1.00  0.00     0.080 C 
BRANCH   6   7
ATOM      7  C   UNL     1       2.100   0.135   0.022  1.00  0.00     0.262 C 
ATOM      8  O   UNL     1       0.877   0.147   0.098  1.00  0.00    -0.268 OA
ATOM      9  N   UNL     1       2.909  -0.871   0.511  1.00  0.00    -0.264 N 
ATOM     10  H   UNL     1       3.889  -0.810   0.431  1.00  0.00     0.191 HD
BRANCH   9  11
ATOM     11  N   UNL     1       2.314  -1.974   1.120  1.00  0.00    -0.267 N 
ATOM     12  C   UNL     1       2.689  -3.281   0.917  1.00  0.00     0.248 C 
ATOM     13  H   UNL     1       1.571  -1.805   1.742  1.00  0.00     0.191 HD
ATOM     14  O   UNL     1       2.073  -4.184   1.488  1.00  0.00    -0.272 OA
BRANCH  12  15
ATOM     15  C   UNL     1       3.858  -3.574  -0.010  1.00  0.00     0.178 C 
BRANCH  15  16
ATOM     16  S   UNL     1       3.211  -3.883  -1.683  1.00  0.00    -0.096 SA
BRANCH  16  17
ATOM     17  C   UNL     1       4.674  -3.828  -2.694  1.00  0.00     0.097 A 
ATOM     18  C   UNL     1       5.957  -4.093  -2.236  1.00  0.00     0.036 A 
ATOM     19  N   UNL     1       4.423  -3.503  -3.983  1.00  0.00    -0.241 NA
ATOM     20  C   UNL     1       7.022  -3.988  -3.129  1.00  0.00     0.013 A 
ATOM     21  C   UNL     1       5.447  -3.425  -4.851  1.00  0.00     0.072 A 
ATOM     22  C   UNL     1       6.783  -3.642  -4.463  1.00  0.00     0.000 A 
ATOM     23  C   UNL     1       5.190  -3.118  -6.181  1.00  0.00     0.029 A 
ATOM     24  C   UNL     1       7.822  -3.516  -5.402  1.00  0.00     0.010 A 
ATOM     25  C   UNL     1       6.219  -2.996  -7.119  1.00  0.00     0.002 A 
ATOM     26  C   UNL     1       7.538  -3.187  -6.726  1.00  0.00     0.001 A 
ENDBRANCH  16  17
ENDBRANCH  15  16
ENDBRANCH  12  15
ENDBRANCH   9  11
ENDBRANCH   6   7
ENDBRANCH   3   5
ENDBRANCH   2   3
ENDBRANCH   1   2
BRANCH   1  27
ATOM     27  C   UNL     1       5.963   5.043  -0.484  1.00  0.00     0.275 C 
BRANCH  27  28
ATOM     28  O   UNL     1       6.943   4.067  -0.086  1.00  0.00    -0.458 OA
BRANCH  28  29
ATOM     29  C   UNL     1       6.503   3.135   0.791  1.00  0.00     0.338 C 
ATOM     30  O   UNL     1       5.383   3.052   1.275  1.00  0.00    -0.246 OA
BRANCH  29  31
ATOM     31  C   UNL     1       7.527   2.097   0.995  1.00  0.00     0.060 A 
ATOM     32  C   UNL     1       7.131   0.765   0.835  1.00  0.00     0.016 A 
ATOM     33  C   UNL     1       8.827   2.405   1.403  1.00  0.00     0.016 A 
ATOM     34  C   UNL     1       8.029  -0.266   1.092  1.00  0.00     0.010 A 
ATOM     35  C   UNL     1       9.731   1.366   1.659  1.00  0.00     0.010 A 
ATOM     36  C   UNL     1       9.333   0.025   1.516  1.00  0.00    -0.014 A 
BRANCH  36  37
ATOM     37  C   UNL     1      10.260  -1.093   1.820  1.00  0.00     0.031 A 
ATOM     38  C   UNL     1      10.568  -1.458   3.244  1.00  0.00     0.074 A 
ATOM     39  C   UNL     1      10.784  -1.810   0.809  1.00  0.00     0.049 A 
ATOM     40  N   UNL     1      11.329  -2.418   3.702  1.00  0.00    -0.248 NA
ATOM     41  C   UNL     1       9.936  -0.638   4.288  1.00  0.00     0.031 C 
ATOM     42  C   UNL     1      10.543  -1.562  -0.614  1.00  0.00     0.029 A 
ATOM     43  N   UNL     1      11.624  -2.894   0.822  1.00  0.00    -0.354 N 
ATOM     44  C   UNL     1      11.275  -2.318   5.087  1.00  0.00     0.074 A 
ATOM     45  C   UNL     1      10.423  -1.186   5.393  1.00  0.00     0.031 C 
ATOM     46  C   UNL     1      11.216  -2.473  -1.336  1.00  0.00     0.029 A 
ATOM     47  C   UNL     1      11.959  -3.346  -0.431  1.00  0.00     0.049 A 
ATOM     48  H   UNL     1      11.956  -3.308   1.651  1.00  0.00     0.167 HD
ATOM     49  C   UNL     1      11.873  -3.101   6.018  1.00  0.00     0.037 A 
ATOM     50  C   UNL     1      12.783  -4.343  -0.808  1.00  0.00     0.037 A 
ATOM     51  C   UNL     1      12.721  -4.224   5.709  1.00  0.00     0.049 A 
ATOM     52  C   UNL     1      13.475  -5.167   0.241  1.00  0.00     0.074 A 
ATOM     53  C   UNL     1      13.350  -5.094   6.583  1.00  0.00     0.029 A 
ATOM     54  N   UNL     1      13.067  -4.629   4.428  1.00  0.00    -0.354 N 
ATOM     55  N   UNL     1      13.390  -5.077   1.546  1.00  0.00    -0.248 NA
ATOM     56  C   UNL     1      14.373  -6.228  -0.234  1.00  0.00     0.031 C 
ATOM     57  C   UNL     1      14.110  -5.999   5.831  1.00  0.00     0.029 A 
ATOM     58  C   UNL     1      13.920  -5.719   4.487  1.00  0.00     0.049 A 
ATOM     59  H   UNL     1      12.752  -4.203   3.598  1.00  0.00     0.167 HD
ATOM     60  C   UNL     1      14.213  -6.077   2.050  1.00  0.00     0.074 A 
ATOM     61  C   UNL     1      14.775  -6.770   0.908  1.00  0.00     0.031 C 
ATOM     62  C   UNL     1      14.479  -6.394   3.342  1.00  0.00     0.037 A 
BRANCH  49  63
ATOM     63  C   UNL     1      11.652  -2.749   7.462  1.00  0.00     0.058 A 
ATOM     64  C   UNL     1      10.424  -2.986   8.100  1.00  0.00     0.135 A 
ATOM     65  C   UNL     1      12.686  -2.180   8.223  1.00  0.00     0.135 A 
ATOM     66  F   UNL     1       9.397  -3.513   7.413  1.00  0.00    -0.206 F 
ATOM     67  C   UNL     1      10.217  -2.641   9.432  1.00  0.00     0.059 A 
ATOM     68  C   UNL     1      12.509  -1.848   9.563  1.00  0.00     0.059 A 
ATOM     69  F   UNL     1      13.880  -1.933   7.662  1.00  0.00    -0.206 F 
ATOM     70  C   UNL     1      11.265  -2.066  10.153  1.00  0.00     0.060 A 
BRANCH  70  71
ATOM     71  S   UNL     1      10.978  -1.599  11.874  1.00  0.00     0.124 S 
ATOM     72  O   UNL     1      10.181  -0.387  11.714  1.00  0.00    -0.237 OA
ATOM     73  O   UNL     1      10.268  -2.760  12.400  1.00  0.00    -0.237 OA
ATOM     74  O   UNL     1      12.325  -1.400  12.400  1.00  0.00    -0.744 OA
ENDBRANCH  70  71
ENDBRANCH  49  63
BRANCH  50  75
ATOM     75  C   UNL     1      12.993  -4.609  -2.254  1.00  0.00     0.058 A 
ATOM     76  C   UNL     1      12.436  -5.739  -2.868  1.00  0.00     0.135 A 
ATOM     77  C   UNL     1      13.720  -3.716  -3.055  1.00  0.00     0.135 A 
ATOM     78  F   UNL     1      11.737  -6.622  -2.139  1.00  0.00    -0.206 F 
ATOM     79  C   UNL     1      12.590  -5.975  -4.229  1.00  0.00     0.059 A 
ATOM     80  C   UNL     1      13.869  -3.918  -4.423  1.00  0.00     0.059 A 
ATOM     81  F   UNL     1      14.260  -2.613  -2.514  1.00  0.00    -0.206 F 
ATOM     82  C   UNL     1      13.301  -5.053  -5.000  1.00  0.00     0.060 A 
BRANCH  82  83
ATOM     83  S   UNL     1      13.412  -5.318  -6.782  1.00  0.00     0.124 S 
ATOM     84  O   UNL     1      14.385  -6.401  -6.859  1.00  0.00    -0.237 OA
ATOM     85  O   UNL     1      12.035  -5.665  -7.122  1.00  0.00    -0.237 OA
ATOM     86  O   UNL     1      13.862  -4.023  -7.284  1.00  0.00    -0.744 OA
ENDBRANCH  82  83
ENDBRANCH  50  75
BRANCH  62  87
ATOM     87  C   UNL     1      15.409  -7.548   3.589  1.00  0.00     0.058 A 
ATOM     88  C   UNL     1      16.793  -7.433   3.387  1.00  0.00     0.135 A 
ATOM     89  C   UNL     1      14.915  -8.772   4.068  1.00  0.00     0.135 A 
ATOM     90  F   UNL     1      17.314  -6.286   2.922  1.00  0.00    -0.206 F 
ATOM     91  C   UNL     1      17.654  -8.499   3.629  1.00  0.00     0.059 A 
ATOM     92  C   UNL     1      15.760  -9.844   4.338  1.00  0.00     0.059 A 
ATOM     93  F   UNL     1      13.600  -8.931   4.287  1.00  0.00    -0.206 F 
ATOM     94  C   UNL     1      17.127  -9.702   4.103  1.00  0.00     0.060 A 
BRANCH  94  95
ATOM     95  S   UNL     1      18.255 -11.072   4.436  1.00  0.00     0.124 S 
ATOM     96  O   UNL     1      18.532 -11.557   3.088  1.00  0.00    -0.237 OA
ATOM     97  O   UNL     1      19.366 -10.409   5.112  1.00  0.00    -0.237 OA
ATOM     98  O   UNL     1      17.463 -11.966   5.276  1.00  0.00    -0.744 OA
ENDBRANCH  94  95
ENDBRANCH  62  87
ENDBRANCH  36  37
ENDBRANCH  29  31
ENDBRANCH  28  29
ENDBRANCH  27  28
ENDBRANCH   1  27
TORSDOF 19
