REMARK SMILES O=C(CC[C@@H]1CN(c2ccncc2)CC[C@H]1[NH+]1CCOCC1)OCCOC(=O)c1ccc(-c2c3nc(c(-c4c(F)cc(S(=O)(=O)[O-])cc4F)c4ccc([nH]4)c(-c4c(F)cc(S(=O)(=O)[O-])cc4F)c4nc(c(-c5c(F)cc(S(=O)(=O)[O-])cc5F)c5ccc2[nH]5)C=C4)C=C3)cc1
REMARK SMILES IDX 24 1 23 2 2 3 1 4 3 5 4 6 5 7 6 8 16 9 7 10 15 11 14 12
REMARK SMILES IDX 17 13 18 14 22 15 19 17 21 18 20 19 8 20 9 21 13 22 10 23
REMARK SMILES IDX 12 24 11 25 25 26 26 27 27 28 28 29 29 30 30 31 94 32 31 33
REMARK SMILES IDX 93 34 32 35 33 36 34 37 87 38 35 39 92 40 86 41 88 42 36 43
REMARK SMILES IDX 91 44 85 45 84 46 37 48 71 49 50 50 70 51 51 52 54 53 69 54
REMARK SMILES IDX 89 55 52 56 53 57 68 59 90 60 55 61 38 62 39 63 48 64 40 65
REMARK SMILES IDX 41 66 47 67 49 68 42 69 43 70 44 71 45 72 46 73 72 74 73 75
REMARK SMILES IDX 82 76 74 77 75 78 81 79 83 80 76 81 77 82 78 83 79 84 80 85
REMARK SMILES IDX 56 86 57 87 66 88 58 89 59 90 65 91 67 92 60 93 61 94 62 95
REMARK SMILES IDX 63 96 64 97
REMARK H PARENT 17 16 88 47 54 58
REMARK Flexibility Score: inf
ROOT
ATOM      1  C   UNL     1       7.599  -1.329   3.127  1.00  0.00     0.274 C 
ENDROOT
BRANCH   1   2
ATOM      2  O   UNL     1       6.196  -2.415   3.504  1.00  0.00    -0.462 OA
BRANCH   2   3
ATOM      3  C   UNL     1       4.881  -3.108   3.138  1.00  0.00     0.305 C 
ATOM      4  O   UNL     1       4.294  -3.714   4.045  1.00  0.00    -0.252 OA
BRANCH   3   5
ATOM      5  C   UNL     1       4.201  -3.272   1.422  1.00  0.00     0.123 C 
BRANCH   5   6
ATOM      6  C   UNL     1       4.125  -2.083   0.180  1.00  0.00     0.023 C 
BRANCH   6   7
ATOM      7  C   UNL     1       4.823  -0.774   0.587  1.00  0.00     0.067 C 
ATOM      8  C   UNL     1       5.014   0.754   0.174  1.00  0.00     0.126 C 
ATOM      9  C   UNL     1       5.973  -1.257   1.492  1.00  0.00     0.190 C 
ATOM     10  N   UNL     1       5.507   1.605   1.343  1.00  0.00    -0.371 N 
ATOM     11  C   UNL     1       5.332  -0.318   2.872  1.00  0.00     0.087 C 
ATOM     12  C   UNL     1       5.453   1.161   2.726  1.00  0.00     0.122 C 
BRANCH   9  13
ATOM     13  N   UNL     1       7.046  -2.759   1.180  1.00  0.00    -0.328 N 
ATOM     14  C   UNL     1       7.029  -4.140   1.897  1.00  0.00     0.291 C 
ATOM     15  C   UNL     1       8.579  -2.817   0.860  1.00  0.00     0.291 C 
ATOM     16  H   UNL     1       6.366  -2.548   0.450  1.00  0.00     0.348 HD
ATOM     17  C   UNL     1       8.024  -4.433   3.073  1.00  0.00     0.221 C 
ATOM     18  C   UNL     1       9.669  -3.196   1.917  1.00  0.00     0.221 C 
ATOM     19  O   UNL     1       9.384  -4.364   2.662  1.00  0.00    -0.370 OA
ENDBRANCH   9  13
BRANCH  10  20
ATOM     20  C   UNL     1       5.651   3.011   1.398  1.00  0.00     0.040 A 
ATOM     21  C   UNL     1       6.923   3.559   1.651  1.00  0.00     0.046 A 
ATOM     22  C   UNL     1       4.556   3.843   1.664  1.00  0.00     0.046 A 
ATOM     23  C   UNL     1       7.042   4.845   2.173  1.00  0.00     0.113 A 
ATOM     24  C   UNL     1       4.774   5.118   2.189  1.00  0.00     0.113 A 
ATOM     25  N   UNL     1       5.991   5.637   2.457  1.00  0.00    -0.265 NA
ENDBRANCH  10  20
ENDBRANCH   6   7
ENDBRANCH   5   6
ENDBRANCH   3   5
ENDBRANCH   2   3
ENDBRANCH   1   2
BRANCH   1  26
ATOM     26  C   UNL     1       8.107  -0.346   1.597  1.00  0.00     0.275 C 
BRANCH  26  27
ATOM     27  O   UNL     1       7.500  -0.595   0.036  1.00  0.00    -0.458 OA
BRANCH  27  28
ATOM     28  C   UNL     1       8.020  -0.925  -1.214  1.00  0.00     0.338 C 
ATOM     29  O   UNL     1       9.203  -0.741  -1.488  1.00  0.00    -0.246 OA
BRANCH  28  30
ATOM     30  C   UNL     1       7.122  -1.660  -2.292  1.00  0.00     0.060 A 
ATOM     31  C   UNL     1       6.675  -3.003  -2.239  1.00  0.00     0.016 A 
ATOM     32  C   UNL     1       6.985  -1.077  -3.564  1.00  0.00     0.016 A 
ATOM     33  C   UNL     1       6.098  -3.699  -3.381  1.00  0.00     0.010 A 
ATOM     34  C   UNL     1       6.415  -1.763  -4.698  1.00  0.00     0.010 A 
ATOM     35  C   UNL     1       5.971  -3.097  -4.647  1.00  0.00    -0.014 A 
BRANCH  35  36
ATOM     36  C   UNL     1       5.442  -3.809  -5.906  1.00  0.00     0.031 A 
ATOM     37  C   UNL     1       6.384  -4.234  -7.040  1.00  0.00     0.074 A 
ATOM     38  C   UNL     1       4.122  -4.042  -6.122  1.00  0.00     0.049 A 
ATOM     39  N   UNL     1       6.112  -4.747  -8.223  1.00  0.00    -0.248 NA
ATOM     40  C   UNL     1       7.820  -4.052  -6.800  1.00  0.00     0.031 C 
ATOM     41  C   UNL     1       3.051  -3.723  -5.183  1.00  0.00     0.029 A 
ATOM     42  N   UNL     1       3.445  -4.575  -7.211  1.00  0.00    -0.354 N 
ATOM     43  C   UNL     1       7.338  -4.952  -8.865  1.00  0.00     0.074 A 
ATOM     44  C   UNL     1       8.351  -4.475  -7.942  1.00  0.00     0.031 C 
ATOM     45  C   UNL     1       1.864  -4.036  -5.736  1.00  0.00     0.029 A 
ATOM     46  C   UNL     1       2.068  -4.560  -7.088  1.00  0.00     0.049 A 
ATOM     47  H   UNL     1       3.907  -4.933  -8.004  1.00  0.00     0.167 HD
ATOM     48  C   UNL     1       7.614  -5.486 -10.089  1.00  0.00     0.037 A 
ATOM     49  C   UNL     1       1.074  -4.899  -7.946  1.00  0.00     0.037 A 
ATOM     50  C   UNL     1       6.628  -5.955 -11.042  1.00  0.00     0.049 A 
ATOM     51  C   UNL     1       1.393  -5.444  -9.322  1.00  0.00     0.074 A 
ATOM     52  C   UNL     1       6.835  -6.514 -12.297  1.00  0.00     0.029 A 
ATOM     53  N   UNL     1       5.255  -5.918 -10.859  1.00  0.00    -0.354 N 
ATOM     54  N   UNL     1       2.562  -5.646  -9.881  1.00  0.00    -0.248 NA
ATOM     55  C   UNL     1       0.255  -5.818 -10.182  1.00  0.00     0.031 C 
ATOM     56  C   UNL     1       5.591  -6.770 -12.887  1.00  0.00     0.029 A 
ATOM     57  C   UNL     1       4.606  -6.425 -11.979  1.00  0.00     0.049 A 
ATOM     58  H   UNL     1       4.804  -5.582 -10.051  1.00  0.00     0.167 HD
ATOM     59  C   UNL     1       2.299  -6.187 -11.139  1.00  0.00     0.074 A 
ATOM     60  C   UNL     1       0.863  -6.308 -11.253  1.00  0.00     0.031 C 
ATOM     61  C   UNL     1       3.175  -6.547 -12.112  1.00  0.00     0.037 A 
BRANCH  48  62
ATOM     62  C   UNL     1       9.069  -5.606 -10.502  1.00  0.00     0.058 A 
ATOM     63  C   UNL     1       9.925  -6.548  -9.908  1.00  0.00     0.135 A 
ATOM     64  C   UNL     1       9.591  -4.836 -11.557  1.00  0.00     0.135 A 
ATOM     65  F   UNL     1       9.486  -7.319  -8.901  1.00  0.00    -0.206 F 
ATOM     66  C   UNL     1      11.249  -6.698 -10.319  1.00  0.00     0.059 A 
ATOM     67  C   UNL     1      10.905  -4.989 -12.003  1.00  0.00     0.059 A 
ATOM     68  F   UNL     1       8.819  -3.934 -12.183  1.00  0.00    -0.206 F 
ATOM     69  C   UNL     1      11.731  -5.913 -11.367  1.00  0.00     0.060 A 
BRANCH  69  70
ATOM     70  S   UNL     1      13.451  -6.122 -11.883  1.00  0.00     0.124 S 
ATOM     71  O   UNL     1      14.168  -5.547 -10.748  1.00  0.00    -0.237 OA
ATOM     72  O   UNL     1      13.559  -7.569 -12.031  1.00  0.00    -0.237 OA
ATOM     73  O   UNL     1      13.531  -5.359 -13.125  1.00  0.00    -0.744 OA
ENDBRANCH  69  70
ENDBRANCH  48  62
BRANCH  49  74
ATOM     74  C   UNL     1      -0.360  -4.714  -7.551  1.00  0.00     0.058 A 
ATOM     75  C   UNL     1      -1.220  -5.809  -7.358  1.00  0.00     0.135 A 
ATOM     76  C   UNL     1      -0.909  -3.431  -7.394  1.00  0.00     0.135 A 
ATOM     77  F   UNL     1      -0.762  -7.059  -7.526  1.00  0.00    -0.206 F 
ATOM     78  C   UNL     1      -2.566  -5.640  -7.034  1.00  0.00     0.059 A 
ATOM     79  C   UNL     1      -2.242  -3.236  -7.039  1.00  0.00     0.059 A 
ATOM     80  F   UNL     1      -0.140  -2.345  -7.572  1.00  0.00    -0.206 F 
ATOM     81  C   UNL     1      -3.066  -4.348  -6.869  1.00  0.00     0.060 A 
BRANCH  81  82
ATOM     82  S   UNL     1      -4.795  -4.137  -6.385  1.00  0.00     0.124 S 
ATOM     83  O   UNL     1      -5.493  -4.476  -7.619  1.00  0.00    -0.237 OA
ATOM     84  O   UNL     1      -4.926  -5.096  -5.292  1.00  0.00    -0.237 OA
ATOM     85  O   UNL     1      -4.863  -2.734  -5.986  1.00  0.00    -0.744 OA
ENDBRANCH  81  82
ENDBRANCH  49  74
BRANCH  61  86
ATOM     86  C   UNL     1       2.608  -7.137 -13.383  1.00  0.00     0.058 A 
ATOM     87  C   UNL     1       1.871  -6.365 -14.297  1.00  0.00     0.135 A 
ATOM     88  C   UNL     1       2.803  -8.494 -13.693  1.00  0.00     0.135 A 
ATOM     89  F   UNL     1       1.651  -5.063 -14.057  1.00  0.00    -0.206 F 
ATOM     90  C   UNL     1       1.306  -6.926 -15.441  1.00  0.00     0.059 A 
ATOM     91  C   UNL     1       2.273  -9.069 -14.847  1.00  0.00     0.059 A 
ATOM     92  F   UNL     1       3.511  -9.281 -12.868  1.00  0.00    -0.206 F 
ATOM     93  C   UNL     1       1.506  -8.281 -15.704  1.00  0.00     0.060 A 
BRANCH  93  94
ATOM     94  S   UNL     1       0.753  -9.001 -17.181  1.00  0.00     0.124 S 
ATOM     95  O   UNL     1      -0.651  -9.069 -16.792  1.00  0.00    -0.237 OA
ATOM     96  O   UNL     1       1.078  -8.019 -18.210  1.00  0.00    -0.237 OA
ATOM     97  O   UNL     1       1.430 -10.288 -17.316  1.00  0.00    -0.744 OA
ENDBRANCH  93  94
ENDBRANCH  61  86
ENDBRANCH  35  36
ENDBRANCH  28  30
ENDBRANCH  27  28
ENDBRANCH  26  27
ENDBRANCH   1  26
TORSDOF 18
