REMARK SMILES O=C(OCCOC(=O)c1ccc(-c2c3nc(c(-c4c(F)cc(S(=O)(=O)[O-])cc4F)c4ccc([nH]4)c(-c4c(F)cc(S(=O)(=O)[O-])cc4F)c4nc(c(-c5c(F)cc(S(=O)(=O)[O-])cc5F)c5ccc2[nH]5)C=C4)C=C3)cc1)C1=C[C@H]2C(=N1)C=CC(Cl)=C2Cl
REMARK SMILES IDX 6 1 5 2 4 3 3 4 2 5 1 6 75 7 76 8 79 9 77 10 78 11 84 12
REMARK SMILES IDX 80 13 82 14 85 15 81 16 83 17 7 18 8 19 9 20 10 21 74 22
REMARK SMILES IDX 11 23 73 24 12 25 13 26 14 27 67 28 15 29 72 30 66 31 68 32
REMARK SMILES IDX 16 33 71 34 65 35 64 36 17 38 51 39 30 40 50 41 31 42 34 43
REMARK SMILES IDX 49 44 69 45 32 46 33 47 48 49 70 50 35 51 18 52 19 53 28 54
REMARK SMILES IDX 20 55 21 56 27 57 29 58 22 59 23 60 24 61 25 62 26 63 52 64
REMARK SMILES IDX 53 65 62 66 54 67 55 68 61 69 63 70 56 71 57 72 58 73 59 74
REMARK SMILES IDX 60 75 36 76 37 77 46 78 38 79 39 80 45 81 47 82 40 83 41 84
REMARK SMILES IDX 42 85 43 86 44 87
REMARK H PARENT 68 37 34 48
REMARK Flexibility Score: inf
ROOT
ATOM      1  O   UNL     1       3.832  -1.015   2.116  1.00  0.00    -0.458 OA
ENDROOT
BRANCH   1   2
ATOM      2  C   UNL     1       4.462   0.275   2.016  1.00  0.00     0.275 C 
BRANCH   2   3
ATOM      3  C   UNL     1       4.694   0.695   0.562  1.00  0.00     0.275 C 
BRANCH   3   4
ATOM      4  O   UNL     1       3.446   0.816  -0.140  1.00  0.00    -0.457 OA
BRANCH   4   5
ATOM      5  C   UNL     1       2.933  -0.121  -0.967  1.00  0.00     0.356 C 
ATOM      6  O   UNL     1       1.847   0.064  -1.514  1.00  0.00    -0.244 OA
BRANCH   5   7
ATOM      7  C   UNL     1       3.705  -1.356  -1.256  1.00  0.00     0.145 C 
ATOM      8  C   UNL     1       3.600  -1.898  -2.474  1.00  0.00     0.024 C 
ATOM      9  N   UNL     1       4.351  -2.165  -0.344  1.00  0.00    -0.245 NA
ATOM     10  C   UNL     1       4.232  -3.233  -2.472  1.00  0.00     0.107 C 
ATOM     11  C   UNL     1       4.536  -3.278  -0.986  1.00  0.00     0.054 C 
ATOM     12  C   UNL     1       3.423  -4.426  -2.834  1.00  0.00     0.050 C 
ATOM     13  C   UNL     1       4.963  -4.562  -0.391  1.00  0.00     0.026 C 
ATOM     14  C   UNL     1       3.764  -5.597  -2.268  1.00  0.00     0.056 C 
ATOM     15  Cl  UNL     1       2.300  -4.260  -4.133  1.00  0.00    -0.086 Cl
ATOM     16  C   UNL     1       4.567  -5.658  -1.057  1.00  0.00     0.023 C 
ATOM     17  Cl  UNL     1       3.444  -7.088  -3.038  1.00  0.00    -0.083 Cl
ENDBRANCH   5   7
ENDBRANCH   4   5
ENDBRANCH   3   4
ENDBRANCH   2   3
ENDBRANCH   1   2
BRANCH   1  18
ATOM     18  C   UNL     1       2.475  -1.031   2.173  1.00  0.00     0.338 C 
ATOM     19  O   UNL     1       1.753  -0.056   2.328  1.00  0.00    -0.246 OA
BRANCH  18  20
ATOM     20  C   UNL     1       1.959  -2.404   1.906  1.00  0.00     0.060 A 
ATOM     21  C   UNL     1       0.692  -2.559   1.323  1.00  0.00     0.016 A 
ATOM     22  C   UNL     1       2.713  -3.541   2.203  1.00  0.00     0.016 A 
ATOM     23  C   UNL     1       0.178  -3.839   1.049  1.00  0.00     0.010 A 
ATOM     24  C   UNL     1       2.210  -4.814   1.905  1.00  0.00     0.010 A 
ATOM     25  C   UNL     1       0.931  -4.984   1.341  1.00  0.00    -0.014 A 
BRANCH  25  26
ATOM     26  C   UNL     1       0.408  -6.373   1.167  1.00  0.00     0.031 A 
ATOM     27  C   UNL     1       0.127  -7.208   2.391  1.00  0.00     0.074 A 
ATOM     28  C   UNL     1       0.259  -6.943  -0.047  1.00  0.00     0.049 A 
ATOM     29  N   UNL     1      -0.223  -8.467   2.467  1.00  0.00    -0.248 NA
ATOM     30  C   UNL     1       0.232  -6.533   3.695  1.00  0.00     0.031 C 
ATOM     31  C   UNL     1       0.381  -6.262  -1.332  1.00  0.00     0.029 A 
ATOM     32  N   UNL     1       0.030  -8.258  -0.395  1.00  0.00    -0.354 N 
ATOM     33  C   UNL     1      -0.450  -8.714   3.814  1.00  0.00     0.074 A 
ATOM     34  C   UNL     1      -0.076  -7.514   4.532  1.00  0.00     0.031 C 
ATOM     35  C   UNL     1       0.335  -7.177  -2.319  1.00  0.00     0.029 A 
ATOM     36  C   UNL     1       0.203  -8.509  -1.740  1.00  0.00     0.049 A 
ATOM     37  H   UNL     1      -0.233  -8.951   0.254  1.00  0.00     0.167 HD
ATOM     38  C   UNL     1      -0.992  -9.813   4.393  1.00  0.00     0.037 A 
ATOM     39  C   UNL     1       0.276  -9.673  -2.421  1.00  0.00     0.037 A 
ATOM     40  C   UNL     1      -1.351 -11.013   3.684  1.00  0.00     0.049 A 
ATOM     41  C   UNL     1      -0.099 -10.949  -1.727  1.00  0.00     0.074 A 
ATOM     42  C   UNL     1      -1.967 -12.151   4.174  1.00  0.00     0.029 A 
ATOM     43  N   UNL     1      -1.105 -11.242   2.339  1.00  0.00    -0.354 N 
ATOM     44  N   UNL     1      -0.419 -11.137  -0.472  1.00  0.00    -0.248 NA
ATOM     45  C   UNL     1      -0.202 -12.152  -2.566  1.00  0.00     0.031 C 
ATOM     46  C   UNL     1      -2.036 -13.092   3.140  1.00  0.00     0.029 A 
ATOM     47  C   UNL     1      -1.513 -12.521   1.993  1.00  0.00     0.049 A 
ATOM     48  H   UNL     1      -0.699 -10.592   1.721  1.00  0.00     0.167 HD
ATOM     49  C   UNL     1      -0.862 -12.451  -0.392  1.00  0.00     0.074 A 
ATOM     50  C   UNL     1      -0.721 -13.025  -1.714  1.00  0.00     0.031 C 
ATOM     51  C   UNL     1      -1.386 -13.098   0.677  1.00  0.00     0.037 A 
BRANCH  38  52
ATOM     52  C   UNL     1      -1.264  -9.741   5.869  1.00  0.00     0.058 A 
ATOM     53  C   UNL     1      -2.265  -8.898   6.382  1.00  0.00     0.135 A 
ATOM     54  C   UNL     1      -0.537 -10.524   6.778  1.00  0.00     0.135 A 
ATOM     55  F   UNL     1      -2.983  -8.120   5.556  1.00  0.00    -0.206 F 
ATOM     56  C   UNL     1      -2.506  -8.801   7.746  1.00  0.00     0.059 A 
ATOM     57  C   UNL     1      -0.782 -10.465   8.147  1.00  0.00     0.059 A 
ATOM     58  F   UNL     1       0.427 -11.349   6.341  1.00  0.00    -0.206 F 
ATOM     59  C   UNL     1      -1.756  -9.586   8.622  1.00  0.00     0.060 A 
BRANCH  59  60
ATOM     60  S   UNL     1      -2.067  -9.431  10.393  1.00  0.00     0.124 S 
ATOM     61  O   UNL     1      -1.503  -8.114  10.672  1.00  0.00    -0.237 OA
ATOM     62  O   UNL     1      -3.522  -9.525  10.463  1.00  0.00    -0.237 OA
ATOM     63  O   UNL     1      -1.340 -10.559  10.966  1.00  0.00    -0.744 OA
ENDBRANCH  59  60
ENDBRANCH  38  52
BRANCH  39  64
ATOM     64  C   UNL     1       0.670  -9.712  -3.857  1.00  0.00     0.058 A 
ATOM     65  C   UNL     1      -0.284  -9.770  -4.879  1.00  0.00     0.135 A 
ATOM     66  C   UNL     1       2.022  -9.772  -4.229  1.00  0.00     0.135 A 
ATOM     67  F   UNL     1      -1.588  -9.814  -4.572  1.00  0.00    -0.206 F 
ATOM     68  C   UNL     1       0.088  -9.847  -6.220  1.00  0.00     0.059 A 
ATOM     69  C   UNL     1       2.422  -9.782  -5.564  1.00  0.00     0.059 A 
ATOM     70  F   UNL     1       2.971  -9.862  -3.285  1.00  0.00    -0.206 F 
ATOM     71  C   UNL     1       1.444  -9.831  -6.554  1.00  0.00     0.060 A 
BRANCH  71  72
ATOM     72  S   UNL     1       1.911  -9.886  -8.299  1.00  0.00     0.124 S 
ATOM     73  O   UNL     1       1.622 -11.275  -8.636  1.00  0.00    -0.237 OA
ATOM     74  O   UNL     1       1.022  -8.889  -8.888  1.00  0.00    -0.237 OA
ATOM     75  O   UNL     1       3.325  -9.522  -8.283  1.00  0.00    -0.744 OA
ENDBRANCH  71  72
ENDBRANCH  39  64
BRANCH  51  76
ATOM     76  C   UNL     1      -1.914 -14.488   0.460  1.00  0.00     0.058 A 
ATOM     77  C   UNL     1      -1.066 -15.581   0.228  1.00  0.00     0.135 A 
ATOM     78  C   UNL     1      -3.296 -14.736   0.535  1.00  0.00     0.135 A 
ATOM     79  F   UNL     1       0.261 -15.398   0.130  1.00  0.00    -0.206 F 
ATOM     80  C   UNL     1      -1.567 -16.868   0.065  1.00  0.00     0.059 A 
ATOM     81  C   UNL     1      -3.817 -16.020   0.408  1.00  0.00     0.059 A 
ATOM     82  F   UNL     1      -4.154 -13.727   0.755  1.00  0.00    -0.206 F 
ATOM     83  C   UNL     1      -2.944 -17.079   0.166  1.00  0.00     0.060 A 
BRANCH  83  84
ATOM     84  S   UNL     1      -3.573 -18.764   0.016  1.00  0.00     0.124 S 
ATOM     85  O   UNL     1      -3.420 -19.011  -1.414  1.00  0.00    -0.237 OA
ATOM     86  O   UNL     1      -2.673 -19.511   0.889  1.00  0.00    -0.237 OA
ATOM     87  O   UNL     1      -4.950 -18.657   0.490  1.00  0.00    -0.744 OA
ENDBRANCH  83  84
ENDBRANCH  51  76
ENDBRANCH  25  26
ENDBRANCH  18  20
ENDBRANCH   1  18
TORSDOF 14
