REMARK SMILES N#C/C(=C\c1ccc(-c2ccc(C(=O)OCCOC(=O)c3ccc(-c4c5nc(c(-c6c(F)cc(S(=O)(=O)[O-])cc6F)c6ccc([nH]6)c(-c6c(F)cc(S(=O)(=O)[O-])cc6F)c6nc(c(-c7c(F)cc(S(=O)(=O)[O-])cc7F)c7ccc4[nH]7)C=C6)C=C5)cc3)cc2)o1)[C@@H]1N=c2cc(Br)cnc2=N1
REMARK SMILES IDX 16 1 15 2 13 3 14 4 12 5 9 6 10 7 88 8 11 9 87 10 8 11 5 12
REMARK SMILES IDX 6 13 89 14 7 15 4 16 3 17 2 18 1 19 90 20 91 21 99 22 92 23
REMARK SMILES IDX 98 24 93 25 97 26 94 27 96 28 95 29 17 30 18 31 19 32 20 33
REMARK SMILES IDX 21 34 22 35 86 36 23 37 85 38 24 39 25 40 26 41 79 42 27 43
REMARK SMILES IDX 84 44 78 45 80 46 28 47 83 48 77 49 76 50 29 52 63 53 42 54
REMARK SMILES IDX 62 55 43 56 46 57 61 58 81 59 44 60 45 61 60 63 82 64 47 65
REMARK SMILES IDX 30 66 31 67 40 68 32 69 33 70 39 71 41 72 34 73 35 74 36 75
REMARK SMILES IDX 37 76 38 77 64 78 65 79 74 80 66 81 67 82 73 83 75 84 68 85
REMARK SMILES IDX 69 86 70 87 71 88 72 89 48 90 49 91 58 92 50 93 51 94 57 95
REMARK SMILES IDX 59 96 52 97 53 98 54 99 55 100 56 101
REMARK H PARENT 80 51 46 62
REMARK Flexibility Score: inf
ROOT
ATOM      1  C   UNL     1      -5.513  -2.486  -9.716  1.00  0.00     0.275 C 
ENDROOT
BRANCH   1   2
ATOM      2  O   UNL     1      -4.418  -2.554  -8.778  1.00  0.00    -0.458 OA
BRANCH   2   3
ATOM      3  C   UNL     1      -3.442  -1.630  -8.954  1.00  0.00     0.338 C 
ATOM      4  O   UNL     1      -3.386  -0.805  -9.852  1.00  0.00    -0.246 OA
BRANCH   3   5
ATOM      5  C   UNL     1      -2.424  -1.702  -7.880  1.00  0.00     0.060 A 
ATOM      6  C   UNL     1      -0.229  -1.748  -6.127  1.00  0.00     0.017 A 
ATOM      7  C   UNL     1      -0.811  -0.533  -6.480  1.00  0.00     0.013 A 
ATOM      8  C   UNL     1      -0.797  -2.943  -6.599  1.00  0.00     0.013 A 
ATOM      9  C   UNL     1      -1.877  -0.514  -7.376  1.00  0.00     0.016 A 
ATOM     10  C   UNL     1      -1.903  -2.925  -7.460  1.00  0.00     0.016 A 
BRANCH   6  11
ATOM     11  C   UNL     1       1.051  -1.754  -5.447  1.00  0.00     0.134 A 
ATOM     12  C   UNL     1       2.482  -1.082  -3.886  1.00  0.00     0.128 A 
ATOM     13  C   UNL     1       3.168  -1.890  -4.788  1.00  0.00     0.051 A 
ATOM     14  O   UNL     1       1.166  -1.025  -4.303  1.00  0.00    -0.457 OA
ATOM     15  C   UNL     1       2.261  -2.310  -5.780  1.00  0.00     0.051 A 
BRANCH  12  16
ATOM     16  C   UNL     1       2.948  -0.438  -2.704  1.00  0.00     0.066 C 
ATOM     17  C   UNL     1       4.133   0.202  -2.602  1.00  0.00     0.080 C 
BRANCH  17  18
ATOM     18  C   UNL     1       4.993   0.400  -3.729  1.00  0.00     0.099 C 
ATOM     19  N   UNL     1       5.702   0.565  -4.630  1.00  0.00    -0.193 NA
ENDBRANCH  17  18
BRANCH  17  20
ATOM     20  C   UNL     1       4.602   0.757  -1.275  1.00  0.00     0.265 C 
ATOM     21  N   UNL     1       4.379   2.226  -1.233  1.00  0.00    -0.249 NA
ATOM     22  N   UNL     1       6.041   0.437  -1.052  1.00  0.00    -0.232 NA
ATOM     23  C   UNL     1       5.566   2.681  -1.048  1.00  0.00     0.106 A 
ATOM     24  C   UNL     1       6.578   1.605  -0.951  1.00  0.00     0.175 A 
ATOM     25  C   UNL     1       6.029   4.061  -0.928  1.00  0.00     0.049 A 
ATOM     26  N   UNL     1       7.916   1.808  -0.786  1.00  0.00    -0.234 NA
ATOM     27  C   UNL     1       7.347   4.248  -0.778  1.00  0.00     0.038 A 
ATOM     28  C   UNL     1       8.258   3.058  -0.725  1.00  0.00     0.129 A 
ATOM     29  Br  UNL     1       8.118   5.932  -0.617  1.00  0.00    -0.049 Br
ENDBRANCH  17  20
ENDBRANCH  12  16
ENDBRANCH   6  11
ENDBRANCH   3   5
ENDBRANCH   2   3
ENDBRANCH   1   2
BRANCH   1  30
ATOM     30  C   UNL     1      -6.723  -1.758  -9.124  1.00  0.00     0.275 C 
BRANCH  30  31
ATOM     31  O   UNL     1      -6.477  -0.347  -8.996  1.00  0.00    -0.458 OA
BRANCH  31  32
ATOM     32  C   UNL     1      -6.050   0.036  -7.773  1.00  0.00     0.338 C 
ATOM     33  O   UNL     1      -5.880  -0.670  -6.793  1.00  0.00    -0.246 OA
BRANCH  32  34
ATOM     34  C   UNL     1      -5.725   1.466  -7.768  1.00  0.00     0.060 A 
ATOM     35  C   UNL     1      -4.442   1.847  -8.141  1.00  0.00     0.016 A 
ATOM     36  C   UNL     1      -6.592   2.391  -7.199  1.00  0.00     0.016 A 
ATOM     37  C   UNL     1      -3.953   3.099  -7.794  1.00  0.00     0.010 A 
ATOM     38  C   UNL     1      -6.149   3.702  -6.997  1.00  0.00     0.010 A 
ATOM     39  C   UNL     1      -4.809   4.059  -7.245  1.00  0.00    -0.014 A 
BRANCH  39  40
ATOM     40  C   UNL     1      -4.316   5.429  -6.934  1.00  0.00     0.031 A 
ATOM     41  C   UNL     1      -4.510   6.001  -5.554  1.00  0.00     0.074 A 
ATOM     42  C   UNL     1      -3.731   6.173  -7.895  1.00  0.00     0.049 A 
ATOM     43  N   UNL     1      -4.399   7.239  -5.148  1.00  0.00    -0.248 NA
ATOM     44  C   UNL     1      -4.903   5.057  -4.494  1.00  0.00     0.031 C 
ATOM     45  C   UNL     1      -3.427   5.722  -9.256  1.00  0.00     0.029 A 
ATOM     46  N   UNL     1      -3.303   7.479  -7.884  1.00  0.00    -0.354 N 
ATOM     47  C   UNL     1      -4.769   7.234  -3.807  1.00  0.00     0.074 A 
ATOM     48  C   UNL     1      -5.117   5.872  -3.470  1.00  0.00     0.031 C 
ATOM     49  C   UNL     1      -2.851   6.720  -9.939  1.00  0.00     0.029 A 
ATOM     50  C   UNL     1      -2.849   7.915  -9.107  1.00  0.00     0.049 A 
ATOM     51  H   UNL     1      -3.319   8.046  -7.079  1.00  0.00     0.167 HD
ATOM     52  C   UNL     1      -4.816   8.278  -2.944  1.00  0.00     0.037 A 
ATOM     53  C   UNL     1      -2.533   9.149  -9.543  1.00  0.00     0.037 A 
ATOM     54  C   UNL     1      -4.429   9.621  -3.296  1.00  0.00     0.049 A 
ATOM     55  C   UNL     1      -2.656  10.304  -8.591  1.00  0.00     0.074 A 
ATOM     56  C   UNL     1      -4.415  10.750  -2.497  1.00  0.00     0.029 A 
ATOM     57  N   UNL     1      -3.986  10.016  -4.552  1.00  0.00    -0.354 N 
ATOM     58  N   UNL     1      -3.042  10.296  -7.338  1.00  0.00    -0.248 NA
ATOM     59  C   UNL     1      -2.314  11.634  -9.110  1.00  0.00     0.031 C 
ATOM     60  C   UNL     1      -4.028  11.837  -3.284  1.00  0.00     0.029 A 
ATOM     61  C   UNL     1      -3.722  11.375  -4.555  1.00  0.00     0.049 A 
ATOM     62  H   UNL     1      -3.877   9.417  -5.326  1.00  0.00     0.167 HD
ATOM     63  C   UNL     1      -2.951  11.614  -6.905  1.00  0.00     0.074 A 
ATOM     64  C   UNL     1      -2.479  12.391  -8.033  1.00  0.00     0.031 C 
ATOM     65  C   UNL     1      -3.227  12.128  -5.683  1.00  0.00     0.037 A 
BRANCH  52  66
ATOM     66  C   UNL     1      -5.345   8.026  -1.555  1.00  0.00     0.058 A 
ATOM     67  C   UNL     1      -4.648   7.252  -0.613  1.00  0.00     0.135 A 
ATOM     68  C   UNL     1      -6.563   8.600  -1.150  1.00  0.00     0.135 A 
ATOM     69  F   UNL     1      -3.485   6.668  -0.944  1.00  0.00    -0.206 F 
ATOM     70  C   UNL     1      -5.156   7.027   0.664  1.00  0.00     0.059 A 
ATOM     71  C   UNL     1      -7.072   8.418   0.133  1.00  0.00     0.059 A 
ATOM     72  F   UNL     1      -7.273   9.352  -2.006  1.00  0.00    -0.206 F 
ATOM     73  C   UNL     1      -6.369   7.614   1.028  1.00  0.00     0.060 A 
BRANCH  73  74
ATOM     74  S   UNL     1      -7.013   7.309   2.686  1.00  0.00     0.124 S 
ATOM     75  O   UNL     1      -7.394   5.903   2.597  1.00  0.00    -0.237 OA
ATOM     76  O   UNL     1      -5.856   7.599   3.527  1.00  0.00    -0.237 OA
ATOM     77  O   UNL     1      -8.121   8.252   2.802  1.00  0.00    -0.744 OA
ENDBRANCH  73  74
ENDBRANCH  52  66
BRANCH  53  78
ATOM     78  C   UNL     1      -2.113   9.348 -10.957  1.00  0.00     0.058 A 
ATOM     79  C   UNL     1      -0.799   9.716 -11.275  1.00  0.00     0.135 A 
ATOM     80  C   UNL     1      -3.006   9.132 -12.021  1.00  0.00     0.135 A 
ATOM     81  F   UNL     1       0.090   9.941 -10.296  1.00  0.00    -0.206 F 
ATOM     82  C   UNL     1      -0.385   9.871 -12.594  1.00  0.00     0.059 A 
ATOM     83  C   UNL     1      -2.607   9.248 -13.349  1.00  0.00     0.059 A 
ATOM     84  F   UNL     1      -4.272   8.761 -11.774  1.00  0.00    -0.206 F 
ATOM     85  C   UNL     1      -1.295   9.627 -13.625  1.00  0.00     0.060 A 
BRANCH  85  86
ATOM     86  S   UNL     1      -0.728   9.782 -15.332  1.00  0.00     0.124 S 
ATOM     87  O   UNL     1      -0.544  11.223 -15.451  1.00  0.00    -0.237 OA
ATOM     88  O   UNL     1       0.492   8.981 -15.321  1.00  0.00    -0.237 OA
ATOM     89  O   UNL     1      -1.831   9.220 -16.106  1.00  0.00    -0.744 OA
ENDBRANCH  85  86
ENDBRANCH  53  78
BRANCH  65  90
ATOM     90  C   UNL     1      -2.958  13.591  -5.463  1.00  0.00     0.058 A 
ATOM     91  C   UNL     1      -3.778  14.591  -6.006  1.00  0.00     0.135 A 
ATOM     92  C   UNL     1      -1.914  13.987  -4.610  1.00  0.00     0.135 A 
ATOM     93  F   UNL     1      -4.780  14.267  -6.838  1.00  0.00    -0.206 F 
ATOM     94  C   UNL     1      -3.572  15.934  -5.710  1.00  0.00     0.059 A 
ATOM     95  C   UNL     1      -1.710  15.320  -4.276  1.00  0.00     0.059 A 
ATOM     96  F   UNL     1      -1.103  13.067  -4.062  1.00  0.00    -0.206 F 
ATOM     97  C   UNL     1      -2.544  16.287  -4.832  1.00  0.00     0.060 A 
BRANCH  97  98
ATOM     98  S   UNL     1      -2.344  18.026  -4.391  1.00  0.00     0.124 S 
ATOM     99  O   UNL     1      -1.837  18.591  -5.637  1.00  0.00    -0.237 OA
ATOM    100  O   UNL     1      -3.704  18.411  -4.026  1.00  0.00    -0.237 OA
ATOM    101  O   UNL     1      -1.391  17.990  -3.286  1.00  0.00    -0.744 OA
ENDBRANCH  97  98
ENDBRANCH  65  90
ENDBRANCH  39  40
ENDBRANCH  32  34
ENDBRANCH  31  32
ENDBRANCH  30  31
ENDBRANCH   1  30
TORSDOF 18
