REMARK SMILES C=CC[NH2+]CC(=O)N1CCOC[C@@H]1C(=O)OCCOC(=O)c1ccc(-c2c3nc(c(-c4c(F)cc(S(=O)(=O)[O-])cc4F)c4ccc([nH]4)c(-c4c(F)cc(S(=O)(=O)[O-])cc4F)c4nc(c(-c5c(F)cc(S(=O)(=O)[O-])cc5F)c5ccc2[nH]5)C=C4)C=C3)cc1
REMARK SMILES IDX 17 1 16 2 14 3 15 4 13 5 8 6 9 7 10 8 12 9 11 10 6 11 7 12
REMARK SMILES IDX 5 13 4 14 3 17 2 18 1 19 18 20 19 21 20 22 21 23 22 24 23 25
REMARK SMILES IDX 87 26 24 27 86 28 25 29 26 30 27 31 80 32 28 33 85 34 79 35
REMARK SMILES IDX 81 36 29 37 84 38 78 39 77 40 30 42 64 43 43 44 63 45 44 46
REMARK SMILES IDX 47 47 62 48 82 49 45 50 46 51 61 53 83 54 48 55 31 56 32 57
REMARK SMILES IDX 41 58 33 59 34 60 40 61 42 62 35 63 36 64 37 65 38 66 39 67
REMARK SMILES IDX 65 68 66 69 75 70 67 71 68 72 74 73 76 74 69 75 70 76 71 77
REMARK SMILES IDX 72 78 73 79 49 80 50 81 59 82 51 83 52 84 58 85 60 86 53 87
REMARK SMILES IDX 54 88 55 89 56 90 57 91
REMARK H PARENT 4 15 4 16 81 41 47 52
REMARK Flexibility Score: inf
ROOT
ATOM      1  C   UNL     1      -7.530  -0.210  -0.143  1.00  0.00     0.274 C 
ENDROOT
BRANCH   1   2
ATOM      2  O   UNL     1      -6.153   0.198  -0.073  1.00  0.00    -0.460 OA
BRANCH   2   3
ATOM      3  C   UNL     1      -5.428  -0.044  -1.206  1.00  0.00     0.331 C 
ATOM      4  O   UNL     1      -5.835  -0.648  -2.192  1.00  0.00    -0.250 OA
BRANCH   3   5
ATOM      5  C   UNL     1      -4.025   0.560  -1.110  1.00  0.00     0.221 C 
ATOM      6  N   UNL     1      -2.918  -0.214  -0.519  1.00  0.00    -0.320 N 
ATOM      7  C   UNL     1      -1.637   0.478  -0.667  1.00  0.00     0.149 C 
ATOM      8  C   UNL     1      -1.705   1.900  -0.096  1.00  0.00     0.181 C 
ATOM      9  C   UNL     1      -4.051   1.954  -0.450  1.00  0.00     0.197 C 
ATOM     10  O   UNL     1      -2.799   2.636  -0.663  1.00  0.00    -0.377 OA
BRANCH   6  11
ATOM     11  C   UNL     1      -3.189  -1.365   0.197  1.00  0.00     0.278 C 
ATOM     12  O   UNL     1      -4.121  -2.107  -0.127  1.00  0.00    -0.268 OA
BRANCH  11  13
ATOM     13  C   UNL     1      -2.494  -1.610   1.542  1.00  0.00     0.362 C 
BRANCH  13  14
ATOM     14  N   UNL     1      -1.059  -1.895   1.470  1.00  0.00    -0.335 N 
ATOM     15  H   UNL     1      -0.884  -2.821   1.860  1.00  0.00     0.347 HD
ATOM     16  H   UNL     1      -0.770  -1.856   0.493  1.00  0.00     0.347 HD
BRANCH  14  17
ATOM     17  C   UNL     1      -0.291  -0.911   2.220  1.00  0.00     0.289 C 
BRANCH  17  18
ATOM     18  C   UNL     1       1.163  -1.075   1.919  1.00  0.00     0.025 C 
ATOM     19  C   UNL     1       1.879  -0.233   1.161  1.00  0.00     0.010 C 
ENDBRANCH  17  18
ENDBRANCH  14  17
ENDBRANCH  13  14
ENDBRANCH  11  13
ENDBRANCH   6  11
ENDBRANCH   3   5
ENDBRANCH   2   3
ENDBRANCH   1   2
BRANCH   1  20
ATOM     20  C   UNL     1      -8.408   0.984  -0.515  1.00  0.00     0.275 C 
BRANCH  20  21
ATOM     21  O   UNL     1      -7.914   1.602  -1.719  1.00  0.00    -0.458 OA
BRANCH  21  22
ATOM     22  C   UNL     1      -7.683   2.934  -1.644  1.00  0.00     0.338 C 
ATOM     23  O   UNL     1      -7.904   3.662  -0.692  1.00  0.00    -0.246 OA
BRANCH  22  24
ATOM     24  C   UNL     1      -7.085   3.426  -2.902  1.00  0.00     0.060 A 
ATOM     25  C   UNL     1      -5.984   2.787  -3.477  1.00  0.00     0.016 A 
ATOM     26  C   UNL     1      -7.559   4.618  -3.450  1.00  0.00     0.016 A 
ATOM     27  C   UNL     1      -5.306   3.378  -4.542  1.00  0.00     0.010 A 
ATOM     28  C   UNL     1      -6.939   5.156  -4.581  1.00  0.00     0.010 A 
ATOM     29  C   UNL     1      -5.787   4.559  -5.122  1.00  0.00    -0.014 A 
BRANCH  29  30
ATOM     30  C   UNL     1      -5.096   5.185  -6.282  1.00  0.00     0.031 A 
ATOM     31  C   UNL     1      -4.578   6.595  -6.180  1.00  0.00     0.074 A 
ATOM     32  C   UNL     1      -4.952   4.505  -7.438  1.00  0.00     0.049 A 
ATOM     33  N   UNL     1      -4.168   7.398  -7.128  1.00  0.00    -0.248 NA
ATOM     34  C   UNL     1      -4.530   7.184  -4.832  1.00  0.00     0.031 C 
ATOM     35  C   UNL     1      -5.356   3.116  -7.665  1.00  0.00     0.029 A 
ATOM     36  N   UNL     1      -4.430   4.898  -8.646  1.00  0.00    -0.354 N 
ATOM     37  C   UNL     1      -3.868   8.603  -6.502  1.00  0.00     0.074 A 
ATOM     38  C   UNL     1      -4.140   8.424  -5.092  1.00  0.00     0.031 C 
ATOM     39  C   UNL     1      -5.043   2.765  -8.921  1.00  0.00     0.029 A 
ATOM     40  C   UNL     1      -4.499   3.926  -9.616  1.00  0.00     0.049 A 
ATOM     41  H   UNL     1      -4.043   5.789  -8.802  1.00  0.00     0.167 HD
ATOM     42  C   UNL     1      -3.413   9.753  -7.056  1.00  0.00     0.037 A 
ATOM     43  C   UNL     1      -4.206   3.974 -10.929  1.00  0.00     0.037 A 
ATOM     44  C   UNL     1      -3.100   9.910  -8.454  1.00  0.00     0.049 A 
ATOM     45  C   UNL     1      -3.742   5.269 -11.531  1.00  0.00     0.074 A 
ATOM     46  C   UNL     1      -2.632  11.033  -9.114  1.00  0.00     0.029 A 
ATOM     47  N   UNL     1      -3.209   8.905  -9.404  1.00  0.00    -0.354 N 
ATOM     48  N   UNL     1      -3.535   6.422 -10.943  1.00  0.00    -0.248 NA
ATOM     49  C   UNL     1      -3.498   5.276 -12.980  1.00  0.00     0.031 C 
ATOM     50  C   UNL     1      -2.480  10.713 -10.469  1.00  0.00     0.029 A 
ATOM     51  C   UNL     1      -2.823   9.383 -10.646  1.00  0.00     0.049 A 
ATOM     52  H   UNL     1      -3.516   7.987  -9.223  1.00  0.00     0.167 HD
ATOM     53  C   UNL     1      -3.127   7.291 -11.947  1.00  0.00     0.074 A 
ATOM     54  C   UNL     1      -3.104   6.527 -13.178  1.00  0.00     0.031 C 
ATOM     55  C   UNL     1      -2.805   8.605 -11.859  1.00  0.00     0.037 A 
BRANCH  42  56
ATOM     56  C   UNL     1      -3.264  10.944  -6.151  1.00  0.00     0.058 A 
ATOM     57  C   UNL     1      -2.213  11.048  -5.227  1.00  0.00     0.135 A 
ATOM     58  C   UNL     1      -4.187  12.001  -6.216  1.00  0.00     0.135 A 
ATOM     59  F   UNL     1      -1.313  10.059  -5.113  1.00  0.00    -0.206 F 
ATOM     60  C   UNL     1      -2.102  12.142  -4.373  1.00  0.00     0.059 A 
ATOM     61  C   UNL     1      -4.083  13.114  -5.388  1.00  0.00     0.059 A 
ATOM     62  F   UNL     1      -5.210  11.952  -7.084  1.00  0.00    -0.206 F 
ATOM     63  C   UNL     1      -3.048  13.166  -4.455  1.00  0.00     0.060 A 
BRANCH  63  64
ATOM     64  S   UNL     1      -2.911  14.571  -3.328  1.00  0.00     0.124 S 
ATOM     65  O   UNL     1      -3.453  14.006  -2.096  1.00  0.00    -0.237 OA
ATOM     66  O   UNL     1      -1.476  14.835  -3.324  1.00  0.00    -0.237 OA
ATOM     67  O   UNL     1      -3.731  15.596  -3.964  1.00  0.00    -0.744 OA
ENDBRANCH  63  64
ENDBRANCH  42  56
BRANCH  43  68
ATOM     68  C   UNL     1      -4.381   2.760 -11.768  1.00  0.00     0.058 A 
ATOM     69  C   UNL     1      -3.270   2.053 -12.246  1.00  0.00     0.135 A 
ATOM     70  C   UNL     1      -5.658   2.267 -12.080  1.00  0.00     0.135 A 
ATOM     71  F   UNL     1      -2.030   2.494 -11.982  1.00  0.00    -0.206 F 
ATOM     72  C   UNL     1      -3.416   0.898 -13.007  1.00  0.00     0.059 A 
ATOM     73  C   UNL     1      -5.829   1.101 -12.819  1.00  0.00     0.059 A 
ATOM     74  F   UNL     1      -6.753   2.903 -11.635  1.00  0.00    -0.206 F 
ATOM     75  C   UNL     1      -4.700   0.427 -13.284  1.00  0.00     0.060 A 
BRANCH  75  76
ATOM     76  S   UNL     1      -4.883  -1.111 -14.213  1.00  0.00     0.124 S 
ATOM     77  O   UNL     1      -4.645  -0.659 -15.578  1.00  0.00    -0.237 OA
ATOM     78  O   UNL     1      -3.843  -1.953 -13.628  1.00  0.00    -0.237 OA
ATOM     79  O   UNL     1      -6.252  -1.522 -13.910  1.00  0.00    -0.744 OA
ENDBRANCH  75  76
ENDBRANCH  43  68
BRANCH  55  80
ATOM     80  C   UNL     1      -2.373   9.287 -13.124  1.00  0.00     0.058 A 
ATOM     81  C   UNL     1      -3.303   9.681 -14.098  1.00  0.00     0.135 A 
ATOM     82  C   UNL     1      -1.018   9.576 -13.349  1.00  0.00     0.135 A 
ATOM     83  F   UNL     1      -4.609   9.418 -13.932  1.00  0.00    -0.206 F 
ATOM     84  C   UNL     1      -2.901  10.324 -15.264  1.00  0.00     0.059 A 
ATOM     85  C   UNL     1      -0.597  10.234 -14.500  1.00  0.00     0.059 A 
ATOM     86  F   UNL     1      -0.092   9.223 -12.444  1.00  0.00    -0.206 F 
ATOM     87  C   UNL     1      -1.545  10.595 -15.457  1.00  0.00     0.060 A 
BRANCH  87  88
ATOM     88  S   UNL     1      -1.033  11.454 -16.960  1.00  0.00     0.124 S 
ATOM     89  O   UNL     1      -1.064  10.374 -17.941  1.00  0.00    -0.237 OA
ATOM     90  O   UNL     1      -2.066  12.475 -17.109  1.00  0.00    -0.237 OA
ATOM     91  O   UNL     1       0.294  11.961 -16.623  1.00  0.00    -0.744 OA
ENDBRANCH  87  88
ENDBRANCH  55  80
ENDBRANCH  29  30
ENDBRANCH  22  24
ENDBRANCH  21  22
ENDBRANCH  20  21
ENDBRANCH   1  20
TORSDOF 19
