REMARK SMILES CC[C@@H](C)S(=O)(=O)c1cc(C(=O)OCCOC(=O)c2ccc(-c3c4nc(c(-c5c(F)cc(S(=O)(=O)[O-])cc5F)c5ccc([nH]5)c(-c5c(F)cc(S(=O)(=O)[O-])cc5F)c5nc(c(-c6c(F)cc(S(=O)(=O)[O-])cc6F)c6ccc3[nH]6)C=C5)C=C4)cc2)c(C)cc1C
REMARK SMILES IDX 14 1 13 2 11 3 12 4 10 5 8 6 9 7 88 8 87 9 89 10 85 11 86 12
REMARK SMILES IDX 5 13 6 14 7 15 3 16 4 17 2 18 1 19 15 20 16 21 17 22 18 23
REMARK SMILES IDX 19 24 20 25 84 26 21 27 83 28 22 29 23 30 24 31 77 32 25 33
REMARK SMILES IDX 82 34 76 35 78 36 26 37 81 38 75 39 74 40 27 42 61 43 40 44
REMARK SMILES IDX 60 45 41 46 44 47 59 48 79 49 42 50 43 51 58 53 80 54 45 55
REMARK SMILES IDX 28 56 29 57 38 58 30 59 31 60 37 61 39 62 32 63 33 64 34 65
REMARK SMILES IDX 35 66 36 67 62 68 63 69 72 70 64 71 65 72 71 73 73 74 66 75
REMARK SMILES IDX 67 76 68 77 69 78 70 79 46 80 47 81 56 82 48 83 49 84 55 85
REMARK SMILES IDX 57 86 50 87 51 88 52 89 53 90 54 91
REMARK H PARENT 78 41 44 52
REMARK Flexibility Score: inf
ROOT
ATOM      1  C   UNL     1      -5.977   0.476   2.542  1.00  0.00     0.275 C 
ENDROOT
BRANCH   1   2
ATOM      2  O   UNL     1      -5.258  -0.756   2.760  1.00  0.00    -0.458 OA
BRANCH   2   3
ATOM      3  C   UNL     1      -4.264  -1.043   1.885  1.00  0.00     0.338 C 
ATOM      4  O   UNL     1      -3.832  -0.313   1.011  1.00  0.00    -0.246 OA
BRANCH   3   5
ATOM      5  C   UNL     1      -3.688  -2.388   2.149  1.00  0.00     0.064 A 
ATOM      6  C   UNL     1      -1.645  -3.738   2.186  1.00  0.00     0.071 A 
ATOM      7  C   UNL     1      -2.280  -2.495   2.071  1.00  0.00     0.036 A 
ATOM      8  C   UNL     1      -2.419  -4.885   2.462  1.00  0.00    -0.032 A 
ATOM      9  C   UNL     1      -3.818  -4.763   2.531  1.00  0.00     0.009 A 
ATOM     10  C   UNL     1      -1.833  -6.266   2.613  1.00  0.00     0.046 C 
ATOM     11  C   UNL     1      -4.473  -3.534   2.347  1.00  0.00    -0.036 A 
ATOM     12  C   UNL     1      -5.977  -3.569   2.328  1.00  0.00     0.045 C 
BRANCH   6  13
ATOM     13  S   UNL     1       0.124  -3.954   1.929  1.00  0.00     0.181 S 
ATOM     14  O   UNL     1       0.232  -4.917   0.846  1.00  0.00    -0.223 OA
ATOM     15  O   UNL     1       0.654  -4.277   3.242  1.00  0.00    -0.223 OA
BRANCH  13  16
ATOM     16  C   UNL     1       0.946  -2.467   1.367  1.00  0.00     0.110 C 
ATOM     17  C   UNL     1       1.129  -1.468   2.501  1.00  0.00     0.025 C 
BRANCH  16  18
ATOM     18  C   UNL     1       0.383  -1.930   0.040  1.00  0.00     0.016 C 
ATOM     19  C   UNL     1       0.955  -0.590  -0.401  1.00  0.00     0.005 C 
ENDBRANCH  16  18
ENDBRANCH  13  16
ENDBRANCH   6  13
ENDBRANCH   3   5
ENDBRANCH   2   3
ENDBRANCH   1   2
BRANCH   1  20
ATOM     20  C   UNL     1      -5.837   1.388   3.755  1.00  0.00     0.275 C 
BRANCH  20  21
ATOM     21  O   UNL     1      -4.483   1.862   3.807  1.00  0.00    -0.458 OA
BRANCH  21  22
ATOM     22  C   UNL     1      -3.744   1.446   4.856  1.00  0.00     0.338 C 
ATOM     23  O   UNL     1      -4.125   0.833   5.845  1.00  0.00    -0.246 OA
BRANCH  22  24
ATOM     24  C   UNL     1      -2.340   1.803   4.608  1.00  0.00     0.060 A 
ATOM     25  C   UNL     1      -1.725   1.340   3.450  1.00  0.00     0.016 A 
ATOM     26  C   UNL     1      -1.600   2.502   5.560  1.00  0.00     0.016 A 
ATOM     27  C   UNL     1      -0.352   1.497   3.294  1.00  0.00     0.010 A 
ATOM     28  C   UNL     1      -0.228   2.718   5.356  1.00  0.00     0.010 A 
ATOM     29  C   UNL     1       0.436   2.162   4.248  1.00  0.00    -0.014 A 
BRANCH  29  30
ATOM     30  C   UNL     1       1.935   2.163   4.132  1.00  0.00     0.031 A 
ATOM     31  C   UNL     1       2.794   1.696   5.291  1.00  0.00     0.074 A 
ATOM     32  C   UNL     1       2.558   2.477   2.974  1.00  0.00     0.049 A 
ATOM     33  N   UNL     1       4.092   1.791   5.451  1.00  0.00    -0.248 NA
ATOM     34  C   UNL     1       2.106   1.053   6.422  1.00  0.00     0.031 C 
ATOM     35  C   UNL     1       1.897   2.872   1.730  1.00  0.00     0.029 A 
ATOM     36  N   UNL     1       3.893   2.464   2.639  1.00  0.00    -0.354 N 
ATOM     37  C   UNL     1       4.358   1.316   6.733  1.00  0.00     0.074 A 
ATOM     38  C   UNL     1       3.091   0.906   7.297  1.00  0.00     0.031 C 
ATOM     39  C   UNL     1       2.807   2.946   0.748  1.00  0.00     0.029 A 
ATOM     40  C   UNL     1       4.137   2.748   1.314  1.00  0.00     0.049 A 
ATOM     41  H   UNL     1       4.608   2.270   3.287  1.00  0.00     0.167 HD
ATOM     42  C   UNL     1       5.544   1.242   7.386  1.00  0.00     0.037 A 
ATOM     43  C   UNL     1       5.292   2.886   0.631  1.00  0.00     0.037 A 
ATOM     44  C   UNL     1       6.821   1.551   6.794  1.00  0.00     0.049 A 
ATOM     45  C   UNL     1       6.600   2.803   1.369  1.00  0.00     0.074 A 
ATOM     46  C   UNL     1       8.074   1.524   7.383  1.00  0.00     0.029 A 
ATOM     47  N   UNL     1       7.014   1.904   5.468  1.00  0.00    -0.354 N 
ATOM     48  N   UNL     1       6.821   2.503   2.625  1.00  0.00    -0.248 NA
ATOM     49  C   UNL     1       7.814   3.132   0.606  1.00  0.00     0.031 C 
ATOM     50  C   UNL     1       9.022   1.890   6.421  1.00  0.00     0.029 A 
ATOM     51  C   UNL     1       8.363   2.107   5.222  1.00  0.00     0.049 A 
ATOM     52  H   UNL     1       6.298   1.998   4.799  1.00  0.00     0.167 HD
ATOM     53  C   UNL     1       8.194   2.624   2.808  1.00  0.00     0.074 A 
ATOM     54  C   UNL     1       8.759   2.985   1.525  1.00  0.00     0.031 C 
ATOM     55  C   UNL     1       8.918   2.472   3.944  1.00  0.00     0.037 A 
BRANCH  42  56
ATOM     56  C   UNL     1       5.516   0.878   8.846  1.00  0.00     0.058 A 
ATOM     57  C   UNL     1       5.293  -0.431   9.297  1.00  0.00     0.135 A 
ATOM     58  C   UNL     1       5.745   1.873   9.812  1.00  0.00     0.135 A 
ATOM     59  F   UNL     1       5.052  -1.416   8.419  1.00  0.00    -0.206 F 
ATOM     60  C   UNL     1       5.266  -0.735  10.657  1.00  0.00     0.059 A 
ATOM     61  C   UNL     1       5.749   1.587  11.173  1.00  0.00     0.059 A 
ATOM     62  F   UNL     1       5.968   3.142   9.435  1.00  0.00    -0.206 F 
ATOM     63  C   UNL     1       5.490   0.283  11.587  1.00  0.00     0.060 A 
BRANCH  63  64
ATOM     64  S   UNL     1       5.438  -0.117  13.348  1.00  0.00     0.124 S 
ATOM     65  O   UNL     1       4.001  -0.245  13.573  1.00  0.00    -0.237 OA
ATOM     66  O   UNL     1       6.202  -1.358  13.412  1.00  0.00    -0.237 OA
ATOM     67  O   UNL     1       6.070   1.038  13.977  1.00  0.00    -0.744 OA
ENDBRANCH  63  64
ENDBRANCH  42  56
BRANCH  43  68
ATOM     68  C   UNL     1       5.266   3.187  -0.827  1.00  0.00     0.058 A 
ATOM     69  C   UNL     1       5.732   2.253  -1.765  1.00  0.00     0.135 A 
ATOM     70  C   UNL     1       4.764   4.404  -1.314  1.00  0.00     0.135 A 
ATOM     71  F   UNL     1       6.242   1.083  -1.350  1.00  0.00    -0.206 F 
ATOM     72  C   UNL     1       5.694   2.511  -3.132  1.00  0.00     0.059 A 
ATOM     73  C   UNL     1       4.685   4.671  -2.676  1.00  0.00     0.059 A 
ATOM     74  F   UNL     1       4.306   5.333  -0.460  1.00  0.00    -0.206 F 
ATOM     75  C   UNL     1       5.159   3.721  -3.578  1.00  0.00     0.060 A 
BRANCH  75  76
ATOM     76  S   UNL     1       5.029   4.022  -5.354  1.00  0.00     0.124 S 
ATOM     77  O   UNL     1       6.390   4.431  -5.681  1.00  0.00    -0.237 OA
ATOM     78  O   UNL     1       4.613   2.719  -5.862  1.00  0.00    -0.237 OA
ATOM     79  O   UNL     1       4.015   5.069  -5.438  1.00  0.00    -0.744 OA
ENDBRANCH  75  76
ENDBRANCH  43  68
BRANCH  55  80
ATOM     80  C   UNL     1      10.401   2.696   3.854  1.00  0.00     0.058 A 
ATOM     81  C   UNL     1      10.940   3.988   3.753  1.00  0.00     0.135 A 
ATOM     82  C   UNL     1      11.295   1.615   3.913  1.00  0.00     0.135 A 
ATOM     83  F   UNL     1      10.128   5.055   3.687  1.00  0.00    -0.206 F 
ATOM     84  C   UNL     1      12.314   4.200   3.693  1.00  0.00     0.059 A 
ATOM     85  C   UNL     1      12.673   1.805   3.875  1.00  0.00     0.059 A 
ATOM     86  F   UNL     1      10.831   0.359   4.018  1.00  0.00    -0.206 F 
ATOM     87  C   UNL     1      13.173   3.102   3.754  1.00  0.00     0.060 A 
BRANCH  87  88
ATOM     88  S   UNL     1      14.955   3.391   3.703  1.00  0.00     0.124 S 
ATOM     89  O   UNL     1      15.163   3.691   2.290  1.00  0.00    -0.237 OA
ATOM     90  O   UNL     1      15.117   4.515   4.620  1.00  0.00    -0.237 OA
ATOM     91  O   UNL     1      15.517   2.126   4.166  1.00  0.00    -0.744 OA
ENDBRANCH  87  88
ENDBRANCH  55  80
ENDBRANCH  29  30
ENDBRANCH  22  24
ENDBRANCH  21  22
ENDBRANCH  20  21
ENDBRANCH   1  20
TORSDOF 17
