REMARK SMILES C[C@@H](CC(=O)OCCOC(=O)c1ccc(-c2c3nc(c(-c4c(F)cc(S(=O)(=O)[O-])cc4F)c4ccc([nH]4)c(-c4c(F)cc(S(=O)(=O)[O-])cc4F)c4nc(c(-c5c(F)cc(S(=O)(=O)[O-])cc5F)c5ccc2[nH]5)C=C4)C=C3)cc1)CC(=O)N(C)C[C@H]1CCC[N@H+]1C
REMARK SMILES IDX 6 1 4 2 5 3 3 4 2 5 1 6 78 7 79 8 80 9 81 10 82 11 83 12
REMARK SMILES IDX 84 13 85 14 88 15 86 16 87 17 89 18 7 20 8 21 9 22 10 23
REMARK SMILES IDX 11 24 12 25 13 26 77 27 14 28 76 29 15 30 16 31 17 32 70 33
REMARK SMILES IDX 18 34 75 35 69 36 71 37 19 38 74 39 68 40 67 41 20 43 54 44
REMARK SMILES IDX 33 45 53 46 34 47 37 48 52 49 72 50 35 51 36 52 51 54 73 55
REMARK SMILES IDX 38 56 21 57 22 58 31 59 23 60 24 61 30 62 32 63 25 64 26 65
REMARK SMILES IDX 27 66 28 67 29 68 55 69 56 70 65 71 57 72 58 73 64 74 66 75
REMARK SMILES IDX 59 76 60 77 61 78 62 79 63 80 39 81 40 82 49 83 41 84 42 85
REMARK SMILES IDX 48 86 50 87 43 88 44 89 45 90 46 91 47 92
REMARK H PARENT 88 19 71 42 37 53
REMARK Flexibility Score: inf
ROOT
ATOM      1  O   UNL     1       0.999   2.174   1.248  1.00  0.00    -0.462 OA
ENDROOT
BRANCH   1   2
ATOM      2  C   UNL     1       1.473   1.630   2.397  1.00  0.00     0.306 C 
ATOM      3  O   UNL     1       1.716   2.264   3.418  1.00  0.00    -0.252 OA
BRANCH   2   4
ATOM      4  C   UNL     1       1.729   0.140   2.308  1.00  0.00     0.126 C 
BRANCH   4   5
ATOM      5  C   UNL     1       1.089  -0.681   1.174  1.00  0.00     0.006 C 
ATOM      6  C   UNL     1       1.720  -0.370  -0.184  1.00  0.00     0.009 C 
BRANCH   5   7
ATOM      7  C   UNL     1      -0.448  -0.601   1.177  1.00  0.00     0.104 C 
BRANCH   7   8
ATOM      8  C   UNL     1      -1.063  -1.631   0.246  1.00  0.00     0.222 C 
ATOM      9  O   UNL     1      -1.172  -2.796   0.642  1.00  0.00    -0.275 OA
BRANCH   8  10
ATOM     10  N   UNL     1      -1.413  -1.270  -1.048  1.00  0.00    -0.340 N 
ATOM     11  C   UNL     1      -1.405   0.079  -1.592  1.00  0.00     0.147 C 
BRANCH  10  12
ATOM     12  C   UNL     1      -1.876  -2.349  -1.933  1.00  0.00     0.184 C 
BRANCH  12  13
ATOM     13  C   UNL     1      -0.759  -3.360  -2.342  1.00  0.00     0.203 C 
ATOM     14  C   UNL     1      -1.318  -4.799  -2.370  1.00  0.00     0.073 C 
ATOM     15  N   UNL     1      -0.133  -3.221  -3.677  1.00  0.00    -0.333 N 
ATOM     16  C   UNL     1      -1.067  -5.317  -3.779  1.00  0.00     0.068 C 
ATOM     17  C   UNL     1      -0.890  -4.057  -4.599  1.00  0.00     0.262 C 
ATOM     18  C   UNL     1       0.100  -1.879  -4.161  1.00  0.00     0.333 C 
ATOM     19  H   UNL     1       0.831  -3.543  -3.595  1.00  0.00     0.348 HD
ENDBRANCH  12  13
ENDBRANCH  10  12
ENDBRANCH   8  10
ENDBRANCH   7   8
ENDBRANCH   5   7
ENDBRANCH   4   5
ENDBRANCH   2   4
ENDBRANCH   1   2
BRANCH   1  20
ATOM     20  C   UNL     1       0.690   3.582   1.304  1.00  0.00     0.274 C 
BRANCH  20  21
ATOM     21  C   UNL     1      -0.805   3.784   1.531  1.00  0.00     0.275 C 
BRANCH  21  22
ATOM     22  O   UNL     1      -1.195   3.133   2.750  1.00  0.00    -0.458 OA
BRANCH  22  23
ATOM     23  C   UNL     1      -2.367   2.467   2.708  1.00  0.00     0.338 C 
ATOM     24  O   UNL     1      -3.150   2.417   1.763  1.00  0.00    -0.246 OA
BRANCH  23  25
ATOM     25  C   UNL     1      -2.603   1.788   3.990  1.00  0.00     0.060 A 
ATOM     26  C   UNL     1      -1.658   0.897   4.508  1.00  0.00     0.016 A 
ATOM     27  C   UNL     1      -3.827   1.968   4.636  1.00  0.00     0.016 A 
ATOM     28  C   UNL     1      -1.962   0.138   5.638  1.00  0.00     0.010 A 
ATOM     29  C   UNL     1      -4.105   1.253   5.802  1.00  0.00     0.010 A 
ATOM     30  C   UNL     1      -3.191   0.304   6.293  1.00  0.00    -0.014 A 
BRANCH  30  31
ATOM     31  C   UNL     1      -3.555  -0.547   7.456  1.00  0.00     0.031 A 
ATOM     32  C   UNL     1      -4.686  -1.535   7.335  1.00  0.00     0.074 A 
ATOM     33  C   UNL     1      -2.891  -0.425   8.621  1.00  0.00     0.049 A 
ATOM     34  N   UNL     1      -5.250  -2.266   8.262  1.00  0.00    -0.248 NA
ATOM     35  C   UNL     1      -5.269  -1.711   5.995  1.00  0.00     0.031 C 
ATOM     36  C   UNL     1      -1.769   0.483   8.866  1.00  0.00     0.029 A 
ATOM     37  N   UNL     1      -3.071  -1.064   9.822  1.00  0.00    -0.354 N 
ATOM     38  C   UNL     1      -6.278  -2.957   7.629  1.00  0.00     0.074 A 
ATOM     39  C   UNL     1      -6.264  -2.553   6.239  1.00  0.00     0.031 C 
ATOM     40  C   UNL     1      -1.359   0.341  10.137  1.00  0.00     0.029 A 
ATOM     41  C   UNL     1      -2.215  -0.634  10.808  1.00  0.00     0.049 A 
ATOM     42  H   UNL     1      -3.748  -1.764   9.965  1.00  0.00     0.167 HD
ATOM     43  C   UNL     1      -7.151  -3.848   8.158  1.00  0.00     0.037 A 
ATOM     44  C   UNL     1      -2.143  -0.968  12.111  1.00  0.00     0.037 A 
ATOM     45  C   UNL     1      -7.134  -4.282   9.531  1.00  0.00     0.049 A 
ATOM     46  C   UNL     1      -3.104  -1.981  12.667  1.00  0.00     0.074 A 
ATOM     47  C   UNL     1      -7.970  -5.191  10.159  1.00  0.00     0.029 A 
ATOM     48  N   UNL     1      -6.225  -3.852  10.485  1.00  0.00    -0.354 N 
ATOM     49  N   UNL     1      -4.085  -2.606  12.060  1.00  0.00    -0.248 NA
ATOM     50  C   UNL     1      -2.948  -2.337  14.084  1.00  0.00     0.031 C 
ATOM     51  C   UNL     1      -7.575  -5.297  11.498  1.00  0.00     0.029 A 
ATOM     52  C   UNL     1      -6.476  -4.478  11.695  1.00  0.00     0.049 A 
ATOM     53  H   UNL     1      -5.506  -3.199  10.326  1.00  0.00     0.167 HD
ATOM     54  C   UNL     1      -4.652  -3.441  13.017  1.00  0.00     0.074 A 
ATOM     55  C   UNL     1      -3.895  -3.252  14.237  1.00  0.00     0.031 C 
ATOM     56  C   UNL     1      -5.705  -4.285  12.896  1.00  0.00     0.037 A 
BRANCH  43  57
ATOM     57  C   UNL     1      -8.214  -4.401   7.252  1.00  0.00     0.058 A 
ATOM     58  C   UNL     1      -7.929  -5.375   6.283  1.00  0.00     0.135 A 
ATOM     59  C   UNL     1      -9.546  -3.975   7.380  1.00  0.00     0.135 A 
ATOM     60  F   UNL     1      -6.669  -5.803   6.107  1.00  0.00    -0.206 F 
ATOM     61  C   UNL     1      -8.923  -5.894   5.459  1.00  0.00     0.059 A 
ATOM     62  C   UNL     1     -10.560  -4.495   6.582  1.00  0.00     0.059 A 
ATOM     63  F   UNL     1      -9.873  -3.043   8.290  1.00  0.00    -0.206 F 
ATOM     64  C   UNL     1     -10.236  -5.446   5.615  1.00  0.00     0.060 A 
BRANCH  64  65
ATOM     65  S   UNL     1     -11.523  -6.135   4.551  1.00  0.00     0.124 S 
ATOM     66  O   UNL     1     -11.288  -5.411   3.305  1.00  0.00    -0.237 OA
ATOM     67  O   UNL     1     -11.190  -7.556   4.530  1.00  0.00    -0.237 OA
ATOM     68  O   UNL     1     -12.758  -5.795   5.250  1.00  0.00    -0.744 OA
ENDBRANCH  64  65
ENDBRANCH  43  57
BRANCH  44  69
ATOM     69  C   UNL     1      -1.124  -0.328  12.983  1.00  0.00     0.058 A 
ATOM     70  C   UNL     1      -0.008  -1.045  13.436  1.00  0.00     0.135 A 
ATOM     71  C   UNL     1      -1.244   1.015  13.371  1.00  0.00     0.135 A 
ATOM     72  F   UNL     1       0.144  -2.334  13.097  1.00  0.00    -0.206 F 
ATOM     73  C   UNL     1       0.950  -0.458  14.256  1.00  0.00     0.059 A 
ATOM     74  C   UNL     1      -0.289   1.630  14.172  1.00  0.00     0.059 A 
ATOM     75  F   UNL     1      -2.288   1.746  12.951  1.00  0.00    -0.206 F 
ATOM     76  C   UNL     1       0.800   0.882  14.619  1.00  0.00     0.060 A 
BRANCH  76  77
ATOM     77  S   UNL     1       2.072   1.659  15.640  1.00  0.00     0.124 S 
ATOM     78  O   UNL     1       1.707   1.187  16.971  1.00  0.00    -0.237 OA
ATOM     79  O   UNL     1       3.302   1.105  15.082  1.00  0.00    -0.237 OA
ATOM     80  O   UNL     1       1.869   3.084  15.395  1.00  0.00    -0.744 OA
ENDBRANCH  76  77
ENDBRANCH  44  69
BRANCH  56  81
ATOM     81  C   UNL     1      -6.070  -5.095  14.107  1.00  0.00     0.058 A 
ATOM     82  C   UNL     1      -6.745  -4.525  15.197  1.00  0.00     0.135 A 
ATOM     83  C   UNL     1      -5.749  -6.460  14.171  1.00  0.00     0.135 A 
ATOM     84  F   UNL     1      -7.069  -3.222  15.185  1.00  0.00    -0.206 F 
ATOM     85  C   UNL     1      -7.058  -5.273  16.328  1.00  0.00     0.059 A 
ATOM     86  C   UNL     1      -6.071  -7.232  15.283  1.00  0.00     0.059 A 
ATOM     87  F   UNL     1      -5.114  -7.054  13.149  1.00  0.00    -0.206 F 
ATOM     88  C   UNL     1      -6.709  -6.624  16.364  1.00  0.00     0.060 A 
BRANCH  88  89
ATOM     89  S   UNL     1      -7.115  -7.592  17.833  1.00  0.00     0.124 S 
ATOM     90  O   UNL     1      -6.029  -7.224  18.735  1.00  0.00    -0.237 OA
ATOM     91  O   UNL     1      -8.436  -7.087  18.193  1.00  0.00    -0.237 OA
ATOM     92  O   UNL     1      -7.091  -8.969  17.347  1.00  0.00    -0.744 OA
ENDBRANCH  88  89
ENDBRANCH  56  81
ENDBRANCH  30  31
ENDBRANCH  23  25
ENDBRANCH  22  23
ENDBRANCH  21  22
ENDBRANCH  20  21
ENDBRANCH   1  20
TORSDOF 20
