REMARK SMILES O=C(OCCOC(=O)c1cc(Cl)ccc1N1C(=O)CC2(CCCC2)C1=O)c1ccc(-c2c3nc(c(-c4c(F)cc(S(=O)(=O)[O-])cc4F)c4ccc([nH]4)c(-c4c(F)cc(S(=O)(=O)[O-])cc4F)c4nc(c(-c5c(F)cc(S(=O)(=O)[O-])cc5F)c5ccc2[nH]5)C=C4)C=C3)cc1
REMARK SMILES IDX 4 1 3 2 2 3 1 4 27 5 28 6 92 7 29 8 91 9 30 10 31 11 32 12
REMARK SMILES IDX 85 13 33 14 90 15 84 16 86 17 34 18 89 19 83 20 82 21 35 23
REMARK SMILES IDX 69 24 48 25 68 26 49 27 52 28 67 29 87 30 50 31 51 32 66 34
REMARK SMILES IDX 88 35 53 36 36 37 37 38 46 39 38 40 39 41 45 42 47 43 40 44
REMARK SMILES IDX 41 45 42 46 43 47 44 48 70 49 71 50 80 51 72 52 73 53 79 54
REMARK SMILES IDX 81 55 74 56 75 57 76 58 77 59 78 60 54 61 55 62 64 63 56 64
REMARK SMILES IDX 57 65 63 66 65 67 58 68 59 69 60 70 61 71 62 72 5 73 6 74
REMARK SMILES IDX 7 75 8 76 9 77 10 78 15 79 11 80 14 81 12 82 13 83 16 84
REMARK SMILES IDX 17 85 25 86 18 87 19 88 20 89 26 90 21 91 24 92 22 93 23 94
REMARK H PARENT 86 22 52 33
REMARK Flexibility Score: inf
ROOT
ATOM      1  C   UNL     1       4.732   1.935  -0.924  1.00  0.00     0.275 C 
ENDROOT
BRANCH   1   2
ATOM      2  O   UNL     1       4.915   0.532  -1.145  1.00  0.00    -0.458 OA
BRANCH   2   3
ATOM      3  C   UNL     1       4.057  -0.308  -0.552  1.00  0.00     0.338 C 
ATOM      4  O   UNL     1       2.885  -0.424  -0.851  1.00  0.00    -0.246 OA
BRANCH   3   5
ATOM      5  C   UNL     1       4.699  -0.955   0.613  1.00  0.00     0.060 A 
ATOM      6  C   UNL     1       6.014  -0.681   0.993  1.00  0.00     0.016 A 
ATOM      7  C   UNL     1       3.889  -1.750   1.421  1.00  0.00     0.016 A 
ATOM      8  C   UNL     1       6.496  -1.202   2.184  1.00  0.00     0.010 A 
ATOM      9  C   UNL     1       4.337  -2.225   2.635  1.00  0.00     0.010 A 
ATOM     10  C   UNL     1       5.653  -1.970   2.997  1.00  0.00    -0.014 A 
BRANCH  10  11
ATOM     11  C   UNL     1       6.186  -2.592   4.206  1.00  0.00     0.031 A 
ATOM     12  C   UNL     1       6.586  -4.028   4.129  1.00  0.00     0.074 A 
ATOM     13  C   UNL     1       6.301  -1.835   5.307  1.00  0.00     0.049 A 
ATOM     14  N   UNL     1       7.297  -4.723   4.969  1.00  0.00    -0.248 NA
ATOM     15  C   UNL     1       6.136  -4.788   2.946  1.00  0.00     0.031 C 
ATOM     16  C   UNL     1       5.814  -0.457   5.436  1.00  0.00     0.029 A 
ATOM     17  N   UNL     1       6.854  -2.109   6.520  1.00  0.00    -0.354 N 
ATOM     18  C   UNL     1       7.448  -5.970   4.379  1.00  0.00     0.074 A 
ATOM     19  C   UNL     1       6.662  -5.982   3.170  1.00  0.00     0.031 C 
ATOM     20  C   UNL     1       6.085  -0.010   6.674  1.00  0.00     0.029 A 
ATOM     21  C   UNL     1       6.793  -1.056   7.399  1.00  0.00     0.049 A 
ATOM     22  H   UNL     1       7.258  -2.978   6.745  1.00  0.00     0.167 HD
ATOM     23  C   UNL     1       8.236  -6.984   4.799  1.00  0.00     0.037 A 
ATOM     24  C   UNL     1       7.298  -0.961   8.641  1.00  0.00     0.037 A 
ATOM     25  C   UNL     1       8.952  -6.918   6.044  1.00  0.00     0.049 A 
ATOM     26  C   UNL     1       8.159  -2.105   9.102  1.00  0.00     0.074 A 
ATOM     27  C   UNL     1       9.788  -7.850   6.623  1.00  0.00     0.029 A 
ATOM     28  N   UNL     1       8.893  -5.830   6.912  1.00  0.00    -0.354 N 
ATOM     29  N   UNL     1       8.404  -3.245   8.491  1.00  0.00    -0.248 NA
ATOM     30  C   UNL     1       8.861  -1.937  10.375  1.00  0.00     0.031 C 
ATOM     31  C   UNL     1      10.212  -7.334   7.856  1.00  0.00     0.029 A 
ATOM     32  C   UNL     1       9.672  -6.065   8.026  1.00  0.00     0.049 A 
ATOM     33  H   UNL     1       8.370  -5.011   6.753  1.00  0.00     0.167 HD
ATOM     34  C   UNL     1       9.311  -3.923   9.291  1.00  0.00     0.074 A 
ATOM     35  C   UNL     1       9.581  -3.050  10.422  1.00  0.00     0.031 C 
ATOM     36  C   UNL     1       9.877  -5.146   9.120  1.00  0.00     0.037 A 
BRANCH  23  37
ATOM     37  C   UNL     1       8.367  -8.178   3.894  1.00  0.00     0.058 A 
ATOM     38  C   UNL     1       9.024  -8.074   2.653  1.00  0.00     0.135 A 
ATOM     39  C   UNL     1       7.826  -9.425   4.237  1.00  0.00     0.135 A 
ATOM     40  F   UNL     1       9.539  -6.899   2.256  1.00  0.00    -0.206 F 
ATOM     41  C   UNL     1       9.118  -9.153   1.780  1.00  0.00     0.059 A 
ATOM     42  C   UNL     1       7.928 -10.526   3.388  1.00  0.00     0.059 A 
ATOM     43  F   UNL     1       7.173  -9.581   5.399  1.00  0.00    -0.206 F 
ATOM     44  C   UNL     1       8.565 -10.377   2.156  1.00  0.00     0.060 A 
BRANCH  44  45
ATOM     45  S   UNL     1       8.704 -11.769   1.012  1.00  0.00     0.124 S 
ATOM     46  O   UNL     1       7.770 -11.380  -0.040  1.00  0.00    -0.237 OA
ATOM     47  O   UNL     1      10.117 -11.733   0.648  1.00  0.00    -0.237 OA
ATOM     48  O   UNL     1       8.297 -12.915   1.820  1.00  0.00    -0.744 OA
ENDBRANCH  44  45
ENDBRANCH  23  37
BRANCH  24  49
ATOM     49  C   UNL     1       7.064   0.263   9.451  1.00  0.00     0.058 A 
ATOM     50  C   UNL     1       8.086   1.187   9.710  1.00  0.00     0.135 A 
ATOM     51  C   UNL     1       5.781   0.561   9.942  1.00  0.00     0.135 A 
ATOM     52  F   UNL     1       9.325   0.964   9.246  1.00  0.00    -0.206 F 
ATOM     53  C   UNL     1       7.856   2.345  10.450  1.00  0.00     0.059 A 
ATOM     54  C   UNL     1       5.521   1.722  10.666  1.00  0.00     0.059 A 
ATOM     55  F   UNL     1       4.758  -0.272   9.696  1.00  0.00    -0.206 F 
ATOM     56  C   UNL     1       6.569   2.602  10.928  1.00  0.00     0.060 A 
BRANCH  56  57
ATOM     57  S   UNL     1       6.279   4.116  11.871  1.00  0.00     0.124 S 
ATOM     58  O   UNL     1       6.955   3.814  13.127  1.00  0.00    -0.237 OA
ATOM     59  O   UNL     1       6.915   5.127  11.031  1.00  0.00    -0.237 OA
ATOM     60  O   UNL     1       4.823   4.197  11.941  1.00  0.00    -0.744 OA
ENDBRANCH  56  57
ENDBRANCH  24  49
BRANCH  36  61
ATOM     61  C   UNL     1      10.835  -5.575  10.188  1.00  0.00     0.058 A 
ATOM     62  C   UNL     1      10.381  -5.979  11.451  1.00  0.00     0.135 A 
ATOM     63  C   UNL     1      12.213  -5.610   9.929  1.00  0.00     0.135 A 
ATOM     64  F   UNL     1       9.070  -5.955  11.739  1.00  0.00    -0.206 F 
ATOM     65  C   UNL     1      11.270  -6.370  12.441  1.00  0.00     0.059 A 
ATOM     66  C   UNL     1      13.118  -6.027  10.895  1.00  0.00     0.059 A 
ATOM     67  F   UNL     1      12.688  -5.245   8.727  1.00  0.00    -0.206 F 
ATOM     68  C   UNL     1      12.636  -6.388  12.154  1.00  0.00     0.060 A 
BRANCH  68  69
ATOM     69  S   UNL     1      13.780  -6.909  13.445  1.00  0.00     0.124 S 
ATOM     70  O   UNL     1      13.825  -5.721  14.291  1.00  0.00    -0.237 OA
ATOM     71  O   UNL     1      13.103  -8.070  14.015  1.00  0.00    -0.237 OA
ATOM     72  O   UNL     1      15.006  -7.205  12.710  1.00  0.00    -0.744 OA
ENDBRANCH  68  69
ENDBRANCH  36  61
ENDBRANCH  10  11
ENDBRANCH   3   5
ENDBRANCH   2   3
ENDBRANCH   1   2
BRANCH   1  73
ATOM     73  C   UNL     1       3.704   2.510   0.082  1.00  0.00     0.275 C 
BRANCH  73  74
ATOM     74  O   UNL     1       3.198   1.635   1.103  1.00  0.00    -0.458 OA
BRANCH  74  75
ATOM     75  C   UNL     1       1.843   1.441   1.113  1.00  0.00     0.340 C 
ATOM     76  O   UNL     1       1.034   1.921   0.338  1.00  0.00    -0.246 OA
BRANCH  75  77
ATOM     77  C   UNL     1       1.474   0.527   2.221  1.00  0.00     0.085 A 
ATOM     78  C   UNL     1       1.976   0.821   3.502  1.00  0.00     0.038 A 
ATOM     79  C   UNL     1       0.671  -0.619   2.018  1.00  0.00     0.066 A 
ATOM     80  C   UNL     1       1.689  -0.022   4.573  1.00  0.00     0.042 A 
ATOM     81  C   UNL     1       0.420  -1.466   3.112  1.00  0.00     0.029 A 
ATOM     82  Cl  UNL     1       2.278   0.356   6.143  1.00  0.00    -0.084 Cl
ATOM     83  C   UNL     1       0.922  -1.167   4.382  1.00  0.00     0.023 A 
BRANCH  79  84
ATOM     84  N   UNL     1       0.190  -1.001   0.736  1.00  0.00    -0.249 N 
ATOM     85  C   UNL     1      -1.061  -0.634   0.303  1.00  0.00     0.234 C 
ATOM     86  C   UNL     1       0.522  -2.188   0.128  1.00  0.00     0.240 C 
ATOM     87  O   UNL     1      -1.862   0.101   0.867  1.00  0.00    -0.274 OA
ATOM     88  C   UNL     1      -1.433  -1.491  -0.894  1.00  0.00     0.118 C 
ATOM     89  C   UNL     1      -0.134  -2.215  -1.234  1.00  0.00     0.059 C 
ATOM     90  O   UNL     1       1.103  -3.143   0.628  1.00  0.00    -0.273 OA
ATOM     91  C   UNL     1      -0.269  -3.635  -1.796  1.00  0.00     0.017 C 
ATOM     92  C   UNL     1       0.657  -1.496  -2.330  1.00  0.00     0.017 C 
ATOM     93  C   UNL     1      -0.170  -3.523  -3.318  1.00  0.00     0.001 C 
ATOM     94  C   UNL     1       0.100  -2.059  -3.627  1.00  0.00     0.001 C 
ENDBRANCH  79  84
ENDBRANCH  75  77
ENDBRANCH  74  75
ENDBRANCH  73  74
ENDBRANCH   1  73
TORSDOF 15
