REMARK SMILES CC(C)c1ccc(-c2cnc([C@@H]3[NH2+][C@H](C(=O)OCCOC(=O)c4ccc(-c5c6nc(c(-c7c(F)cc(S(=O)(=O)[O-])cc7F)c7ccc([nH]7)c(-c7c(F)cc(S(=O)(=O)[O-])cc7F)c7nc(c(-c8c(F)cc(S(=O)(=O)[O-])cc8F)c8ccc5[nH]8)C=C7)C=C6)cc4)C(C)(C)S3)s2)cc1
REMARK SMILES IDX 18 1 17 2 15 3 16 4 14 5 12 6 13 7 92 8 89 11 90 12 91 13
REMARK SMILES IDX 11 14 8 15 9 16 93 17 10 18 7 19 4 20 5 21 95 22 6 23 94 24
REMARK SMILES IDX 2 25 1 26 3 27 19 28 20 29 21 30 22 31 23 32 24 33 88 34
REMARK SMILES IDX 25 35 87 36 26 37 27 38 28 39 81 40 29 41 86 42 80 43 82 44
REMARK SMILES IDX 30 45 85 46 79 47 78 48 31 50 65 51 44 52 64 53 45 54 48 55
REMARK SMILES IDX 63 56 83 57 46 58 47 59 62 61 84 62 49 63 32 64 33 65 42 66
REMARK SMILES IDX 34 67 35 68 41 69 43 70 36 71 37 72 38 73 39 74 40 75 66 76
REMARK SMILES IDX 67 77 76 78 68 79 69 80 75 81 77 82 70 83 71 84 72 85 73 86
REMARK SMILES IDX 74 87 50 88 51 89 60 90 52 91 53 92 59 93 61 94 54 95 55 96
REMARK SMILES IDX 56 97 57 98 58 99
REMARK H PARENT 13 9 13 10 82 49 48 60
REMARK Flexibility Score: inf
ROOT
ATOM      1  C   UNL     1     -13.336   1.826  -1.637  1.00  0.00     0.274 C 
ENDROOT
BRANCH   1   2
ATOM      2  O   UNL     1     -12.743   1.190  -0.488  1.00  0.00    -0.458 OA
BRANCH   2   3
ATOM      3  C   UNL     1     -12.371  -0.098  -0.703  1.00  0.00     0.366 C 
ATOM      4  O   UNL     1     -12.714  -0.739  -1.697  1.00  0.00    -0.245 OA
BRANCH   3   5
ATOM      5  C   UNL     1     -11.524  -0.735   0.429  1.00  0.00     0.310 C 
ATOM      6  C   UNL     1      -9.216  -0.250  -0.093  1.00  0.00     0.304 C 
ATOM      7  N   UNL     1     -10.251  -1.302  -0.145  1.00  0.00    -0.317 N 
ATOM      8  S   UNL     1      -9.456   0.550   1.533  1.00  0.00    -0.079 SA
ATOM      9  H   UNL     1      -9.953  -2.108   0.404  1.00  0.00     0.348 HD
ATOM     10  H   UNL     1     -10.401  -1.603  -1.108  1.00  0.00     0.348 HD
ATOM     11  C   UNL     1     -11.187  -0.010   1.758  1.00  0.00     0.079 C 
ATOM     12  C   UNL     1     -11.136  -1.012   2.935  1.00  0.00     0.030 C 
ATOM     13  C   UNL     1     -12.128   1.118   2.198  1.00  0.00     0.030 C 
BRANCH   6  14
ATOM     14  C   UNL     1      -9.223   0.732  -1.268  1.00  0.00     0.162 A 
ATOM     15  C   UNL     1      -8.562   2.253  -3.100  1.00  0.00     0.055 A 
ATOM     16  C   UNL     1      -9.850   2.374  -2.621  1.00  0.00     0.132 A 
ATOM     17  S   UNL     1      -7.862   0.866  -2.338  1.00  0.00    -0.112 S 
ATOM     18  N   UNL     1     -10.213   1.543  -1.579  1.00  0.00    -0.242 NA
BRANCH  15  19
ATOM     19  C   UNL     1      -7.854   3.152  -4.040  1.00  0.00    -0.007 A 
ATOM     20  C   UNL     1      -6.559   4.981  -5.841  1.00  0.00    -0.045 A 
ATOM     21  C   UNL     1      -6.196   3.627  -5.772  1.00  0.00     0.004 A 
ATOM     22  C   UNL     1      -7.565   5.412  -4.966  1.00  0.00     0.004 A 
ATOM     23  C   UNL     1      -6.832   2.728  -4.891  1.00  0.00     0.010 A 
ATOM     24  C   UNL     1      -8.193   4.518  -4.083  1.00  0.00     0.010 A 
BRANCH  20  25
ATOM     25  C   UNL     1      -5.970   5.959  -6.859  1.00  0.00     0.013 C 
ATOM     26  C   UNL     1      -5.381   7.226  -6.220  1.00  0.00     0.012 C 
ATOM     27  C   UNL     1      -4.922   5.364  -7.810  1.00  0.00     0.012 C 
ENDBRANCH  20  25
ENDBRANCH  15  19
ENDBRANCH   6  14
ENDBRANCH   3   5
ENDBRANCH   2   3
ENDBRANCH   1   2
BRANCH   1  28
ATOM     28  C   UNL     1     -13.481   3.336  -1.410  1.00  0.00     0.275 C 
BRANCH  28  29
ATOM     29  O   UNL     1     -12.184   3.956  -1.291  1.00  0.00    -0.458 OA
BRANCH  29  30
ATOM     30  C   UNL     1     -11.936   4.664  -0.164  1.00  0.00     0.338 C 
ATOM     31  O   UNL     1     -12.741   4.989   0.696  1.00  0.00    -0.246 OA
BRANCH  30  32
ATOM     32  C   UNL     1     -10.476   4.853  -0.038  1.00  0.00     0.060 A 
ATOM     33  C   UNL     1      -9.768   3.832   0.585  1.00  0.00     0.016 A 
ATOM     34  C   UNL     1      -9.798   5.989  -0.469  1.00  0.00     0.016 A 
ATOM     35  C   UNL     1      -8.385   3.892   0.742  1.00  0.00     0.010 A 
ATOM     36  C   UNL     1      -8.400   6.064  -0.298  1.00  0.00     0.010 A 
ATOM     37  C   UNL     1      -7.682   5.011   0.301  1.00  0.00    -0.014 A 
BRANCH  37  38
ATOM     38  C   UNL     1      -6.218   5.095   0.549  1.00  0.00     0.031 A 
ATOM     39  C   UNL     1      -5.719   5.772   1.780  1.00  0.00     0.074 A 
ATOM     40  C   UNL     1      -5.325   4.476  -0.246  1.00  0.00     0.049 A 
ATOM     41  N   UNL     1      -4.498   6.112   2.091  1.00  0.00    -0.248 NA
ATOM     42  C   UNL     1      -6.722   6.072   2.811  1.00  0.00     0.031 C 
ATOM     43  C   UNL     1      -5.685   3.578  -1.325  1.00  0.00     0.029 A 
ATOM     44  N   UNL     1      -3.953   4.484  -0.275  1.00  0.00    -0.354 N 
ATOM     45  C   UNL     1      -4.582   6.688   3.348  1.00  0.00     0.074 A 
ATOM     46  C   UNL     1      -5.974   6.639   3.746  1.00  0.00     0.031 C 
ATOM     47  C   UNL     1      -4.579   3.132  -1.938  1.00  0.00     0.029 A 
ATOM     48  C   UNL     1      -3.425   3.789  -1.342  1.00  0.00     0.049 A 
ATOM     49  H   UNL     1      -3.400   4.941   0.400  1.00  0.00     0.167 HD
ATOM     50  C   UNL     1      -3.582   7.225   4.085  1.00  0.00     0.037 A 
ATOM     51  C   UNL     1      -2.167   3.745  -1.825  1.00  0.00     0.037 A 
ATOM     52  C   UNL     1      -2.209   7.284   3.654  1.00  0.00     0.049 A 
ATOM     53  C   UNL     1      -1.111   4.552  -1.125  1.00  0.00     0.074 A 
ATOM     54  C   UNL     1      -1.136   7.894   4.275  1.00  0.00     0.029 A 
ATOM     55  N   UNL     1      -1.722   6.715   2.484  1.00  0.00    -0.354 N 
ATOM     56  N   UNL     1      -1.208   5.228  -0.005  1.00  0.00    -0.248 NA
ATOM     57  C   UNL     1       0.212   4.621  -1.759  1.00  0.00     0.031 C 
ATOM     58  C   UNL     1      -0.012   7.744   3.454  1.00  0.00     0.029 A 
ATOM     59  C   UNL     1      -0.371   6.991   2.346  1.00  0.00     0.049 A 
ATOM     60  H   UNL     1      -2.259   6.193   1.845  1.00  0.00     0.167 HD
ATOM     61  C   UNL     1       0.045   5.783   0.214  1.00  0.00     0.074 A 
ATOM     62  C   UNL     1       0.886   5.362  -0.889  1.00  0.00     0.031 C 
ATOM     63  C   UNL     1       0.457   6.567   1.241  1.00  0.00     0.037 A 
BRANCH  50  64
ATOM     64  C   UNL     1      -3.982   7.887   5.370  1.00  0.00     0.058 A 
ATOM     65  C   UNL     1      -4.387   7.154   6.497  1.00  0.00     0.135 A 
ATOM     66  C   UNL     1      -4.020   9.288   5.448  1.00  0.00     0.135 A 
ATOM     67  F   UNL     1      -4.398   5.812   6.463  1.00  0.00    -0.206 F 
ATOM     68  C   UNL     1      -4.860   7.789   7.641  1.00  0.00     0.059 A 
ATOM     69  C   UNL     1      -4.463   9.944   6.590  1.00  0.00     0.059 A 
ATOM     70  F   UNL     1      -3.652  10.034   4.394  1.00  0.00    -0.206 F 
ATOM     71  C   UNL     1      -4.904   9.185   7.673  1.00  0.00     0.060 A 
BRANCH  71  72
ATOM     72  S   UNL     1      -5.575   9.998   9.138  1.00  0.00     0.124 S 
ATOM     73  O   UNL     1      -7.002   9.726   8.993  1.00  0.00    -0.237 OA
ATOM     74  O   UNL     1      -4.903   9.291  10.223  1.00  0.00    -0.237 OA
ATOM     75  O   UNL     1      -5.181  11.392   8.963  1.00  0.00    -0.744 OA
ENDBRANCH  71  72
ENDBRANCH  50  64
BRANCH  51  76
ATOM     76  C   UNL     1      -1.858   2.988  -3.071  1.00  0.00     0.058 A 
ATOM     77  C   UNL     1      -1.026   1.859  -3.050  1.00  0.00     0.135 A 
ATOM     78  C   UNL     1      -2.385   3.382  -4.312  1.00  0.00     0.135 A 
ATOM     79  F   UNL     1      -0.474   1.455  -1.895  1.00  0.00    -0.206 F 
ATOM     80  C   UNL     1      -0.733   1.145  -4.209  1.00  0.00     0.059 A 
ATOM     81  C   UNL     1      -2.128   2.670  -5.480  1.00  0.00     0.059 A 
ATOM     82  F   UNL     1      -3.173   4.465  -4.398  1.00  0.00    -0.206 F 
ATOM     83  C   UNL     1      -1.296   1.554  -5.420  1.00  0.00     0.060 A 
BRANCH  83  84
ATOM     84  S   UNL     1      -0.960   0.588  -6.908  1.00  0.00     0.124 S 
ATOM     85  O   UNL     1       0.436   0.917  -7.167  1.00  0.00    -0.237 OA
ATOM     86  O   UNL     1      -1.223  -0.774  -6.454  1.00  0.00    -0.237 OA
ATOM     87  O   UNL     1      -1.922   1.115  -7.873  1.00  0.00    -0.744 OA
ENDBRANCH  83  84
ENDBRANCH  51  76
BRANCH  63  88
ATOM     88  C   UNL     1       1.895   7.000   1.242  1.00  0.00     0.058 A 
ATOM     89  C   UNL     1       2.367   7.990   0.367  1.00  0.00     0.135 A 
ATOM     90  C   UNL     1       2.795   6.464   2.177  1.00  0.00     0.135 A 
ATOM     91  F   UNL     1       1.551   8.523  -0.556  1.00  0.00    -0.206 F 
ATOM     92  C   UNL     1       3.686   8.431   0.415  1.00  0.00     0.059 A 
ATOM     93  C   UNL     1       4.111   6.908   2.260  1.00  0.00     0.059 A 
ATOM     94  F   UNL     1       2.392   5.516   3.037  1.00  0.00    -0.206 F 
ATOM     95  C   UNL     1       4.548   7.889   1.371  1.00  0.00     0.060 A 
BRANCH  95  96
ATOM     96  S   UNL     1       6.238   8.517   1.466  1.00  0.00     0.124 S 
ATOM     97  O   UNL     1       6.837   7.931   0.271  1.00  0.00    -0.237 OA
ATOM     98  O   UNL     1       6.035   9.962   1.430  1.00  0.00    -0.237 OA
ATOM     99  O   UNL     1       6.726   7.990   2.736  1.00  0.00    -0.744 OA
ENDBRANCH  95  96
ENDBRANCH  63  88
ENDBRANCH  37  38
ENDBRANCH  30  32
ENDBRANCH  29  30
ENDBRANCH  28  29
ENDBRANCH   1  28
TORSDOF 17
