REMARK SMILES CC(C)c1cc2c(cc1Cl)C=C(C(=O)OCCOC(=O)c1ccc(-c3c4nc(c(-c5c(F)cc(S(=O)(=O)[O-])cc5F)c5ccc([nH]5)c(-c5c(F)cc(S(=O)(=O)[O-])cc5F)c5nc(c(-c6c(F)cc(S(=O)(=O)[O-])cc6F)c6ccc3[nH]6)C=C5)C=C4)cc1)[C@@H](C(F)(F)F)O2
REMARK SMILES IDX 17 1 16 2 15 3 13 4 14 5 12 6 4 7 5 8 9 9 6 10 8 11 10 12
REMARK SMILES IDX 7 13 92 14 11 15 87 16 2 17 1 18 3 19 88 20 89 21 90 22
REMARK SMILES IDX 91 23 18 24 19 25 20 26 21 27 22 28 86 29 23 30 85 31 24 32
REMARK SMILES IDX 25 33 26 34 79 35 27 36 84 37 78 38 80 39 28 40 83 41 77 42
REMARK SMILES IDX 76 43 29 45 63 46 42 47 62 48 43 49 46 50 61 51 81 52 44 53
REMARK SMILES IDX 45 54 60 56 82 57 47 58 30 59 31 60 40 61 32 62 33 63 39 64
REMARK SMILES IDX 41 65 34 66 35 67 36 68 37 69 38 70 64 71 65 72 74 73 66 74
REMARK SMILES IDX 67 75 73 76 75 77 68 78 69 79 70 80 71 81 72 82 48 83 49 84
REMARK SMILES IDX 58 85 50 86 51 87 57 88 59 89 52 90 53 91 54 92 55 93 56 94
REMARK H PARENT 80 44 46 55
REMARK Flexibility Score: inf
ROOT
ATOM      1  C   UNL     1      -9.840  -0.537   0.150  1.00  0.00     0.275 C 
ENDROOT
BRANCH   1   2
ATOM      2  C   UNL     1      -9.154  -1.292  -0.991  1.00  0.00     0.275 C 
BRANCH   2   3
ATOM      3  O   UNL     1      -7.716  -1.286  -0.847  1.00  0.00    -0.459 OA
BRANCH   3   4
ATOM      4  C   UNL     1      -7.050  -0.462  -1.688  1.00  0.00     0.338 C 
ATOM      5  O   UNL     1      -7.544   0.248  -2.551  1.00  0.00    -0.246 OA
BRANCH   4   6
ATOM      6  C   UNL     1      -5.601  -0.488  -1.410  1.00  0.00     0.087 C 
ATOM      7  C   UNL     1      -0.736   0.771  -0.997  1.00  0.00    -0.023 A 
ATOM      8  C   UNL     1      -1.443  -0.453  -1.040  1.00  0.00     0.052 A 
ATOM      9  C   UNL     1      -1.478   1.966  -1.004  1.00  0.00     0.045 A 
ATOM     10  C   UNL     1      -2.836  -0.487  -1.110  1.00  0.00     0.128 A 
ATOM     11  C   UNL     1      -2.869   1.931  -1.069  1.00  0.00     0.032 A 
ATOM     12  Cl  UNL     1      -0.742   3.529  -0.974  1.00  0.00    -0.084 Cl
ATOM     13  C   UNL     1      -3.540   0.708  -1.143  1.00  0.00     0.019 A 
ATOM     14  O   UNL     1      -3.434  -1.716  -1.145  1.00  0.00    -0.475 OA
ATOM     15  C   UNL     1      -4.974   0.688  -1.308  1.00  0.00     0.027 C 
ATOM     16  C   UNL     1      -4.871  -1.799  -1.399  1.00  0.00     0.316 C 
BRANCH   7  17
ATOM     17  C   UNL     1       0.786   0.777  -1.015  1.00  0.00     0.014 C 
ATOM     18  C   UNL     1       1.398  -0.175   0.015  1.00  0.00     0.012 C 
ATOM     19  C   UNL     1       1.292   0.471  -2.427  1.00  0.00     0.012 C 
ENDBRANCH   7  17
BRANCH  16  20
ATOM     20  C   UNL     1      -5.088  -2.559  -2.718  1.00  0.00     0.430 C 
ATOM     21  F   UNL     1      -4.422  -3.740  -2.722  1.00  0.00    -0.167 F 
ATOM     22  F   UNL     1      -6.395  -2.858  -2.914  1.00  0.00    -0.167 F 
ATOM     23  F   UNL     1      -4.667  -1.854  -3.792  1.00  0.00    -0.167 F 
ENDBRANCH  16  20
ENDBRANCH   4   6
ENDBRANCH   3   4
ENDBRANCH   2   3
ENDBRANCH   1   2
BRANCH   1  24
ATOM     24  O   UNL     1      -9.578   0.875   0.056  1.00  0.00    -0.458 OA
BRANCH  24  25
ATOM     25  C   UNL     1      -8.649   1.347   0.918  1.00  0.00     0.338 C 
ATOM     26  O   UNL     1      -8.044   0.722   1.771  1.00  0.00    -0.246 OA
BRANCH  25  27
ATOM     27  C   UNL     1      -8.352   2.750   0.597  1.00  0.00     0.060 A 
ATOM     28  C   UNL     1      -8.753   3.799   1.413  1.00  0.00     0.016 A 
ATOM     29  C   UNL     1      -7.507   2.993  -0.476  1.00  0.00     0.016 A 
ATOM     30  C   UNL     1      -8.305   5.095   1.119  1.00  0.00     0.010 A 
ATOM     31  C   UNL     1      -6.920   4.239  -0.652  1.00  0.00     0.010 A 
ATOM     32  C   UNL     1      -7.349   5.330   0.107  1.00  0.00    -0.014 A 
BRANCH  32  33
ATOM     33  C   UNL     1      -6.825   6.697  -0.191  1.00  0.00     0.031 A 
ATOM     34  C   UNL     1      -6.872   7.258  -1.600  1.00  0.00     0.074 A 
ATOM     35  C   UNL     1      -6.269   7.433   0.794  1.00  0.00     0.049 A 
ATOM     36  N   UNL     1      -6.455   8.419  -2.043  1.00  0.00    -0.248 NA
ATOM     37  C   UNL     1      -7.411   6.388  -2.660  1.00  0.00     0.031 C 
ATOM     38  C   UNL     1      -6.060   6.984   2.173  1.00  0.00     0.029 A 
ATOM     39  N   UNL     1      -5.794   8.722   0.796  1.00  0.00    -0.354 N 
ATOM     40  C   UNL     1      -6.659   8.400  -3.420  1.00  0.00     0.074 A 
ATOM     41  C   UNL     1      -7.144   7.082  -3.755  1.00  0.00     0.031 C 
ATOM     42  C   UNL     1      -5.587   8.004   2.905  1.00  0.00     0.029 A 
ATOM     43  C   UNL     1      -5.408   9.166   2.041  1.00  0.00     0.049 A 
ATOM     44  H   UNL     1      -5.735   9.276  -0.016  1.00  0.00     0.167 HD
ATOM     45  C   UNL     1      -6.516   9.400  -4.323  1.00  0.00     0.037 A 
ATOM     46  C   UNL     1      -4.977  10.377   2.447  1.00  0.00     0.037 A 
ATOM     47  C   UNL     1      -6.102  10.733  -3.980  1.00  0.00     0.049 A 
ATOM     48  C   UNL     1      -4.865  11.488   1.440  1.00  0.00     0.074 A 
ATOM     49  C   UNL     1      -6.002  11.843  -4.800  1.00  0.00     0.029 A 
ATOM     50  N   UNL     1      -5.731  11.141  -2.707  1.00  0.00    -0.354 N 
ATOM     51  N   UNL     1      -5.135  11.467   0.156  1.00  0.00    -0.248 NA
ATOM     52  C   UNL     1      -4.392  12.787   1.936  1.00  0.00     0.031 C 
ATOM     53  C   UNL     1      -5.536  12.914  -4.030  1.00  0.00     0.029 A 
ATOM     54  C   UNL     1      -5.387  12.482  -2.721  1.00  0.00     0.049 A 
ATOM     55  H   UNL     1      -5.715  10.563  -1.911  1.00  0.00     0.167 HD
ATOM     56  C   UNL     1      -4.870  12.751  -0.308  1.00  0.00     0.074 A 
ATOM     57  C   UNL     1      -4.449  13.530   0.839  1.00  0.00     0.031 C 
ATOM     58  C   UNL     1      -4.960  13.238  -1.571  1.00  0.00     0.037 A 
BRANCH  45  59
ATOM     59  C   UNL     1      -6.858   9.102  -5.762  1.00  0.00     0.058 A 
ATOM     60  C   UNL     1      -8.181   8.845  -6.164  1.00  0.00     0.135 A 
ATOM     61  C   UNL     1      -5.866   9.103  -6.756  1.00  0.00     0.135 A 
ATOM     62  F   UNL     1      -9.170   8.818  -5.256  1.00  0.00    -0.206 F 
ATOM     63  C   UNL     1      -8.501   8.563  -7.487  1.00  0.00     0.059 A 
ATOM     64  C   UNL     1      -6.169   8.857  -8.094  1.00  0.00     0.059 A 
ATOM     65  F   UNL     1      -4.586   9.347  -6.434  1.00  0.00    -0.206 F 
ATOM     66  C   UNL     1      -7.488   8.572  -8.447  1.00  0.00     0.060 A 
BRANCH  66  67
ATOM     67  S   UNL     1      -7.928   8.213 -10.160  1.00  0.00     0.124 S 
ATOM     68  O   UNL     1      -8.241   6.789 -10.089  1.00  0.00    -0.237 OA
ATOM     69  O   UNL     1      -9.066   9.100 -10.380  1.00  0.00    -0.237 OA
ATOM     70  O   UNL     1      -6.719   8.553 -10.903  1.00  0.00    -0.744 OA
ENDBRANCH  66  67
ENDBRANCH  45  59
BRANCH  46  71
ATOM     71  C   UNL     1      -4.685  10.611   3.888  1.00  0.00     0.058 A 
ATOM     72  C   UNL     1      -5.542  11.398   4.672  1.00  0.00     0.135 A 
ATOM     73  C   UNL     1      -3.583  10.016   4.521  1.00  0.00     0.135 A 
ATOM     74  F   UNL     1      -6.605  11.994   4.112  1.00  0.00    -0.206 F 
ATOM     75  C   UNL     1      -5.317  11.589   6.032  1.00  0.00     0.059 A 
ATOM     76  C   UNL     1      -3.351  10.171   5.885  1.00  0.00     0.059 A 
ATOM     77  F   UNL     1      -2.742   9.241   3.819  1.00  0.00    -0.206 F 
ATOM     78  C   UNL     1      -4.224  10.962   6.632  1.00  0.00     0.060 A 
BRANCH  78  79
ATOM     79  S   UNL     1      -3.991  11.154   8.413  1.00  0.00     0.124 S 
ATOM     80  O   UNL     1      -3.610  12.558   8.511  1.00  0.00    -0.237 OA
ATOM     81  O   UNL     1      -5.312  10.813   8.930  1.00  0.00    -0.237 OA
ATOM     82  O   UNL     1      -2.938  10.191   8.721  1.00  0.00    -0.744 OA
ENDBRANCH  78  79
ENDBRANCH  46  71
BRANCH  58  83
ATOM     83  C   UNL     1      -4.591  14.680  -1.782  1.00  0.00     0.058 A 
ATOM     84  C   UNL     1      -3.256  15.107  -1.726  1.00  0.00     0.135 A 
ATOM     85  C   UNL     1      -5.573  15.632  -2.100  1.00  0.00     0.135 A 
ATOM     86  F   UNL     1      -2.280  14.237  -1.422  1.00  0.00    -0.206 F 
ATOM     87  C   UNL     1      -2.909  16.434  -1.953  1.00  0.00     0.059 A 
ATOM     88  C   UNL     1      -5.245  16.959  -2.360  1.00  0.00     0.059 A 
ATOM     89  F   UNL     1      -6.864  15.272  -2.180  1.00  0.00    -0.206 F 
ATOM     90  C   UNL     1      -3.911  17.352  -2.272  1.00  0.00     0.060 A 
BRANCH  90  91
ATOM     91  S   UNL     1      -3.439  19.065  -2.589  1.00  0.00     0.124 S 
ATOM     92  O   UNL     1      -3.075  19.522  -1.251  1.00  0.00    -0.237 OA
ATOM     93  O   UNL     1      -2.333  18.914  -3.530  1.00  0.00    -0.237 OA
ATOM     94  O   UNL     1      -4.652  19.656  -3.145  1.00  0.00    -0.744 OA
ENDBRANCH  90  91
ENDBRANCH  58  83
ENDBRANCH  32  33
ENDBRANCH  25  27
ENDBRANCH  24  25
ENDBRANCH   1  24
TORSDOF 16
