REMARK SMILES CCCCc1cc(S(F)(F)(F)(F)F)cc2c1O[C@@H](C(F)(F)F)C(C(=O)OCCOC(=O)c1ccc(-c3c4nc(c(-c5c(F)cc(S(=O)(=O)[O-])cc5F)c5ccc([nH]5)c(-c5c(F)cc(S(=O)(=O)[O-])cc5F)c5nc(c(-c6c(F)cc(S(=O)(=O)[O-])cc6F)c6ccc3[nH]6)C=C5)C=C4)cc1)=C2
REMARK SMILES IDX 27 1 26 2 24 3 25 4 23 5 5 6 6 7 16 8 7 9 15 10 17 11 14 12
REMARK SMILES IDX 98 13 18 14 4 15 3 16 2 17 1 18 8 19 9 20 10 21 11 22 12 23
REMARK SMILES IDX 13 24 19 25 20 26 21 27 22 28 28 29 29 30 30 31 31 32 32 33
REMARK SMILES IDX 33 34 97 35 34 36 96 37 35 38 36 39 37 40 90 41 38 42 95 43
REMARK SMILES IDX 89 44 91 45 39 46 94 47 88 48 87 49 40 51 74 52 53 53 73 54
REMARK SMILES IDX 54 55 57 56 72 57 92 58 55 59 56 60 71 62 93 63 58 64 41 65
REMARK SMILES IDX 42 66 51 67 43 68 44 69 50 70 52 71 45 72 46 73 47 74 48 75
REMARK SMILES IDX 49 76 75 77 76 78 85 79 77 80 78 81 84 82 86 83 79 84 80 85
REMARK SMILES IDX 81 86 82 87 83 88 59 89 60 90 69 91 61 92 62 93 68 94 70 95
REMARK SMILES IDX 63 96 64 97 65 98 66 99 67 100
REMARK H PARENT 91 50 57 61
REMARK Flexibility Score: inf
ROOT
ATOM      1  C   UNL     1      -5.720  -8.924   1.755  1.00  0.00     0.275 C 
ENDROOT
BRANCH   1   2
ATOM      2  O   UNL     1      -5.081  -7.660   1.648  1.00  0.00    -0.459 OA
BRANCH   2   3
ATOM      3  C   UNL     1      -3.697  -7.588   1.336  1.00  0.00     0.338 C 
ATOM      4  O   UNL     1      -3.031  -8.655   1.152  1.00  0.00    -0.246 OA
BRANCH   3   5
ATOM      5  C   UNL     1      -3.014  -6.236   1.222  1.00  0.00     0.087 C 
ATOM      6  C   UNL     1      -0.965  -2.599   1.384  1.00  0.00    -0.004 A 
ATOM      7  C   UNL     1      -1.670  -1.409   1.384  1.00  0.00     0.032 A 
ATOM      8  C   UNL     1      -1.665  -3.781   1.384  1.00  0.00     0.131 A 
ATOM      9  C   UNL     1      -3.040  -1.402   1.389  1.00  0.00     0.108 A 
ATOM     10  C   UNL     1      -3.048  -3.813   1.370  1.00  0.00     0.019 A 
ATOM     11  O   UNL     1      -0.954  -4.951   1.498  1.00  0.00    -0.475 OA
ATOM     12  C   UNL     1      -3.725  -2.599   1.375  1.00  0.00     0.036 A 
ATOM     13  C   UNL     1      -3.696  -5.113   1.411  1.00  0.00     0.027 C 
ATOM     14  C   UNL     1      -1.531  -6.140   0.888  1.00  0.00     0.316 C 
BRANCH   6  15
ATOM     15  C   UNL     1       0.555  -2.599   1.384  1.00  0.00     0.039 C 
BRANCH  15  16
ATOM     16  C   UNL     1       1.062  -2.550  -0.048  1.00  0.00     0.005 C 
BRANCH  16  17
ATOM     17  C   UNL     1       0.555  -1.286  -0.722  1.00  0.00    -0.003 C 
ATOM     18  C   UNL     1       1.062  -0.070   0.036  1.00  0.00     0.004 C 
ENDBRANCH  16  17
ENDBRANCH  15  16
ENDBRANCH   6  15
BRANCH   9  19
ATOM     19  S   UNL     1      -3.943   0.166   1.413  1.00  0.00     0.310 S 
ATOM     20  F   UNL     1      -4.004   0.179   2.998  1.00  0.00    -0.094 F 
ATOM     21  F   UNL     1      -5.293  -0.646   1.437  1.00  0.00    -0.094 F 
ATOM     22  F   UNL     1      -4.720   1.513   1.433  1.00  0.00    -0.094 F 
ATOM     23  F   UNL     1      -2.582   0.959   1.530  1.00  0.00    -0.094 F 
ATOM     24  F   UNL     1      -3.143  -1.194   1.506  1.00  0.00    -0.094 F 
ENDBRANCH   9  19
BRANCH  14  25
ATOM     25  C   UNL     1      -0.820  -7.369   1.429  1.00  0.00     0.430 C 
ATOM     26  F   UNL     1      -1.337  -8.461   0.873  1.00  0.00    -0.167 F 
ATOM     27  F   UNL     1       0.476  -7.296   1.138  1.00  0.00    -0.167 F 
ATOM     28  F   UNL     1      -0.975  -7.427   2.748  1.00  0.00    -0.167 F 
ENDBRANCH  14  25
ENDBRANCH   3   5
ENDBRANCH   2   3
ENDBRANCH   1   2
BRANCH   1  29
ATOM     29  C   UNL     1      -5.603  -9.664   0.433  1.00  0.00     0.275 C 
BRANCH  29  30
ATOM     30  O   UNL     1      -4.232  -9.853   0.116  1.00  0.00    -0.458 OA
BRANCH  30  31
ATOM     31  C   UNL     1      -3.379  -8.728  -0.044  1.00  0.00     0.338 C 
ATOM     32  O   UNL     1      -3.843  -7.554   0.097  1.00  0.00    -0.246 OA
BRANCH  31  33
ATOM     33  C   UNL     1      -1.911  -8.930  -0.384  1.00  0.00     0.060 A 
ATOM     34  C   UNL     1      -0.951  -8.200   0.297  1.00  0.00     0.016 A 
ATOM     35  C   UNL     1      -1.573  -9.803  -1.326  1.00  0.00     0.016 A 
ATOM     36  C   UNL     1       0.334  -8.252  -0.293  1.00  0.00     0.010 A 
ATOM     37  C   UNL     1      -0.273  -9.895  -1.760  1.00  0.00     0.010 A 
ATOM     38  C   UNL     1       0.718  -9.160  -1.172  1.00  0.00    -0.014 A 
BRANCH  38  39
ATOM     39  C   UNL     1       2.184  -9.376  -1.512  1.00  0.00     0.031 A 
ATOM     40  C   UNL     1       2.586  -9.189  -2.836  1.00  0.00     0.074 A 
ATOM     41  C   UNL     1       3.039  -9.748  -0.489  1.00  0.00     0.049 A 
ATOM     42  N   UNL     1       3.818  -9.295  -3.334  1.00  0.00    -0.248 NA
ATOM     43  C   UNL     1       1.673  -8.827  -3.930  1.00  0.00     0.031 C 
ATOM     44  C   UNL     1       2.643  -9.930   0.851  1.00  0.00     0.029 A 
ATOM     45  N   UNL     1       4.390 -10.006  -0.568  1.00  0.00    -0.354 N 
ATOM     46  C   UNL     1       3.812  -9.024  -4.641  1.00  0.00     0.074 A 
ATOM     47  C   UNL     1       2.431  -8.726  -5.045  1.00  0.00     0.031 C 
ATOM     48  C   UNL     1       3.737 -10.303   1.567  1.00  0.00     0.029 A 
ATOM     49  C   UNL     1       4.835 -10.360   0.687  1.00  0.00     0.049 A 
ATOM     50  H   UNL     1       4.942  -9.947  -1.380  1.00  0.00     0.167 HD
ATOM     51  C   UNL     1       4.902  -9.013  -5.512  1.00  0.00     0.037 A 
ATOM     52  C   UNL     1       6.120 -10.717   1.062  1.00  0.00     0.037 A 
ATOM     53  C   UNL     1       6.196  -9.328  -5.127  1.00  0.00     0.049 A 
ATOM     54  C   UNL     1       7.201 -10.762   0.179  1.00  0.00     0.074 A 
ATOM     55  C   UNL     1       7.308  -9.314  -5.990  1.00  0.00     0.029 A 
ATOM     56  N   UNL     1       6.636  -9.706  -3.878  1.00  0.00    -0.354 N 
ATOM     57  N   UNL     1       7.201 -10.453  -1.118  1.00  0.00    -0.248 NA
ATOM     58  C   UNL     1       8.560 -11.171   0.559  1.00  0.00     0.031 C 
ATOM     59  C   UNL     1       8.402  -9.687  -5.274  1.00  0.00     0.029 A 
ATOM     60  C   UNL     1       7.991  -9.942  -3.952  1.00  0.00     0.049 A 
ATOM     61  H   UNL     1       6.078  -9.793  -3.071  1.00  0.00     0.167 HD
ATOM     62  C   UNL     1       8.427 -10.600  -1.626  1.00  0.00     0.074 A 
ATOM     63  C   UNL     1       9.317 -11.071  -0.556  1.00  0.00     0.031 C 
ATOM     64  C   UNL     1       8.839 -10.357  -2.937  1.00  0.00     0.037 A 
BRANCH  51  65
ATOM     65  C   UNL     1       4.658  -8.633  -6.963  1.00  0.00     0.058 A 
ATOM     66  C   UNL     1       4.222  -7.347  -7.234  1.00  0.00     0.135 A 
ATOM     67  C   UNL     1       4.939  -9.486  -7.942  1.00  0.00     0.135 A 
ATOM     68  F   UNL     1       4.172  -6.389  -6.313  1.00  0.00    -0.206 F 
ATOM     69  C   UNL     1       3.835  -7.144  -8.580  1.00  0.00     0.059 A 
ATOM     70  C   UNL     1       4.659  -9.167  -9.249  1.00  0.00     0.059 A 
ATOM     71  F   UNL     1       5.497 -10.658  -7.654  1.00  0.00    -0.206 F 
ATOM     72  C   UNL     1       4.171  -7.934  -9.583  1.00  0.00     0.060 A 
BRANCH  72  73
ATOM     73  S   UNL     1       3.994  -7.414 -11.307  1.00  0.00     0.124 S 
ATOM     74  O   UNL     1       2.525  -7.096 -11.596  1.00  0.00    -0.237 OA
ATOM     75  O   UNL     1       4.844  -6.166 -11.553  1.00  0.00    -0.237 OA
ATOM     76  O   UNL     1       4.518  -8.673 -12.339  1.00  0.00    -0.744 OA
ENDBRANCH  72  73
ENDBRANCH  51  65
BRANCH  52  77
ATOM     77  C   UNL     1       6.367 -11.081   2.518  1.00  0.00     0.058 A 
ATOM     78  C   UNL     1       7.340 -10.403   3.234  1.00  0.00     0.135 A 
ATOM     79  C   UNL     1       5.705 -12.101   3.050  1.00  0.00     0.135 A 
ATOM     80  F   UNL     1       7.844  -9.235   2.846  1.00  0.00    -0.206 F 
ATOM     81  C   UNL     1       7.749 -11.067   4.415  1.00  0.00     0.059 A 
ATOM     82  C   UNL     1       6.072 -12.613   4.271  1.00  0.00     0.059 A 
ATOM     83  F   UNL     1       4.676 -12.633   2.396  1.00  0.00    -0.206 F 
ATOM     84  C   UNL     1       7.066 -12.029   5.008  1.00  0.00     0.060 A 
BRANCH  84  85
ATOM     85  S   UNL     1       7.426 -12.548   6.704  1.00  0.00     0.124 S 
ATOM     86  O   UNL     1       8.870 -13.048   6.789  1.00  0.00    -0.237 OA
ATOM     87  O   UNL     1       7.240 -11.361   7.651  1.00  0.00    -0.237 OA
ATOM     88  O   UNL     1       6.360 -13.808   7.153  1.00  0.00    -0.744 OA
ENDBRANCH  84  85
ENDBRANCH  52  77
BRANCH  64  89
ATOM     89  C   UNL     1      10.308 -10.559  -3.272  1.00  0.00     0.058 A 
ATOM     90  C   UNL     1      10.878 -11.809  -3.098  1.00  0.00     0.135 A 
ATOM     91  C   UNL     1      11.020  -9.535  -3.728  1.00  0.00     0.135 A 
ATOM     92  F   UNL     1      10.161 -12.910  -2.891  1.00  0.00    -0.206 F 
ATOM     93  C   UNL     1      12.291 -11.809  -3.160  1.00  0.00     0.059 A 
ATOM     94  C   UNL     1      12.379  -9.647  -3.894  1.00  0.00     0.059 A 
ATOM     95  F   UNL     1      10.412  -8.390  -4.026  1.00  0.00    -0.206 F 
ATOM     96  C   UNL     1      13.018 -10.837  -3.682  1.00  0.00     0.060 A 
BRANCH  96  97
ATOM     97  S   UNL     1      14.765 -11.069  -4.096  1.00  0.00     0.124 S 
ATOM     98  O   UNL     1      15.543 -11.440  -2.832  1.00  0.00    -0.237 OA
ATOM     99  O   UNL     1      14.900 -12.193  -5.127  1.00  0.00    -0.237 OA
ATOM    100  O   UNL     1      15.393  -9.619  -4.748  1.00  0.00    -0.744 OA
ENDBRANCH  96  97
ENDBRANCH  64  89
ENDBRANCH  38  39
ENDBRANCH  31  33
ENDBRANCH  30  31
ENDBRANCH  29  30
ENDBRANCH   1  29
TORSDOF 19
