REMARK SMILES CC(C)(Br)[C@H](Br)C(=O)OCCOC(=O)c1ccc(-c2c3nc(c(-c4c(F)cc(S(=O)(=O)[O-])cc4F)c4ccc([nH]4)c(-c4c(F)cc(S(=O)(=O)[O-])cc4F)c4nc(c(-c5c(F)cc(S(=O)(=O)[O-])cc5F)c5ccc2[nH]5)C=C4)C=C3)cc1
REMARK SMILES IDX 11 1 10 2 9 3 7 4 8 5 5 6 6 7 2 8 1 9 3 10 4 11 12 12 13 13
REMARK SMILES IDX 14 14 15 15 16 16 80 17 17 18 79 19 18 20 19 21 20 22 73 23
REMARK SMILES IDX 21 24 78 25 72 26 74 27 22 28 77 29 71 30 70 31 23 33 57 34
REMARK SMILES IDX 36 35 56 36 37 37 40 38 55 39 75 40 38 41 39 42 54 44 76 45
REMARK SMILES IDX 41 46 24 47 25 48 34 49 26 50 27 51 33 52 35 53 28 54 29 55
REMARK SMILES IDX 30 56 31 57 32 58 58 59 59 60 68 61 60 62 61 63 67 64 69 65
REMARK SMILES IDX 62 66 63 67 64 68 65 69 66 70 42 71 43 72 52 73 44 74 45 75
REMARK SMILES IDX 51 76 53 77 46 78 47 79 48 80 49 81 50 82
REMARK H PARENT 74 32 40 43
REMARK Flexibility Score: inf
ROOT
ATOM      1  C   UNL     1       5.216  -1.869  -0.074  1.00  0.00     0.275 C 
ENDROOT
BRANCH   1   2
ATOM      2  C   UNL     1       4.741  -1.012  -1.253  1.00  0.00     0.274 C 
BRANCH   2   3
ATOM      3  O   UNL     1       3.337  -0.701  -1.171  1.00  0.00    -0.461 OA
BRANCH   3   4
ATOM      4  C   UNL     1       2.483  -1.552  -1.799  1.00  0.00     0.321 C 
ATOM      5  O   UNL     1       2.845  -2.510  -2.476  1.00  0.00    -0.251 OA
BRANCH   4   6
ATOM      6  C   UNL     1       1.013  -1.207  -1.617  1.00  0.00     0.183 C 
ATOM      7  Br  UNL     1       0.739  -0.327   0.123  1.00  0.00    -0.075 Br
BRANCH   6   8
ATOM      8  C   UNL     1       0.274  -0.543  -2.805  1.00  0.00     0.043 C 
ATOM      9  C   UNL     1      -0.533   0.726  -2.488  1.00  0.00     0.025 C 
ATOM     10  C   UNL     1      -0.672  -1.570  -3.458  1.00  0.00     0.025 C 
ATOM     11  Br  UNL     1       1.534   0.026  -4.247  1.00  0.00    -0.084 Br
ENDBRANCH   6   8
ENDBRANCH   4   6
ENDBRANCH   3   4
ENDBRANCH   2   3
ENDBRANCH   1   2
BRANCH   1  12
ATOM     12  O   UNL     1       4.768  -3.234  -0.180  1.00  0.00    -0.458 OA
BRANCH  12  13
ATOM     13  C   UNL     1       3.632  -3.522   0.497  1.00  0.00     0.338 C 
ATOM     14  O   UNL     1       2.982  -2.764   1.196  1.00  0.00    -0.246 OA
BRANCH  13  15
ATOM     15  C   UNL     1       3.178  -4.882   0.167  1.00  0.00     0.060 A 
ATOM     16  C   UNL     1       1.946  -5.019  -0.478  1.00  0.00     0.016 A 
ATOM     17  C   UNL     1       3.898  -6.008   0.567  1.00  0.00     0.016 A 
ATOM     18  C   UNL     1       1.422  -6.284  -0.726  1.00  0.00     0.010 A 
ATOM     19  C   UNL     1       3.369  -7.280   0.319  1.00  0.00     0.010 A 
ATOM     20  C   UNL     1       2.123  -7.424  -0.318  1.00  0.00    -0.014 A 
BRANCH  20  21
ATOM     21  C   UNL     1       1.517  -8.763  -0.510  1.00  0.00     0.031 A 
ATOM     22  C   UNL     1       0.924  -9.488   0.663  1.00  0.00     0.074 A 
ATOM     23  C   UNL     1       1.474  -9.309  -1.740  1.00  0.00     0.049 A 
ATOM     24  N   UNL     1       0.419 -10.693   0.721  1.00  0.00    -0.248 NA
ATOM     25  C   UNL     1       0.894  -8.759   1.941  1.00  0.00     0.031 C 
ATOM     26  C   UNL     1       1.973  -8.676  -2.962  1.00  0.00     0.029 A 
ATOM     27  N   UNL     1       0.990 -10.520  -2.163  1.00  0.00    -0.354 N 
ATOM     28  C   UNL     1       0.031 -10.878   2.042  1.00  0.00     0.074 A 
ATOM     29  C   UNL     1       0.367  -9.664   2.755  1.00  0.00     0.031 C 
ATOM     30  C   UNL     1       1.772  -9.508  -3.997  1.00  0.00     0.029 A 
ATOM     31  C   UNL     1       1.171 -10.745  -3.506  1.00  0.00     0.049 A 
ATOM     32  H   UNL     1       0.554 -11.166  -1.562  1.00  0.00     0.167 HD
ATOM     33  C   UNL     1      -0.553 -11.963   2.606  1.00  0.00     0.037 A 
ATOM     34  C   UNL     1       0.910 -11.838  -4.250  1.00  0.00     0.037 A 
ATOM     35  C   UNL     1      -0.898 -13.161   1.886  1.00  0.00     0.049 A 
ATOM     36  C   UNL     1       0.307 -13.048  -3.592  1.00  0.00     0.074 A 
ATOM     37  C   UNL     1      -1.497 -14.313   2.366  1.00  0.00     0.029 A 
ATOM     38  N   UNL     1      -0.674 -13.362   0.531  1.00  0.00    -0.354 N 
ATOM     39  N   UNL     1      -0.039 -13.217  -2.337  1.00  0.00    -0.248 NA
ATOM     40  C   UNL     1       0.067 -14.220  -4.446  1.00  0.00     0.031 C 
ATOM     41  C   UNL     1      -1.607 -15.223   1.308  1.00  0.00     0.029 A 
ATOM     42  C   UNL     1      -1.109 -14.624   0.161  1.00  0.00     0.049 A 
ATOM     43  H   UNL     1      -0.267 -12.704  -0.077  1.00  0.00     0.167 HD
ATOM     44  C   UNL     1      -0.550 -14.507  -2.255  1.00  0.00     0.074 A 
ATOM     45  C   UNL     1      -0.481 -15.070  -3.588  1.00  0.00     0.031 C 
ATOM     46  C   UNL     1      -1.033 -15.166  -1.172  1.00  0.00     0.037 A 
BRANCH  33  47
ATOM     47  C   UNL     1      -0.827 -11.912   4.082  1.00  0.00     0.058 A 
ATOM     48  C   UNL     1      -1.878 -11.148   4.613  1.00  0.00     0.135 A 
ATOM     49  C   UNL     1      -0.037 -12.653   4.975  1.00  0.00     0.135 A 
ATOM     50  F   UNL     1      -2.651 -10.407   3.804  1.00  0.00    -0.206 F 
ATOM     51  C   UNL     1      -2.122 -11.102   5.982  1.00  0.00     0.059 A 
ATOM     52  C   UNL     1      -0.276 -12.638   6.346  1.00  0.00     0.059 A 
ATOM     53  F   UNL     1       0.982 -13.397   4.518  1.00  0.00    -0.206 F 
ATOM     54  C   UNL     1      -1.311 -11.847   6.841  1.00  0.00     0.060 A 
BRANCH  54  55
ATOM     55  S   UNL     1      -1.632 -11.774   8.617  1.00  0.00     0.124 S 
ATOM     56  O   UNL     1      -1.074 -10.469   8.959  1.00  0.00    -0.237 OA
ATOM     57  O   UNL     1      -3.086 -11.877   8.679  1.00  0.00    -0.237 OA
ATOM     58  O   UNL     1      -0.903 -12.925   9.141  1.00  0.00    -0.744 OA
ENDBRANCH  54  55
ENDBRANCH  33  47
BRANCH  34  59
ATOM     59  C   UNL     1       1.245 -11.843  -5.697  1.00  0.00     0.058 A 
ATOM     60  C   UNL     1       0.240 -11.801  -6.673  1.00  0.00     0.135 A 
ATOM     61  C   UNL     1       2.580 -11.873  -6.131  1.00  0.00     0.135 A 
ATOM     62  F   UNL     1      -1.050 -11.781  -6.307  1.00  0.00    -0.206 F 
ATOM     63  C   UNL     1       0.544 -11.795  -8.031  1.00  0.00     0.059 A 
ATOM     64  C   UNL     1       2.910 -11.846  -7.482  1.00  0.00     0.059 A 
ATOM     65  F   UNL     1       3.578 -11.904  -5.235  1.00  0.00    -0.206 F 
ATOM     66  C   UNL     1       1.883 -11.815  -8.425  1.00  0.00     0.060 A 
BRANCH  66  67
ATOM     67  S   UNL     1       2.274 -11.748 -10.188  1.00  0.00     0.124 S 
ATOM     68  O   UNL     1       1.998 -13.119 -10.601  1.00  0.00    -0.237 OA
ATOM     69  O   UNL     1       1.341 -10.735 -10.673  1.00  0.00    -0.237 OA
ATOM     70  O   UNL     1       3.679 -11.352 -10.203  1.00  0.00    -0.744 OA
ENDBRANCH  66  67
ENDBRANCH  34  59
BRANCH  46  71
ATOM     71  C   UNL     1      -1.543 -16.562  -1.390  1.00  0.00     0.058 A 
ATOM     72  C   UNL     1      -0.668 -17.645  -1.559  1.00  0.00     0.135 A 
ATOM     73  C   UNL     1      -2.922 -16.824  -1.383  1.00  0.00     0.135 A 
ATOM     74  F   UNL     1       0.659 -17.444  -1.580  1.00  0.00    -0.206 F 
ATOM     75  C   UNL     1      -1.143 -18.941  -1.733  1.00  0.00     0.059 A 
ATOM     76  C   UNL     1      -3.419 -18.115  -1.535  1.00  0.00     0.059 A 
ATOM     77  F   UNL     1      -3.800 -15.823  -1.216  1.00  0.00    -0.206 F 
ATOM     78  C   UNL     1      -2.521 -19.166  -1.720  1.00  0.00     0.060 A 
BRANCH  78  79
ATOM     79  S   UNL     1      -3.128 -20.855  -1.914  1.00  0.00     0.124 S 
ATOM     80  O   UNL     1      -2.985 -21.055  -3.352  1.00  0.00    -0.237 OA
ATOM     81  O   UNL     1      -2.211 -21.619  -1.073  1.00  0.00    -0.237 OA
ATOM     82  O   UNL     1      -4.501 -20.779  -1.423  1.00  0.00    -0.744 OA
ENDBRANCH  78  79
ENDBRANCH  46  71
ENDBRANCH  20  21
ENDBRANCH  13  15
ENDBRANCH  12  13
ENDBRANCH   1  12
TORSDOF 15
