REMARK SMILES Cc1cc(/C=C2/C(=O)NC(=S)N=C2OCCOC(=O)c2ccc(-c3c4nc(c(-c5c(F)cc(S(=O)(=O)[O-])cc5F)c5ccc([nH]5)c(-c5c(F)cc(S(=O)(=O)[O-])cc5F)c5nc(c(-c6c(F)cc(S(=O)(=O)[O-])cc6F)c6ccc3[nH]6)C=C5)C=C4)cc2)c(C)n1-c1cccc(C(=O)[O-])c1
REMARK SMILES IDX 16 1 15 2 14 3 13 4 5 5 6 6 7 7 8 8 9 9 12 10 10 11 11 13
REMARK SMILES IDX 4 14 1 15 2 16 3 17 88 18 86 19 87 20 89 21 90 22 97 23
REMARK SMILES IDX 91 24 93 25 92 26 94 27 95 28 96 29 17 30 18 31 19 32 20 33
REMARK SMILES IDX 21 34 85 35 22 36 84 37 23 38 24 39 25 40 78 41 26 42 83 43
REMARK SMILES IDX 77 44 79 45 27 46 82 47 76 48 75 49 28 51 62 52 41 53 61 54
REMARK SMILES IDX 42 55 45 56 60 57 80 58 43 59 44 60 59 62 81 63 46 64 29 65
REMARK SMILES IDX 30 66 39 67 31 68 32 69 38 70 40 71 33 72 34 73 35 74 36 75
REMARK SMILES IDX 37 76 63 77 64 78 73 79 65 80 66 81 72 82 74 83 67 84 68 85
REMARK SMILES IDX 69 86 70 87 71 88 47 89 48 90 57 91 49 92 50 93 56 94 58 95
REMARK SMILES IDX 51 96 52 97 53 98 54 99 55 100
REMARK H PARENT 9 12 79 50 45 61
REMARK Flexibility Score: inf
ROOT
ATOM      1  C   UNL     1       1.919   3.106  -8.071  1.00  0.00     0.274 C 
ENDROOT
BRANCH   1   2
ATOM      2  C   UNL     1       1.008   3.425  -6.808  1.00  0.00     0.273 C 
BRANCH   2   3
ATOM      3  O   UNL     1       0.607   2.267  -6.014  1.00  0.00    -0.473 OA
BRANCH   3   4
ATOM      4  C   UNL     1      -0.523   1.679  -6.450  1.00  0.00     0.229 C 
ATOM      5  C   UNL     1      -0.678  -0.230  -4.686  1.00  0.00     0.029 C 
ATOM      6  C   UNL     1      -0.809   0.334  -5.913  1.00  0.00     0.103 C 
ATOM      7  C   UNL     1      -1.505  -0.514  -6.932  1.00  0.00     0.262 C 
ATOM      8  O   UNL     1      -1.670  -1.725  -6.823  1.00  0.00    -0.269 OA
ATOM      9  N   UNL     1      -2.059   0.186  -7.974  1.00  0.00    -0.297 N 
ATOM     10  N   UNL     1      -1.186   2.267  -7.383  1.00  0.00    -0.184 NA
ATOM     11  C   UNL     1      -2.031   1.541  -8.150  1.00  0.00     0.203 C 
ATOM     12  H   UNL     1      -2.523  -0.341  -8.664  1.00  0.00     0.172 HD
ATOM     13  S   UNL     1      -2.938   2.225  -9.381  1.00  0.00    -0.038 S 
BRANCH   5  14
ATOM     14  C   UNL     1      -0.240   0.241  -3.395  1.00  0.00    -0.003 A 
ATOM     15  C   UNL     1       1.164  -0.261   0.045  1.00  0.00     0.065 C 
ATOM     16  C   UNL     1       0.624   0.171  -1.280  1.00  0.00     0.020 A 
ATOM     17  C   UNL     1       0.278  -0.607  -2.371  1.00  0.00     0.031 A 
ATOM     18  N   UNL     1       0.355   1.492  -1.617  1.00  0.00    -0.318 N 
ATOM     19  C   UNL     1      -0.362   1.500  -2.827  1.00  0.00     0.027 A 
ATOM     20  C   UNL     1      -1.003   2.722  -3.387  1.00  0.00     0.065 C 
BRANCH  18  21
ATOM     21  C   UNL     1       0.877   2.651  -0.965  1.00  0.00     0.046 A 
ATOM     22  C   UNL     1       0.071   3.775  -0.767  1.00  0.00     0.026 A 
ATOM     23  C   UNL     1       2.256   2.729  -0.714  1.00  0.00     0.036 A 
ATOM     24  C   UNL     1       0.644   5.014  -0.490  1.00  0.00     0.003 A 
ATOM     25  C   UNL     1       2.827   3.971  -0.394  1.00  0.00    -0.001 A 
ATOM     26  C   UNL     1       2.022   5.117  -0.333  1.00  0.00     0.010 A 
BRANCH  25  27
ATOM     27  C   UNL     1       4.277   4.139  -0.156  1.00  0.00     0.072 C 
ATOM     28  O   UNL     1       4.843   5.207   0.070  1.00  0.00    -0.545 OA
ATOM     29  O   UNL     1       4.957   2.985  -0.169  1.00  0.00    -0.545 OA
ENDBRANCH  25  27
ENDBRANCH  18  21
ENDBRANCH   5  14
ENDBRANCH   3   4
ENDBRANCH   2   3
ENDBRANCH   1   2
BRANCH   1  30
ATOM     30  O   UNL     1       1.465   2.865  -9.522  1.00  0.00    -0.458 OA
BRANCH  30  31
ATOM     31  C   UNL     1       1.208   1.609 -10.108  1.00  0.00     0.338 C 
ATOM     32  O   UNL     1       0.876   0.666  -9.396  1.00  0.00    -0.246 OA
BRANCH  31  33
ATOM     33  C   UNL     1       1.369   1.420 -11.737  1.00  0.00     0.060 A 
ATOM     34  C   UNL     1       0.705   0.565 -12.698  1.00  0.00     0.016 A 
ATOM     35  C   UNL     1       2.314   2.094 -12.426  1.00  0.00     0.016 A 
ATOM     36  C   UNL     1       0.924   0.445 -14.336  1.00  0.00     0.010 A 
ATOM     37  C   UNL     1       2.445   1.951 -13.937  1.00  0.00     0.010 A 
ATOM     38  C   UNL     1       1.860   1.165 -15.154  1.00  0.00    -0.014 A 
BRANCH  38  39
ATOM     39  C   UNL     1       1.618   1.815 -16.964  1.00  0.00     0.031 A 
ATOM     40  C   UNL     1       0.399   2.607 -16.603  1.00  0.00     0.074 A 
ATOM     41  C   UNL     1       2.196   2.290 -18.413  1.00  0.00     0.049 A 
ATOM     42  N   UNL     1       0.513   3.014 -15.351  1.00  0.00    -0.248 NA
ATOM     43  C   UNL     1      -0.165   3.698 -17.369  1.00  0.00     0.031 C 
ATOM     44  C   UNL     1       3.552   2.084 -19.081  1.00  0.00     0.029 A 
ATOM     45  N   UNL     1       1.677   3.250 -19.708  1.00  0.00    -0.354 N 
ATOM     46  C   UNL     1       1.381   4.042 -15.630  1.00  0.00     0.074 A 
ATOM     47  C   UNL     1       0.358   4.649 -16.557  1.00  0.00     0.031 C 
ATOM     48  C   UNL     1       3.859   2.813 -20.214  1.00  0.00     0.029 A 
ATOM     49  C   UNL     1       2.805   3.732 -20.778  1.00  0.00     0.049 A 
ATOM     50  H   UNL     1       0.732   3.506 -19.809  1.00  0.00     0.167 HD
ATOM     51  C   UNL     1       2.832   4.059 -15.761  1.00  0.00     0.037 A 
ATOM     52  C   UNL     1       3.144   4.666 -21.977  1.00  0.00     0.037 A 
ATOM     53  C   UNL     1       3.203   5.410 -16.073  1.00  0.00     0.049 A 
ATOM     54  C   UNL     1       3.943   5.591 -21.133  1.00  0.00     0.074 A 
ATOM     55  C   UNL     1       2.510   6.353 -16.806  1.00  0.00     0.029 A 
ATOM     56  N   UNL     1       4.499   5.666 -16.450  1.00  0.00    -0.354 N 
ATOM     57  N   UNL     1       5.217   5.619 -20.914  1.00  0.00    -0.248 NA
ATOM     58  C   UNL     1       3.152   6.726 -20.587  1.00  0.00     0.031 C 
ATOM     59  C   UNL     1       3.003   5.820 -17.995  1.00  0.00     0.029 A 
ATOM     60  C   UNL     1       4.386   5.793 -17.800  1.00  0.00     0.049 A 
ATOM     61  H   UNL     1       5.304   5.739 -15.888  1.00  0.00     0.167 HD
ATOM     62  C   UNL     1       5.264   6.463 -19.819  1.00  0.00     0.074 A 
ATOM     63  C   UNL     1       4.111   7.358 -19.911  1.00  0.00     0.031 C 
ATOM     64  C   UNL     1       5.529   5.816 -18.650  1.00  0.00     0.037 A 
BRANCH  51  65
ATOM     65  C   UNL     1       4.224   2.915 -15.584  1.00  0.00     0.058 A 
ATOM     66  C   UNL     1       4.402   1.498 -15.930  1.00  0.00     0.135 A 
ATOM     67  C   UNL     1       5.258   3.286 -14.677  1.00  0.00     0.135 A 
ATOM     68  F   UNL     1       3.705   0.835 -16.855  1.00  0.00    -0.206 F 
ATOM     69  C   UNL     1       5.222   0.569 -15.249  1.00  0.00     0.059 A 
ATOM     70  C   UNL     1       6.153   2.373 -14.043  1.00  0.00     0.059 A 
ATOM     71  F   UNL     1       5.368   4.565 -14.291  1.00  0.00    -0.206 F 
ATOM     72  C   UNL     1       6.046   1.003 -14.247  1.00  0.00     0.060 A 
BRANCH  72  73
ATOM     73  S   UNL     1       6.907  -0.214 -13.213  1.00  0.00     0.124 S 
ATOM     74  O   UNL     1       5.945  -0.418 -12.131  1.00  0.00    -0.237 OA
ATOM     75  O   UNL     1       7.084  -1.361 -14.098  1.00  0.00    -0.237 OA
ATOM     76  O   UNL     1       8.128   0.485 -12.831  1.00  0.00    -0.744 OA
ENDBRANCH  72  73
ENDBRANCH  51  65
BRANCH  52  77
ATOM     77  C   UNL     1       3.072   5.855 -23.360  1.00  0.00     0.058 A 
ATOM     78  C   UNL     1       3.141   5.595 -24.768  1.00  0.00     0.135 A 
ATOM     79  C   UNL     1       3.326   7.319 -23.287  1.00  0.00     0.135 A 
ATOM     80  F   UNL     1       3.364   4.344 -25.201  1.00  0.00    -0.206 F 
ATOM     81  C   UNL     1       3.129   6.635 -25.856  1.00  0.00     0.059 A 
ATOM     82  C   UNL     1       3.212   8.338 -24.281  1.00  0.00     0.059 A 
ATOM     83  F   UNL     1       3.984   7.898 -22.282  1.00  0.00    -0.206 F 
ATOM     84  C   UNL     1       3.061   8.006 -25.590  1.00  0.00     0.060 A 
BRANCH  84  85
ATOM     85  S   UNL     1       2.798   9.360 -26.806  1.00  0.00     0.124 S 
ATOM     86  O   UNL     1       4.059   9.429 -27.536  1.00  0.00    -0.237 OA
ATOM     87  O   UNL     1       1.650   8.876 -27.567  1.00  0.00    -0.237 OA
ATOM     88  O   UNL     1       2.513  10.528 -25.970  1.00  0.00    -0.744 OA
ENDBRANCH  84  85
ENDBRANCH  52  77
BRANCH  64  89
ATOM     89  C   UNL     1       6.693   4.881 -18.668  1.00  0.00     0.058 A 
ATOM     90  C   UNL     1       7.922   5.311 -19.174  1.00  0.00     0.135 A 
ATOM     91  C   UNL     1       6.629   3.545 -18.267  1.00  0.00     0.135 A 
ATOM     92  F   UNL     1       8.091   6.597 -19.519  1.00  0.00    -0.206 F 
ATOM     93  C   UNL     1       8.999   4.445 -19.321  1.00  0.00     0.059 A 
ATOM     94  C   UNL     1       7.678   2.642 -18.410  1.00  0.00     0.059 A 
ATOM     95  F   UNL     1       5.513   3.086 -17.723  1.00  0.00    -0.206 F 
ATOM     96  C   UNL     1       8.866   3.108 -18.949  1.00  0.00     0.060 A 
BRANCH  96  97
ATOM     97  S   UNL     1      10.256   1.992 -19.201  1.00  0.00     0.124 S 
ATOM     98  O   UNL     1      10.781   2.430 -20.492  1.00  0.00    -0.237 OA
ATOM     99  O   UNL     1      11.091   2.306 -18.047  1.00  0.00    -0.237 OA
ATOM    100  O   UNL     1       9.636   0.672 -19.209  1.00  0.00    -0.744 OA
ENDBRANCH  96  97
ENDBRANCH  64  89
ENDBRANCH  38  39
ENDBRANCH  31  33
ENDBRANCH  30  31
ENDBRANCH   1  30
TORSDOF 16
