REMARK SMILES CC[C@@H](C)[C@H](NC(=O)[C@H](C)N1C(=O)N2CCC3=c4cc(OC)ccc4=N[C@H]3[C@@]2(C)C1=O)C(=O)OCCOC(=O)c1ccc(-c2c3nc(c(-c4c(F)cc(S(=O)(=O)[O-])cc4F)c4ccc([nH]4)c(-c4c(F)cc(S(=O)(=O)[O-])cc4F)c4nc(c(-c5c(F)cc(S(=O)(=O)[O-])cc5F)c5ccc2[nH]5)C=C4)C=C3)cc1
REMARK SMILES IDX 35 1 34 2 32 3 33 4 5 5 3 6 4 7 2 8 1 9 6 10 7 11 8 13 9 14
REMARK SMILES IDX 10 15 11 16 12 17 30 18 14 19 13 20 28 21 31 22 15 23 27 24
REMARK SMILES IDX 29 25 16 26 17 27 26 28 18 29 25 30 19 31 24 32 20 33 23 34
REMARK SMILES IDX 21 35 22 36 36 37 37 38 38 39 39 40 40 41 41 42 105 43 42 44
REMARK SMILES IDX 104 45 43 46 44 47 45 48 98 49 46 50 103 51 97 52 99 53
REMARK SMILES IDX 47 54 102 55 96 56 95 57 48 59 82 60 61 61 81 62 62 63 65 64
REMARK SMILES IDX 80 65 100 66 63 67 64 68 79 70 101 71 66 72 49 73 50 74
REMARK SMILES IDX 59 75 51 76 52 77 58 78 60 79 53 80 54 81 55 82 56 83 57 84
REMARK SMILES IDX 83 85 84 86 93 87 85 88 86 89 92 90 94 91 87 92 88 93 89 94
REMARK SMILES IDX 90 95 91 96 67 97 68 98 77 99 69 100 70 101 76 102 78 103
REMARK SMILES IDX 71 104 72 105 73 106 74 107 75 108
REMARK H PARENT 6 12 99 58 65 69
REMARK Flexibility Score: inf
ROOT
ATOM      1  C   UNL     1       6.860  -1.811  -3.518  1.00  0.00     0.274 C 
ENDROOT
BRANCH   1   2
ATOM      2  O   UNL     1       6.020  -1.692  -4.679  1.00  0.00    -0.461 OA
BRANCH   2   3
ATOM      3  C   UNL     1       6.408  -2.165  -5.876  1.00  0.00     0.329 C 
ATOM      4  O   UNL     1       7.545  -2.528  -6.133  1.00  0.00    -0.250 OA
BRANCH   3   5
ATOM      5  C   UNL     1       5.212  -2.220  -6.859  1.00  0.00     0.195 C 
BRANCH   5   6
ATOM      6  C   UNL     1       5.351  -1.595  -8.287  1.00  0.00     0.019 C 
ATOM      7  C   UNL     1       6.793  -1.323  -8.685  1.00  0.00     0.010 C 
BRANCH   6   8
ATOM      8  C   UNL     1       4.503  -0.345  -8.435  1.00  0.00     0.002 C 
ATOM      9  C   UNL     1       4.542   0.469  -9.717  1.00  0.00     0.004 C 
ENDBRANCH   6   8
ENDBRANCH   5   6
BRANCH   5  10
ATOM     10  N   UNL     1       3.845  -2.176  -6.293  1.00  0.00    -0.341 N 
ATOM     11  C   UNL     1       3.180  -1.652  -5.242  1.00  0.00     0.243 C 
ATOM     12  H   UNL     1       3.227  -2.691  -6.861  1.00  0.00     0.164 HD
ATOM     13  O   UNL     1       2.175  -2.350  -5.005  1.00  0.00    -0.273 OA
BRANCH  11  14
ATOM     14  C   UNL     1       3.578  -0.463  -4.290  1.00  0.00     0.181 C 
ATOM     15  C   UNL     1       2.738  -0.600  -2.936  1.00  0.00     0.042 C 
BRANCH  14  16
ATOM     16  N   UNL     1       3.685   0.950  -4.806  1.00  0.00    -0.250 N 
ATOM     17  C   UNL     1       3.189   1.515  -5.983  1.00  0.00     0.328 C 
ATOM     18  C   UNL     1       3.471   1.886  -3.838  1.00  0.00     0.259 C 
ATOM     19  N   UNL     1       2.627   2.837  -5.669  1.00  0.00    -0.307 N 
ATOM     20  O   UNL     1       2.841   0.965  -7.013  1.00  0.00    -0.248 OA
ATOM     21  C   UNL     1       2.246   2.633  -4.299  1.00  0.00     0.147 C 
ATOM     22  O   UNL     1       4.002   1.957  -2.738  1.00  0.00    -0.271 OA
ATOM     23  C   UNL     1       1.506   3.441  -6.511  1.00  0.00     0.127 C 
ATOM     24  C   UNL     1       1.002   1.668  -4.523  1.00  0.00     0.168 C 
ATOM     25  C   UNL     1       2.066   3.930  -3.535  1.00  0.00     0.048 C 
ATOM     26  C   UNL     1      -0.101   3.248  -5.889  1.00  0.00     0.055 C 
ATOM     27  C   UNL     1      -0.366   2.173  -4.696  1.00  0.00    -0.032 C 
ATOM     28  N   UNL     1       1.045   0.211  -4.770  1.00  0.00    -0.274 NA
ATOM     29  C   UNL     1      -1.142   1.035  -4.593  1.00  0.00     0.005 A 
ATOM     30  C   UNL     1      -0.183   0.005  -5.150  1.00  0.00     0.066 A 
ATOM     31  C   UNL     1      -1.445   0.347  -3.257  1.00  0.00     0.056 A 
ATOM     32  C   UNL     1      -0.713  -1.313  -5.482  1.00  0.00     0.032 A 
ATOM     33  C   UNL     1      -1.359  -1.019  -3.162  1.00  0.00     0.119 A 
ATOM     34  C   UNL     1      -1.261  -1.835  -4.378  1.00  0.00     0.048 A 
BRANCH  33  35
ATOM     35  O   UNL     1      -1.275  -1.700  -1.961  1.00  0.00    -0.497 OA
ATOM     36  C   UNL     1      -0.145  -2.595  -1.829  1.00  0.00     0.278 C 
ENDBRANCH  33  35
ENDBRANCH  14  16
ENDBRANCH  11  14
ENDBRANCH   5  10
ENDBRANCH   3   5
ENDBRANCH   2   3
ENDBRANCH   1   2
BRANCH   1  37
ATOM     37  C   UNL     1       6.178  -2.776  -2.546  1.00  0.00     0.275 C 
BRANCH  37  38
ATOM     38  O   UNL     1       6.035  -4.048  -3.192  1.00  0.00    -0.458 OA
BRANCH  38  39
ATOM     39  C   UNL     1       4.779  -4.557  -3.291  1.00  0.00     0.338 C 
ATOM     40  O   UNL     1       3.751  -4.125  -2.825  1.00  0.00    -0.246 OA
BRANCH  39  41
ATOM     41  C   UNL     1       4.918  -5.743  -4.150  1.00  0.00     0.060 A 
ATOM     42  C   UNL     1       5.548  -6.874  -3.634  1.00  0.00     0.016 A 
ATOM     43  C   UNL     1       4.546  -5.674  -5.495  1.00  0.00     0.016 A 
ATOM     44  C   UNL     1       5.882  -7.912  -4.495  1.00  0.00     0.010 A 
ATOM     45  C   UNL     1       4.888  -6.713  -6.360  1.00  0.00     0.010 A 
ATOM     46  C   UNL     1       5.584  -7.823  -5.867  1.00  0.00    -0.014 A 
BRANCH  46  47
ATOM     47  C   UNL     1       5.976  -8.939  -6.755  1.00  0.00     0.031 A 
ATOM     48  C   UNL     1       7.173  -8.825  -7.649  1.00  0.00     0.074 A 
ATOM     49  C   UNL     1       5.263 -10.076  -6.684  1.00  0.00     0.049 A 
ATOM     50  N   UNL     1       7.779  -9.759  -8.335  1.00  0.00    -0.248 NA
ATOM     51  C   UNL     1       7.763  -7.486  -7.805  1.00  0.00     0.031 C 
ATOM     52  C   UNL     1       4.056 -10.248  -5.873  1.00  0.00     0.029 A 
ATOM     53  N   UNL     1       5.462 -11.302  -7.258  1.00  0.00    -0.354 N 
ATOM     54  C   UNL     1       8.835  -9.130  -8.985  1.00  0.00     0.074 A 
ATOM     55  C   UNL     1       8.746  -7.722  -8.664  1.00  0.00     0.031 C 
ATOM     56  C   UNL     1       3.657 -11.526  -5.950  1.00  0.00     0.029 A 
ATOM     57  C   UNL     1       4.571 -12.254  -6.825  1.00  0.00     0.049 A 
ATOM     58  H   UNL     1       6.171 -11.483  -7.916  1.00  0.00     0.167 HD
ATOM     59  C   UNL     1       9.801  -9.691  -9.754  1.00  0.00     0.037 A 
ATOM     60  C   UNL     1       4.521 -13.575  -7.077  1.00  0.00     0.037 A 
ATOM     61  C   UNL     1       9.844 -11.099 -10.066  1.00  0.00     0.049 A 
ATOM     62  C   UNL     1       5.598 -14.178  -7.932  1.00  0.00     0.074 A 
ATOM     63  C   UNL     1      10.780 -11.793 -10.811  1.00  0.00     0.029 A 
ATOM     64  N   UNL     1       8.896 -12.029  -9.651  1.00  0.00    -0.354 N 
ATOM     65  N   UNL     1       6.633 -13.589  -8.486  1.00  0.00    -0.248 NA
ATOM     66  C   UNL     1       5.509 -15.618  -8.194  1.00  0.00     0.031 C 
ATOM     67  C   UNL     1      10.372 -13.131 -10.886  1.00  0.00     0.029 A 
ATOM     68  C   UNL     1       9.210 -13.284 -10.145  1.00  0.00     0.049 A 
ATOM     69  H   UNL     1       8.115 -11.825  -9.088  1.00  0.00     0.167 HD
ATOM     70  C   UNL     1       7.324 -14.587  -9.160  1.00  0.00     0.074 A 
ATOM     71  C   UNL     1       6.599 -15.822  -8.922  1.00  0.00     0.031 C 
ATOM     72  C   UNL     1       8.452 -14.492  -9.909  1.00  0.00     0.037 A 
BRANCH  59  73
ATOM     73  C   UNL     1      10.875  -8.785 -10.301  1.00  0.00     0.058 A 
ATOM     74  C   UNL     1      11.814  -8.166  -9.457  1.00  0.00     0.135 A 
ATOM     75  C   UNL     1      10.984  -8.537 -11.679  1.00  0.00     0.135 A 
ATOM     76  F   UNL     1      11.761  -8.360  -8.129  1.00  0.00    -0.206 F 
ATOM     77  C   UNL     1      12.788  -7.303  -9.952  1.00  0.00     0.059 A 
ATOM     78  C   UNL     1      11.970  -7.699 -12.200  1.00  0.00     0.059 A 
ATOM     79  F   UNL     1      10.123  -9.103 -12.538  1.00  0.00    -0.206 F 
ATOM     80  C   UNL     1      12.854  -7.070 -11.326  1.00  0.00     0.060 A 
BRANCH  80  81
ATOM     81  S   UNL     1      14.107  -5.926 -11.946  1.00  0.00     0.124 S 
ATOM     82  O   UNL     1      13.601  -4.646 -11.460  1.00  0.00    -0.237 OA
ATOM     83  O   UNL     1      15.322  -6.413 -11.298  1.00  0.00    -0.237 OA
ATOM     84  O   UNL     1      14.054  -6.112 -13.392  1.00  0.00    -0.744 OA
ENDBRANCH  80  81
ENDBRANCH  59  73
BRANCH  60  85
ATOM     85  C   UNL     1       3.461 -14.392  -6.431  1.00  0.00     0.058 A 
ATOM     86  C   UNL     1       3.764 -15.243  -5.358  1.00  0.00     0.135 A 
ATOM     87  C   UNL     1       2.111 -14.244  -6.788  1.00  0.00     0.135 A 
ATOM     88  F   UNL     1       5.039 -15.418  -4.980  1.00  0.00    -0.206 F 
ATOM     89  C   UNL     1       2.765 -15.904  -4.649  1.00  0.00     0.059 A 
ATOM     90  C   UNL     1       1.093 -14.877  -6.080  1.00  0.00     0.059 A 
ATOM     91  F   UNL     1       1.768 -13.425  -7.794  1.00  0.00    -0.206 F 
ATOM     92  C   UNL     1       1.431 -15.701  -5.008  1.00  0.00     0.060 A 
BRANCH  92  93
ATOM     93  S   UNL     1       0.142 -16.476  -4.007  1.00  0.00     0.124 S 
ATOM     94  O   UNL     1       0.327 -17.886  -4.327  1.00  0.00    -0.237 OA
ATOM     95  O   UNL     1       0.522 -16.071  -2.657  1.00  0.00    -0.237 OA
ATOM     96  O   UNL     1      -1.087 -15.870  -4.512  1.00  0.00    -0.744 OA
ENDBRANCH  92  93
ENDBRANCH  60  85
BRANCH  72  97
ATOM     97  C   UNL     1       8.956 -15.758 -10.544  1.00  0.00     0.058 A 
ATOM     98  C   UNL     1       8.298 -16.336 -11.640  1.00  0.00     0.135 A 
ATOM     99  C   UNL     1      10.142 -16.361 -10.095  1.00  0.00     0.135 A 
ATOM    100  F   UNL     1       7.156 -15.802 -12.102  1.00  0.00    -0.206 F 
ATOM    101  C   UNL     1       8.788 -17.480 -12.259  1.00  0.00     0.059 A 
ATOM    102  C   UNL     1      10.666 -17.489 -10.717  1.00  0.00     0.059 A 
ATOM    103  F   UNL     1      10.814 -15.841  -9.055  1.00  0.00    -0.206 F 
ATOM    104  C   UNL     1       9.977 -18.045 -11.794  1.00  0.00     0.060 A 
BRANCH 104 105
ATOM    105  S   UNL     1      10.621 -19.505 -12.637  1.00  0.00     0.124 S 
ATOM    106  O   UNL     1       9.656 -20.525 -12.239  1.00  0.00    -0.237 OA
ATOM    107  O   UNL     1      10.573 -19.100 -14.039  1.00  0.00    -0.237 OA
ATOM    108  O   UNL     1      11.961 -19.658 -12.079  1.00  0.00    -0.744 OA
ENDBRANCH 104 105
ENDBRANCH  72  97
ENDBRANCH  46  47
ENDBRANCH  39  41
ENDBRANCH  38  39
ENDBRANCH  37  38
ENDBRANCH   1  37
TORSDOF 20
