REMARK SMILES C[C@H]1OCC[C@H]1C(=O)N1CCCC[C@@H]1CC(=O)OCCOC(=O)c1ccc(-c2c3nc(c(-c4c(F)cc(S(=O)(=O)[O-])cc4F)c4ccc([nH]4)c(-c4c(F)cc(S(=O)(=O)[O-])cc4F)c4nc(c(-c5c(F)cc(S(=O)(=O)[O-])cc5F)c5ccc2[nH]5)C=C4)C=C3)cc1
REMARK SMILES IDX 19 1 18 2 16 3 17 4 15 5 14 6 9 7 10 8 11 9 13 10 12 11 7 12
REMARK SMILES IDX 8 13 6 14 1 15 2 16 3 17 4 18 5 19 20 20 21 21 22 22 23 23
REMARK SMILES IDX 24 24 25 25 89 26 26 27 88 28 27 29 28 30 29 31 82 32 30 33
REMARK SMILES IDX 87 34 81 35 83 36 31 37 86 38 80 39 79 40 32 42 66 43 45 44
REMARK SMILES IDX 65 45 46 46 49 47 64 48 84 49 47 50 48 51 63 53 85 54 50 55
REMARK SMILES IDX 33 56 34 57 43 58 35 59 36 60 42 61 44 62 37 63 38 64 39 65
REMARK SMILES IDX 40 66 41 67 67 68 68 69 77 70 69 71 70 72 76 73 78 74 71 75
REMARK SMILES IDX 72 76 73 77 74 78 75 79 51 80 52 81 61 82 53 83 54 84 60 85
REMARK SMILES IDX 62 86 55 87 56 88 57 89 58 90 59 91
REMARK H PARENT 83 41 49 52
REMARK Flexibility Score: inf
ROOT
ATOM      1  C   UNL     1       4.454   3.241  -2.936  1.00  0.00     0.274 C 
ENDROOT
BRANCH   1   2
ATOM      2  O   UNL     1       3.603   2.080  -2.977  1.00  0.00    -0.462 OA
BRANCH   2   3
ATOM      3  C   UNL     1       3.501   1.403  -1.808  1.00  0.00     0.307 C 
ATOM      4  O   UNL     1       4.101   1.704  -0.781  1.00  0.00    -0.252 OA
BRANCH   3   5
ATOM      5  C   UNL     1       2.614   0.190  -1.866  1.00  0.00     0.147 C 
BRANCH   5   6
ATOM      6  C   UNL     1       1.579   0.070  -2.991  1.00  0.00     0.096 C 
ATOM      7  N   UNL     1       0.436  -0.820  -2.627  1.00  0.00    -0.339 N 
ATOM      8  C   UNL     1      -0.576  -0.979  -3.668  1.00  0.00     0.120 C 
ATOM      9  C   UNL     1       0.045  -1.456  -4.980  1.00  0.00     0.022 C 
ATOM     10  C   UNL     1       2.222  -0.402  -4.308  1.00  0.00     0.026 C 
ATOM     11  C   UNL     1       1.178  -0.535  -5.416  1.00  0.00     0.004 C 
BRANCH   7  12
ATOM     12  C   UNL     1       0.609  -1.885  -1.749  1.00  0.00     0.228 C 
ATOM     13  O   UNL     1       1.558  -2.663  -1.871  1.00  0.00    -0.274 OA
BRANCH  12  14
ATOM     14  C   UNL     1      -0.344  -1.988  -0.539  1.00  0.00     0.109 C 
ATOM     15  C   UNL     1       1.677  -1.569   1.109  1.00  0.00     0.039 C 
ATOM     16  C   UNL     1       0.225  -1.341   0.726  1.00  0.00     0.127 C 
ATOM     17  O   UNL     1      -0.053   0.061   0.576  1.00  0.00    -0.378 OA
ATOM     18  C   UNL     1      -1.265   0.185  -0.186  1.00  0.00     0.161 C 
ATOM     19  C   UNL     1      -1.654  -1.217  -0.618  1.00  0.00     0.044 C 
ENDBRANCH  12  14
ENDBRANCH   7  12
ENDBRANCH   5   6
ENDBRANCH   3   5
ENDBRANCH   2   3
ENDBRANCH   1   2
BRANCH   1  20
ATOM     20  C   UNL     1       3.640   4.531  -2.849  1.00  0.00     0.275 C 
BRANCH  20  21
ATOM     21  O   UNL     1       2.851   4.591  -1.647  1.00  0.00    -0.458 OA
BRANCH  21  22
ATOM     22  C   UNL     1       1.557   4.228  -1.793  1.00  0.00     0.338 C 
ATOM     23  O   UNL     1       1.005   3.851  -2.817  1.00  0.00    -0.246 OA
BRANCH  22  24
ATOM     24  C   UNL     1       0.863   4.306  -0.502  1.00  0.00     0.060 A 
ATOM     25  C   UNL     1       0.797   3.166   0.293  1.00  0.00     0.016 A 
ATOM     26  C   UNL     1       0.149   5.454  -0.151  1.00  0.00     0.016 A 
ATOM     27  C   UNL     1      -0.036   3.149   1.413  1.00  0.00     0.010 A 
ATOM     28  C   UNL     1      -0.649   5.446   1.002  1.00  0.00     0.010 A 
ATOM     29  C   UNL     1      -0.779   4.281   1.778  1.00  0.00    -0.014 A 
BRANCH  29  30
ATOM     30  C   UNL     1      -1.734   4.220   2.923  1.00  0.00     0.031 A 
ATOM     31  C   UNL     1      -3.211   4.425   2.692  1.00  0.00     0.074 A 
ATOM     32  C   UNL     1      -1.298   3.950   4.170  1.00  0.00     0.049 A 
ATOM     33  N   UNL     1      -4.174   4.572   3.567  1.00  0.00    -0.248 NA
ATOM     34  C   UNL     1      -3.663   4.476   1.292  1.00  0.00     0.031 C 
ATOM     35  C   UNL     1       0.090   3.671   4.541  1.00  0.00     0.029 A 
ATOM     36  N   UNL     1      -1.983   3.861   5.358  1.00  0.00    -0.354 N 
ATOM     37  C   UNL     1      -5.332   4.790   2.829  1.00  0.00     0.074 A 
ATOM     38  C   UNL     1      -4.954   4.746   1.432  1.00  0.00     0.031 C 
ATOM     39  C   UNL     1       0.150   3.413   5.857  1.00  0.00     0.029 A 
ATOM     40  C   UNL     1      -1.180   3.579   6.437  1.00  0.00     0.049 A 
ATOM     41  H   UNL     1      -2.957   3.987   5.429  1.00  0.00     0.167 HD
ATOM     42  C   UNL     1      -6.593   5.011   3.273  1.00  0.00     0.037 A 
ATOM     43  C   UNL     1      -1.467   3.499   7.751  1.00  0.00     0.037 A 
ATOM     44  C   UNL     1      -6.985   4.997   4.660  1.00  0.00     0.049 A 
ATOM     45  C   UNL     1      -2.870   3.760   8.224  1.00  0.00     0.074 A 
ATOM     46  C   UNL     1      -8.241   5.213   5.203  1.00  0.00     0.029 A 
ATOM     47  N   UNL     1      -6.133   4.732   5.721  1.00  0.00    -0.354 N 
ATOM     48  N   UNL     1      -3.937   4.046   7.518  1.00  0.00    -0.248 NA
ATOM     49  C   UNL     1      -3.103   3.709   9.675  1.00  0.00     0.031 C 
ATOM     50  C   UNL     1      -8.144   5.097   6.594  1.00  0.00     0.029 A 
ATOM     51  C   UNL     1      -6.835   4.781   6.915  1.00  0.00     0.049 A 
ATOM     52  H   UNL     1      -5.171   4.538   5.638  1.00  0.00     0.167 HD
ATOM     53  C   UNL     1      -4.966   4.211   8.437  1.00  0.00     0.074 A 
ATOM     54  C   UNL     1      -4.401   3.970   9.749  1.00  0.00     0.031 C 
ATOM     55  C   UNL     1      -6.262   4.541   8.214  1.00  0.00     0.037 A 
BRANCH  42  56
ATOM     56  C   UNL     1      -7.647   5.322   2.249  1.00  0.00     0.058 A 
ATOM     57  C   UNL     1      -8.221   4.324   1.448  1.00  0.00     0.135 A 
ATOM     58  C   UNL     1      -8.117   6.637   2.098  1.00  0.00     0.135 A 
ATOM     59  F   UNL     1      -7.795   3.055   1.540  1.00  0.00    -0.206 F 
ATOM     60  C   UNL     1      -9.212   4.623   0.517  1.00  0.00     0.059 A 
ATOM     61  C   UNL     1      -9.120   6.955   1.188  1.00  0.00     0.059 A 
ATOM     62  F   UNL     1      -7.599   7.628   2.842  1.00  0.00    -0.206 F 
ATOM     63  C   UNL     1      -9.652   5.942   0.392  1.00  0.00     0.060 A 
BRANCH  63  64
ATOM     64  S   UNL     1     -10.939   6.319  -0.817  1.00  0.00     0.124 S 
ATOM     65  O   UNL     1     -10.176   6.324  -2.061  1.00  0.00    -0.237 OA
ATOM     66  O   UNL     1     -11.868   5.206  -0.649  1.00  0.00    -0.237 OA
ATOM     67  O   UNL     1     -11.441   7.620  -0.383  1.00  0.00    -0.744 OA
ENDBRANCH  63  64
ENDBRANCH  42  56
BRANCH  43  68
ATOM     68  C   UNL     1      -0.386   3.197   8.724  1.00  0.00     0.058 A 
ATOM     69  C   UNL     1      -0.322   1.954   9.369  1.00  0.00     0.135 A 
ATOM     70  C   UNL     1       0.613   4.139   9.013  1.00  0.00     0.135 A 
ATOM     71  F   UNL     1      -1.264   1.027   9.134  1.00  0.00    -0.206 F 
ATOM     72  C   UNL     1       0.694   1.654  10.270  1.00  0.00     0.059 A 
ATOM     73  C   UNL     1       1.651   3.854   9.893  1.00  0.00     0.059 A 
ATOM     74  F   UNL     1       0.598   5.340   8.415  1.00  0.00    -0.206 F 
ATOM     75  C   UNL     1       1.679   2.611  10.523  1.00  0.00     0.060 A 
BRANCH  75  76
ATOM     76  S   UNL     1       3.036   2.199  11.642  1.00  0.00     0.124 S 
ATOM     77  O   UNL     1       2.423   2.435  12.943  1.00  0.00    -0.237 OA
ATOM     78  O   UNL     1       3.305   0.803  11.307  1.00  0.00    -0.237 OA
ATOM     79  O   UNL     1       4.082   3.140  11.253  1.00  0.00    -0.744 OA
ENDBRANCH  75  76
ENDBRANCH  43  68
BRANCH  55  80
ATOM     80  C   UNL     1      -7.159   4.648   9.412  1.00  0.00     0.058 A 
ATOM     81  C   UNL     1      -7.123   5.771  10.254  1.00  0.00     0.135 A 
ATOM     82  C   UNL     1      -8.086   3.636   9.704  1.00  0.00     0.135 A 
ATOM     83  F   UNL     1      -6.249   6.762  10.020  1.00  0.00    -0.206 F 
ATOM     84  C   UNL     1      -7.964   5.878  11.357  1.00  0.00     0.059 A 
ATOM     85  C   UNL     1      -8.948   3.730  10.793  1.00  0.00     0.059 A 
ATOM     86  F   UNL     1      -8.164   2.546   8.925  1.00  0.00    -0.206 F 
ATOM     87  C   UNL     1      -8.871   4.849  11.621  1.00  0.00     0.060 A 
BRANCH  87  88
ATOM     88  S   UNL     1      -9.976   5.005  13.041  1.00  0.00     0.124 S 
ATOM     89  O   UNL     1      -9.093   4.632  14.141  1.00  0.00    -0.237 OA
ATOM     90  O   UNL     1     -10.365   6.411  12.988  1.00  0.00    -0.237 OA
ATOM     91  O   UNL     1     -11.044   4.056  12.742  1.00  0.00    -0.744 OA
ENDBRANCH  87  88
ENDBRANCH  55  80
ENDBRANCH  29  30
ENDBRANCH  22  24
ENDBRANCH  21  22
ENDBRANCH  20  21
ENDBRANCH   1  20
TORSDOF 17
