REMARK SMILES COc1ccc(-c2ncn(CC(=O)OCCOC(=O)c3ccc(-c4c5nc(c(-c6c(F)cc(S(=O)(=O)[O-])cc6F)c6ccc([nH]6)c(-c6c(F)cc(S(=O)(=O)[O-])cc6F)c6nc(c(-c7c(F)cc(S(=O)(=O)[O-])cc7F)c7ccc4[nH]7)C=C6)C=C5)cc3)c2-c2ccc(OC)cc2)cc1
REMARK SMILES IDX 15 1 14 2 12 3 13 4 11 5 10 6 7 7 8 8 86 9 9 10 6 11 3 12
REMARK SMILES IDX 4 13 96 14 5 15 95 16 2 17 1 18 87 19 88 20 94 21 89 22
REMARK SMILES IDX 93 23 90 24 91 25 92 26 16 27 17 28 18 29 19 30 20 31 21 32
REMARK SMILES IDX 85 33 22 34 84 35 23 36 24 37 25 38 78 39 26 40 83 41 77 42
REMARK SMILES IDX 79 43 27 44 82 45 76 46 75 47 28 49 62 50 41 51 61 52 42 53
REMARK SMILES IDX 45 54 60 55 80 56 43 57 44 58 59 60 81 61 46 62 29 63 30 64
REMARK SMILES IDX 39 65 31 66 32 67 38 68 40 69 33 70 34 71 35 72 36 73 37 74
REMARK SMILES IDX 63 75 64 76 73 77 65 78 66 79 72 80 74 81 67 82 68 83 69 84
REMARK SMILES IDX 70 85 71 86 47 87 48 88 57 89 49 90 50 91 56 92 58 93 51 94
REMARK SMILES IDX 52 95 53 96 54 97 55 98
REMARK H PARENT 79 48 45 59
REMARK Flexibility Score: inf
ROOT
ATOM      1  C   UNL     1      -0.464   5.670  -9.870  1.00  0.00     0.274 C 
ENDROOT
BRANCH   1   2
ATOM      2  O   UNL     1       0.337   4.820  -9.048  1.00  0.00    -0.461 OA
BRANCH   2   3
ATOM      3  C   UNL     1       1.676   4.945  -9.206  1.00  0.00     0.326 C 
ATOM      4  O   UNL     1       2.214   5.418 -10.202  1.00  0.00    -0.250 OA
BRANCH   3   5
ATOM      5  C   UNL     1       2.413   4.567  -7.956  1.00  0.00     0.246 C 
BRANCH   5   6
ATOM      6  N   UNL     1       2.298   3.182  -7.524  1.00  0.00    -0.319 N 
ATOM      7  C   UNL     1       2.135   1.595  -6.034  1.00  0.00     0.096 A 
ATOM      8  N   UNL     1       3.311   1.378  -6.711  1.00  0.00    -0.236 NA
ATOM      9  C   UNL     1       1.421   2.651  -6.595  1.00  0.00     0.076 A 
ATOM     10  C   UNL     1       3.347   2.303  -7.639  1.00  0.00     0.201 A 
BRANCH   7  11
ATOM     11  C   UNL     1       1.761   0.873  -4.827  1.00  0.00     0.003 A 
ATOM     12  C   UNL     1       0.986  -0.171  -2.342  1.00  0.00     0.118 A 
ATOM     13  C   UNL     1       0.092  -0.172  -3.411  1.00  0.00     0.047 A 
ATOM     14  C   UNL     1       2.285   0.301  -2.524  1.00  0.00     0.047 A 
ATOM     15  C   UNL     1       0.478   0.340  -4.651  1.00  0.00     0.014 A 
ATOM     16  C   UNL     1       2.670   0.824  -3.762  1.00  0.00     0.014 A 
BRANCH  12  17
ATOM     17  O   UNL     1       0.524  -0.711  -1.177  1.00  0.00    -0.497 OA
ATOM     18  C   UNL     1       0.909  -0.007   0.002  1.00  0.00     0.278 C 
ENDBRANCH  12  17
ENDBRANCH   7  11
BRANCH   9  19
ATOM     19  C   UNL     1       0.072   3.118  -6.289  1.00  0.00     0.001 A 
ATOM     20  C   UNL     1      -0.926   3.041  -7.266  1.00  0.00     0.014 A 
ATOM     21  C   UNL     1      -0.308   3.403  -4.980  1.00  0.00     0.014 A 
ATOM     22  C   UNL     1      -2.258   3.324  -6.970  1.00  0.00     0.047 A 
ATOM     23  C   UNL     1      -1.655   3.610  -4.671  1.00  0.00     0.047 A 
ATOM     24  C   UNL     1      -2.621   3.638  -5.676  1.00  0.00     0.118 A 
BRANCH  24  25
ATOM     25  O   UNL     1      -3.952   3.764  -5.407  1.00  0.00    -0.497 OA
ATOM     26  C   UNL     1      -4.497   5.042  -5.737  1.00  0.00     0.278 C 
ENDBRANCH  24  25
ENDBRANCH   9  19
ENDBRANCH   5   6
ENDBRANCH   3   5
ENDBRANCH   2   3
ENDBRANCH   1   2
BRANCH   1  27
ATOM     27  C   UNL     1      -1.726   6.062  -9.115  1.00  0.00     0.275 C 
BRANCH  27  28
ATOM     28  O   UNL     1      -1.607   6.610  -7.785  1.00  0.00    -0.458 OA
BRANCH  28  29
ATOM     29  C   UNL     1      -0.494   7.027  -7.141  1.00  0.00     0.338 C 
ATOM     30  O   UNL     1       0.636   7.153  -7.575  1.00  0.00    -0.246 OA
BRANCH  29  31
ATOM     31  C   UNL     1      -0.916   7.173  -5.724  1.00  0.00     0.060 A 
ATOM     32  C   UNL     1      -0.182   6.604  -4.678  1.00  0.00     0.016 A 
ATOM     33  C   UNL     1      -2.186   7.692  -5.477  1.00  0.00     0.016 A 
ATOM     34  C   UNL     1      -0.816   6.359  -3.446  1.00  0.00     0.010 A 
ATOM     35  C   UNL     1      -2.817   7.405  -4.278  1.00  0.00     0.010 A 
ATOM     36  C   UNL     1      -2.181   6.639  -3.291  1.00  0.00    -0.014 A 
BRANCH  36  37
ATOM     37  C   UNL     1      -2.918   6.419  -2.025  1.00  0.00     0.031 A 
ATOM     38  C   UNL     1      -2.637   7.507  -1.072  1.00  0.00     0.074 A 
ATOM     39  C   UNL     1      -3.946   5.562  -1.780  1.00  0.00     0.049 A 
ATOM     40  N   UNL     1      -1.994   7.397   0.043  1.00  0.00    -0.248 NA
ATOM     41  C   UNL     1      -2.926   8.895  -1.471  1.00  0.00     0.031 C 
ATOM     42  C   UNL     1      -4.431   4.482  -2.618  1.00  0.00     0.029 A 
ATOM     43  N   UNL     1      -4.893   5.543  -0.778  1.00  0.00    -0.354 N 
ATOM     44  C   UNL     1      -2.107   8.654   0.611  1.00  0.00     0.074 A 
ATOM     45  C   UNL     1      -2.378   9.573  -0.463  1.00  0.00     0.031 C 
ATOM     46  C   UNL     1      -5.708   4.164  -2.340  1.00  0.00     0.029 A 
ATOM     47  C   UNL     1      -6.069   4.859  -1.129  1.00  0.00     0.049 A 
ATOM     48  H   UNL     1      -4.759   5.968   0.099  1.00  0.00     0.167 HD
ATOM     49  C   UNL     1      -2.437   8.780   1.921  1.00  0.00     0.037 A 
ATOM     50  C   UNL     1      -7.247   4.731  -0.469  1.00  0.00     0.037 A 
ATOM     51  C   UNL     1      -2.280   7.543   2.643  1.00  0.00     0.049 A 
ATOM     52  C   UNL     1      -6.943   4.925   0.957  1.00  0.00     0.074 A 
ATOM     53  C   UNL     1      -1.241   6.677   2.913  1.00  0.00     0.029 A 
ATOM     54  N   UNL     1      -3.444   6.866   2.897  1.00  0.00    -0.354 N 
ATOM     55  N   UNL     1      -6.263   4.064   1.662  1.00  0.00    -0.248 NA
ATOM     56  C   UNL     1      -7.120   6.237   1.562  1.00  0.00     0.031 C 
ATOM     57  C   UNL     1      -1.829   5.400   3.137  1.00  0.00     0.029 A 
ATOM     58  C   UNL     1      -3.211   5.521   3.022  1.00  0.00     0.049 A 
ATOM     59  H   UNL     1      -4.329   7.289   2.978  1.00  0.00     0.167 HD
ATOM     60  C   UNL     1      -5.545   4.853   2.533  1.00  0.00     0.074 A 
ATOM     61  C   UNL     1      -6.257   6.122   2.574  1.00  0.00     0.031 C 
ATOM     62  C   UNL     1      -4.253   4.535   2.829  1.00  0.00     0.037 A 
BRANCH  49  63
ATOM     63  C   UNL     1      -3.347   9.876   2.416  1.00  0.00     0.058 A 
ATOM     64  C   UNL     1      -3.333  10.216   3.777  1.00  0.00     0.135 A 
ATOM     65  C   UNL     1      -4.404  10.427   1.652  1.00  0.00     0.135 A 
ATOM     66  F   UNL     1      -2.412   9.688   4.597  1.00  0.00    -0.206 F 
ATOM     67  C   UNL     1      -4.302  11.047   4.339  1.00  0.00     0.059 A 
ATOM     68  C   UNL     1      -5.331  11.315   2.171  1.00  0.00     0.059 A 
ATOM     69  F   UNL     1      -4.650  10.047   0.391  1.00  0.00    -0.206 F 
ATOM     70  C   UNL     1      -5.293  11.594   3.525  1.00  0.00     0.060 A 
BRANCH  70  71
ATOM     71  S   UNL     1      -6.577  12.624   4.249  1.00  0.00     0.124 S 
ATOM     72  O   UNL     1      -7.394  11.626   4.928  1.00  0.00    -0.237 OA
ATOM     73  O   UNL     1      -5.804  13.516   5.106  1.00  0.00    -0.237 OA
ATOM     74  O   UNL     1      -7.188  13.260   3.085  1.00  0.00    -0.744 OA
ENDBRANCH  70  71
ENDBRANCH  49  63
BRANCH  50  75
ATOM     75  C   UNL     1      -8.633   4.489  -0.960  1.00  0.00     0.058 A 
ATOM     76  C   UNL     1      -9.663   4.147  -0.061  1.00  0.00     0.135 A 
ATOM     77  C   UNL     1      -9.046   4.887  -2.248  1.00  0.00     0.135 A 
ATOM     78  F   UNL     1      -9.371   3.739   1.183  1.00  0.00    -0.206 F 
ATOM     79  C   UNL     1     -11.015   4.299  -0.378  1.00  0.00     0.059 A 
ATOM     80  C   UNL     1     -10.393   5.033  -2.591  1.00  0.00     0.059 A 
ATOM     81  F   UNL     1      -8.149   5.242  -3.180  1.00  0.00    -0.206 F 
ATOM     82  C   UNL     1     -11.371   4.783  -1.634  1.00  0.00     0.060 A 
BRANCH  82  83
ATOM     83  S   UNL     1     -13.096   5.242  -1.938  1.00  0.00     0.124 S 
ATOM     84  O   UNL     1     -13.754   3.941  -1.992  1.00  0.00    -0.237 OA
ATOM     85  O   UNL     1     -13.404   6.064  -0.773  1.00  0.00    -0.237 OA
ATOM     86  O   UNL     1     -13.034   5.965  -3.206  1.00  0.00    -0.744 OA
ENDBRANCH  82  83
ENDBRANCH  50  75
BRANCH  62  87
ATOM     87  C   UNL     1      -3.869   3.081   2.788  1.00  0.00     0.058 A 
ATOM     88  C   UNL     1      -3.835   2.271   1.639  1.00  0.00     0.135 A 
ATOM     89  C   UNL     1      -3.455   2.497   3.995  1.00  0.00     0.135 A 
ATOM     90  F   UNL     1      -4.129   2.772   0.430  1.00  0.00    -0.206 F 
ATOM     91  C   UNL     1      -3.454   0.926   1.702  1.00  0.00     0.059 A 
ATOM     92  C   UNL     1      -3.042   1.172   4.075  1.00  0.00     0.059 A 
ATOM     93  F   UNL     1      -3.419   3.232   5.120  1.00  0.00    -0.206 F 
ATOM     94  C   UNL     1      -3.067   0.385   2.928  1.00  0.00     0.060 A 
BRANCH  94  95
ATOM     95  S   UNL     1      -2.534  -1.338   3.021  1.00  0.00     0.124 S 
ATOM     96  O   UNL     1      -3.803  -2.056   2.980  1.00  0.00    -0.237 OA
ATOM     97  O   UNL     1      -1.688  -1.476   1.841  1.00  0.00    -0.237 OA
ATOM     98  O   UNL     1      -1.818  -1.402   4.294  1.00  0.00    -0.744 OA
ENDBRANCH  94  95
ENDBRANCH  62  87
ENDBRANCH  36  37
ENDBRANCH  29  31
ENDBRANCH  28  29
ENDBRANCH  27  28
ENDBRANCH   1  27
TORSDOF 19
