REMARK SMILES C[C@H](c1cnccn1)[N@@H+]1[C@@H](C(=O)OCCOC(=O)c2ccc(-c3c4nc(c(-c5c(F)cc(S(=O)(=O)[O-])cc5F)c5ccc([nH]5)c(-c5c(F)cc(S(=O)(=O)[O-])cc5F)c5nc(c(-c6c(F)cc(S(=O)(=O)[O-])cc6F)c6ccc3[nH]6)C=C5)C=C4)cc2)CC[C@H]2CCCC[C@H]21
REMARK SMILES IDX 15 1 14 2 13 3 11 4 12 5 10 6 9 7 92 8 85 10 87 11 91 12
REMARK SMILES IDX 86 13 88 14 90 15 89 16 2 17 1 18 3 19 4 20 8 21 5 22 7 23
REMARK SMILES IDX 6 24 16 25 17 26 18 27 19 28 20 29 84 30 21 31 83 32 22 33
REMARK SMILES IDX 23 34 24 35 77 36 25 37 82 38 76 39 78 40 26 41 81 42 75 43
REMARK SMILES IDX 74 44 27 46 61 47 40 48 60 49 41 50 44 51 59 52 79 53 42 54
REMARK SMILES IDX 43 55 58 57 80 58 45 59 28 60 29 61 38 62 30 63 31 64 37 65
REMARK SMILES IDX 39 66 32 67 33 68 34 69 35 70 36 71 62 72 63 73 72 74 64 75
REMARK SMILES IDX 65 76 71 77 73 78 66 79 67 80 68 81 69 82 70 83 46 84 47 85
REMARK SMILES IDX 56 86 48 87 49 88 55 89 57 90 50 91 51 92 52 93 53 94 54 95
REMARK H PARENT 9 9 78 45 44 56
REMARK Flexibility Score: inf
ROOT
ATOM      1  C   UNL     1      -1.661   5.329  -3.737  1.00  0.00     0.275 C 
ENDROOT
BRANCH   1   2
ATOM      2  C   UNL     1      -1.074   3.905  -3.705  1.00  0.00     0.274 C 
BRANCH   2   3
ATOM      3  O   UNL     1      -1.524   3.099  -2.594  1.00  0.00    -0.458 OA
BRANCH   3   4
ATOM      4  C   UNL     1      -0.828   3.284  -1.439  1.00  0.00     0.365 C 
ATOM      5  O   UNL     1       0.096   4.086  -1.342  1.00  0.00    -0.245 OA
BRANCH   4   6
ATOM      6  C   UNL     1      -1.337   2.461  -0.239  1.00  0.00     0.295 C 
ATOM      7  N   UNL     1      -0.885   1.022  -0.160  1.00  0.00    -0.313 N 
ATOM      8  C   UNL     1      -1.520   0.406   1.077  1.00  0.00     0.188 C 
ATOM      9  H   UNL     1      -1.171   0.577  -1.032  1.00  0.00     0.349 HD
ATOM     10  C   UNL     1      -2.874   2.594  -0.231  1.00  0.00     0.078 C 
ATOM     11  C   UNL     1      -3.060   0.566   1.189  1.00  0.00     0.048 C 
ATOM     12  C   UNL     1      -1.256  -1.095   1.329  1.00  0.00     0.065 C 
ATOM     13  C   UNL     1      -3.475   2.022   1.035  1.00  0.00     0.016 C 
ATOM     14  C   UNL     1      -3.869  -0.372   0.270  1.00  0.00     0.010 C 
ATOM     15  C   UNL     1      -1.927  -2.038   0.333  1.00  0.00     0.006 C 
ATOM     16  C   UNL     1      -3.040  -1.401  -0.487  1.00  0.00     0.001 C 
BRANCH   7  17
ATOM     17  C   UNL     1       0.617   0.835  -0.050  1.00  0.00     0.233 C 
ATOM     18  C   UNL     1       1.596   1.899  -0.568  1.00  0.00     0.083 C 
BRANCH  17  19
ATOM     19  C   UNL     1       1.110  -0.459  -0.699  1.00  0.00     0.116 A 
ATOM     20  C   UNL     1       0.689  -0.855  -1.964  1.00  0.00     0.141 A 
ATOM     21  N   UNL     1       2.079  -1.152  -0.035  1.00  0.00    -0.252 NA
ATOM     22  N   UNL     1       1.198  -1.937  -2.607  1.00  0.00    -0.261 NA
ATOM     23  C   UNL     1       2.592  -2.222  -0.676  1.00  0.00     0.131 A 
ATOM     24  C   UNL     1       2.163  -2.604  -1.933  1.00  0.00     0.131 A 
ENDBRANCH  17  19
ENDBRANCH   7  17
ENDBRANCH   4   6
ENDBRANCH   3   4
ENDBRANCH   2   3
ENDBRANCH   1   2
BRANCH   1  25
ATOM     25  O   UNL     1      -1.173   6.164  -2.667  1.00  0.00    -0.458 OA
BRANCH  25  26
ATOM     26  C   UNL     1      -2.010   6.279  -1.606  1.00  0.00     0.338 C 
ATOM     27  O   UNL     1      -3.145   5.837  -1.533  1.00  0.00    -0.246 OA
BRANCH  26  28
ATOM     28  C   UNL     1      -1.321   6.860  -0.434  1.00  0.00     0.060 A 
ATOM     29  C   UNL     1      -1.348   6.114   0.750  1.00  0.00     0.016 A 
ATOM     30  C   UNL     1      -0.762   8.138  -0.440  1.00  0.00     0.016 A 
ATOM     31  C   UNL     1      -0.835   6.636   1.932  1.00  0.00     0.010 A 
ATOM     32  C   UNL     1      -0.268   8.678   0.759  1.00  0.00     0.010 A 
ATOM     33  C   UNL     1      -0.328   7.938   1.955  1.00  0.00    -0.014 A 
BRANCH  33  34
ATOM     34  C   UNL     1      -0.035   8.547   3.276  1.00  0.00     0.031 A 
ATOM     35  C   UNL     1      -1.078   9.422   3.917  1.00  0.00     0.074 A 
ATOM     36  C   UNL     1       1.089   8.234   3.946  1.00  0.00     0.049 A 
ATOM     37  N   UNL     1      -1.051  10.038   5.071  1.00  0.00    -0.248 NA
ATOM     38  C   UNL     1      -2.324   9.620   3.159  1.00  0.00     0.031 C 
ATOM     39  C   UNL     1       2.139   7.338   3.463  1.00  0.00     0.029 A 
ATOM     40  N   UNL     1       1.525   8.625   5.187  1.00  0.00    -0.354 N 
ATOM     41  C   UNL     1      -2.266  10.706   5.172  1.00  0.00     0.074 A 
ATOM     42  C   UNL     1      -3.002  10.433   3.956  1.00  0.00     0.031 C 
ATOM     43  C   UNL     1       3.099   7.247   4.400  1.00  0.00     0.029 A 
ATOM     44  C   UNL     1       2.747   8.099   5.534  1.00  0.00     0.049 A 
ATOM     45  H   UNL     1       1.012   9.226   5.774  1.00  0.00     0.167 HD
ATOM     46  C   UNL     1      -2.728  11.474   6.187  1.00  0.00     0.037 A 
ATOM     47  C   UNL     1       3.500   8.296   6.634  1.00  0.00     0.037 A 
ATOM     48  C   UNL     1      -2.000  11.736   7.400  1.00  0.00     0.049 A 
ATOM     49  C   UNL     1       2.987   9.197   7.727  1.00  0.00     0.074 A 
ATOM     50  C   UNL     1      -2.375  12.515   8.481  1.00  0.00     0.029 A 
ATOM     51  N   UNL     1      -0.745  11.223   7.694  1.00  0.00    -0.354 N 
ATOM     52  N   UNL     1       1.848   9.845   7.797  1.00  0.00    -0.248 NA
ATOM     53  C   UNL     1       3.863   9.395   8.891  1.00  0.00     0.031 C 
ATOM     54  C   UNL     1      -1.333  12.498   9.415  1.00  0.00     0.029 A 
ATOM     55  C   UNL     1      -0.326  11.677   8.934  1.00  0.00     0.049 A 
ATOM     56  H   UNL     1      -0.229  10.624   7.109  1.00  0.00     0.167 HD
ATOM     57  C   UNL     1       1.863  10.512   9.018  1.00  0.00     0.074 A 
ATOM     58  C   UNL     1       3.117  10.175   9.661  1.00  0.00     0.031 C 
ATOM     59  C   UNL     1       0.926  11.331   9.559  1.00  0.00     0.037 A 
BRANCH  46  60
ATOM     60  C   UNL     1      -4.074  12.116   6.004  1.00  0.00     0.058 A 
ATOM     61  C   UNL     1      -5.265  11.377   6.088  1.00  0.00     0.135 A 
ATOM     62  C   UNL     1      -4.173  13.492   5.743  1.00  0.00     0.135 A 
ATOM     63  F   UNL     1      -5.225  10.055   6.314  1.00  0.00    -0.206 F 
ATOM     64  C   UNL     1      -6.506  11.976   5.891  1.00  0.00     0.059 A 
ATOM     65  C   UNL     1      -5.404  14.115   5.565  1.00  0.00     0.059 A 
ATOM     66  F   UNL     1      -3.064  14.243   5.648  1.00  0.00    -0.206 F 
ATOM     67  C   UNL     1      -6.564  13.345   5.625  1.00  0.00     0.060 A 
BRANCH  67  68
ATOM     68  S   UNL     1      -8.178  14.108   5.358  1.00  0.00     0.124 S 
ATOM     69  O   UNL     1      -8.495  13.654   4.007  1.00  0.00    -0.237 OA
ATOM     70  O   UNL     1      -8.983  13.525   6.427  1.00  0.00    -0.237 OA
ATOM     71  O   UNL     1      -7.905  15.536   5.492  1.00  0.00    -0.744 OA
ENDBRANCH  67  68
ENDBRANCH  46  60
BRANCH  47  72
ATOM     72  C   UNL     1       4.831   7.644   6.752  1.00  0.00     0.058 A 
ATOM     73  C   UNL     1       5.062   6.617   7.678  1.00  0.00     0.135 A 
ATOM     74  C   UNL     1       5.905   8.046   5.942  1.00  0.00     0.135 A 
ATOM     75  F   UNL     1       4.071   6.207   8.485  1.00  0.00    -0.206 F 
ATOM     76  C   UNL     1       6.312   6.019   7.808  1.00  0.00     0.059 A 
ATOM     77  C   UNL     1       7.157   7.448   6.036  1.00  0.00     0.059 A 
ATOM     78  F   UNL     1       5.735   9.021   5.035  1.00  0.00    -0.206 F 
ATOM     79  C   UNL     1       7.354   6.441   6.980  1.00  0.00     0.060 A 
BRANCH  79  80
ATOM     80  S   UNL     1       8.961   5.628   7.118  1.00  0.00     0.124 S 
ATOM     81  O   UNL     1       9.491   6.231   8.335  1.00  0.00    -0.237 OA
ATOM     82  O   UNL     1       8.588   4.220   7.212  1.00  0.00    -0.237 OA
ATOM     83  O   UNL     1       9.634   6.008   5.879  1.00  0.00    -0.744 OA
ENDBRANCH  79  80
ENDBRANCH  47  72
BRANCH  59  84
ATOM     84  C   UNL     1       1.212  11.895  10.922  1.00  0.00     0.058 A 
ATOM     85  C   UNL     1       2.153  12.919  11.112  1.00  0.00     0.135 A 
ATOM     86  C   UNL     1       0.518  11.424  12.048  1.00  0.00     0.135 A 
ATOM     87  F   UNL     1       2.845  13.403  10.069  1.00  0.00    -0.206 F 
ATOM     88  C   UNL     1       2.420  13.434  12.377  1.00  0.00     0.059 A 
ATOM     89  C   UNL     1       0.753  11.941  13.319  1.00  0.00     0.059 A 
ATOM     90  F   UNL     1      -0.402  10.454  11.919  1.00  0.00    -0.206 F 
ATOM     91  C   UNL     1       1.719  12.934  13.475  1.00  0.00     0.060 A 
BRANCH  91  92
ATOM     92  S   UNL     1       2.066  13.611  15.113  1.00  0.00     0.124 S 
ATOM     93  O   UNL     1       3.312  12.932  15.452  1.00  0.00    -0.237 OA
ATOM     94  O   UNL     1       2.176  15.042  14.846  1.00  0.00    -0.237 OA
ATOM     95  O   UNL     1       0.900  13.216  15.896  1.00  0.00    -0.744 OA
ENDBRANCH  91  92
ENDBRANCH  59  84
ENDBRANCH  33  34
ENDBRANCH  26  28
ENDBRANCH  25  26
ENDBRANCH   1  25
TORSDOF 16
