REMARK SMILES O=C(COc1ccc(/C=C/C(=O)c2ccc(F)cc2F)cc1[N+](=O)[O-])OCCOC(=O)c1ccc(-c2c3nc(c(-c4c(F)cc(S(=O)(=O)[O-])cc4F)c4ccc([nH]4)c(-c4c(F)cc(S(=O)(=O)[O-])cc4F)c4nc(c(-c5c(F)cc(S(=O)(=O)[O-])cc5F)c5ccc2[nH]5)C=C4)C=C3)cc1
REMARK SMILES IDX 27 1 26 2 2 3 1 4 3 5 4 6 5 7 6 8 22 9 7 10 21 11 8 12 23 13
REMARK SMILES IDX 24 14 25 15 9 16 10 17 11 18 12 19 13 20 14 21 19 22 15 23
REMARK SMILES IDX 18 24 20 25 16 26 17 27 28 28 29 29 30 30 31 31 32 32 33 33
REMARK SMILES IDX 97 34 34 35 96 36 35 37 36 38 37 39 90 40 38 41 95 42 89 43
REMARK SMILES IDX 91 44 39 45 94 46 88 47 87 48 40 50 74 51 53 52 73 53 54 54
REMARK SMILES IDX 57 55 72 56 92 57 55 58 56 59 71 61 93 62 58 63 41 64 42 65
REMARK SMILES IDX 51 66 43 67 44 68 50 69 52 70 45 71 46 72 47 73 48 74 49 75
REMARK SMILES IDX 75 76 76 77 85 78 77 79 78 80 84 81 86 82 79 83 80 84 81 85
REMARK SMILES IDX 82 86 83 87 59 88 60 89 69 90 61 91 62 92 68 93 70 94 63 95
REMARK SMILES IDX 64 96 65 97 66 98 67 99
REMARK H PARENT 91 49 57 60
REMARK Flexibility Score: inf
ROOT
ATOM      1  C   UNL     1       4.572  -0.908  -0.952  1.00  0.00     0.274 C 
ENDROOT
BRANCH   1   2
ATOM      2  O   UNL     1       3.163  -0.947  -0.643  1.00  0.00    -0.460 OA
BRANCH   2   3
ATOM      3  C   UNL     1       2.517   0.009   0.063  1.00  0.00     0.344 C 
ATOM      4  O   UNL     1       1.290  -0.000   0.157  1.00  0.00    -0.248 OA
BRANCH   3   5
ATOM      5  C   UNL     1       3.336   1.065   0.788  1.00  0.00     0.352 C 
BRANCH   5   6
ATOM      6  O   UNL     1       4.072   0.521   1.883  1.00  0.00    -0.475 OA
BRANCH   6   7
ATOM      7  C   UNL     1       3.403   0.718   3.059  1.00  0.00     0.197 A 
ATOM      8  C   UNL     1       3.717   1.873   3.781  1.00  0.00     0.054 A 
ATOM      9  C   UNL     1       2.464  -0.181   3.572  1.00  0.00     0.311 A 
ATOM     10  C   UNL     1       3.072   2.146   4.991  1.00  0.00     0.012 A 
ATOM     11  C   UNL     1       1.797   0.103   4.768  1.00  0.00     0.098 A 
ATOM     12  C   UNL     1       2.112   1.261   5.489  1.00  0.00    -0.018 A 
BRANCH   9  13
ATOM     13  N   UNL     1       2.192  -1.464   2.934  1.00  0.00     0.066 N 
ATOM     14  O   UNL     1       1.037  -1.909   3.021  1.00  0.00    -0.258 OA
ATOM     15  O   UNL     1       3.139  -2.059   2.402  1.00  0.00    -0.258 OA
ENDBRANCH   9  13
BRANCH  12  16
ATOM     16  C   UNL     1       1.425   1.450   6.766  1.00  0.00     0.012 C 
ATOM     17  C   UNL     1       2.068   1.745   7.906  1.00  0.00     0.053 C 
BRANCH  17  18
ATOM     18  C   UNL     1       1.391   1.663   9.226  1.00  0.00     0.188 C 
ATOM     19  O   UNL     1       1.729   2.385  10.155  1.00  0.00    -0.289 OA
BRANCH  18  20
ATOM     20  C   UNL     1       0.329   0.655   9.428  1.00  0.00     0.058 A 
ATOM     21  C   UNL     1      -0.857   1.037  10.064  1.00  0.00     0.018 A 
ATOM     22  C   UNL     1       0.500  -0.670   9.012  1.00  0.00     0.137 A 
ATOM     23  C   UNL     1      -1.876   0.099  10.239  1.00  0.00     0.040 A 
ATOM     24  C   UNL     1      -0.514  -1.605   9.183  1.00  0.00     0.079 A 
ATOM     25  F   UNL     1       1.644  -1.074   8.442  1.00  0.00    -0.206 F 
ATOM     26  C   UNL     1      -1.696  -1.210   9.793  1.00  0.00     0.126 A 
ATOM     27  F   UNL     1      -2.678  -2.104   9.961  1.00  0.00    -0.207 F 
ENDBRANCH  18  20
ENDBRANCH  17  18
ENDBRANCH  12  16
ENDBRANCH   6   7
ENDBRANCH   5   6
ENDBRANCH   3   5
ENDBRANCH   2   3
ENDBRANCH   1   2
BRANCH   1  28
ATOM     28  C   UNL     1       4.798  -0.296  -2.335  1.00  0.00     0.275 C 
BRANCH  28  29
ATOM     29  O   UNL     1       4.363   1.077  -2.343  1.00  0.00    -0.458 OA
BRANCH  29  30
ATOM     30  C   UNL     1       3.108   1.290  -2.819  1.00  0.00     0.338 C 
ATOM     31  O   UNL     1       2.377   0.471  -3.345  1.00  0.00    -0.246 OA
BRANCH  30  32
ATOM     32  C   UNL     1       2.676   2.644  -2.411  1.00  0.00     0.060 A 
ATOM     33  C   UNL     1       1.389   2.801  -1.880  1.00  0.00     0.016 A 
ATOM     34  C   UNL     1       3.526   3.746  -2.541  1.00  0.00     0.016 A 
ATOM     35  C   UNL     1       0.937   4.068  -1.505  1.00  0.00     0.010 A 
ATOM     36  C   UNL     1       3.068   5.014  -2.179  1.00  0.00     0.010 A 
ATOM     37  C   UNL     1       1.763   5.186  -1.686  1.00  0.00    -0.014 A 
BRANCH  37  38
ATOM     38  C   UNL     1       1.213   6.555  -1.540  1.00  0.00     0.031 A 
ATOM     39  C   UNL     1       0.684   7.246  -2.766  1.00  0.00     0.074 A 
ATOM     40  C   UNL     1       1.206   7.183  -0.350  1.00  0.00     0.049 A 
ATOM     41  N   UNL     1       0.221   8.461  -2.898  1.00  0.00    -0.248 NA
ATOM     42  C   UNL     1       0.686   6.460  -4.012  1.00  0.00     0.031 C 
ATOM     43  C   UNL     1       1.667   6.612   0.913  1.00  0.00     0.029 A 
ATOM     44  N   UNL     1       0.806   8.454  -0.020  1.00  0.00    -0.354 N 
ATOM     45  C   UNL     1      -0.127   8.586  -4.238  1.00  0.00     0.074 A 
ATOM     46  C   UNL     1       0.207   7.335  -4.883  1.00  0.00     0.031 C 
ATOM     47  C   UNL     1       1.543   7.539   1.881  1.00  0.00     0.029 A 
ATOM     48  C   UNL     1       1.017   8.773   1.300  1.00  0.00     0.049 A 
ATOM     49  H   UNL     1       0.406   9.078  -0.668  1.00  0.00     0.167 HD
ATOM     50  C   UNL     1      -0.682   9.645  -4.873  1.00  0.00     0.037 A 
ATOM     51  C   UNL     1       0.824   9.936   1.955  1.00  0.00     0.037 A 
ATOM     52  C   UNL     1      -1.001  10.894  -4.235  1.00  0.00     0.049 A 
ATOM     53  C   UNL     1       0.266  11.124   1.213  1.00  0.00     0.074 A 
ATOM     54  C   UNL     1      -1.573  12.023  -4.793  1.00  0.00     0.029 A 
ATOM     55  N   UNL     1      -0.765  11.181  -2.900  1.00  0.00    -0.354 N 
ATOM     56  N   UNL     1      -0.090  11.219  -0.046  1.00  0.00    -0.248 NA
ATOM     57  C   UNL     1       0.080  12.364   1.983  1.00  0.00     0.031 C 
ATOM     58  C   UNL     1      -1.647  13.009  -3.803  1.00  0.00     0.029 A 
ATOM     59  C   UNL     1      -1.162  12.478  -2.619  1.00  0.00     0.049 A 
ATOM     60  H   UNL     1      -0.374  10.556  -2.247  1.00  0.00     0.167 HD
ATOM     61  C   UNL     1      -0.571  12.514  -0.210  1.00  0.00     0.074 A 
ATOM     62  C   UNL     1      -0.463  13.167   1.077  1.00  0.00     0.031 C 
ATOM     63  C   UNL     1      -1.063  13.109  -1.326  1.00  0.00     0.037 A 
BRANCH  50  64
ATOM     64  C   UNL     1      -0.958   9.498  -6.341  1.00  0.00     0.058 A 
ATOM     65  C   UNL     1      -2.011   8.699  -6.814  1.00  0.00     0.135 A 
ATOM     66  C   UNL     1      -0.170  10.175  -7.285  1.00  0.00     0.135 A 
ATOM     67  F   UNL     1      -2.780   8.015  -5.952  1.00  0.00    -0.206 F 
ATOM     68  C   UNL     1      -2.257   8.555  -8.175  1.00  0.00     0.059 A 
ATOM     69  C   UNL     1      -0.413  10.063  -8.651  1.00  0.00     0.059 A 
ATOM     70  F   UNL     1       0.853  10.946  -6.885  1.00  0.00    -0.206 F 
ATOM     71  C   UNL     1      -1.450   9.238  -9.086  1.00  0.00     0.060 A 
BRANCH  71  72
ATOM     72  S   UNL     1      -1.776   9.038 -10.850  1.00  0.00     0.124 S 
ATOM     73  O   UNL     1      -1.250   7.698 -11.091  1.00  0.00    -0.237 OA
ATOM     74  O   UNL     1      -3.228   9.170 -10.917  1.00  0.00    -0.237 OA
ATOM     75  O   UNL     1      -1.022  10.128 -11.461  1.00  0.00    -0.744 OA
ENDBRANCH  71  72
ENDBRANCH  50  64
BRANCH  51  76
ATOM     76  C   UNL     1       1.167  10.044   3.398  1.00  0.00     0.058 A 
ATOM     77  C   UNL     1       0.166  10.160   4.373  1.00  0.00     0.135 A 
ATOM     78  C   UNL     1       2.503  10.048   3.827  1.00  0.00     0.135 A 
ATOM     79  F   UNL     1      -1.125  10.173   4.009  1.00  0.00    -0.206 F 
ATOM     80  C   UNL     1       0.475  10.295   5.722  1.00  0.00     0.059 A 
ATOM     81  C   UNL     1       2.838  10.159   5.173  1.00  0.00     0.059 A 
ATOM     82  F   UNL     1       3.498   9.928   2.934  1.00  0.00    -0.206 F 
ATOM     83  C   UNL     1       1.816  10.293   6.112  1.00  0.00     0.060 A 
BRANCH  83  84
ATOM     84  S   UNL     1       2.209  10.422   7.871  1.00  0.00     0.124 S 
ATOM     85  O   UNL     1       1.965  11.837   8.122  1.00  0.00    -0.237 OA
ATOM     86  O   UNL     1       1.254   9.492   8.466  1.00  0.00    -0.237 OA
ATOM     87  O   UNL     1       3.605   9.999   7.930  1.00  0.00    -0.744 OA
ENDBRANCH  83  84
ENDBRANCH  51  76
BRANCH  63  88
ATOM     88  C   UNL     1      -1.563  14.521  -1.204  1.00  0.00     0.058 A 
ATOM     89  C   UNL     1      -0.685  15.610  -1.099  1.00  0.00     0.135 A 
ATOM     90  C   UNL     1      -2.941  14.792  -1.266  1.00  0.00     0.135 A 
ATOM     91  F   UNL     1       0.640  15.405  -1.030  1.00  0.00    -0.206 F 
ATOM     92  C   UNL     1      -1.155  16.919  -1.044  1.00  0.00     0.059 A 
ATOM     93  C   UNL     1      -3.431  16.093  -1.238  1.00  0.00     0.059 A 
ATOM     94  F   UNL     1      -3.822  13.786  -1.379  1.00  0.00    -0.206 F 
ATOM     95  C   UNL     1      -2.531  17.151  -1.117  1.00  0.00     0.060 A 
BRANCH  95  96
ATOM     96  S   UNL     1      -3.127  18.855  -1.093  1.00  0.00     0.124 S 
ATOM     97  O   UNL     1      -2.982  19.197   0.318  1.00  0.00    -0.237 OA
ATOM     98  O   UNL     1      -2.204  19.524  -2.005  1.00  0.00    -0.237 OA
ATOM     99  O   UNL     1      -4.500  18.741  -1.575  1.00  0.00    -0.744 OA
ENDBRANCH  95  96
ENDBRANCH  63  88
ENDBRANCH  37  38
ENDBRANCH  30  32
ENDBRANCH  29  30
ENDBRANCH  28  29
ENDBRANCH   1  28
TORSDOF 20
