REMARK SMILES Cc1cccc(-c2cc(C(=O)OCCOC(=O)c3ccc(-c4c5nc(c(-c6c(F)cc(S(=O)(=O)[O-])cc6F)c6ccc([nH]6)c(-c6c(F)cc(S(=O)(=O)[O-])cc6F)c6nc(c(-c7c(F)cc(S(=O)(=O)[O-])cc7F)c7ccc4[nH]7)C=C6)C=C5)cc3)ccn2)c1
REMARK SMILES IDX 14 1 13 2 12 3 10 4 11 5 9 6 7 7 8 8 86 9 85 10 84 11 6 12
REMARK SMILES IDX 1 13 2 14 3 15 87 16 4 17 5 18 15 19 16 20 17 21 18 22 19 23
REMARK SMILES IDX 83 24 20 25 82 26 21 27 22 28 23 29 76 30 24 31 81 32 75 33
REMARK SMILES IDX 77 34 25 35 80 36 74 37 73 38 26 40 60 41 39 42 59 43 40 44
REMARK SMILES IDX 43 45 58 46 78 47 41 48 42 49 57 51 79 52 44 53 27 54 28 55
REMARK SMILES IDX 37 56 29 57 30 58 36 59 38 60 31 61 32 62 33 63 34 64 35 65
REMARK SMILES IDX 61 66 62 67 71 68 63 69 64 70 70 71 72 72 65 73 66 74 67 75
REMARK SMILES IDX 68 76 69 77 45 78 46 79 55 80 47 81 48 82 54 83 56 84 49 85
REMARK SMILES IDX 50 86 51 87 52 88 53 89
REMARK H PARENT 77 39 43 50
REMARK Flexibility Score: inf
ROOT
ATOM      1  C   UNL     1      -3.202   5.663  -5.888  1.00  0.00     0.275 C 
ENDROOT
BRANCH   1   2
ATOM      2  C   UNL     1      -2.618   6.719  -4.964  1.00  0.00     0.275 C 
BRANCH   2   3
ATOM      3  O   UNL     1      -3.154   6.294  -3.735  1.00  0.00    -0.458 OA
BRANCH   3   4
ATOM      4  C   UNL     1      -2.540   6.693  -2.635  1.00  0.00     0.338 C 
ATOM      5  O   UNL     1      -2.379   7.855  -2.330  1.00  0.00    -0.246 OA
BRANCH   4   6
ATOM      6  C   UNL     1      -2.337   5.446  -1.768  1.00  0.00     0.063 A 
ATOM      7  C   UNL     1      -1.448   2.713  -0.227  1.00  0.00     0.071 A 
ATOM      8  C   UNL     1      -1.106   3.846  -1.570  1.00  0.00     0.044 A 
ATOM      9  N   UNL     1      -2.765   2.992   0.811  1.00  0.00    -0.256 NA
ATOM     10  C   UNL     1      -3.797   4.349   0.647  1.00  0.00     0.112 A 
ATOM     11  C   UNL     1      -3.669   5.571  -0.557  1.00  0.00     0.036 A 
BRANCH   7  12
ATOM     12  C   UNL     1      -0.796   1.415  -0.082  1.00  0.00     0.000 A 
ATOM     13  C   UNL     1       2.669  -0.187   0.010  1.00  0.00     0.044 C 
ATOM     14  C   UNL     1       1.178  -0.019   0.001  1.00  0.00    -0.050 A 
ATOM     15  C   UNL     1       0.351  -1.149   0.022  1.00  0.00     0.003 A 
ATOM     16  C   UNL     1       0.595   1.257  -0.047  1.00  0.00     0.013 A 
ATOM     17  C   UNL     1      -1.034  -1.005   0.035  1.00  0.00     0.001 A 
ATOM     18  C   UNL     1      -1.598   0.267  -0.004  1.00  0.00     0.010 A 
ENDBRANCH   7  12
ENDBRANCH   4   6
ENDBRANCH   3   4
ENDBRANCH   2   3
ENDBRANCH   1   2
BRANCH   1  19
ATOM     19  O   UNL     1      -3.603   4.303  -5.339  1.00  0.00    -0.458 OA
BRANCH  19  20
ATOM     20  C   UNL     1      -3.644   3.604  -4.154  1.00  0.00     0.338 C 
ATOM     21  O   UNL     1      -4.497   2.745  -3.955  1.00  0.00    -0.246 OA
BRANCH  20  22
ATOM     22  C   UNL     1      -2.594   3.769  -3.113  1.00  0.00     0.060 A 
ATOM     23  C   UNL     1      -2.955   3.723  -1.329  1.00  0.00     0.016 A 
ATOM     24  C   UNL     1      -1.173   4.609  -3.655  1.00  0.00     0.016 A 
ATOM     25  C   UNL     1      -1.752   4.800  -0.096  1.00  0.00     0.010 A 
ATOM     26  C   UNL     1      -0.177   5.578  -2.610  1.00  0.00     0.010 A 
ATOM     27  C   UNL     1      -0.430   5.740  -0.873  1.00  0.00    -0.014 A 
BRANCH  27  28
ATOM     28  C   UNL     1       0.538   6.667  -0.347  1.00  0.00     0.031 A 
ATOM     29  C   UNL     1       1.865   6.108  -0.105  1.00  0.00     0.074 A 
ATOM     30  C   UNL     1       0.372   7.978  -0.633  1.00  0.00     0.049 A 
ATOM     31  N   UNL     1       2.780   6.657   0.605  1.00  0.00    -0.248 NA
ATOM     32  C   UNL     1       2.236   4.787  -0.599  1.00  0.00     0.031 C 
ATOM     33  C   UNL     1       1.397   8.962  -0.965  1.00  0.00     0.029 A 
ATOM     34  N   UNL     1      -0.784   8.718  -0.702  1.00  0.00    -0.354 N 
ATOM     35  C   UNL     1       3.935   5.947   0.355  1.00  0.00     0.074 A 
ATOM     36  C   UNL     1       3.484   4.684  -0.155  1.00  0.00     0.031 C 
ATOM     37  C   UNL     1       0.842  10.190  -1.013  1.00  0.00     0.029 A 
ATOM     38  C   UNL     1      -0.549  10.082  -0.596  1.00  0.00     0.049 A 
ATOM     39  H   UNL     1      -1.679   8.324  -0.815  1.00  0.00     0.167 HD
ATOM     40  C   UNL     1       5.133   6.600   0.373  1.00  0.00     0.037 A 
ATOM     41  C   UNL     1      -1.127  10.761   0.441  1.00  0.00     0.037 A 
ATOM     42  C   UNL     1       4.902   8.026   0.668  1.00  0.00     0.049 A 
ATOM     43  C   UNL     1      -0.131  10.950   1.569  1.00  0.00     0.074 A 
ATOM     44  C   UNL     1       4.879   9.161  -0.128  1.00  0.00     0.029 A 
ATOM     45  N   UNL     1       4.266   8.382   1.856  1.00  0.00    -0.354 N 
ATOM     46  N   UNL     1       1.082  10.462   1.529  1.00  0.00    -0.248 NA
ATOM     47  C   UNL     1      -0.360  11.703   2.799  1.00  0.00     0.031 C 
ATOM     48  C   UNL     1       4.135  10.166   0.558  1.00  0.00     0.029 A 
ATOM     49  C   UNL     1       3.727   9.657   1.780  1.00  0.00     0.049 A 
ATOM     50  H   UNL     1       4.208   7.801   2.649  1.00  0.00     0.167 HD
ATOM     51  C   UNL     1       1.752  10.722   2.683  1.00  0.00     0.074 A 
ATOM     52  C   UNL     1       0.819  11.545   3.435  1.00  0.00     0.031 C 
ATOM     53  C   UNL     1       2.996  10.207   2.924  1.00  0.00     0.037 A 
BRANCH  40  54
ATOM     54  C   UNL     1       6.454   6.042  -0.147  1.00  0.00     0.058 A 
ATOM     55  C   UNL     1       7.564   6.897  -0.319  1.00  0.00     0.135 A 
ATOM     56  C   UNL     1       6.721   4.695  -0.488  1.00  0.00     0.135 A 
ATOM     57  F   UNL     1       7.498   8.197  -0.001  1.00  0.00    -0.206 F 
ATOM     58  C   UNL     1       8.802   6.463  -0.810  1.00  0.00     0.059 A 
ATOM     59  C   UNL     1       7.933   4.244  -1.013  1.00  0.00     0.059 A 
ATOM     60  F   UNL     1       5.853   3.706  -0.286  1.00  0.00    -0.206 F 
ATOM     61  C   UNL     1       8.977   5.132  -1.161  1.00  0.00     0.060 A 
BRANCH  61  62
ATOM     62  S   UNL     1      10.579   4.559  -1.743  1.00  0.00     0.124 S 
ATOM     63  O   UNL     1      10.774   5.368  -2.941  1.00  0.00    -0.237 OA
ATOM     64  O   UNL     1      11.443   4.872  -0.610  1.00  0.00    -0.237 OA
ATOM     65  O   UNL     1      10.365   3.134  -1.986  1.00  0.00    -0.744 OA
ENDBRANCH  61  62
ENDBRANCH  40  54
BRANCH  41  66
ATOM     66  C   UNL     1      -2.613  10.545   0.484  1.00  0.00     0.058 A 
ATOM     67  C   UNL     1      -3.353  11.242  -0.491  1.00  0.00     0.135 A 
ATOM     68  C   UNL     1      -3.198   9.365   0.973  1.00  0.00     0.135 A 
ATOM     69  F   UNL     1      -2.917  12.430  -0.937  1.00  0.00    -0.206 F 
ATOM     70  C   UNL     1      -4.462  10.682  -1.128  1.00  0.00     0.059 A 
ATOM     71  C   UNL     1      -4.338   8.800   0.363  1.00  0.00     0.059 A 
ATOM     72  F   UNL     1      -2.587   8.664   1.942  1.00  0.00    -0.206 F 
ATOM     73  C   UNL     1      -4.899   9.414  -0.764  1.00  0.00     0.060 A 
BRANCH  73  74
ATOM     74  S   UNL     1      -6.087   8.578  -1.887  1.00  0.00     0.124 S 
ATOM     75  O   UNL     1      -7.332   8.688  -1.137  1.00  0.00    -0.237 OA
ATOM     76  O   UNL     1      -6.011   9.372  -3.111  1.00  0.00    -0.237 OA
ATOM     77  O   UNL     1      -5.578   7.224  -2.036  1.00  0.00    -0.744 OA
ENDBRANCH  73  74
ENDBRANCH  41  66
BRANCH  53  78
ATOM     78  C   UNL     1       3.676  10.210   4.269  1.00  0.00     0.058 A 
ATOM     79  C   UNL     1       2.991  10.189   5.493  1.00  0.00     0.135 A 
ATOM     80  C   UNL     1       5.085  10.082   4.351  1.00  0.00     0.135 A 
ATOM     81  F   UNL     1       1.652  10.167   5.549  1.00  0.00    -0.206 F 
ATOM     82  C   UNL     1       3.659  10.153   6.715  1.00  0.00     0.059 A 
ATOM     83  C   UNL     1       5.764   9.954   5.554  1.00  0.00     0.059 A 
ATOM     84  F   UNL     1       5.857  10.066   3.253  1.00  0.00    -0.206 F 
ATOM     85  C   UNL     1       5.046  10.044   6.734  1.00  0.00     0.060 A 
BRANCH  85  86
ATOM     86  S   UNL     1       5.910  10.026   8.309  1.00  0.00     0.124 S 
ATOM     87  O   UNL     1       5.985  11.453   8.607  1.00  0.00    -0.237 OA
ATOM     88  O   UNL     1       5.011   9.250   9.157  1.00  0.00    -0.237 OA
ATOM     89  O   UNL     1       7.178   9.379   7.992  1.00  0.00    -0.744 OA
ENDBRANCH  85  86
ENDBRANCH  53  78
ENDBRANCH  27  28
ENDBRANCH  20  22
ENDBRANCH  19  20
ENDBRANCH   1  19
TORSDOF 15
