REMARK SMILES C[NH+]1CCN(C(=O)c2ccc3c(c2)N(CC(=O)OCCOC(=O)c2ccc(-c4c5nc(c(-c6c(F)cc(S(=O)(=O)[O-])cc6F)c6ccc([nH]6)c(-c6c(F)cc(S(=O)(=O)[O-])cc6F)c6nc(c(-c7c(F)cc(S(=O)(=O)[O-])cc7F)c7ccc4[nH]7)C=C6)C=C5)cc2)C(=O)CO3)CC1
REMARK SMILES IDX 20 1 19 2 18 3 16 4 17 5 15 6 14 7 8 8 9 9 13 10 10 11 12 12
REMARK SMILES IDX 11 13 93 14 90 15 92 16 91 17 6 18 1 19 2 20 3 21 95 22 4 24
REMARK SMILES IDX 94 25 5 26 7 27 21 28 22 29 23 30 24 31 25 32 89 33 26 34
REMARK SMILES IDX 88 35 27 36 28 37 29 38 82 39 30 40 87 41 81 42 83 43 31 44
REMARK SMILES IDX 86 45 80 46 79 47 32 49 66 50 45 51 65 52 46 53 49 54 64 55
REMARK SMILES IDX 84 56 47 57 48 58 63 60 85 61 50 62 33 63 34 64 43 65 35 66
REMARK SMILES IDX 36 67 42 68 44 69 37 70 38 71 39 72 40 73 41 74 67 75 68 76
REMARK SMILES IDX 77 77 69 78 70 79 76 80 78 81 71 82 72 83 73 84 74 85 75 86
REMARK SMILES IDX 51 87 52 88 61 89 53 90 54 91 60 92 62 93 55 94 56 95 57 96
REMARK SMILES IDX 58 97 59 98
REMARK H PARENT 2 23 83 48 49 59
REMARK Flexibility Score: inf
ROOT
ATOM      1  C   UNL     1       0.929  -4.582   1.058  1.00  0.00     0.275 C 
ENDROOT
BRANCH   1   2
ATOM      2  C   UNL     1      -0.014  -5.750   1.390  1.00  0.00     0.274 C 
BRANCH   2   3
ATOM      3  O   UNL     1      -1.325  -5.330   1.821  1.00  0.00    -0.461 OA
BRANCH   3   4
ATOM      4  C   UNL     1      -1.439  -5.110   3.161  1.00  0.00     0.326 C 
ATOM      5  O   UNL     1      -0.520  -5.279   3.961  1.00  0.00    -0.250 OA
BRANCH   4   6
ATOM      6  C   UNL     1      -2.757  -4.465   3.586  1.00  0.00     0.248 C 
BRANCH   6   7
ATOM      7  N   UNL     1      -3.898  -4.556   2.691  1.00  0.00    -0.295 N 
ATOM      8  C   UNL     1      -3.877  -1.438   0.568  1.00  0.00     0.042 A 
ATOM      9  C   UNL     1      -4.889  -1.737  -0.344  1.00  0.00     0.018 A 
ATOM     10  C   UNL     1      -3.596  -2.315   1.632  1.00  0.00     0.044 A 
ATOM     11  C   UNL     1      -5.593  -2.930  -0.211  1.00  0.00     0.049 A 
ATOM     12  C   UNL     1      -4.247  -3.552   1.736  1.00  0.00     0.087 A 
ATOM     13  C   UNL     1      -5.275  -3.827   0.815  1.00  0.00     0.143 A 
ATOM     14  O   UNL     1      -6.007  -4.987   0.819  1.00  0.00    -0.482 OA
ATOM     15  C   UNL     1      -4.663  -5.713   2.785  1.00  0.00     0.265 C 
ATOM     16  C   UNL     1      -6.005  -5.624   2.083  1.00  0.00     0.330 C 
ATOM     17  O   UNL     1      -4.347  -6.688   3.467  1.00  0.00    -0.270 OA
BRANCH   8  18
ATOM     18  C   UNL     1      -3.191  -0.128   0.470  1.00  0.00     0.254 C 
ATOM     19  C   UNL     1       1.775   0.571  -1.496  1.00  0.00     0.332 C 
ATOM     20  N   UNL     1       0.333   0.572  -1.782  1.00  0.00    -0.334 N 
ATOM     21  C   UNL     1      -0.336   1.604  -0.954  1.00  0.00     0.283 C 
ATOM     22  C   UNL     1      -0.219  -0.782  -1.561  1.00  0.00     0.283 C 
ATOM     23  H   UNL     1       0.163   0.810  -2.759  1.00  0.00     0.347 HD
ATOM     24  C   UNL     1      -1.870   1.486  -0.859  1.00  0.00     0.181 C 
ATOM     25  C   UNL     1      -1.762  -0.872  -1.503  1.00  0.00     0.181 C 
ATOM     26  N   UNL     1      -2.319   0.121  -0.586  1.00  0.00    -0.327 N 
ATOM     27  O   UNL     1      -3.479   0.705   1.325  1.00  0.00    -0.269 OA
ENDBRANCH   8  18
ENDBRANCH   6   7
ENDBRANCH   4   6
ENDBRANCH   3   4
ENDBRANCH   2   3
ENDBRANCH   1   2
BRANCH   1  28
ATOM     28  O   UNL     1       0.919  -3.543   2.056  1.00  0.00    -0.458 OA
BRANCH  28  29
ATOM     29  C   UNL     1      -0.031  -2.616   1.809  1.00  0.00     0.338 C 
ATOM     30  O   UNL     1      -0.805  -2.640   0.866  1.00  0.00    -0.246 OA
BRANCH  29  31
ATOM     31  C   UNL     1      -0.086  -1.518   2.786  1.00  0.00     0.060 A 
ATOM     32  C   UNL     1      -0.422  -1.716   4.122  1.00  0.00     0.016 A 
ATOM     33  C   UNL     1      -0.047  -0.226   2.264  1.00  0.00     0.016 A 
ATOM     34  C   UNL     1      -0.783  -0.613   4.909  1.00  0.00     0.010 A 
ATOM     35  C   UNL     1      -0.352   0.876   3.053  1.00  0.00     0.010 A 
ATOM     36  C   UNL     1      -0.734   0.694   4.383  1.00  0.00    -0.014 A 
BRANCH  36  37
ATOM     37  C   UNL     1      -0.843   1.892   5.250  1.00  0.00     0.031 A 
ATOM     38  C   UNL     1      -1.933   2.917   5.091  1.00  0.00     0.074 A 
ATOM     39  C   UNL     1       0.193   2.124   6.077  1.00  0.00     0.049 A 
ATOM     40  N   UNL     1      -2.076   4.066   5.705  1.00  0.00    -0.248 NA
ATOM     41  C   UNL     1      -2.979   2.639   4.098  1.00  0.00     0.031 C 
ATOM     42  C   UNL     1       1.368   1.256   6.211  1.00  0.00     0.029 A 
ATOM     43  N   UNL     1       0.449   3.164   6.928  1.00  0.00    -0.354 N 
ATOM     44  C   UNL     1      -3.209   4.660   5.157  1.00  0.00     0.074 A 
ATOM     45  C   UNL     1      -3.708   3.749   4.148  1.00  0.00     0.031 C 
ATOM     46  C   UNL     1       2.212   1.792   7.101  1.00  0.00     0.029 A 
ATOM     47  C   UNL     1       1.653   3.050   7.578  1.00  0.00     0.049 A 
ATOM     48  H   UNL     1      -0.169   3.919   7.062  1.00  0.00     0.167 HD
ATOM     49  C   UNL     1      -3.775   5.852   5.474  1.00  0.00     0.037 A 
ATOM     50  C   UNL     1       2.251   3.866   8.461  1.00  0.00     0.037 A 
ATOM     51  C   UNL     1      -3.276   6.732   6.506  1.00  0.00     0.049 A 
ATOM     52  C   UNL     1       1.550   5.117   8.879  1.00  0.00     0.074 A 
ATOM     53  C   UNL     1      -3.830   7.909   6.982  1.00  0.00     0.029 A 
ATOM     54  N   UNL     1      -2.103   6.531   7.221  1.00  0.00    -0.354 N 
ATOM     55  N   UNL     1       0.429   5.618   8.419  1.00  0.00    -0.248 NA
ATOM     56  C   UNL     1       2.179   5.901   9.946  1.00  0.00     0.031 C 
ATOM     57  C   UNL     1      -2.981   8.431   7.966  1.00  0.00     0.029 A 
ATOM     58  C   UNL     1      -1.913   7.564   8.126  1.00  0.00     0.049 A 
ATOM     59  H   UNL     1      -1.495   5.766   7.102  1.00  0.00     0.167 HD
ATOM     60  C   UNL     1       0.211   6.778   9.146  1.00  0.00     0.074 A 
ATOM     61  C   UNL     1       1.309   6.893  10.088  1.00  0.00     0.031 C 
ATOM     62  C   UNL     1      -0.806   7.667   9.042  1.00  0.00     0.037 A 
BRANCH  49  63
ATOM     63  C   UNL     1      -5.007   6.286   4.722  1.00  0.00     0.058 A 
ATOM     64  C   UNL     1      -6.257   5.692   4.952  1.00  0.00     0.135 A 
ATOM     65  C   UNL     1      -4.959   7.373   3.833  1.00  0.00     0.135 A 
ATOM     66  F   UNL     1      -6.365   4.650   5.792  1.00  0.00    -0.206 F 
ATOM     67  C   UNL     1      -7.412   6.150   4.322  1.00  0.00     0.059 A 
ATOM     68  C   UNL     1      -6.104   7.861   3.206  1.00  0.00     0.059 A 
ATOM     69  F   UNL     1      -3.792   7.987   3.579  1.00  0.00    -0.206 F 
ATOM     70  C   UNL     1      -7.327   7.237   3.450  1.00  0.00     0.060 A 
BRANCH  70  71
ATOM     71  S   UNL     1      -8.838   7.853   2.673  1.00  0.00     0.124 S 
ATOM     72  O   UNL     1      -9.032   6.884   1.600  1.00  0.00    -0.237 OA
ATOM     73  O   UNL     1      -9.806   7.790   3.764  1.00  0.00    -0.237 OA
ATOM     74  O   UNL     1      -8.473   9.200   2.244  1.00  0.00    -0.744 OA
ENDBRANCH  70  71
ENDBRANCH  49  63
BRANCH  50  75
ATOM     75  C   UNL     1       3.549   3.454   9.040  1.00  0.00     0.058 A 
ATOM     76  C   UNL     1       3.598   2.852  10.305  1.00  0.00     0.135 A 
ATOM     77  C   UNL     1       4.735   3.527   8.294  1.00  0.00     0.135 A 
ATOM     78  F   UNL     1       2.482   2.752  11.043  1.00  0.00    -0.206 F 
ATOM     79  C   UNL     1       4.779   2.327  10.811  1.00  0.00     0.059 A 
ATOM     80  C   UNL     1       5.926   2.994   8.773  1.00  0.00     0.059 A 
ATOM     81  F   UNL     1       4.723   4.063   7.064  1.00  0.00    -0.206 F 
ATOM     82  C   UNL     1       5.937   2.394  10.033  1.00  0.00     0.060 A 
BRANCH  82  83
ATOM     83  S   UNL     1       7.442   1.607  10.647  1.00  0.00     0.124 S 
ATOM     84  O   UNL     1       7.942   2.616  11.574  1.00  0.00    -0.237 OA
ATOM     85  O   UNL     1       6.930   0.382  11.252  1.00  0.00    -0.237 OA
ATOM     86  O   UNL     1       8.232   1.412   9.435  1.00  0.00    -0.744 OA
ENDBRANCH  82  83
ENDBRANCH  50  75
BRANCH  62  87
ATOM     87  C   UNL     1      -0.767   8.835   9.981  1.00  0.00     0.058 A 
ATOM     88  C   UNL     1       0.101   9.916   9.762  1.00  0.00     0.135 A 
ATOM     89  C   UNL     1      -1.593   8.868  11.114  1.00  0.00     0.135 A 
ATOM     90  F   UNL     1       0.917   9.922   8.696  1.00  0.00    -0.206 F 
ATOM     91  C   UNL     1       0.172  10.979  10.655  1.00  0.00     0.059 A 
ATOM     92  C   UNL     1      -1.550   9.929  12.012  1.00  0.00     0.059 A 
ATOM     93  F   UNL     1      -2.441   7.857  11.363  1.00  0.00    -0.206 F 
ATOM     94  C   UNL     1      -0.651  10.971  11.783  1.00  0.00     0.060 A 
BRANCH  94  95
ATOM     95  S   UNL     1      -0.548  12.348  12.946  1.00  0.00     0.124 S 
ATOM     96  O   UNL     1       0.636  11.988  13.719  1.00  0.00    -0.237 OA
ATOM     97  O   UNL     1      -0.401  13.500  12.062  1.00  0.00    -0.237 OA
ATOM     98  O   UNL     1      -1.816  12.276  13.665  1.00  0.00    -0.744 OA
ENDBRANCH  94  95
ENDBRANCH  62  87
ENDBRANCH  36  37
ENDBRANCH  29  31
ENDBRANCH  28  29
ENDBRANCH   1  28
TORSDOF 16
