REMARK SMILES CC(C)C[C@H](NC(=O)[C@@H](NC(=O)N1CC(OCCOC(=O)c2ccc(-c3c4nc(c(-c5c(F)cc(S(=O)(=O)[O-])cc5F)c5ccc([nH]5)c(-c5c(F)cc(S(=O)(=O)[O-])cc5F)c5nc(c(-c6c(F)cc(S(=O)(=O)[O-])cc6F)c6ccc3[nH]6)C=C5)C=C4)cc2)=Nc2ccccc21)C(C)C)C(=O)[O-]
REMARK SMILES IDX 17 1 16 2 15 3 13 4 14 5 94 6 89 7 93 8 88 9 90 10 92 11
REMARK SMILES IDX 91 12 11 13 10 14 12 16 9 17 7 18 6 19 8 21 5 22 4 23 2 24
REMARK SMILES IDX 1 25 3 26 98 27 99 28 100 29 95 30 96 31 97 32 18 33 19 34
REMARK SMILES IDX 20 35 21 36 22 37 23 38 87 39 24 40 86 41 25 42 26 43 27 44
REMARK SMILES IDX 80 45 28 46 85 47 79 48 81 49 29 50 84 51 78 52 77 53 30 55
REMARK SMILES IDX 64 56 43 57 63 58 44 59 47 60 62 61 82 62 45 63 46 64 61 66
REMARK SMILES IDX 83 67 48 68 31 69 32 70 41 71 33 72 34 73 40 74 42 75 35 76
REMARK SMILES IDX 36 77 37 78 38 79 39 80 65 81 66 82 75 83 67 84 68 85 74 86
REMARK SMILES IDX 76 87 69 88 70 89 71 90 72 91 73 92 49 93 50 94 59 95 51 96
REMARK SMILES IDX 52 97 58 98 60 99 53 100 54 101 55 102 56 103 57 104
REMARK H PARENT 10 15 6 20 81 54 47 65
REMARK Flexibility Score: inf
ROOT
ATOM      1  C   UNL     1      -3.341   4.656  -0.685  1.00  0.00     0.272 C 
ENDROOT
BRANCH   1   2
ATOM      2  O   UNL     1      -2.761   3.963  -1.812  1.00  0.00    -0.476 OA
BRANCH   2   3
ATOM      3  C   UNL     1      -1.435   4.104  -2.066  1.00  0.00     0.209 C 
ATOM      4  N   UNL     1       0.457   2.721  -2.842  1.00  0.00    -0.283 N 
ATOM      5  C   UNL     1      -0.949   3.045  -3.012  1.00  0.00     0.224 C 
ATOM      6  C   UNL     1       1.282   3.849  -2.523  1.00  0.00     0.072 A 
ATOM      7  C   UNL     1       0.680   4.987  -1.919  1.00  0.00     0.091 A 
ATOM      8  C   UNL     1       2.672   3.817  -2.683  1.00  0.00     0.029 A 
ATOM      9  N   UNL     1      -0.699   5.055  -1.594  1.00  0.00    -0.214 NA
ATOM     10  C   UNL     1       1.490   6.037  -1.474  1.00  0.00     0.030 A 
ATOM     11  C   UNL     1       3.464   4.870  -2.221  1.00  0.00     0.002 A 
ATOM     12  C   UNL     1       2.875   5.977  -1.615  1.00  0.00     0.002 A 
BRANCH   4  13
ATOM     13  C   UNL     1       0.920   1.584  -3.480  1.00  0.00     0.323 C 
ATOM     14  N   UNL     1       0.380   0.387  -3.070  1.00  0.00    -0.326 N 
ATOM     15  H   UNL     1      -0.376   0.032  -3.591  1.00  0.00     0.166 HD
ATOM     16  O   UNL     1       1.582   1.606  -4.515  1.00  0.00    -0.248 OA
BRANCH  14  17
ATOM     17  C   UNL     1       0.842  -0.418  -1.905  1.00  0.00     0.175 C 
BRANCH  17  18
ATOM     18  C   UNL     1      -0.033  -1.649  -1.512  1.00  0.00     0.243 C 
ATOM     19  N   UNL     1      -1.392  -1.583  -1.462  1.00  0.00    -0.346 N 
ATOM     20  H   UNL     1      -1.825  -2.125  -0.764  1.00  0.00     0.164 HD
ATOM     21  O   UNL     1       0.485  -2.662  -1.033  1.00  0.00    -0.273 OA
BRANCH  19  22
ATOM     22  C   UNL     1      -2.287  -0.808  -2.315  1.00  0.00     0.128 C 
BRANCH  22  23
ATOM     23  C   UNL     1      -2.212  -1.446  -3.708  1.00  0.00     0.034 C 
BRANCH  23  24
ATOM     24  C   UNL     1      -2.864  -0.737  -4.904  1.00  0.00    -0.015 C 
ATOM     25  C   UNL     1      -2.843   0.785  -4.866  1.00  0.00     0.007 C 
ATOM     26  C   UNL     1      -2.151  -1.207  -6.179  1.00  0.00     0.007 C 
ENDBRANCH  23  24
ENDBRANCH  22  23
BRANCH  22  27
ATOM     27  C   UNL     1      -3.722  -0.863  -1.781  1.00  0.00     0.064 C 
ATOM     28  O   UNL     1      -4.654  -0.162  -2.146  1.00  0.00    -0.548 OA
ATOM     29  O   UNL     1      -3.937  -1.866  -0.901  1.00  0.00    -0.548 OA
ENDBRANCH  22  27
ENDBRANCH  19  22
ENDBRANCH  17  18
BRANCH  17  30
ATOM     30  C   UNL     1       1.223   0.398  -0.643  1.00  0.00     0.015 C 
ATOM     31  C   UNL     1       0.889  -0.278   0.696  1.00  0.00     0.010 C 
ATOM     32  C   UNL     1       2.727   0.713  -0.673  1.00  0.00     0.010 C 
ENDBRANCH  17  30
ENDBRANCH  14  17
ENDBRANCH   4  13
ENDBRANCH   2   3
ENDBRANCH   1   2
BRANCH   1  33
ATOM     33  C   UNL     1      -3.285   3.760   0.555  1.00  0.00     0.274 C 
BRANCH  33  34
ATOM     34  O   UNL     1      -1.954   3.799   1.095  1.00  0.00    -0.458 OA
BRANCH  34  35
ATOM     35  C   UNL     1      -1.582   2.771   1.891  1.00  0.00     0.338 C 
ATOM     36  O   UNL     1      -2.298   1.851   2.273  1.00  0.00    -0.246 OA
BRANCH  35  37
ATOM     37  C   UNL     1      -0.135   2.886   2.192  1.00  0.00     0.060 A 
ATOM     38  C   UNL     1       0.715   3.332   1.187  1.00  0.00     0.016 A 
ATOM     39  C   UNL     1       0.421   2.431   3.390  1.00  0.00     0.016 A 
ATOM     40  C   UNL     1       2.096   3.259   1.331  1.00  0.00     0.010 A 
ATOM     41  C   UNL     1       1.823   2.416   3.561  1.00  0.00     0.010 A 
ATOM     42  C   UNL     1       2.682   2.795   2.515  1.00  0.00    -0.014 A 
BRANCH  42  43
ATOM     43  C   UNL     1       4.173   2.663   2.575  1.00  0.00     0.031 A 
ATOM     44  C   UNL     1       4.843   1.313   2.729  1.00  0.00     0.074 A 
ATOM     45  C   UNL     1       4.950   3.736   2.308  1.00  0.00     0.049 A 
ATOM     46  N   UNL     1       6.121   1.024   2.764  1.00  0.00    -0.248 NA
ATOM     47  C   UNL     1       3.974   0.128   2.787  1.00  0.00     0.031 C 
ATOM     48  C   UNL     1       4.460   5.076   1.973  1.00  0.00     0.029 A 
ATOM     49  N   UNL     1       6.318   3.865   2.241  1.00  0.00    -0.354 N 
ATOM     50  C   UNL     1       6.205  -0.366   2.812  1.00  0.00     0.074 A 
ATOM     51  C   UNL     1       4.850  -0.868   2.784  1.00  0.00     0.031 C 
ATOM     52  C   UNL     1       5.501   5.871   1.691  1.00  0.00     0.029 A 
ATOM     53  C   UNL     1       6.737   5.144   1.956  1.00  0.00     0.049 A 
ATOM     54  H   UNL     1       6.938   3.114   2.383  1.00  0.00     0.167 HD
ATOM     55  C   UNL     1       7.303  -1.153   2.907  1.00  0.00     0.037 A 
ATOM     56  C   UNL     1       7.964   5.702   1.984  1.00  0.00     0.037 A 
ATOM     57  C   UNL     1       8.645  -0.654   3.059  1.00  0.00     0.049 A 
ATOM     58  C   UNL     1       9.139   4.854   2.380  1.00  0.00     0.074 A 
ATOM     59  C   UNL     1       9.802  -1.360   3.341  1.00  0.00     0.029 A 
ATOM     60  N   UNL     1       9.004   0.681   2.974  1.00  0.00    -0.354 N 
ATOM     61  N   UNL     1       9.192   3.556   2.556  1.00  0.00    -0.248 NA
ATOM     62  C   UNL     1      10.407   5.550   2.634  1.00  0.00     0.031 C 
ATOM     63  C   UNL     1      10.847  -0.442   3.498  1.00  0.00     0.029 A 
ATOM     64  C   UNL     1      10.352   0.828   3.253  1.00  0.00     0.049 A 
ATOM     65  H   UNL     1       8.390   1.418   2.749  1.00  0.00     0.167 HD
ATOM     66  C   UNL     1      10.496   3.281   2.950  1.00  0.00     0.074 A 
ATOM     67  C   UNL     1      11.207   4.543   2.959  1.00  0.00     0.031 C 
ATOM     68  C   UNL     1      11.049   2.089   3.284  1.00  0.00     0.037 A 
BRANCH  55  69
ATOM     69  C   UNL     1       7.094  -2.640   2.982  1.00  0.00     0.058 A 
ATOM     70  C   UNL     1       6.902  -3.426   1.837  1.00  0.00     0.135 A 
ATOM     71  C   UNL     1       7.137  -3.291   4.226  1.00  0.00     0.135 A 
ATOM     72  F   UNL     1       6.837  -2.852   0.625  1.00  0.00    -0.206 F 
ATOM     73  C   UNL     1       6.756  -4.810   1.923  1.00  0.00     0.059 A 
ATOM     74  C   UNL     1       7.008  -4.671   4.334  1.00  0.00     0.059 A 
ATOM     75  F   UNL     1       7.312  -2.581   5.351  1.00  0.00    -0.206 F 
ATOM     76  C   UNL     1       6.811  -5.423   3.178  1.00  0.00     0.060 A 
BRANCH  76  77
ATOM     77  S   UNL     1       6.634  -7.219   3.281  1.00  0.00     0.124 S 
ATOM     78  O   UNL     1       5.216  -7.392   2.984  1.00  0.00    -0.237 OA
ATOM     79  O   UNL     1       7.559  -7.685   2.253  1.00  0.00    -0.237 OA
ATOM     80  O   UNL     1       7.026  -7.521   4.654  1.00  0.00    -0.744 OA
ENDBRANCH  76  77
ENDBRANCH  55  69
BRANCH  56  81
ATOM     81  C   UNL     1       8.116   7.168   1.769  1.00  0.00     0.058 A 
ATOM     82  C   UNL     1       8.841   7.684   0.687  1.00  0.00     0.135 A 
ATOM     83  C   UNL     1       7.520   8.086   2.652  1.00  0.00     0.135 A 
ATOM     84  F   UNL     1       9.453   6.852  -0.170  1.00  0.00    -0.206 F 
ATOM     85  C   UNL     1       8.960   9.056   0.480  1.00  0.00     0.059 A 
ATOM     86  C   UNL     1       7.593   9.457   2.446  1.00  0.00     0.059 A 
ATOM     87  F   UNL     1       6.822   7.648   3.712  1.00  0.00    -0.206 F 
ATOM     88  C   UNL     1       8.323   9.934   1.360  1.00  0.00     0.060 A 
BRANCH  88  89
ATOM     89  S   UNL     1       8.406  11.711   1.050  1.00  0.00     0.124 S 
ATOM     90  O   UNL     1       9.728  12.037   1.573  1.00  0.00    -0.237 OA
ATOM     91  O   UNL     1       8.256  11.782  -0.400  1.00  0.00    -0.237 OA
ATOM     92  O   UNL     1       7.276  12.233   1.813  1.00  0.00    -0.744 OA
ENDBRANCH  88  89
ENDBRANCH  56  81
BRANCH  68  93
ATOM     93  C   UNL     1      12.493   2.089   3.695  1.00  0.00     0.058 A 
ATOM     94  C   UNL     1      12.894   2.570   4.951  1.00  0.00     0.135 A 
ATOM     95  C   UNL     1      13.480   1.569   2.844  1.00  0.00     0.135 A 
ATOM     96  F   UNL     1      11.989   3.084   5.799  1.00  0.00    -0.206 F 
ATOM     97  C   UNL     1      14.229   2.555   5.341  1.00  0.00     0.059 A 
ATOM     98  C   UNL     1      14.818   1.523   3.222  1.00  0.00     0.059 A 
ATOM     99  F   UNL     1      13.146   1.089   1.635  1.00  0.00    -0.206 F 
ATOM    100  C   UNL     1      15.184   2.030   4.468  1.00  0.00     0.060 A 
BRANCH 100 101
ATOM    101  S   UNL     1      16.911   1.995   4.993  1.00  0.00     0.124 S 
ATOM    102  O   UNL     1      17.291   3.396   4.847  1.00  0.00    -0.237 OA
ATOM    103  O   UNL     1      16.813   1.505   6.365  1.00  0.00    -0.237 OA
ATOM    104  O   UNL     1      17.534   1.073   4.049  1.00  0.00    -0.744 OA
ENDBRANCH 100 101
ENDBRANCH  68  93
ENDBRANCH  42  43
ENDBRANCH  35  37
ENDBRANCH  34  35
ENDBRANCH  33  34
ENDBRANCH   1  33
TORSDOF 21
