REMARK SMILES Cc1ccc(S(=O)(=O)N2C[C@@H](CC(=O)OCCOC(=O)c3ccc(-c4c5nc(c(-c6c(F)cc(S(=O)(=O)[O-])cc6F)c6ccc([nH]6)c(-c6c(F)cc(S(=O)(=O)[O-])cc6F)c6nc(c(-c7c(F)cc(S(=O)(=O)[O-])cc7F)c7ccc4[nH]7)C=C6)C=C5)cc3)c3ccccc32)c(C)c1
REMARK SMILES IDX 16 1 15 2 13 3 14 4 12 5 11 6 9 7 10 8 92 9 87 10 91 11
REMARK SMILES IDX 88 12 90 13 89 14 6 15 7 16 8 17 5 18 1 19 2 20 3 21 95 22
REMARK SMILES IDX 4 23 93 24 94 25 17 26 18 27 19 28 20 29 21 30 22 31 86 32
REMARK SMILES IDX 23 33 85 34 24 35 25 36 26 37 79 38 27 39 84 40 78 41 80 42
REMARK SMILES IDX 28 43 83 44 77 45 76 46 29 48 63 49 42 50 62 51 43 52 46 53
REMARK SMILES IDX 61 54 81 55 44 56 45 57 60 59 82 60 47 61 30 62 31 63 40 64
REMARK SMILES IDX 32 65 33 66 39 67 41 68 34 69 35 70 36 71 37 72 38 73 64 74
REMARK SMILES IDX 65 75 74 76 66 77 67 78 73 79 75 80 68 81 69 82 70 83 71 84
REMARK SMILES IDX 72 85 48 86 49 87 58 88 50 89 51 90 57 91 59 92 52 93 53 94
REMARK SMILES IDX 54 95 55 96 56 97
REMARK H PARENT 80 47 46 58
REMARK Flexibility Score: inf
ROOT
ATOM      1  C   UNL     1      -0.590  -9.947   0.362  1.00  0.00     0.274 C 
ENDROOT
BRANCH   1   2
ATOM      2  O   UNL     1      -0.676  -8.527   0.125  1.00  0.00    -0.462 OA
BRANCH   2   3
ATOM      3  C   UNL     1      -1.011  -8.124  -1.123  1.00  0.00     0.306 C 
ATOM      4  O   UNL     1      -1.173  -8.871  -2.079  1.00  0.00    -0.252 OA
BRANCH   3   5
ATOM      5  C   UNL     1      -1.128  -6.620  -1.225  1.00  0.00     0.133 C 
BRANCH   5   6
ATOM      6  C   UNL     1      -2.207  -6.015  -0.315  1.00  0.00     0.053 C 
ATOM      7  N   UNL     1      -1.952  -3.619  -0.150  1.00  0.00    -0.265 N 
ATOM      8  C   UNL     1      -2.727  -4.665  -0.874  1.00  0.00     0.144 C 
ATOM      9  C   UNL     1      -1.542  -4.193   1.093  1.00  0.00     0.055 A 
ATOM     10  C   UNL     1      -1.674  -5.581   1.029  1.00  0.00    -0.018 A 
ATOM     11  C   UNL     1      -0.965  -3.581   2.195  1.00  0.00     0.027 A 
ATOM     12  C   UNL     1      -1.312  -6.372   2.110  1.00  0.00     0.006 A 
ATOM     13  C   UNL     1      -0.555  -4.379   3.266  1.00  0.00     0.002 A 
ATOM     14  C   UNL     1      -0.734  -5.767   3.226  1.00  0.00     0.000 A 
BRANCH   7  15
ATOM     15  S   UNL     1      -2.544  -2.038  -0.230  1.00  0.00     0.264 S 
ATOM     16  O   UNL     1      -3.286  -1.765   0.984  1.00  0.00    -0.201 OA
ATOM     17  O   UNL     1      -3.133  -1.846  -1.540  1.00  0.00    -0.201 OA
BRANCH  15  18
ATOM     18  C   UNL     1      -1.076  -1.014  -0.210  1.00  0.00     0.090 A 
ATOM     19  C   UNL     1       2.546   1.307  -0.001  1.00  0.00     0.044 C 
ATOM     20  C   UNL     1       1.289   0.493  -0.076  1.00  0.00    -0.051 A 
ATOM     21  C   UNL     1       1.349  -0.882  -0.300  1.00  0.00     0.005 A 
ATOM     22  C   UNL     1       0.037   1.113   0.036  1.00  0.00     0.008 A 
ATOM     23  C   UNL     1       0.176  -1.628  -0.378  1.00  0.00     0.023 A 
ATOM     24  C   UNL     1      -1.163   0.378  -0.030  1.00  0.00    -0.030 A 
ATOM     25  C   UNL     1      -2.450   1.153   0.036  1.00  0.00     0.046 C 
ENDBRANCH  15  18
ENDBRANCH   7  15
ENDBRANCH   5   6
ENDBRANCH   3   5
ENDBRANCH   2   3
ENDBRANCH   1   2
BRANCH   1  26
ATOM     26  C   UNL     1      -1.895 -10.488   0.951  1.00  0.00     0.275 C 
BRANCH  26  27
ATOM     27  O   UNL     1      -2.903 -10.600  -0.068  1.00  0.00    -0.458 OA
BRANCH  27  28
ATOM     28  C   UNL     1      -3.825  -9.611  -0.095  1.00  0.00     0.338 C 
ATOM     29  O   UNL     1      -3.938  -8.685   0.688  1.00  0.00    -0.246 OA
BRANCH  28  30
ATOM     30  C   UNL     1      -4.634  -9.756  -1.313  1.00  0.00     0.060 A 
ATOM     31  C   UNL     1      -4.457  -8.845  -2.358  1.00  0.00     0.016 A 
ATOM     32  C   UNL     1      -5.586 -10.772  -1.404  1.00  0.00     0.016 A 
ATOM     33  C   UNL     1      -5.230  -8.954  -3.513  1.00  0.00     0.010 A 
ATOM     34  C   UNL     1      -6.356 -10.883  -2.563  1.00  0.00     0.010 A 
ATOM     35  C   UNL     1      -6.185  -9.974  -3.622  1.00  0.00    -0.014 A 
BRANCH  35  36
ATOM     36  C   UNL     1      -7.031 -10.079  -4.834  1.00  0.00     0.031 A 
ATOM     37  C   UNL     1      -8.472  -9.667  -4.773  1.00  0.00     0.074 A 
ATOM     38  C   UNL     1      -6.505 -10.560  -5.976  1.00  0.00     0.049 A 
ATOM     39  N   UNL     1      -9.402  -9.772  -5.686  1.00  0.00    -0.248 NA
ATOM     40  C   UNL     1      -8.928  -9.060  -3.513  1.00  0.00     0.031 C 
ATOM     41  C   UNL     1      -5.110 -10.961  -6.160  1.00  0.00     0.029 A 
ATOM     42  N   UNL     1      -7.087 -10.803  -7.194  1.00  0.00    -0.354 N 
ATOM     43  C   UNL     1     -10.557  -9.258  -5.110  1.00  0.00     0.074 A 
ATOM     44  C   UNL     1     -10.216  -8.862  -3.760  1.00  0.00     0.031 C 
ATOM     45  C   UNL     1      -4.944 -11.403  -7.417  1.00  0.00     0.029 A 
ATOM     46  C   UNL     1      -6.228 -11.357  -8.113  1.00  0.00     0.049 A 
ATOM     47  H   UNL     1      -8.030 -10.598  -7.392  1.00  0.00     0.167 HD
ATOM     48  C   UNL     1     -11.787  -9.124  -5.662  1.00  0.00     0.037 A 
ATOM     49  C   UNL     1      -6.457 -11.802  -9.364  1.00  0.00     0.037 A 
ATOM     50  C   UNL     1     -12.114  -9.521  -7.007  1.00  0.00     0.049 A 
ATOM     51  C   UNL     1      -7.846 -11.700  -9.934  1.00  0.00     0.074 A 
ATOM     52  C   UNL     1     -13.328  -9.422  -7.664  1.00  0.00     0.029 A 
ATOM     53  N   UNL     1     -11.223 -10.099  -7.901  1.00  0.00    -0.354 N 
ATOM     54  N   UNL     1      -8.930 -11.209  -9.381  1.00  0.00    -0.248 NA
ATOM     55  C   UNL     1      -8.046 -12.214 -11.296  1.00  0.00     0.031 C 
ATOM     56  C   UNL     1     -13.181  -9.975  -8.941  1.00  0.00     0.029 A 
ATOM     57  C   UNL     1     -11.864 -10.379  -9.097  1.00  0.00     0.049 A 
ATOM     58  H   UNL     1     -10.274 -10.283  -7.713  1.00  0.00     0.167 HD
ATOM     59  C   UNL     1      -9.935 -11.335 -10.334  1.00  0.00     0.074 A 
ATOM     60  C   UNL     1      -9.327 -11.940 -11.502  1.00  0.00     0.031 C 
ATOM     61  C   UNL     1     -11.241 -10.979 -10.251  1.00  0.00     0.037 A 
BRANCH  48  62
ATOM     62  C   UNL     1     -12.874  -8.551  -4.796  1.00  0.00     0.058 A 
ATOM     63  C   UNL     1     -12.901  -7.192  -4.446  1.00  0.00     0.135 A 
ATOM     64  C   UNL     1     -13.909  -9.371  -4.317  1.00  0.00     0.135 A 
ATOM     65  F   UNL     1     -11.927  -6.367  -4.863  1.00  0.00    -0.206 F 
ATOM     66  C   UNL     1     -13.897  -6.671  -3.625  1.00  0.00     0.059 A 
ATOM     67  C   UNL     1     -14.929  -8.867  -3.516  1.00  0.00     0.059 A 
ATOM     68  F   UNL     1     -13.932 -10.678  -4.621  1.00  0.00    -0.206 F 
ATOM     69  C   UNL     1     -14.904  -7.519  -3.160  1.00  0.00     0.060 A 
BRANCH  69  70
ATOM     70  S   UNL     1     -16.181  -6.836  -2.082  1.00  0.00     0.124 S 
ATOM     71  O   UNL     1     -15.453  -6.692  -0.825  1.00  0.00    -0.237 OA
ATOM     72  O   UNL     1     -16.530  -5.590  -2.757  1.00  0.00    -0.237 OA
ATOM     73  O   UNL     1     -17.218  -7.862  -2.091  1.00  0.00    -0.744 OA
ENDBRANCH  69  70
ENDBRANCH  48  62
BRANCH  49  74
ATOM     74  C   UNL     1      -5.346 -12.391 -10.155  1.00  0.00     0.058 A 
ATOM     75  C   UNL     1      -4.803 -11.711 -11.254  1.00  0.00     0.135 A 
ATOM     76  C   UNL     1      -4.789 -13.634  -9.816  1.00  0.00     0.135 A 
ATOM     77  F   UNL     1      -5.309 -10.524 -11.624  1.00  0.00    -0.206 F 
ATOM     78  C   UNL     1      -3.752 -12.243 -11.994  1.00  0.00     0.059 A 
ATOM     79  C   UNL     1      -3.722 -14.177 -10.525  1.00  0.00     0.059 A 
ATOM     80  F   UNL     1      -5.266 -14.321  -8.765  1.00  0.00    -0.206 F 
ATOM     81  C   UNL     1      -3.215 -13.476 -11.619  1.00  0.00     0.060 A 
BRANCH  81  82
ATOM     82  S   UNL     1      -1.811 -14.130 -12.548  1.00  0.00     0.124 S 
ATOM     83  O   UNL     1      -2.455 -14.572 -13.780  1.00  0.00    -0.237 OA
ATOM     84  O   UNL     1      -0.946 -12.960 -12.664  1.00  0.00    -0.237 OA
ATOM     85  O   UNL     1      -1.303 -15.191 -11.684  1.00  0.00    -0.744 OA
ENDBRANCH  81  82
ENDBRANCH  49  74
BRANCH  61  86
ATOM     86  C   UNL     1     -12.096 -11.205 -11.466  1.00  0.00     0.058 A 
ATOM     87  C   UNL     1     -12.531 -12.488 -11.834  1.00  0.00     0.135 A 
ATOM     88  C   UNL     1     -12.530 -10.117 -12.241  1.00  0.00     0.135 A 
ATOM     89  F   UNL     1     -12.138 -13.561 -11.130  1.00  0.00    -0.206 F 
ATOM     90  C   UNL     1     -13.352 -12.687 -12.938  1.00  0.00     0.059 A 
ATOM     91  C   UNL     1     -13.371 -10.290 -13.336  1.00  0.00     0.059 A 
ATOM     92  F   UNL     1     -12.150  -8.869 -11.927  1.00  0.00    -0.206 F 
ATOM     93  C   UNL     1     -13.769 -11.581 -13.683  1.00  0.00     0.060 A 
BRANCH  93  94
ATOM     94  S   UNL     1     -14.867 -11.847 -15.091  1.00  0.00     0.124 S 
ATOM     95  O   UNL     1     -13.944 -12.383 -16.086  1.00  0.00    -0.237 OA
ATOM     96  O   UNL     1     -15.841 -12.793 -14.556  1.00  0.00    -0.237 OA
ATOM     97  O   UNL     1     -15.389 -10.513 -15.372  1.00  0.00    -0.744 OA
ENDBRANCH  93  94
ENDBRANCH  61  86
ENDBRANCH  35  36
ENDBRANCH  28  30
ENDBRANCH  27  28
ENDBRANCH  26  27
ENDBRANCH   1  26
TORSDOF 17
