REMARK SMILES C[C@@H]1CC(=O)N(CC(C)(C)C(=O)OCCOC(=O)c2ccc(-c3c4nc(c(-c5c(F)cc(S(=O)(=O)[O-])cc5F)c5ccc([nH]5)c(-c5c(F)cc(S(=O)(=O)[O-])cc5F)c5nc(c(-c6c(F)cc(S(=O)(=O)[O-])cc6F)c6ccc3[nH]6)C=C5)C=C4)cc2)C1
REMARK SMILES IDX 15 1 14 2 13 3 11 4 12 5 8 6 9 7 10 8 7 9 6 10 1 11 2 12
REMARK SMILES IDX 3 13 85 14 4 15 5 16 16 17 17 18 18 19 19 20 20 21 84 22
REMARK SMILES IDX 21 23 83 24 22 25 23 26 24 27 77 28 25 29 82 30 76 31 78 32
REMARK SMILES IDX 26 33 81 34 75 35 74 36 27 38 61 39 40 40 60 41 41 42 44 43
REMARK SMILES IDX 59 44 79 45 42 46 43 47 58 49 80 50 45 51 28 52 29 53 38 54
REMARK SMILES IDX 30 55 31 56 37 57 39 58 32 59 33 60 34 61 35 62 36 63 62 64
REMARK SMILES IDX 63 65 72 66 64 67 65 68 71 69 73 70 66 71 67 72 68 73 69 74
REMARK SMILES IDX 70 75 46 76 47 77 56 78 48 79 49 80 55 81 57 82 50 83 51 84
REMARK SMILES IDX 52 85 53 86 54 87
REMARK H PARENT 78 37 44 48
REMARK Flexibility Score: inf
ROOT
ATOM      1  C   UNL     1       1.294   0.983  -7.605  1.00  0.00     0.275 C 
ENDROOT
BRANCH   1   2
ATOM      2  C   UNL     1       1.484  -0.225  -6.687  1.00  0.00     0.274 C 
BRANCH   2   3
ATOM      3  O   UNL     1       0.215  -0.716  -6.214  1.00  0.00    -0.462 OA
BRANCH   3   4
ATOM      4  C   UNL     1       0.116  -0.907  -4.870  1.00  0.00     0.313 C 
ATOM      5  O   UNL     1       1.057  -0.750  -4.097  1.00  0.00    -0.252 OA
BRANCH   4   6
ATOM      6  C   UNL     1      -1.237  -1.497  -4.440  1.00  0.00     0.080 C 
ATOM      7  C   UNL     1      -0.918  -2.884  -3.855  1.00  0.00     0.025 C 
ATOM      8  C   UNL     1      -2.194  -1.717  -5.630  1.00  0.00     0.025 C 
BRANCH   6   9
ATOM      9  C   UNL     1      -1.969  -0.610  -3.391  1.00  0.00     0.137 C 
BRANCH   9  10
ATOM     10  N   UNL     1      -1.144  -0.026  -2.350  1.00  0.00    -0.341 N 
ATOM     11  C   UNL     1       1.036  -0.267   0.608  1.00  0.00     0.010 C 
ATOM     12  C   UNL     1       0.573  -0.108  -0.823  1.00  0.00     0.015 C 
ATOM     13  C   UNL     1       0.416   1.346  -1.270  1.00  0.00     0.105 C 
ATOM     14  C   UNL     1      -0.803  -0.687  -1.115  1.00  0.00     0.123 C 
ATOM     15  C   UNL     1      -0.473   1.186  -2.475  1.00  0.00     0.222 C 
ATOM     16  O   UNL     1      -0.564   1.980  -3.397  1.00  0.00    -0.275 OA
ENDBRANCH   9  10
ENDBRANCH   6   9
ENDBRANCH   4   6
ENDBRANCH   3   4
ENDBRANCH   2   3
ENDBRANCH   1   2
BRANCH   1  17
ATOM     17  O   UNL     1       0.519   2.012  -6.964  1.00  0.00    -0.458 OA
BRANCH  17  18
ATOM     18  C   UNL     1      -0.811   1.967  -7.233  1.00  0.00     0.338 C 
ATOM     19  O   UNL     1      -1.366   1.224  -8.028  1.00  0.00    -0.246 OA
BRANCH  18  20
ATOM     20  C   UNL     1      -1.555   2.845  -6.307  1.00  0.00     0.060 A 
ATOM     21  C   UNL     1      -2.665   2.290  -5.664  1.00  0.00     0.016 A 
ATOM     22  C   UNL     1      -1.196   4.172  -6.060  1.00  0.00     0.016 A 
ATOM     23  C   UNL     1      -3.364   3.018  -4.706  1.00  0.00     0.010 A 
ATOM     24  C   UNL     1      -1.937   4.926  -5.136  1.00  0.00     0.010 A 
ATOM     25  C   UNL     1      -3.009   4.345  -4.438  1.00  0.00    -0.014 A 
BRANCH  25  26
ATOM     26  C   UNL     1      -3.858   5.124  -3.505  1.00  0.00     0.031 A 
ATOM     27  C   UNL     1      -5.085   5.798  -4.043  1.00  0.00     0.074 A 
ATOM     28  C   UNL     1      -3.596   5.154  -2.185  1.00  0.00     0.049 A 
ATOM     29  N   UNL     1      -5.992   6.495  -3.411  1.00  0.00    -0.248 NA
ATOM     30  C   UNL     1      -5.328   5.655  -5.488  1.00  0.00     0.031 C 
ATOM     31  C   UNL     1      -2.475   4.479  -1.533  1.00  0.00     0.029 A 
ATOM     32  N   UNL     1      -4.262   5.769  -1.153  1.00  0.00    -0.354 N 
ATOM     33  C   UNL     1      -6.919   6.868  -4.376  1.00  0.00     0.074 A 
ATOM     34  C   UNL     1      -6.454   6.335  -5.639  1.00  0.00     0.031 C 
ATOM     35  C   UNL     1      -2.528   4.720  -0.211  1.00  0.00     0.029 A 
ATOM     36  C   UNL     1      -3.666   5.594   0.074  1.00  0.00     0.049 A 
ATOM     37  H   UNL     1      -5.089   6.287  -1.280  1.00  0.00     0.167 HD
ATOM     38  C   UNL     1      -8.053   7.591  -4.223  1.00  0.00     0.037 A 
ATOM     39  C   UNL     1      -3.989   6.101   1.282  1.00  0.00     0.037 A 
ATOM     40  C   UNL     1      -8.495   8.149  -2.971  1.00  0.00     0.049 A 
ATOM     41  C   UNL     1      -5.202   6.991   1.406  1.00  0.00     0.074 A 
ATOM     42  C   UNL     1      -9.617   8.920  -2.722  1.00  0.00     0.029 A 
ATOM     43  N   UNL     1      -7.829   8.012  -1.761  1.00  0.00    -0.354 N 
ATOM     44  N   UNL     1      -6.074   7.337   0.486  1.00  0.00    -0.248 NA
ATOM     45  C   UNL     1      -5.476   7.564   2.732  1.00  0.00     0.031 C 
ATOM     46  C   UNL     1      -9.602   9.294  -1.374  1.00  0.00     0.029 A 
ATOM     47  C   UNL     1      -8.503   8.706  -0.768  1.00  0.00     0.049 A 
ATOM     48  H   UNL     1      -7.001   7.498  -1.628  1.00  0.00     0.167 HD
ATOM     49  C   UNL     1      -7.008   8.145   1.129  1.00  0.00     0.074 A 
ATOM     50  C   UNL     1      -6.608   8.219   2.518  1.00  0.00     0.031 C 
ATOM     51  C   UNL     1      -8.096   8.772   0.615  1.00  0.00     0.037 A 
BRANCH  38  52
ATOM     52  C   UNL     1      -8.867   7.859  -5.456  1.00  0.00     0.058 A 
ATOM     53  C   UNL     1      -9.616   6.850  -6.082  1.00  0.00     0.135 A 
ATOM     54  C   UNL     1      -8.909   9.148  -6.011  1.00  0.00     0.135 A 
ATOM     55  F   UNL     1      -9.590   5.594  -5.606  1.00  0.00    -0.206 F 
ATOM     56  C   UNL     1     -10.361   7.105  -7.228  1.00  0.00     0.059 A 
ATOM     57  C   UNL     1      -9.669   9.432  -7.141  1.00  0.00     0.059 A 
ATOM     58  F   UNL     1      -8.204  10.146  -5.456  1.00  0.00    -0.206 F 
ATOM     59  C   UNL     1     -10.382   8.400  -7.749  1.00  0.00     0.060 A 
BRANCH  59  60
ATOM     60  S   UNL     1     -11.361   8.717  -9.232  1.00  0.00     0.124 S 
ATOM     61  O   UNL     1     -10.571   8.036 -10.254  1.00  0.00    -0.237 OA
ATOM     62  O   UNL     1     -12.638   8.094  -8.900  1.00  0.00    -0.237 OA
ATOM     63  O   UNL     1     -11.381  10.173  -9.322  1.00  0.00    -0.744 OA
ENDBRANCH  59  60
ENDBRANCH  38  52
BRANCH  39  64
ATOM     64  C   UNL     1      -3.140   5.819   2.475  1.00  0.00     0.058 A 
ATOM     65  C   UNL     1      -3.630   5.085   3.566  1.00  0.00     0.135 A 
ATOM     66  C   UNL     1      -1.832   6.323   2.567  1.00  0.00     0.135 A 
ATOM     67  F   UNL     1      -4.879   4.596   3.538  1.00  0.00    -0.206 F 
ATOM     68  C   UNL     1      -2.866   4.878   4.711  1.00  0.00     0.059 A 
ATOM     69  C   UNL     1      -1.038   6.104   3.689  1.00  0.00     0.059 A 
ATOM     70  F   UNL     1      -1.311   7.033   1.555  1.00  0.00    -0.206 F 
ATOM     71  C   UNL     1      -1.569   5.391   4.762  1.00  0.00     0.060 A 
BRANCH  71  72
ATOM     72  S   UNL     1      -0.572   5.088   6.238  1.00  0.00     0.124 S 
ATOM     73  O   UNL     1      -1.209   5.967   7.211  1.00  0.00    -0.237 OA
ATOM     74  O   UNL     1      -0.765   3.656   6.448  1.00  0.00    -0.237 OA
ATOM     75  O   UNL     1       0.772   5.476   5.821  1.00  0.00    -0.744 OA
ENDBRANCH  71  72
ENDBRANCH  39  64
BRANCH  51  76
ATOM     76  C   UNL     1      -8.954   9.566   1.566  1.00  0.00     0.058 A 
ATOM     77  C   UNL     1      -8.511  10.771   2.136  1.00  0.00     0.135 A 
ATOM     78  C   UNL     1     -10.248   9.128   1.893  1.00  0.00     0.135 A 
ATOM     79  F   UNL     1      -7.283  11.238   1.861  1.00  0.00    -0.206 F 
ATOM     80  C   UNL     1      -9.304  11.491   3.026  1.00  0.00     0.059 A 
ATOM     81  C   UNL     1     -11.070   9.848   2.755  1.00  0.00     0.059 A 
ATOM     82  F   UNL     1     -10.730   7.990   1.367  1.00  0.00    -0.206 F 
ATOM     83  C   UNL     1     -10.582  11.019   3.332  1.00  0.00     0.060 A 
BRANCH  83  84
ATOM     84  S   UNL     1     -11.601  11.961   4.486  1.00  0.00     0.124 S 
ATOM     85  O   UNL     1     -10.956  11.662   5.760  1.00  0.00    -0.237 OA
ATOM     86  O   UNL     1     -11.442  13.329   4.000  1.00  0.00    -0.237 OA
ATOM     87  O   UNL     1     -12.933  11.391   4.308  1.00  0.00    -0.744 OA
ENDBRANCH  83  84
ENDBRANCH  51  76
ENDBRANCH  25  26
ENDBRANCH  18  20
ENDBRANCH  17  18
ENDBRANCH   1  17
TORSDOF 16
