REMARK SMILES CCC[C@H]([NH2+]Cc1nc(C(C)(C)C)cs1)C(=O)OCCOC(=O)c1ccc(-c2c3nc(c(-c4c(F)cc(S(=O)(=O)[O-])cc4F)c4ccc([nH]4)c(-c4c(F)cc(S(=O)(=O)[O-])cc4F)c4nc(c(-c5c(F)cc(S(=O)(=O)[O-])cc5F)c5ccc2[nH]5)C=C4)C=C3)cc1
REMARK SMILES IDX 19 1 18 2 16 3 17 4 4 5 3 6 2 7 1 8 5 9 6 12 7 13 8 14 15 15
REMARK SMILES IDX 9 16 14 17 10 18 11 19 12 20 13 21 20 22 21 23 22 24 23 25
REMARK SMILES IDX 24 26 25 27 89 28 26 29 88 30 27 31 28 32 29 33 82 34 30 35
REMARK SMILES IDX 87 36 81 37 83 38 31 39 86 40 80 41 79 42 32 44 66 45 45 46
REMARK SMILES IDX 65 47 46 48 49 49 64 50 84 51 47 52 48 53 63 55 85 56 50 57
REMARK SMILES IDX 33 58 34 59 43 60 35 61 36 62 42 63 44 64 37 65 38 66 39 67
REMARK SMILES IDX 40 68 41 69 67 70 68 71 77 72 69 73 70 74 76 75 78 76 71 77
REMARK SMILES IDX 72 78 73 79 74 80 75 81 51 82 52 83 61 84 53 85 54 86 60 87
REMARK SMILES IDX 62 88 55 89 56 90 57 91 58 92 59 93
REMARK H PARENT 5 10 5 11 83 43 49 54
REMARK Flexibility Score: inf
ROOT
ATOM      1  C   UNL     1       1.172  -3.417   5.509  1.00  0.00     0.274 C 
ENDROOT
BRANCH   1   2
ATOM      2  O   UNL     1       0.848  -3.083   4.149  1.00  0.00    -0.458 OA
BRANCH   2   3
ATOM      3  C   UNL     1       0.427  -1.806   3.932  1.00  0.00     0.364 C 
ATOM      4  O   UNL     1       0.240  -0.976   4.816  1.00  0.00    -0.245 OA
BRANCH   3   5
ATOM      5  C   UNL     1       0.141  -1.501   2.451  1.00  0.00     0.293 C 
BRANCH   5   6
ATOM      6  C   UNL     1      -1.396  -1.521   2.308  1.00  0.00     0.077 C 
BRANCH   6   7
ATOM      7  C   UNL     1      -1.959  -1.372   0.889  1.00  0.00     0.003 C 
ATOM      8  C   UNL     1      -2.151  -2.701   0.166  1.00  0.00     0.004 C 
ENDBRANCH   6   7
ENDBRANCH   5   6
BRANCH   5   9
ATOM      9  N   UNL     1       0.784  -2.435   1.522  1.00  0.00    -0.329 N 
ATOM     10  H   UNL     1       0.416  -2.250   0.588  1.00  0.00     0.347 HD
ATOM     11  H   UNL     1       0.571  -3.368   1.874  1.00  0.00     0.347 HD
BRANCH   9  12
ATOM     12  C   UNL     1       2.253  -2.358   1.451  1.00  0.00     0.330 C 
BRANCH  12  13
ATOM     13  C   UNL     1       2.727  -3.182   0.273  1.00  0.00     0.147 A 
ATOM     14  N   UNL     1       2.111  -4.267  -0.151  1.00  0.00    -0.240 NA
ATOM     15  S   UNL     1       4.069  -2.697  -0.679  1.00  0.00    -0.121 S 
ATOM     16  C   UNL     1       2.695  -4.760  -1.302  1.00  0.00     0.057 A 
ATOM     17  C   UNL     1       3.778  -4.017  -1.739  1.00  0.00     0.091 A 
BRANCH  16  18
ATOM     18  C   UNL     1       2.098  -6.007  -1.935  1.00  0.00     0.005 C 
ATOM     19  C   UNL     1       1.599  -5.698  -3.358  1.00  0.00     0.017 C 
ATOM     20  C   UNL     1       3.152  -7.128  -1.993  1.00  0.00     0.017 C 
ATOM     21  C   UNL     1       0.895  -6.527  -1.114  1.00  0.00     0.017 C 
ENDBRANCH  16  18
ENDBRANCH  12  13
ENDBRANCH   9  12
ENDBRANCH   5   9
ENDBRANCH   3   5
ENDBRANCH   2   3
ENDBRANCH   1   2
BRANCH   1  22
ATOM     22  C   UNL     1       2.664  -3.218   5.763  1.00  0.00     0.275 C 
BRANCH  22  23
ATOM     23  O   UNL     1       3.011  -1.842   5.536  1.00  0.00    -0.458 OA
BRANCH  23  24
ATOM     24  C   UNL     1       4.118  -1.628   4.790  1.00  0.00     0.338 C 
ATOM     25  O   UNL     1       4.885  -2.464   4.347  1.00  0.00    -0.246 OA
BRANCH  24  26
ATOM     26  C   UNL     1       4.297  -0.181   4.577  1.00  0.00     0.060 A 
ATOM     27  C   UNL     1       3.294   0.585   3.977  1.00  0.00     0.016 A 
ATOM     28  C   UNL     1       5.525   0.394   4.903  1.00  0.00     0.016 A 
ATOM     29  C   UNL     1       3.531   1.925   3.667  1.00  0.00     0.010 A 
ATOM     30  C   UNL     1       5.741   1.747   4.642  1.00  0.00     0.010 A 
ATOM     31  C   UNL     1       4.755   2.519   4.002  1.00  0.00    -0.014 A 
BRANCH  31  32
ATOM     32  C   UNL     1       5.044   3.934   3.661  1.00  0.00     0.031 A 
ATOM     33  C   UNL     1       6.124   4.253   2.665  1.00  0.00     0.074 A 
ATOM     34  C   UNL     1       4.375   4.929   4.274  1.00  0.00     0.049 A 
ATOM     35  N   UNL     1       6.682   5.402   2.387  1.00  0.00    -0.248 NA
ATOM     36  C   UNL     1       6.654   3.122   1.885  1.00  0.00     0.031 C 
ATOM     37  C   UNL     1       3.280   4.752   5.230  1.00  0.00     0.029 A 
ATOM     38  N   UNL     1       4.533   6.291   4.198  1.00  0.00    -0.354 N 
ATOM     39  C   UNL     1       7.655   5.131   1.433  1.00  0.00     0.074 A 
ATOM     40  C   UNL     1       7.613   3.706   1.179  1.00  0.00     0.031 C 
ATOM     41  C   UNL     1       2.870   5.958   5.655  1.00  0.00     0.029 A 
ATOM     42  C   UNL     1       3.710   6.987   5.050  1.00  0.00     0.049 A 
ATOM     43  H   UNL     1       5.175   6.726   3.592  1.00  0.00     0.167 HD
ATOM     44  C   UNL     1       8.507   5.992   0.827  1.00  0.00     0.037 A 
ATOM     45  C   UNL     1       3.668   8.300   5.345  1.00  0.00     0.037 A 
ATOM     46  C   UNL     1       8.523   7.412   1.066  1.00  0.00     0.049 A 
ATOM     47  C   UNL     1       4.644   9.234   4.686  1.00  0.00     0.074 A 
ATOM     48  C   UNL     1       9.346   8.372   0.503  1.00  0.00     0.029 A 
ATOM     49  N   UNL     1       7.668   8.077   1.932  1.00  0.00    -0.354 N 
ATOM     50  N   UNL     1       5.589   8.959   3.818  1.00  0.00    -0.248 NA
ATOM     51  C   UNL     1       4.560  10.654   5.056  1.00  0.00     0.031 C 
ATOM     52  C   UNL     1       9.003   9.616   1.046  1.00  0.00     0.029 A 
ATOM     53  C   UNL     1       7.945   9.434   1.923  1.00  0.00     0.049 A 
ATOM     54  H   UNL     1       6.967   7.648   2.474  1.00  0.00     0.167 HD
ATOM     55  C   UNL     1       6.202  10.171   3.528  1.00  0.00     0.074 A 
ATOM     56  C   UNL     1       5.514  11.184   4.303  1.00  0.00     0.031 C 
ATOM     57  C   UNL     1       7.242  10.425   2.697  1.00  0.00     0.037 A 
BRANCH  44  58
ATOM     58  C   UNL     1       9.509   5.420  -0.134  1.00  0.00     0.058 A 
ATOM     59  C   UNL     1       9.140   4.997  -1.420  1.00  0.00     0.135 A 
ATOM     60  C   UNL     1      10.863   5.322   0.225  1.00  0.00     0.135 A 
ATOM     61  F   UNL     1       7.855   5.052  -1.807  1.00  0.00    -0.206 F 
ATOM     62  C   UNL     1      10.075   4.479  -2.311  1.00  0.00     0.059 A 
ATOM     63  C   UNL     1      11.819   4.826  -0.656  1.00  0.00     0.059 A 
ATOM     64  F   UNL     1      11.267   5.709   1.445  1.00  0.00    -0.206 F 
ATOM     65  C   UNL     1      11.412   4.395  -1.918  1.00  0.00     0.060 A 
BRANCH  65  66
ATOM     66  S   UNL     1      12.618   3.726  -3.084  1.00  0.00     0.124 S 
ATOM     67  O   UNL     1      12.342   2.295  -2.997  1.00  0.00    -0.237 OA
ATOM     68  O   UNL     1      12.236   4.369  -4.337  1.00  0.00    -0.237 OA
ATOM     69  O   UNL     1      13.899   4.154  -2.530  1.00  0.00    -0.744 OA
ENDBRANCH  65  66
ENDBRANCH  44  58
BRANCH  45  70
ATOM     70  C   UNL     1       2.685   8.805   6.340  1.00  0.00     0.058 A 
ATOM     71  C   UNL     1       1.578   9.565   5.936  1.00  0.00     0.135 A 
ATOM     72  C   UNL     1       2.826   8.524   7.707  1.00  0.00     0.135 A 
ATOM     73  F   UNL     1       1.409   9.866   4.640  1.00  0.00    -0.206 F 
ATOM     74  C   UNL     1       0.648  10.038   6.855  1.00  0.00     0.059 A 
ATOM     75  C   UNL     1       1.897   8.967   8.642  1.00  0.00     0.059 A 
ATOM     76  F   UNL     1       3.862   7.790   8.141  1.00  0.00    -0.206 F 
ATOM     77  C   UNL     1       0.815   9.733   8.208  1.00  0.00     0.060 A 
BRANCH  77  78
ATOM     78  S   UNL     1      -0.425  10.302   9.390  1.00  0.00     0.124 S 
ATOM     79  O   UNL     1      -0.044  11.698   9.565  1.00  0.00    -0.237 OA
ATOM     80  O   UNL     1      -1.673  10.066   8.670  1.00  0.00    -0.237 OA
ATOM     81  O   UNL     1      -0.206   9.436  10.545  1.00  0.00    -0.744 OA
ENDBRANCH  77  78
ENDBRANCH  45  70
BRANCH  57  82
ATOM     82  C   UNL     1       7.676  11.855   2.559  1.00  0.00     0.058 A 
ATOM     83  C   UNL     1       8.444  12.487   3.548  1.00  0.00     0.135 A 
ATOM     84  C   UNL     1       7.353  12.587   1.406  1.00  0.00     0.135 A 
ATOM     85  F   UNL     1       8.771  11.830   4.672  1.00  0.00    -0.206 F 
ATOM     86  C   UNL     1       8.862  13.806   3.408  1.00  0.00     0.059 A 
ATOM     87  C   UNL     1       7.777  13.900   1.235  1.00  0.00     0.059 A 
ATOM     88  F   UNL     1       6.627  12.022   0.428  1.00  0.00    -0.206 F 
ATOM     89  C   UNL     1       8.522  14.505   2.248  1.00  0.00     0.060 A 
BRANCH  89  90
ATOM     90  S   UNL     1       9.094  16.207   2.058  1.00  0.00     0.124 S 
ATOM     91  O   UNL     1       8.143  16.931   2.895  1.00  0.00    -0.237 OA
ATOM     92  O   UNL     1      10.461  16.140   2.564  1.00  0.00    -0.237 OA
ATOM     93  O   UNL     1       8.976  16.445   0.622  1.00  0.00    -0.744 OA
ENDBRANCH  89  90
ENDBRANCH  57  82
ENDBRANCH  31  32
ENDBRANCH  24  26
ENDBRANCH  23  24
ENDBRANCH  22  23
ENDBRANCH   1  22
TORSDOF 20
