REMARK SMILES COc1ccc2c(c1)c(CC(=O)OCCOC(=O)c1ccc(-c3c4nc(c(-c5c(F)cc(S(=O)(=O)[O-])cc5F)c5ccc([nH]5)c(-c5c(F)cc(S(=O)(=O)[O-])cc5F)c5nc(c(-c6c(F)cc(S(=O)(=O)[O-])cc6F)c6ccc3[nH]6)C=C5)C=C4)cc1)c(C)n2Cc1ccc(Br)cc1
REMARK SMILES IDX 14 1 13 2 11 3 12 4 10 5 9 6 3 7 4 8 8 9 5 10 7 11 6 12
REMARK SMILES IDX 87 13 85 14 86 15 2 16 1 17 88 18 89 19 90 20 95 21 91 22
REMARK SMILES IDX 94 23 92 24 93 25 15 26 16 27 17 28 18 29 19 30 20 31 84 32
REMARK SMILES IDX 21 33 83 34 22 35 23 36 24 37 77 38 25 39 82 40 76 41 78 42
REMARK SMILES IDX 26 43 81 44 75 45 74 46 27 48 61 49 40 50 60 51 41 52 44 53
REMARK SMILES IDX 59 54 79 55 42 56 43 57 58 59 80 60 45 61 28 62 29 63 38 64
REMARK SMILES IDX 30 65 31 66 37 67 39 68 32 69 33 70 34 71 35 72 36 73 62 74
REMARK SMILES IDX 63 75 72 76 64 77 65 78 71 79 73 80 66 81 67 82 68 83 69 84
REMARK SMILES IDX 70 85 46 86 47 87 56 88 48 89 49 90 55 91 57 92 50 93 51 94
REMARK SMILES IDX 52 95 53 96 54 97
REMARK H PARENT 78 47 44 58
REMARK Flexibility Score: inf
ROOT
ATOM      1  C   UNL     1      -1.513  -0.914   6.888  1.00  0.00     0.274 C 
ENDROOT
BRANCH   1   2
ATOM      2  O   UNL     1      -1.024  -2.070   6.172  1.00  0.00    -0.462 OA
BRANCH   2   3
ATOM      3  C   UNL     1      -1.944  -3.039   5.948  1.00  0.00     0.310 C 
ATOM      4  O   UNL     1      -3.112  -2.969   6.321  1.00  0.00    -0.252 OA
BRANCH   3   5
ATOM      5  C   UNL     1      -1.425  -4.290   5.304  1.00  0.00     0.160 C 
BRANCH   5   6
ATOM      6  C   UNL     1      -0.065  -4.380   4.679  1.00  0.00    -0.008 A 
ATOM      7  C   UNL     1       1.414  -1.731   2.294  1.00  0.00     0.119 A 
ATOM      8  C   UNL     1       2.623  -2.380   2.085  1.00  0.00     0.048 A 
ATOM      9  C   UNL     1       0.498  -2.242   3.228  1.00  0.00     0.057 A 
ATOM     10  C   UNL     1       2.917  -3.571   2.757  1.00  0.00     0.031 A 
ATOM     11  C   UNL     1       0.706  -3.500   3.839  1.00  0.00     0.007 A 
ATOM     12  C   UNL     1       1.931  -4.137   3.586  1.00  0.00     0.049 A 
ATOM     13  N   UNL     1       1.914  -5.313   4.311  1.00  0.00    -0.340 N 
ATOM     14  C   UNL     1       0.611  -5.597   4.646  1.00  0.00     0.020 A 
ATOM     15  C   UNL     1       0.080  -6.956   4.964  1.00  0.00     0.065 C 
BRANCH   7  16
ATOM     16  O   UNL     1       1.051  -0.567   1.667  1.00  0.00    -0.497 OA
ATOM     17  C   UNL     1       1.477  -0.440   0.311  1.00  0.00     0.278 C 
ENDBRANCH   7  16
BRANCH  13  18
ATOM     18  C   UNL     1       3.076  -6.117   4.674  1.00  0.00     0.157 C 
BRANCH  18  19
ATOM     19  C   UNL     1       3.433  -5.920   6.137  1.00  0.00    -0.028 A 
ATOM     20  C   UNL     1       2.649  -6.486   7.157  1.00  0.00     0.007 A 
ATOM     21  C   UNL     1       4.527  -5.127   6.508  1.00  0.00     0.007 A 
ATOM     22  C   UNL     1       2.913  -6.234   8.503  1.00  0.00     0.016 A 
ATOM     23  C   UNL     1       4.816  -4.898   7.858  1.00  0.00     0.016 A 
ATOM     24  C   UNL     1       4.000  -5.442   8.848  1.00  0.00     0.017 A 
ATOM     25  Br  UNL     1       4.368  -5.102  10.671  1.00  0.00    -0.051 Br
ENDBRANCH  18  19
ENDBRANCH  13  18
ENDBRANCH   5   6
ENDBRANCH   3   5
ENDBRANCH   2   3
ENDBRANCH   1   2
BRANCH   1  26
ATOM     26  C   UNL     1      -1.839   0.230   5.924  1.00  0.00     0.275 C 
BRANCH  26  27
ATOM     27  O   UNL     1      -3.008  -0.119   5.169  1.00  0.00    -0.458 OA
BRANCH  27  28
ATOM     28  C   UNL     1      -2.860  -0.259   3.830  1.00  0.00     0.338 C 
ATOM     29  O   UNL     1      -2.004   0.241   3.121  1.00  0.00    -0.246 OA
BRANCH  28  30
ATOM     30  C   UNL     1      -3.717  -1.399   3.458  1.00  0.00     0.060 A 
ATOM     31  C   UNL     1      -5.019  -1.490   3.950  1.00  0.00     0.016 A 
ATOM     32  C   UNL     1      -3.110  -2.488   2.821  1.00  0.00     0.016 A 
ATOM     33  C   UNL     1      -5.664  -2.719   3.918  1.00  0.00     0.010 A 
ATOM     34  C   UNL     1      -3.741  -3.722   2.827  1.00  0.00     0.010 A 
ATOM     35  C   UNL     1      -4.995  -3.846   3.420  1.00  0.00    -0.014 A 
BRANCH  35  36
ATOM     36  C   UNL     1      -5.740  -5.088   3.297  1.00  0.00     0.031 A 
ATOM     37  C   UNL     1      -6.522  -5.154   2.045  1.00  0.00     0.074 A 
ATOM     38  C   UNL     1      -5.741  -6.152   4.121  1.00  0.00     0.049 A 
ATOM     39  N   UNL     1      -7.775  -4.885   1.903  1.00  0.00    -0.248 NA
ATOM     40  C   UNL     1      -5.802  -5.389   0.789  1.00  0.00     0.031 C 
ATOM     41  C   UNL     1      -4.843  -6.480   5.224  1.00  0.00     0.029 A 
ATOM     42  N   UNL     1      -6.582  -7.226   4.069  1.00  0.00    -0.354 N 
ATOM     43  C   UNL     1      -8.056  -5.103   0.562  1.00  0.00     0.074 A 
ATOM     44  C   UNL     1      -6.783  -5.226  -0.100  1.00  0.00     0.031 C 
ATOM     45  C   UNL     1      -5.078  -7.756   5.623  1.00  0.00     0.029 A 
ATOM     46  C   UNL     1      -6.242  -8.270   4.914  1.00  0.00     0.049 A 
ATOM     47  H   UNL     1      -7.369  -7.256   3.478  1.00  0.00     0.167 HD
ATOM     48  C   UNL     1      -9.320  -5.378   0.142  1.00  0.00     0.037 A 
ATOM     49  C   UNL     1      -6.873  -9.468   4.997  1.00  0.00     0.037 A 
ATOM     50  C   UNL     1     -10.288  -5.111   1.179  1.00  0.00     0.049 A 
ATOM     51  C   UNL     1      -8.266  -9.269   4.512  1.00  0.00     0.074 A 
ATOM     52  C   UNL     1     -10.670  -3.993   1.894  1.00  0.00     0.029 A 
ATOM     53  N   UNL     1     -10.783  -6.191   1.869  1.00  0.00    -0.354 N 
ATOM     54  N   UNL     1      -9.164  -8.549   5.128  1.00  0.00    -0.248 NA
ATOM     55  C   UNL     1      -8.579  -9.593   3.127  1.00  0.00     0.031 C 
ATOM     56  C   UNL     1     -10.995  -4.472   3.197  1.00  0.00     0.029 A 
ATOM     57  C   UNL     1     -10.819  -5.858   3.199  1.00  0.00     0.049 A 
ATOM     58  H   UNL     1     -11.063  -7.051   1.479  1.00  0.00     0.167 HD
ATOM     59  C   UNL     1      -9.932  -7.992   4.118  1.00  0.00     0.074 A 
ATOM     60  C   UNL     1      -9.609  -8.767   2.927  1.00  0.00     0.031 C 
ATOM     61  C   UNL     1     -10.552  -6.786   4.280  1.00  0.00     0.037 A 
BRANCH  48  62
ATOM     62  C   UNL     1      -9.658  -6.226  -1.058  1.00  0.00     0.058 A 
ATOM     63  C   UNL     1     -11.001  -6.295  -1.482  1.00  0.00     0.135 A 
ATOM     64  C   UNL     1      -8.790  -7.189  -1.615  1.00  0.00     0.135 A 
ATOM     65  F   UNL     1     -11.911  -5.420  -1.025  1.00  0.00    -0.206 F 
ATOM     66  C   UNL     1     -11.468  -7.315  -2.309  1.00  0.00     0.059 A 
ATOM     67  C   UNL     1      -9.223  -8.178  -2.490  1.00  0.00     0.059 A 
ATOM     68  F   UNL     1      -7.504  -7.291  -1.259  1.00  0.00    -0.206 F 
ATOM     69  C   UNL     1     -10.573  -8.268  -2.784  1.00  0.00     0.060 A 
BRANCH  69  70
ATOM     70  S   UNL     1     -11.196  -9.682  -3.705  1.00  0.00     0.124 S 
ATOM     71  O   UNL     1     -11.884 -10.426  -2.656  1.00  0.00    -0.237 OA
ATOM     72  O   UNL     1     -12.049  -9.044  -4.703  1.00  0.00    -0.237 OA
ATOM     73  O   UNL     1      -9.983 -10.301  -4.229  1.00  0.00    -0.744 OA
ENDBRANCH  69  70
ENDBRANCH  48  62
BRANCH  49  74
ATOM     74  C   UNL     1      -6.286 -10.818   5.201  1.00  0.00     0.058 A 
ATOM     75  C   UNL     1      -7.101 -11.938   5.458  1.00  0.00     0.135 A 
ATOM     76  C   UNL     1      -4.948 -11.093   4.856  1.00  0.00     0.135 A 
ATOM     77  F   UNL     1      -8.393 -11.774   5.777  1.00  0.00    -0.206 F 
ATOM     78  C   UNL     1      -6.634 -13.250   5.320  1.00  0.00     0.059 A 
ATOM     79  C   UNL     1      -4.458 -12.392   4.722  1.00  0.00     0.059 A 
ATOM     80  F   UNL     1      -4.096 -10.104   4.545  1.00  0.00    -0.206 F 
ATOM     81  C   UNL     1      -5.315 -13.466   4.927  1.00  0.00     0.060 A 
BRANCH  81  82
ATOM     82  S   UNL     1      -4.759 -15.151   4.572  1.00  0.00     0.124 S 
ATOM     83  O   UNL     1      -4.784 -15.762   5.897  1.00  0.00    -0.237 OA
ATOM     84  O   UNL     1      -5.773 -15.618   3.634  1.00  0.00    -0.237 OA
ATOM     85  O   UNL     1      -3.429 -14.955   4.001  1.00  0.00    -0.744 OA
ENDBRANCH  81  82
ENDBRANCH  49  74
BRANCH  61  86
ATOM     86  C   UNL     1     -10.744  -6.257   5.676  1.00  0.00     0.058 A 
ATOM     87  C   UNL     1      -9.697  -5.867   6.528  1.00  0.00     0.135 A 
ATOM     88  C   UNL     1     -12.054  -5.964   6.091  1.00  0.00     0.135 A 
ATOM     89  F   UNL     1      -8.416  -6.031   6.168  1.00  0.00    -0.206 F 
ATOM     90  C   UNL     1      -9.944  -5.225   7.744  1.00  0.00     0.059 A 
ATOM     91  C   UNL     1     -12.321  -5.298   7.283  1.00  0.00     0.059 A 
ATOM     92  F   UNL     1     -13.094  -6.267   5.296  1.00  0.00    -0.206 F 
ATOM     93  C   UNL     1     -11.260  -4.932   8.107  1.00  0.00     0.060 A 
BRANCH  93  94
ATOM     94  S   UNL     1     -11.567  -3.982   9.613  1.00  0.00     0.124 S 
ATOM     95  O   UNL     1     -11.253  -4.950  10.659  1.00  0.00    -0.237 OA
ATOM     96  O   UNL     1     -10.633  -2.867   9.481  1.00  0.00    -0.237 OA
ATOM     97  O   UNL     1     -12.977  -3.616   9.506  1.00  0.00    -0.744 OA
ENDBRANCH  93  94
ENDBRANCH  61  86
ENDBRANCH  35  36
ENDBRANCH  28  30
ENDBRANCH  27  28
ENDBRANCH  26  27
ENDBRANCH   1  26
TORSDOF 18
