REMARK SMILES CCCC[C@@H](C(=O)OCCOC(=O)c1ccc(-c2c3nc(c(-c4c(F)cc(S(=O)(=O)[O-])cc4F)c4ccc([nH]4)c(-c4c(F)cc(S(=O)(=O)[O-])cc4F)c4nc(c(-c5c(F)cc(S(=O)(=O)[O-])cc5F)c5ccc2[nH]5)C=C4)C=C3)cc1)[C@](C)(O)c1cccc(Br)c1
REMARK SMILES IDX 9 1 8 2 6 3 7 4 5 5 4 6 3 7 2 8 1 9 80 10 81 11 82 12 83 14
REMARK SMILES IDX 84 15 89 16 85 17 87 18 86 19 88 20 10 21 11 22 12 23 13 24
REMARK SMILES IDX 14 25 15 26 79 27 16 28 78 29 17 30 18 31 19 32 72 33 20 34
REMARK SMILES IDX 77 35 71 36 73 37 21 38 76 39 70 40 69 41 22 43 56 44 35 45
REMARK SMILES IDX 55 46 36 47 39 48 54 49 74 50 37 51 38 52 53 54 75 55 40 56
REMARK SMILES IDX 23 57 24 58 33 59 25 60 26 61 32 62 34 63 27 64 28 65 29 66
REMARK SMILES IDX 30 67 31 68 57 69 58 70 67 71 59 72 60 73 66 74 68 75 61 76
REMARK SMILES IDX 62 77 63 78 64 79 65 80 41 81 42 82 51 83 43 84 44 85 50 86
REMARK SMILES IDX 52 87 45 88 46 89 47 90 48 91 49 92
REMARK H PARENT 82 13 73 42 39 53
REMARK Flexibility Score: inf
ROOT
ATOM      1  C   UNL     1       1.261  -2.944  -6.213  1.00  0.00     0.274 C 
ENDROOT
BRANCH   1   2
ATOM      2  O   UNL     1       0.928  -2.358  -4.924  1.00  0.00    -0.462 OA
BRANCH   2   3
ATOM      3  C   UNL     1      -0.360  -2.186  -4.528  1.00  0.00     0.312 C 
ATOM      4  O   UNL     1      -1.328  -2.744  -5.027  1.00  0.00    -0.252 OA
BRANCH   3   5
ATOM      5  C   UNL     1      -0.449  -1.320  -3.290  1.00  0.00     0.135 C 
BRANCH   5   6
ATOM      6  C   UNL     1      -1.431  -2.123  -2.369  1.00  0.00     0.019 C 
BRANCH   6   7
ATOM      7  C   UNL     1      -1.011  -3.587  -2.100  1.00  0.00     0.001 C 
BRANCH   7   8
ATOM      8  C   UNL     1       0.204  -3.729  -1.191  1.00  0.00    -0.003 C 
ATOM      9  C   UNL     1      -0.136  -3.396   0.251  1.00  0.00     0.004 C 
ENDBRANCH   7   8
ENDBRANCH   6   7
ENDBRANCH   5   6
BRANCH   5  10
ATOM     10  C   UNL     1      -0.875   0.201  -3.502  1.00  0.00     0.100 C 
ATOM     11  C   UNL     1      -0.468   0.954  -2.202  1.00  0.00     0.048 C 
BRANCH  10  12
ATOM     12  O   UNL     1      -2.308   0.281  -3.566  1.00  0.00    -0.385 OA
ATOM     13  H   UNL     1      -2.575   1.205  -3.695  1.00  0.00     0.211 HD
ENDBRANCH  10  12
BRANCH  10  14
ATOM     14  C   UNL     1      -0.389   1.040  -4.713  1.00  0.00    -0.015 A 
ATOM     15  C   UNL     1       0.224   0.516  -5.856  1.00  0.00     0.007 A 
ATOM     16  C   UNL     1      -0.617   2.433  -4.764  1.00  0.00     0.022 A 
ATOM     17  C   UNL     1       0.554   1.274  -6.988  1.00  0.00     0.002 A 
ATOM     18  C   UNL     1      -0.210   3.218  -5.857  1.00  0.00     0.018 A 
ATOM     19  C   UNL     1       0.339   2.637  -6.991  1.00  0.00     0.016 A 
ATOM     20  Br  UNL     1      -0.353   5.100  -5.761  1.00  0.00    -0.051 Br
ENDBRANCH  10  14
ENDBRANCH   5  10
ENDBRANCH   3   5
ENDBRANCH   2   3
ENDBRANCH   1   2
BRANCH   1  21
ATOM     21  C   UNL     1       0.135  -3.292  -7.202  1.00  0.00     0.275 C 
BRANCH  21  22
ATOM     22  O   UNL     1      -0.678  -2.136  -7.487  1.00  0.00    -0.458 OA
BRANCH  22  23
ATOM     23  C   UNL     1      -1.984  -2.420  -7.758  1.00  0.00     0.338 C 
ATOM     24  O   UNL     1      -2.450  -3.516  -8.013  1.00  0.00    -0.246 OA
BRANCH  23  25
ATOM     25  C   UNL     1      -2.782  -1.173  -7.757  1.00  0.00     0.060 A 
ATOM     26  C   UNL     1      -3.046  -0.484  -6.570  1.00  0.00     0.016 A 
ATOM     27  C   UNL     1      -3.352  -0.731  -8.947  1.00  0.00     0.016 A 
ATOM     28  C   UNL     1      -3.828   0.678  -6.567  1.00  0.00     0.010 A 
ATOM     29  C   UNL     1      -4.145   0.422  -8.947  1.00  0.00     0.010 A 
ATOM     30  C   UNL     1      -4.388   1.137  -7.760  1.00  0.00    -0.014 A 
BRANCH  30  31
ATOM     31  C   UNL     1      -5.326   2.288  -7.797  1.00  0.00     0.031 A 
ATOM     32  C   UNL     1      -6.795   2.014  -7.880  1.00  0.00     0.074 A 
ATOM     33  C   UNL     1      -4.880   3.556  -7.846  1.00  0.00     0.049 A 
ATOM     34  N   UNL     1      -7.767   2.815  -8.225  1.00  0.00    -0.248 NA
ATOM     35  C   UNL     1      -7.222   0.648  -7.538  1.00  0.00     0.031 C 
ATOM     36  C   UNL     1      -3.488   3.956  -7.682  1.00  0.00     0.029 A 
ATOM     37  N   UNL     1      -5.542   4.738  -8.083  1.00  0.00    -0.354 N 
ATOM     38  C   UNL     1      -8.919   2.042  -8.186  1.00  0.00     0.074 A 
ATOM     39  C   UNL     1      -8.524   0.711  -7.773  1.00  0.00     0.031 C 
ATOM     40  C   UNL     1      -3.391   5.284  -7.856  1.00  0.00     0.029 A 
ATOM     41  C   UNL     1      -4.701   5.821  -8.210  1.00  0.00     0.049 A 
ATOM     42  H   UNL     1      -6.522   4.804  -8.156  1.00  0.00     0.167 HD
ATOM     43  C   UNL     1     -10.184   2.413  -8.491  1.00  0.00     0.037 A 
ATOM     44  C   UNL     1      -4.940   7.083  -8.622  1.00  0.00     0.037 A 
ATOM     45  C   UNL     1     -10.552   3.740  -8.911  1.00  0.00     0.049 A 
ATOM     46  C   UNL     1      -6.337   7.451  -9.053  1.00  0.00     0.074 A 
ATOM     47  C   UNL     1     -11.802   4.213  -9.268  1.00  0.00     0.029 A 
ATOM     48  N   UNL     1      -9.669   4.804  -9.040  1.00  0.00    -0.354 N 
ATOM     49  N   UNL     1      -7.417   6.706  -9.062  1.00  0.00    -0.248 NA
ATOM     50  C   UNL     1      -6.550   8.818  -9.551  1.00  0.00     0.031 C 
ATOM     51  C   UNL     1     -11.666   5.547  -9.665  1.00  0.00     0.029 A 
ATOM     52  C   UNL     1     -10.344   5.927  -9.490  1.00  0.00     0.049 A 
ATOM     53  H   UNL     1      -8.706   4.767  -8.840  1.00  0.00     0.167 HD
ATOM     54  C   UNL     1      -8.440   7.521  -9.533  1.00  0.00     0.074 A 
ATOM     55  C   UNL     1      -7.853   8.817  -9.798  1.00  0.00     0.031 C 
ATOM     56  C   UNL     1      -9.748   7.220  -9.724  1.00  0.00     0.037 A 
BRANCH  43  57
ATOM     57  C   UNL     1     -11.245   1.350  -8.445  1.00  0.00     0.058 A 
ATOM     58  C   UNL     1     -11.701   0.802  -7.237  1.00  0.00     0.135 A 
ATOM     59  C   UNL     1     -11.822   0.879  -9.637  1.00  0.00     0.135 A 
ATOM     60  F   UNL     1     -11.168   1.199  -6.070  1.00  0.00    -0.206 F 
ATOM     61  C   UNL     1     -12.671  -0.195  -7.212  1.00  0.00     0.059 A 
ATOM     62  C   UNL     1     -12.814  -0.095  -9.634  1.00  0.00     0.059 A 
ATOM     63  F   UNL     1     -11.418   1.365 -10.822  1.00  0.00    -0.206 F 
ATOM     64  C   UNL     1     -13.221  -0.637  -8.416  1.00  0.00     0.060 A 
BRANCH  64  65
ATOM     65  S   UNL     1     -14.479  -1.930  -8.367  1.00  0.00     0.124 S 
ATOM     66  O   UNL     1     -13.685  -3.096  -7.992  1.00  0.00    -0.237 OA
ATOM     67  O   UNL     1     -15.395  -1.433  -7.345  1.00  0.00    -0.237 OA
ATOM     68  O   UNL     1     -15.009  -1.944  -9.726  1.00  0.00    -0.744 OA
ENDBRANCH  64  65
ENDBRANCH  43  57
BRANCH  44  69
ATOM     69  C   UNL     1      -3.830   8.078  -8.704  1.00  0.00     0.058 A 
ATOM     70  C   UNL     1      -3.810   9.214  -7.880  1.00  0.00     0.135 A 
ATOM     71  C   UNL     1      -2.769   7.922  -9.613  1.00  0.00     0.135 A 
ATOM     72  F   UNL     1      -4.806   9.425  -7.006  1.00  0.00    -0.206 F 
ATOM     73  C   UNL     1      -2.792  10.162  -7.960  1.00  0.00     0.059 A 
ATOM     74  C   UNL     1      -1.723   8.838  -9.689  1.00  0.00     0.059 A 
ATOM     75  F   UNL     1      -2.731   6.856 -10.427  1.00  0.00    -0.206 F 
ATOM     76  C   UNL     1      -1.749   9.962  -8.867  1.00  0.00     0.060 A 
BRANCH  76  77
ATOM     77  S   UNL     1      -0.416  11.179  -8.938  1.00  0.00     0.124 S 
ATOM     78  O   UNL     1      -1.088  12.318  -9.552  1.00  0.00    -0.237 OA
ATOM     79  O   UNL     1      -0.062  11.330  -7.530  1.00  0.00    -0.237 OA
ATOM     80  O   UNL     1       0.595  10.524  -9.764  1.00  0.00    -0.744 OA
ENDBRANCH  76  77
ENDBRANCH  44  69
BRANCH  56  81
ATOM     81  C   UNL     1     -10.664   8.322 -10.181  1.00  0.00     0.058 A 
ATOM     82  C   UNL     1     -10.660   8.795 -11.501  1.00  0.00     0.135 A 
ATOM     83  C   UNL     1     -11.634   8.835  -9.302  1.00  0.00     0.135 A 
ATOM     84  F   UNL     1      -9.747   8.348 -12.377  1.00  0.00    -0.206 F 
ATOM     85  C   UNL     1     -11.589   9.736 -11.937  1.00  0.00     0.059 A 
ATOM     86  C   UNL     1     -12.589   9.753  -9.723  1.00  0.00     0.059 A 
ATOM     87  F   UNL     1     -11.683   8.412  -8.029  1.00  0.00    -0.206 F 
ATOM     88  C   UNL     1     -12.558  10.198 -11.044  1.00  0.00     0.060 A 
BRANCH  88  89
ATOM     89  S   UNL     1     -13.811  11.351 -11.646  1.00  0.00     0.124 S 
ATOM     90  O   UNL     1     -13.031  12.572 -11.818  1.00  0.00    -0.237 OA
ATOM     91  O   UNL     1     -14.260  10.707 -12.877  1.00  0.00    -0.237 OA
ATOM     92  O   UNL     1     -14.794  11.381 -10.567  1.00  0.00    -0.744 OA
ENDBRANCH  88  89
ENDBRANCH  56  81
ENDBRANCH  30  31
ENDBRANCH  23  25
ENDBRANCH  22  23
ENDBRANCH  21  22
ENDBRANCH   1  21
TORSDOF 20
