REMARK SMILES Cc1oc2c(C)c3oc(=O)c(CC(=O)N[C@@H](CC(C)C)C(=O)OCCOC(=O)c4ccc(-c5c6nc(c(-c7c(F)cc(S(=O)(=O)[O-])cc7F)c7ccc([nH]7)c(-c7c(F)cc(S(=O)(=O)[O-])cc7F)c7nc(c(-c8c(F)cc(S(=O)(=O)[O-])cc8F)c8ccc5[nH]8)C=C7)C=C6)cc4)c(C)c3cc2c1C
REMARK SMILES IDX 24 1 23 2 21 3 22 4 16 5 15 6 13 7 14 8 12 10 11 11 1 12
REMARK SMILES IDX 2 13 3 14 100 15 4 16 99 17 101 18 5 19 98 20 6 21 7 22
REMARK SMILES IDX 97 23 8 24 95 25 9 26 96 27 10 28 17 29 18 30 19 31 20 32
REMARK SMILES IDX 25 33 26 34 27 35 28 36 29 37 30 38 94 39 31 40 93 41 32 42
REMARK SMILES IDX 33 43 34 44 87 45 35 46 92 47 86 48 88 49 36 50 91 51 85 52
REMARK SMILES IDX 84 53 37 55 71 56 50 57 70 58 51 59 54 60 69 61 89 62 52 63
REMARK SMILES IDX 53 64 68 66 90 67 55 68 38 69 39 70 48 71 40 72 41 73 47 74
REMARK SMILES IDX 49 75 42 76 43 77 44 78 45 79 46 80 72 81 73 82 82 83 74 84
REMARK SMILES IDX 75 85 81 86 83 87 76 88 77 89 78 90 79 91 80 92 56 93 57 94
REMARK SMILES IDX 66 95 58 96 59 97 65 98 67 99 60 100 61 101 62 102 63 103
REMARK SMILES IDX 64 104
REMARK H PARENT 15 9 88 54 54 65
REMARK Flexibility Score: inf
ROOT
ATOM      1  C   UNL     1      -4.444  12.308  -4.347  1.00  0.00     0.274 C 
ENDROOT
BRANCH   1   2
ATOM      2  O   UNL     1      -3.847  11.354  -3.454  1.00  0.00    -0.461 OA
BRANCH   2   3
ATOM      3  C   UNL     1      -3.659  10.109  -3.962  1.00  0.00     0.328 C 
ATOM      4  O   UNL     1      -4.078   9.725  -5.048  1.00  0.00    -0.250 OA
BRANCH   3   5
ATOM      5  C   UNL     1      -2.896   9.193  -3.000  1.00  0.00     0.192 C 
BRANCH   5   6
ATOM      6  N   UNL     1      -2.320   9.800  -1.804  1.00  0.00    -0.342 N 
ATOM      7  C   UNL     1      -1.030   9.772  -1.357  1.00  0.00     0.225 C 
ATOM      8  O   UNL     1      -0.798  10.214  -0.231  1.00  0.00    -0.275 OA
ATOM      9  H   UNL     1      -2.951  10.302  -1.239  1.00  0.00     0.164 HD
BRANCH   7  10
ATOM     10  C   UNL     1       0.080   9.195  -2.235  1.00  0.00     0.143 C 
BRANCH  10  11
ATOM     11  C   UNL     1       0.084   7.688  -2.292  1.00  0.00     0.051 A 
ATOM     12  C   UNL     1       0.832  -0.478  -0.344  1.00  0.00     0.088 C 
ATOM     13  C   UNL     1       0.545   0.959  -0.522  1.00  0.00     0.105 A 
ATOM     14  O   UNL     1       0.107   1.339  -1.756  1.00  0.00    -0.461 OA
ATOM     15  C   UNL     1       0.683   2.057   0.305  1.00  0.00    -0.002 A 
ATOM     16  C   UNL     1       0.038   2.701  -1.759  1.00  0.00     0.141 A 
ATOM     17  C   UNL     1       0.384   3.185  -0.507  1.00  0.00     0.025 A 
ATOM     18  C   UNL     1       1.135   2.106   1.716  1.00  0.00     0.049 C 
ATOM     19  C   UNL     1      -0.295   3.501  -2.855  1.00  0.00     0.036 A 
ATOM     20  C   UNL     1       0.418   4.572  -0.298  1.00  0.00     0.024 A 
ATOM     21  C   UNL     1      -0.692   2.928  -4.178  1.00  0.00     0.052 C 
ATOM     22  C   UNL     1      -0.164   4.886  -2.607  1.00  0.00     0.145 A 
ATOM     23  C   UNL     1       0.194   5.439  -1.372  1.00  0.00     0.022 A 
ATOM     24  O   UNL     1      -0.382   5.736  -3.707  1.00  0.00    -0.422 OA
ATOM     25  C   UNL     1       0.329   6.899  -1.228  1.00  0.00    -0.029 A 
ATOM     26  C   UNL     1      -0.172   7.099  -3.636  1.00  0.00     0.340 A 
ATOM     27  C   UNL     1       0.763   7.444   0.112  1.00  0.00     0.046 C 
ATOM     28  O   UNL     1      -0.252   7.782  -4.650  1.00  0.00    -0.246 OA
ENDBRANCH  10  11
ENDBRANCH   7  10
ENDBRANCH   5   6
BRANCH   5  29
ATOM     29  C   UNL     1      -3.721   7.946  -2.632  1.00  0.00     0.040 C 
BRANCH  29  30
ATOM     30  C   UNL     1      -4.868   8.143  -1.615  1.00  0.00    -0.015 C 
ATOM     31  C   UNL     1      -5.917   9.160  -2.062  1.00  0.00     0.007 C 
ATOM     32  C   UNL     1      -5.548   6.794  -1.355  1.00  0.00     0.007 C 
ENDBRANCH  29  30
ENDBRANCH   5  29
ENDBRANCH   3   5
ENDBRANCH   2   3
ENDBRANCH   1   2
BRANCH   1  33
ATOM     33  C   UNL     1      -3.442  13.393  -4.737  1.00  0.00     0.275 C 
BRANCH  33  34
ATOM     34  O   UNL     1      -2.210  12.841  -5.236  1.00  0.00    -0.458 OA
BRANCH  34  35
ATOM     35  C   UNL     1      -1.273  12.702  -4.276  1.00  0.00     0.338 C 
ATOM     36  O   UNL     1      -1.430  12.906  -3.069  1.00  0.00    -0.246 OA
BRANCH  35  37
ATOM     37  C   UNL     1       0.030  12.286  -4.792  1.00  0.00     0.060 A 
ATOM     38  C   UNL     1       0.216  10.992  -5.281  1.00  0.00     0.016 A 
ATOM     39  C   UNL     1       1.123  13.099  -4.481  1.00  0.00     0.016 A 
ATOM     40  C   UNL     1       1.509  10.462  -5.311  1.00  0.00     0.010 A 
ATOM     41  C   UNL     1       2.409  12.578  -4.551  1.00  0.00     0.010 A 
ATOM     42  C   UNL     1       2.601  11.234  -4.894  1.00  0.00    -0.014 A 
BRANCH  42  43
ATOM     43  C   UNL     1       3.950  10.638  -4.947  1.00  0.00     0.031 A 
ATOM     44  C   UNL     1       4.697  11.088  -6.150  1.00  0.00     0.074 A 
ATOM     45  C   UNL     1       4.669  10.270  -3.861  1.00  0.00     0.049 A 
ATOM     46  N   UNL     1       5.149  12.304  -6.226  1.00  0.00    -0.248 NA
ATOM     47  C   UNL     1       4.726  10.359  -7.413  1.00  0.00     0.031 C 
ATOM     48  C   UNL     1       4.407  10.739  -2.494  1.00  0.00     0.029 A 
ATOM     49  N   UNL     1       5.883   9.618  -3.763  1.00  0.00    -0.354 N 
ATOM     50  C   UNL     1       5.467  12.539  -7.542  1.00  0.00     0.074 A 
ATOM     51  C   UNL     1       5.210  11.299  -8.244  1.00  0.00     0.031 C 
ATOM     52  C   UNL     1       5.515  10.541  -1.750  1.00  0.00     0.029 A 
ATOM     53  C   UNL     1       6.503   9.790  -2.523  1.00  0.00     0.049 A 
ATOM     54  H   UNL     1       6.272   9.086  -4.495  1.00  0.00     0.167 HD
ATOM     55  C   UNL     1       5.899  13.752  -7.968  1.00  0.00     0.037 A 
ATOM     56  C   UNL     1       7.848   9.896  -2.320  1.00  0.00     0.037 A 
ATOM     57  C   UNL     1       6.011  14.763  -6.956  1.00  0.00     0.049 A 
ATOM     58  C   UNL     1       8.169  11.177  -3.047  1.00  0.00     0.074 A 
ATOM     59  C   UNL     1       5.213  15.759  -6.434  1.00  0.00     0.029 A 
ATOM     60  N   UNL     1       7.139  14.768  -6.168  1.00  0.00    -0.354 N 
ATOM     61  N   UNL     1       7.985  12.390  -2.598  1.00  0.00    -0.248 NA
ATOM     62  C   UNL     1       8.412  11.090  -4.489  1.00  0.00     0.031 C 
ATOM     63  C   UNL     1       5.701  15.985  -5.107  1.00  0.00     0.029 A 
ATOM     64  C   UNL     1       6.730  15.071  -4.892  1.00  0.00     0.049 A 
ATOM     65  H   UNL     1       8.061  14.590  -6.463  1.00  0.00     0.167 HD
ATOM     66  C   UNL     1       7.827  13.185  -3.735  1.00  0.00     0.074 A 
ATOM     67  C   UNL     1       8.130  12.329  -4.863  1.00  0.00     0.031 C 
ATOM     68  C   UNL     1       7.287  14.438  -3.716  1.00  0.00     0.037 A 
BRANCH  55  69
ATOM     69  C   UNL     1       6.395  14.018  -9.326  1.00  0.00     0.058 A 
ATOM     70  C   UNL     1       7.783  14.018  -9.524  1.00  0.00     0.135 A 
ATOM     71  C   UNL     1       5.569  14.474 -10.356  1.00  0.00     0.135 A 
ATOM     72  F   UNL     1       8.600  13.589  -8.546  1.00  0.00    -0.206 F 
ATOM     73  C   UNL     1       8.345  14.517 -10.686  1.00  0.00     0.059 A 
ATOM     74  C   UNL     1       6.111  14.974 -11.537  1.00  0.00     0.059 A 
ATOM     75  F   UNL     1       4.235  14.487 -10.202  1.00  0.00    -0.206 F 
ATOM     76  C   UNL     1       7.501  15.018 -11.677  1.00  0.00     0.060 A 
BRANCH  76  77
ATOM     77  S   UNL     1       8.264  15.787 -13.119  1.00  0.00     0.124 S 
ATOM     78  O   UNL     1       8.957  16.923 -12.518  1.00  0.00    -0.237 OA
ATOM     79  O   UNL     1       9.116  14.713 -13.617  1.00  0.00    -0.237 OA
ATOM     80  O   UNL     1       7.125  16.125 -13.966  1.00  0.00    -0.744 OA
ENDBRANCH  76  77
ENDBRANCH  55  69
BRANCH  56  81
ATOM     81  C   UNL     1       8.661   8.645  -2.493  1.00  0.00     0.058 A 
ATOM     82  C   UNL     1       8.217   7.450  -1.888  1.00  0.00     0.135 A 
ATOM     83  C   UNL     1       9.871   8.556  -3.203  1.00  0.00     0.135 A 
ATOM     84  F   UNL     1       7.151   7.458  -1.071  1.00  0.00    -0.206 F 
ATOM     85  C   UNL     1       8.843   6.223  -2.104  1.00  0.00     0.059 A 
ATOM     86  C   UNL     1      10.501   7.336  -3.459  1.00  0.00     0.059 A 
ATOM     87  F   UNL     1      10.472   9.652  -3.686  1.00  0.00    -0.206 F 
ATOM     88  C   UNL     1       9.961   6.170  -2.931  1.00  0.00     0.060 A 
BRANCH  88  89
ATOM     89  S   UNL     1      10.650   4.555  -3.351  1.00  0.00     0.124 S 
ATOM     90  O   UNL     1      11.188   4.113  -2.070  1.00  0.00    -0.237 OA
ATOM     91  O   UNL     1       9.469   3.839  -3.825  1.00  0.00    -0.237 OA
ATOM     92  O   UNL     1      11.639   4.866  -4.378  1.00  0.00    -0.744 OA
ENDBRANCH  88  89
ENDBRANCH  56  81
BRANCH  68  93
ATOM     93  C   UNL     1       7.064  15.041  -2.370  1.00  0.00     0.058 A 
ATOM     94  C   UNL     1       8.150  15.532  -1.634  1.00  0.00     0.135 A 
ATOM     95  C   UNL     1       5.776  15.217  -1.838  1.00  0.00     0.135 A 
ATOM     96  F   UNL     1       9.403  15.394  -2.100  1.00  0.00    -0.206 F 
ATOM     97  C   UNL     1       7.966  16.216  -0.437  1.00  0.00     0.059 A 
ATOM     98  C   UNL     1       5.567  15.917  -0.652  1.00  0.00     0.059 A 
ATOM     99  F   UNL     1       4.697  14.750  -2.488  1.00  0.00    -0.206 F 
ATOM    100  C   UNL     1       6.669  16.425   0.035  1.00  0.00     0.060 A 
BRANCH 100 101
ATOM    101  S   UNL     1       6.443  17.446   1.506  1.00  0.00     0.124 S 
ATOM    102  O   UNL     1       6.983  16.593   2.559  1.00  0.00    -0.237 OA
ATOM    103  O   UNL     1       7.232  18.632   1.185  1.00  0.00    -0.237 OA
ATOM    104  O   UNL     1       4.999  17.664   1.555  1.00  0.00    -0.744 OA
ENDBRANCH 100 101
ENDBRANCH  68  93
ENDBRANCH  42  43
ENDBRANCH  35  37
ENDBRANCH  34  35
ENDBRANCH  33  34
ENDBRANCH   1  33
TORSDOF 19
