REMARK SMILES O=C(N[C@@H](Cc1c[nH]c2ccccc12)C(=O)N[C@@H](CO)C(=O)OCCOC(=O)c1ccc(-c2c3nc(c(-c4c(F)cc(S(=O)(=O)[O-])cc4F)c4ccc([nH]4)c(-c4c(F)cc(S(=O)(=O)[O-])cc4F)c4nc(c(-c5c(F)cc(S(=O)(=O)[O-])cc5F)c5ccc2[nH]5)C=C4)C=C3)cc1)c1ccc(F)cc1
REMARK SMILES IDX 24 1 23 2 21 3 22 4 18 5 17 6 15 7 16 8 4 10 3 11 1 12 2 13
REMARK SMILES IDX 95 15 96 16 101 17 97 18 100 19 98 20 99 21 5 22 6 23 7 24
REMARK SMILES IDX 14 25 8 26 9 27 13 28 10 30 12 31 11 32 19 33 20 34 25 36
REMARK SMILES IDX 26 37 27 38 28 39 29 40 30 41 94 42 31 43 93 44 32 45 33 46
REMARK SMILES IDX 34 47 87 48 35 49 92 50 86 51 88 52 36 53 91 54 85 55 84 56
REMARK SMILES IDX 37 58 71 59 50 60 70 61 51 62 54 63 69 64 89 65 52 66 53 67
REMARK SMILES IDX 68 69 90 70 55 71 38 72 39 73 48 74 40 75 41 76 47 77 49 78
REMARK SMILES IDX 42 79 43 80 44 81 45 82 46 83 72 84 73 85 82 86 74 87 75 88
REMARK SMILES IDX 81 89 83 90 76 91 77 92 78 93 79 94 80 95 56 96 57 97 66 98
REMARK SMILES IDX 58 99 59 100 65 101 67 102 60 103 61 104 62 105 63 106
REMARK SMILES IDX 64 107
REMARK H PARENT 17 9 3 14 8 29 20 35 88 57 54 68
REMARK Flexibility Score: inf
ROOT
ATOM      1  C   UNL     1       6.925  -5.076  -5.089  1.00  0.00     0.274 C 
ENDROOT
BRANCH   1   2
ATOM      2  O   UNL     1       6.051  -3.933  -4.917  1.00  0.00    -0.460 OA
BRANCH   2   3
ATOM      3  C   UNL     1       4.937  -4.251  -4.199  1.00  0.00     0.331 C 
ATOM      4  O   UNL     1       4.819  -5.337  -3.622  1.00  0.00    -0.250 OA
BRANCH   3   5
ATOM      5  C   UNL     1       3.709  -3.027  -4.159  1.00  0.00     0.218 C 
BRANCH   5   6
ATOM      6  N   UNL     1       4.674  -1.714  -3.781  1.00  0.00    -0.339 N 
ATOM      7  C   UNL     1       4.756  -0.861  -2.699  1.00  0.00     0.243 C 
ATOM      8  O   UNL     1       5.528   0.101  -2.861  1.00  0.00    -0.273 OA
ATOM      9  H   UNL     1       5.327  -1.503  -4.487  1.00  0.00     0.164 HD
BRANCH   7  10
ATOM     10  C   UNL     1       3.854  -0.873  -1.370  1.00  0.00     0.176 C 
BRANCH  10  11
ATOM     11  N   UNL     1       2.725   0.076  -1.300  1.00  0.00    -0.340 N 
ATOM     12  O   UNL     1       1.068   0.964  -0.091  1.00  0.00    -0.269 OA
ATOM     13  C   UNL     1       2.274   0.760  -0.202  1.00  0.00     0.251 C 
ATOM     14  H   UNL     1       2.240   0.236  -2.142  1.00  0.00     0.164 HD
BRANCH  13  15
ATOM     15  C   UNL     1       3.202   1.275   0.824  1.00  0.00     0.040 A 
ATOM     16  C   UNL     1       4.400   1.898   0.455  1.00  0.00     0.017 A 
ATOM     17  C   UNL     1       2.793   1.267   2.166  1.00  0.00     0.017 A 
ATOM     18  C   UNL     1       5.187   2.510   1.431  1.00  0.00     0.040 A 
ATOM     19  C   UNL     1       3.586   1.879   3.138  1.00  0.00     0.040 A 
ATOM     20  C   UNL     1       4.771   2.502   2.759  1.00  0.00     0.123 A 
ATOM     21  F   UNL     1       5.510   3.131   3.681  1.00  0.00    -0.207 F 
ENDBRANCH  13  15
ENDBRANCH  10  11
BRANCH  10  22
ATOM     22  C   UNL     1       3.372  -2.199  -0.783  1.00  0.00     0.072 C 
BRANCH  22  23
ATOM     23  C   UNL     1       2.318  -2.974  -1.550  1.00  0.00    -0.020 A 
ATOM     24  C   UNL     1       2.006  -4.308  -1.262  1.00  0.00     0.087 A 
ATOM     25  C   UNL     1       1.978  -2.728  -2.929  1.00  0.00     0.003 A 
ATOM     26  N   UNL     1       1.882  -5.111  -2.397  1.00  0.00    -0.361 N 
ATOM     27  C   UNL     1       2.188  -4.380  -3.516  1.00  0.00     0.046 A 
ATOM     28  C   UNL     1       2.383  -1.362  -4.065  1.00  0.00     0.010 A 
ATOM     29  H   UNL     1       1.615  -6.059  -2.395  1.00  0.00     0.166 HD
ATOM     30  C   UNL     1       2.841  -4.707  -5.174  1.00  0.00     0.026 A 
ATOM     31  C   UNL     1       3.126  -1.677  -5.669  1.00  0.00     0.001 A 
ATOM     32  C   UNL     1       3.366  -3.345  -6.206  1.00  0.00     0.002 A 
ENDBRANCH  22  23
ENDBRANCH  10  22
ENDBRANCH   7  10
ENDBRANCH   5   6
BRANCH   5  33
ATOM     33  C   UNL     1       1.674  -3.022  -5.001  1.00  0.00     0.193 C 
BRANCH  33  34
ATOM     34  O   UNL     1       1.178  -2.568  -6.426  1.00  0.00    -0.394 OA
ATOM     35  H   UNL     1       1.203  -1.601  -6.484  1.00  0.00     0.210 HD
ENDBRANCH  33  34
ENDBRANCH   5  33
ENDBRANCH   3   5
ENDBRANCH   2   3
ENDBRANCH   1   2
BRANCH   1  36
ATOM     36  C   UNL     1       7.960  -5.274  -3.969  1.00  0.00     0.275 C 
BRANCH  36  37
ATOM     37  O   UNL     1       7.381  -5.650  -2.700  1.00  0.00    -0.458 OA
BRANCH  37  38
ATOM     38  C   UNL     1       7.593  -4.775  -1.689  1.00  0.00     0.338 C 
ATOM     39  O   UNL     1       8.193  -3.713  -1.760  1.00  0.00    -0.246 OA
BRANCH  38  40
ATOM     40  C   UNL     1       6.949  -5.194  -0.427  1.00  0.00     0.060 A 
ATOM     41  C   UNL     1       5.590  -4.948  -0.287  1.00  0.00     0.016 A 
ATOM     42  C   UNL     1       7.709  -5.515   0.701  1.00  0.00     0.016 A 
ATOM     43  C   UNL     1       5.024  -4.865   0.988  1.00  0.00     0.010 A 
ATOM     44  C   UNL     1       7.105  -5.542   1.974  1.00  0.00     0.010 A 
ATOM     45  C   UNL     1       5.763  -5.159   2.142  1.00  0.00    -0.014 A 
BRANCH  45  46
ATOM     46  C   UNL     1       5.141  -4.982   3.495  1.00  0.00     0.031 A 
ATOM     47  C   UNL     1       5.735  -4.010   4.489  1.00  0.00     0.074 A 
ATOM     48  C   UNL     1       3.988  -5.608   3.818  1.00  0.00     0.049 A 
ATOM     49  N   UNL     1       5.457  -3.842   5.758  1.00  0.00    -0.248 NA
ATOM     50  C   UNL     1       6.765  -3.090   3.981  1.00  0.00     0.031 C 
ATOM     51  C   UNL     1       3.212  -6.466   2.920  1.00  0.00     0.029 A 
ATOM     52  N   UNL     1       3.249  -5.604   4.979  1.00  0.00    -0.354 N 
ATOM     53  C   UNL     1       6.314  -2.844   6.214  1.00  0.00     0.074 A 
ATOM     54  C   UNL     1       7.105  -2.424   5.076  1.00  0.00     0.031 C 
ATOM     55  C   UNL     1       2.092  -6.863   3.542  1.00  0.00     0.029 A 
ATOM     56  C   UNL     1       2.127  -6.401   4.924  1.00  0.00     0.049 A 
ATOM     57  H   UNL     1       3.500  -5.080   5.775  1.00  0.00     0.167 HD
ATOM     58  C   UNL     1       6.444  -2.343   7.468  1.00  0.00     0.037 A 
ATOM     59  C   UNL     1       1.260  -6.780   5.886  1.00  0.00     0.037 A 
ATOM     60  C   UNL     1       5.630  -2.751   8.587  1.00  0.00     0.049 A 
ATOM     61  C   UNL     1       1.484  -6.299   7.295  1.00  0.00     0.074 A 
ATOM     62  C   UNL     1       5.728  -2.369   9.914  1.00  0.00     0.029 A 
ATOM     63  N   UNL     1       4.557  -3.628   8.505  1.00  0.00    -0.354 N 
ATOM     64  N   UNL     1       2.389  -5.463   7.745  1.00  0.00    -0.248 NA
ATOM     65  C   UNL     1       0.595  -6.839   8.334  1.00  0.00     0.031 C 
ATOM     66  C   UNL     1       4.746  -3.052  10.641  1.00  0.00     0.029 A 
ATOM     67  C   UNL     1       3.999  -3.816   9.759  1.00  0.00     0.049 A 
ATOM     68  H   UNL     1       4.239  -4.054   7.677  1.00  0.00     0.167 HD
ATOM     69  C   UNL     1       2.174  -5.370   9.116  1.00  0.00     0.074 A 
ATOM     70  C   UNL     1       1.039  -6.218   9.418  1.00  0.00     0.031 C 
ATOM     71  C   UNL     1       2.862  -4.657  10.042  1.00  0.00     0.037 A 
BRANCH  58  72
ATOM     72  C   UNL     1       7.570  -1.373   7.719  1.00  0.00     0.058 A 
ATOM     73  C   UNL     1       7.545  -0.045   7.266  1.00  0.00     0.135 A 
ATOM     74  C   UNL     1       8.705  -1.796   8.434  1.00  0.00     0.135 A 
ATOM     75  F   UNL     1       6.493   0.409   6.567  1.00  0.00    -0.206 F 
ATOM     76  C   UNL     1       8.620   0.817   7.478  1.00  0.00     0.059 A 
ATOM     77  C   UNL     1       9.779  -0.945   8.680  1.00  0.00     0.059 A 
ATOM     78  F   UNL     1       8.783  -3.054   8.895  1.00  0.00    -0.206 F 
ATOM     79  C   UNL     1       9.737   0.354   8.179  1.00  0.00     0.060 A 
BRANCH  79  80
ATOM     80  S   UNL     1      11.144   1.463   8.412  1.00  0.00     0.124 S 
ATOM     81  O   UNL     1      11.706   1.508   7.066  1.00  0.00    -0.237 OA
ATOM     82  O   UNL     1      10.504   2.691   8.873  1.00  0.00    -0.237 OA
ATOM     83  O   UNL     1      11.960   0.774   9.407  1.00  0.00    -0.744 OA
ENDBRANCH  79  80
ENDBRANCH  58  72
BRANCH  59  84
ATOM     84  C   UNL     1       0.162  -7.742   5.571  1.00  0.00     0.058 A 
ATOM     85  C   UNL     1      -1.189  -7.381   5.681  1.00  0.00     0.135 A 
ATOM     86  C   UNL     1       0.449  -9.055   5.155  1.00  0.00     0.135 A 
ATOM     87  F   UNL     1      -1.522  -6.148   6.093  1.00  0.00    -0.206 F 
ATOM     88  C   UNL     1      -2.213  -8.282   5.394  1.00  0.00     0.059 A 
ATOM     89  C   UNL     1      -0.555  -9.960   4.829  1.00  0.00     0.059 A 
ATOM     90  F   UNL     1       1.722  -9.460   5.032  1.00  0.00    -0.206 F 
ATOM     91  C   UNL     1      -1.885  -9.568   4.963  1.00  0.00     0.060 A 
BRANCH  91  92
ATOM     92  S   UNL     1      -3.213 -10.716   4.540  1.00  0.00     0.124 S 
ATOM     93  O   UNL     1      -3.724 -11.073   5.859  1.00  0.00    -0.237 OA
ATOM     94  O   UNL     1      -4.088  -9.886   3.718  1.00  0.00    -0.237 OA
ATOM     95  O   UNL     1      -2.519 -11.782   3.822  1.00  0.00    -0.744 OA
ENDBRANCH  91  92
ENDBRANCH  59  84
BRANCH  71  96
ATOM     96  C   UNL     1       2.387  -4.734  11.466  1.00  0.00     0.058 A 
ATOM     97  C   UNL     1       2.604  -5.875  12.255  1.00  0.00     0.135 A 
ATOM     98  C   UNL     1       1.758  -3.631  12.066  1.00  0.00     0.135 A 
ATOM     99  F   UNL     1       3.193  -6.960  11.728  1.00  0.00    -0.206 F 
ATOM    100  C   UNL     1       2.200  -5.925  13.586  1.00  0.00     0.059 A 
ATOM    101  C   UNL     1       1.369  -3.650  13.401  1.00  0.00     0.059 A 
ATOM    102  F   UNL     1       1.533  -2.514  11.356  1.00  0.00    -0.206 F 
ATOM    103  C   UNL     1       1.586  -4.805  14.151  1.00  0.00     0.060 A 
BRANCH 103 104
ATOM    104  S   UNL     1       1.107  -4.866  15.890  1.00  0.00     0.124 S 
ATOM    105  O   UNL     1      -0.068  -5.730  15.842  1.00  0.00    -0.237 OA
ATOM    106  O   UNL     1       2.291  -5.441  16.521  1.00  0.00    -0.237 OA
ATOM    107  O   UNL     1       0.846  -3.468  16.220  1.00  0.00    -0.744 OA
ENDBRANCH 103 104
ENDBRANCH  71  96
ENDBRANCH  45  46
ENDBRANCH  38  40
ENDBRANCH  37  38
ENDBRANCH  36  37
ENDBRANCH   1  36
TORSDOF 22
