REMARK SMILES C[NH+](C)CC(C)(C)CNC(=O)NCC(=O)OCCOC(=O)c1ccc(-c2c3nc(c(-c4c(F)cc(S(=O)(=O)[O-])cc4F)c4ccc([nH]4)c(-c4c(F)cc(S(=O)(=O)[O-])cc4F)c4nc(c(-c5c(F)cc(S(=O)(=O)[O-])cc5F)c5ccc2[nH]5)C=C4)C=C3)cc1
REMARK SMILES IDX 17 1 16 2 14 3 15 4 13 5 12 6 9 7 10 8 11 10 8 12 5 13 6 14
REMARK SMILES IDX 7 15 4 16 2 17 1 18 3 19 18 21 19 22 20 23 21 24 22 25 23 26
REMARK SMILES IDX 87 27 24 28 86 29 25 30 26 31 27 32 80 33 28 34 85 35 79 36
REMARK SMILES IDX 81 37 29 38 84 39 78 40 77 41 30 43 64 44 43 45 63 46 44 47
REMARK SMILES IDX 47 48 62 49 82 50 45 51 46 52 61 54 83 55 48 56 31 57 32 58
REMARK SMILES IDX 41 59 33 60 34 61 40 62 42 63 35 64 36 65 37 66 38 67 39 68
REMARK SMILES IDX 65 69 66 70 75 71 67 72 68 73 74 74 76 75 69 76 70 77 71 78
REMARK SMILES IDX 72 79 73 80 49 81 50 82 59 83 51 84 52 85 58 86 60 87 53 88
REMARK SMILES IDX 54 89 55 90 56 91 57 92
REMARK H PARENT 9 9 12 11 2 20 81 42 47 53
REMARK Flexibility Score: inf
ROOT
ATOM      1  C   UNL     1      -6.016  -0.400  -1.335  1.00  0.00     0.274 C 
ENDROOT
BRANCH   1   2
ATOM      2  O   UNL     1      -5.091  -1.077  -0.465  1.00  0.00    -0.461 OA
BRANCH   2   3
ATOM      3  C   UNL     1      -3.797  -0.655  -0.549  1.00  0.00     0.325 C 
ATOM      4  O   UNL     1      -3.375   0.128  -1.393  1.00  0.00    -0.250 OA
BRANCH   3   5
ATOM      5  C   UNL     1      -2.985  -1.072   0.667  1.00  0.00     0.240 C 
BRANCH   5   6
ATOM      6  N   UNL     1      -3.383  -2.303   1.317  1.00  0.00    -0.327 N 
ATOM      7  N   UNL     1      -1.359  -3.493   1.472  1.00  0.00    -0.337 N 
ATOM      8  C   UNL     1      -2.611  -3.236   1.892  1.00  0.00     0.315 C 
ATOM      9  H   UNL     1      -0.757  -3.848   2.165  1.00  0.00     0.165 HD
ATOM     10  O   UNL     1      -3.062  -3.891   2.832  1.00  0.00    -0.249 OA
ATOM     11  H   UNL     1      -4.352  -2.478   1.341  1.00  0.00     0.166 HD
BRANCH   7  12
ATOM     12  C   UNL     1      -0.749  -3.334   0.161  1.00  0.00     0.130 C 
BRANCH  12  13
ATOM     13  C   UNL     1       0.794  -3.147   0.171  1.00  0.00     0.031 C 
ATOM     14  C   UNL     1       1.220  -2.724  -1.251  1.00  0.00     0.019 C 
ATOM     15  C   UNL     1       1.452  -4.513   0.461  1.00  0.00     0.019 C 
BRANCH  13  16
ATOM     16  C   UNL     1       1.305  -2.126   1.241  1.00  0.00     0.269 C 
BRANCH  16  17
ATOM     17  N   UNL     1       0.726  -0.799   1.113  1.00  0.00    -0.339 N 
ATOM     18  C   UNL     1       1.318   0.137   0.178  1.00  0.00     0.332 C 
ATOM     19  C   UNL     1       0.104  -0.206   2.279  1.00  0.00     0.332 C 
ATOM     20  H   UNL     1      -0.087  -1.106   0.579  1.00  0.00     0.347 HD
ENDBRANCH  16  17
ENDBRANCH  13  16
ENDBRANCH  12  13
ENDBRANCH   7  12
ENDBRANCH   5   6
ENDBRANCH   3   5
ENDBRANCH   2   3
ENDBRANCH   1   2
BRANCH   1  21
ATOM     21  C   UNL     1      -6.677   0.790  -0.628  1.00  0.00     0.275 C 
BRANCH  21  22
ATOM     22  O   UNL     1      -5.760   1.879  -0.392  1.00  0.00    -0.458 OA
BRANCH  22  23
ATOM     23  C   UNL     1      -5.136   1.855   0.810  1.00  0.00     0.338 C 
ATOM     24  O   UNL     1      -5.256   1.008   1.678  1.00  0.00    -0.246 OA
BRANCH  23  25
ATOM     25  C   UNL     1      -4.189   2.977   0.928  1.00  0.00     0.060 A 
ATOM     26  C   UNL     1      -2.818   2.705   0.979  1.00  0.00     0.016 A 
ATOM     27  C   UNL     1      -4.658   4.273   1.138  1.00  0.00     0.016 A 
ATOM     28  C   UNL     1      -1.914   3.719   1.288  1.00  0.00     0.010 A 
ATOM     29  C   UNL     1      -3.745   5.297   1.416  1.00  0.00     0.010 A 
ATOM     30  C   UNL     1      -2.369   5.024   1.519  1.00  0.00    -0.014 A 
BRANCH  30  31
ATOM     31  C   UNL     1      -1.416   6.095   1.909  1.00  0.00     0.031 A 
ATOM     32  C   UNL     1      -1.470   6.684   3.293  1.00  0.00     0.074 A 
ATOM     33  C   UNL     1      -0.506   6.545   1.024  1.00  0.00     0.049 A 
ATOM     34  N   UNL     1      -0.831   7.717   3.779  1.00  0.00    -0.248 NA
ATOM     35  C   UNL     1      -2.369   6.026   4.255  1.00  0.00     0.031 C 
ATOM     36  C   UNL     1      -0.321   6.032  -0.334  1.00  0.00     0.029 A 
ATOM     37  N   UNL     1       0.430   7.543   1.134  1.00  0.00    -0.354 N 
ATOM     38  C   UNL     1      -1.274   7.857   5.089  1.00  0.00     0.074 A 
ATOM     39  C   UNL     1      -2.242   6.805   5.320  1.00  0.00     0.031 C 
ATOM     40  C   UNL     1       0.666   6.719  -0.931  1.00  0.00     0.029 A 
ATOM     41  C   UNL     1       1.147   7.754  -0.019  1.00  0.00     0.049 A 
ATOM     42  H   UNL     1       0.573   8.060   1.960  1.00  0.00     0.167 HD
ATOM     43  C   UNL     1      -0.908   8.779   6.012  1.00  0.00     0.037 A 
ATOM     44  C   UNL     1       2.062   8.694  -0.322  1.00  0.00     0.037 A 
ATOM     45  C   UNL     1       0.079   9.804   5.788  1.00  0.00     0.049 A 
ATOM     46  C   UNL     1       2.435   9.723   0.709  1.00  0.00     0.074 A 
ATOM     47  C   UNL     1       0.523  10.779   6.665  1.00  0.00     0.029 A 
ATOM     48  N   UNL     1       0.782   9.982   4.606  1.00  0.00    -0.354 N 
ATOM     49  N   UNL     1       1.984   9.862   1.933  1.00  0.00    -0.248 NA
ATOM     50  C   UNL     1       3.434  10.726   0.318  1.00  0.00     0.031 C 
ATOM     51  C   UNL     1       1.475  11.564   6.004  1.00  0.00     0.029 A 
ATOM     52  C   UNL     1       1.650  11.055   4.727  1.00  0.00     0.049 A 
ATOM     53  H   UNL     1       0.678   9.428   3.799  1.00  0.00     0.167 HD
ATOM     54  C   UNL     1       2.658  10.956   2.463  1.00  0.00     0.074 A 
ATOM     55  C   UNL     1       3.555  11.436   1.431  1.00  0.00     0.031 C 
ATOM     56  C   UNL     1       2.544  11.513   3.694  1.00  0.00     0.037 A 
BRANCH  43  57
ATOM     57  C   UNL     1      -1.600   8.739   7.346  1.00  0.00     0.058 A 
ATOM     58  C   UNL     1      -1.306   7.756   8.303  1.00  0.00     0.135 A 
ATOM     59  C   UNL     1      -2.551   9.717   7.680  1.00  0.00     0.135 A 
ATOM     60  F   UNL     1      -0.417   6.789   8.028  1.00  0.00    -0.206 F 
ATOM     61  C   UNL     1      -1.950   7.729   9.537  1.00  0.00     0.059 A 
ATOM     62  C   UNL     1      -3.191   9.722   8.915  1.00  0.00     0.059 A 
ATOM     63  F   UNL     1      -2.868  10.679   6.799  1.00  0.00    -0.206 F 
ATOM     64  C   UNL     1      -2.895   8.714   9.832  1.00  0.00     0.060 A 
BRANCH  64  65
ATOM     65  S   UNL     1      -3.728   8.667  11.433  1.00  0.00     0.124 S 
ATOM     66  O   UNL     1      -4.691   7.590  11.226  1.00  0.00    -0.237 OA
ATOM     67  O   UNL     1      -2.632   8.369  12.350  1.00  0.00    -0.237 OA
ATOM     68  O   UNL     1      -4.298  10.005  11.557  1.00  0.00    -0.744 OA
ENDBRANCH  64  65
ENDBRANCH  43  57
BRANCH  44  69
ATOM     69  C   UNL     1       2.675   8.717  -1.675  1.00  0.00     0.058 A 
ATOM     70  C   UNL     1       4.010   8.339  -1.869  1.00  0.00     0.135 A 
ATOM     71  C   UNL     1       1.930   9.098  -2.802  1.00  0.00     0.135 A 
ATOM     72  F   UNL     1       4.764   7.977  -0.820  1.00  0.00    -0.206 F 
ATOM     73  C   UNL     1       4.591   8.344  -3.133  1.00  0.00     0.059 A 
ATOM     74  C   UNL     1       2.481   9.089  -4.079  1.00  0.00     0.059 A 
ATOM     75  F   UNL     1       0.643   9.457  -2.669  1.00  0.00    -0.206 F 
ATOM     76  C   UNL     1       3.816   8.717  -4.233  1.00  0.00     0.060 A 
BRANCH  76  77
ATOM     77  S   UNL     1       4.557   8.660  -5.879  1.00  0.00     0.124 S 
ATOM     78  O   UNL     1       5.361   9.876  -5.881  1.00  0.00    -0.237 OA
ATOM     79  O   UNL     1       5.299   7.403  -5.842  1.00  0.00    -0.237 OA
ATOM     80  O   UNL     1       3.397   8.666  -6.766  1.00  0.00    -0.744 OA
ENDBRANCH  76  77
ENDBRANCH  44  69
BRANCH  56  81
ATOM     81  C   UNL     1       3.437  12.680   4.007  1.00  0.00     0.058 A 
ATOM     82  C   UNL     1       3.181  13.961   3.495  1.00  0.00     0.135 A 
ATOM     83  C   UNL     1       4.538  12.521   4.863  1.00  0.00     0.135 A 
ATOM     84  F   UNL     1       2.144  14.163   2.667  1.00  0.00    -0.206 F 
ATOM     85  C   UNL     1       3.999  15.043   3.806  1.00  0.00     0.059 A 
ATOM     86  C   UNL     1       5.357  13.593   5.204  1.00  0.00     0.059 A 
ATOM     87  F   UNL     1       4.821  11.317   5.385  1.00  0.00    -0.206 F 
ATOM     88  C   UNL     1       5.086  14.848   4.660  1.00  0.00     0.060 A 
BRANCH  88  89
ATOM     89  S   UNL     1       6.126  16.263   5.082  1.00  0.00     0.124 S 
ATOM     90  O   UNL     1       6.941  16.397   3.879  1.00  0.00    -0.237 OA
ATOM     91  O   UNL     1       5.145  17.322   5.303  1.00  0.00    -0.237 OA
ATOM     92  O   UNL     1       6.835  15.817   6.277  1.00  0.00    -0.744 OA
ENDBRANCH  88  89
ENDBRANCH  56  81
ENDBRANCH  30  31
ENDBRANCH  23  25
ENDBRANCH  22  23
ENDBRANCH  21  22
ENDBRANCH   1  21
TORSDOF 19
