REMARK SMILES C[C@H](O)C[C@@H](Cc1cccc(Br)c1)C(=O)OCCOC(=O)c1ccc(-c2c3nc(c(-c4c(F)cc(S(=O)(=O)[O-])cc4F)c4ccc([nH]4)c(-c4c(F)cc(S(=O)(=O)[O-])cc4F)c4nc(c(-c5c(F)cc(S(=O)(=O)[O-])cc5F)c5ccc2[nH]5)C=C4)C=C3)cc1
REMARK SMILES IDX 17 1 16 2 14 3 15 4 5 5 4 6 2 7 1 8 3 9 6 11 7 12 8 13 13 14
REMARK SMILES IDX 9 15 11 16 10 17 12 18 18 19 19 20 20 21 21 22 22 23 23 24
REMARK SMILES IDX 87 25 24 26 86 27 25 28 26 29 27 30 80 31 28 32 85 33 79 34
REMARK SMILES IDX 81 35 29 36 84 37 78 38 77 39 30 41 64 42 43 43 63 44 44 45
REMARK SMILES IDX 47 46 62 47 82 48 45 49 46 50 61 52 83 53 48 54 31 55 32 56
REMARK SMILES IDX 41 57 33 58 34 59 40 60 42 61 35 62 36 63 37 64 38 65 39 66
REMARK SMILES IDX 65 67 66 68 75 69 67 70 68 71 74 72 76 73 69 74 70 75 71 76
REMARK SMILES IDX 72 77 73 78 49 79 50 80 59 81 51 82 52 83 58 84 60 85 53 86
REMARK SMILES IDX 54 87 55 88 56 89 57 90
REMARK H PARENT 3 10 81 40 47 51
REMARK Flexibility Score: inf
ROOT
ATOM      1  C   UNL     1      -5.139   1.724  -1.076  1.00  0.00     0.274 C 
ENDROOT
BRANCH   1   2
ATOM      2  O   UNL     1      -3.713   1.637  -1.274  1.00  0.00    -0.462 OA
BRANCH   2   3
ATOM      3  C   UNL     1      -2.943   2.022  -0.224  1.00  0.00     0.309 C 
ATOM      4  O   UNL     1      -3.381   2.409   0.854  1.00  0.00    -0.252 OA
BRANCH   3   5
ATOM      5  C   UNL     1      -1.455   1.984  -0.527  1.00  0.00     0.106 C 
BRANCH   5   6
ATOM      6  C   UNL     1      -0.989   0.771  -1.362  1.00  0.00     0.047 C 
BRANCH   6   7
ATOM      7  C   UNL     1       0.524   0.724  -1.590  1.00  0.00     0.112 C 
ATOM      8  C   UNL     1       0.933  -0.453  -2.465  1.00  0.00     0.038 C 
BRANCH   7   9
ATOM      9  O   UNL     1       1.189   0.634  -0.335  1.00  0.00    -0.393 OA
ATOM     10  H   UNL     1       0.924  -0.184   0.114  1.00  0.00     0.210 HD
ENDBRANCH   7   9
ENDBRANCH   6   7
ENDBRANCH   5   6
BRANCH   5  11
ATOM     11  C   UNL     1      -0.984   3.383  -0.963  1.00  0.00     0.051 C 
BRANCH  11  12
ATOM     12  C   UNL     1      -1.453   4.021  -2.255  1.00  0.00    -0.046 A 
ATOM     13  C   UNL     1      -2.004   3.330  -3.338  1.00  0.00     0.004 A 
ATOM     14  C   UNL     1      -1.276   5.411  -2.388  1.00  0.00     0.019 A 
ATOM     15  C   UNL     1      -2.377   3.995  -4.511  1.00  0.00     0.001 A 
ATOM     16  C   UNL     1      -1.653   6.074  -3.557  1.00  0.00     0.018 A 
ATOM     17  C   UNL     1      -2.203   5.370  -4.622  1.00  0.00     0.016 A 
ATOM     18  Br  UNL     1      -1.412   7.944  -3.696  1.00  0.00    -0.051 Br
ENDBRANCH  11  12
ENDBRANCH   5  11
ENDBRANCH   3   5
ENDBRANCH   2   3
ENDBRANCH   1   2
BRANCH   1  19
ATOM     19  C   UNL     1      -5.764   0.346  -0.849  1.00  0.00     0.275 C 
BRANCH  19  20
ATOM     20  O   UNL     1      -5.297  -0.253   0.372  1.00  0.00    -0.458 OA
BRANCH  20  21
ATOM     21  C   UNL     1      -4.204  -1.039   0.230  1.00  0.00     0.338 C 
ATOM     22  O   UNL     1      -3.640  -1.337  -0.810  1.00  0.00    -0.246 OA
BRANCH  21  23
ATOM     23  C   UNL     1      -3.668  -1.391   1.552  1.00  0.00     0.060 A 
ATOM     24  C   UNL     1      -2.398  -0.914   1.883  1.00  0.00     0.016 A 
ATOM     25  C   UNL     1      -4.348  -2.252   2.414  1.00  0.00     0.016 A 
ATOM     26  C   UNL     1      -1.780  -1.322   3.055  1.00  0.00     0.010 A 
ATOM     27  C   UNL     1      -3.731  -2.651   3.605  1.00  0.00     0.010 A 
ATOM     28  C   UNL     1      -2.435  -2.205   3.919  1.00  0.00    -0.014 A 
BRANCH  28  29
ATOM     29  C   UNL     1      -1.710  -2.696   5.113  1.00  0.00     0.031 A 
ATOM     30  C   UNL     1      -1.156  -4.091   5.126  1.00  0.00     0.074 A 
ATOM     31  C   UNL     1      -1.482  -1.858   6.142  1.00  0.00     0.049 A 
ATOM     32  N   UNL     1      -0.499  -4.710   6.072  1.00  0.00    -0.248 NA
ATOM     33  C   UNL     1      -1.365  -4.897   3.912  1.00  0.00     0.031 C 
ATOM     34  C   UNL     1      -1.935  -0.467   6.212  1.00  0.00     0.029 A 
ATOM     35  N   UNL     1      -0.805  -2.050   7.317  1.00  0.00    -0.354 N 
ATOM     36  C   UNL     1      -0.220  -5.977   5.575  1.00  0.00     0.074 A 
ATOM     37  C   UNL     1      -0.803  -6.049   4.252  1.00  0.00     0.031 C 
ATOM     38  C   UNL     1      -1.520   0.069   7.372  1.00  0.00     0.029 A 
ATOM     39  C   UNL     1      -0.805  -0.947   8.137  1.00  0.00     0.049 A 
ATOM     40  H   UNL     1      -0.361  -2.897   7.552  1.00  0.00     0.167 HD
ATOM     41  C   UNL     1       0.466  -6.984   6.166  1.00  0.00     0.037 A 
ATOM     42  C   UNL     1      -0.301  -0.784   9.375  1.00  0.00     0.037 A 
ATOM     43  C   UNL     1       1.044  -6.902   7.482  1.00  0.00     0.049 A 
ATOM     44  C   UNL     1       0.425  -1.930  10.024  1.00  0.00     0.074 A 
ATOM     45  C   UNL     1       1.730  -7.875   8.187  1.00  0.00     0.029 A 
ATOM     46  N   UNL     1       1.008  -5.775   8.291  1.00  0.00    -0.354 N 
ATOM     47  N   UNL     1       0.653  -3.134   9.553  1.00  0.00    -0.248 NA
ATOM     48  C   UNL     1       0.964  -1.697  11.370  1.00  0.00     0.031 C 
ATOM     49  C   UNL     1       2.088  -7.345   9.432  1.00  0.00     0.029 A 
ATOM     50  C   UNL     1       1.657  -6.029   9.489  1.00  0.00     0.049 A 
ATOM     51  H   UNL     1       0.584  -4.920   8.050  1.00  0.00     0.167 HD
ATOM     52  C   UNL     1       1.371  -3.798  10.541  1.00  0.00     0.074 A 
ATOM     53  C   UNL     1       1.559  -2.854  11.625  1.00  0.00     0.031 C 
ATOM     54  C   UNL     1       1.829  -5.074  10.554  1.00  0.00     0.037 A 
BRANCH  41  55
ATOM     55  C   UNL     1       0.611  -8.266   5.396  1.00  0.00     0.058 A 
ATOM     56  C   UNL     1       1.486  -8.372   4.303  1.00  0.00     0.135 A 
ATOM     57  C   UNL     1      -0.119  -9.407   5.765  1.00  0.00     0.135 A 
ATOM     58  F   UNL     1       2.190  -7.305   3.895  1.00  0.00    -0.206 F 
ATOM     59  C   UNL     1       1.616  -9.559   3.589  1.00  0.00     0.059 A 
ATOM     60  C   UNL     1       0.011 -10.611   5.079  1.00  0.00     0.059 A 
ATOM     61  F   UNL     1      -0.974  -9.357   6.799  1.00  0.00    -0.206 F 
ATOM     62  C   UNL     1       0.871 -10.673   3.983  1.00  0.00     0.060 A 
BRANCH  62  63
ATOM     63  S   UNL     1       1.047 -12.206   3.046  1.00  0.00     0.124 S 
ATOM     64  O   UNL     1       0.294 -11.894   1.835  1.00  0.00    -0.237 OA
ATOM     65  O   UNL     1       2.493 -12.311   2.883  1.00  0.00    -0.237 OA
ATOM     66  O   UNL     1       0.444 -13.209   3.919  1.00  0.00    -0.744 OA
ENDBRANCH  62  63
ENDBRANCH  41  55
BRANCH  42  67
ATOM     67  C   UNL     1      -0.491   0.505  10.089  1.00  0.00     0.058 A 
ATOM     68  C   UNL     1       0.584   1.373  10.329  1.00  0.00     0.135 A 
ATOM     69  C   UNL     1      -1.761   0.894  10.544  1.00  0.00     0.135 A 
ATOM     70  F   UNL     1       1.817   1.041   9.920  1.00  0.00    -0.206 F 
ATOM     71  C   UNL     1       0.411   2.573  11.012  1.00  0.00     0.059 A 
ATOM     72  C   UNL     1      -1.963   2.100  11.207  1.00  0.00     0.059 A 
ATOM     73  F   UNL     1      -2.825   0.105  10.326  1.00  0.00    -0.206 F 
ATOM     74  C   UNL     1      -0.867   2.927  11.448  1.00  0.00     0.060 A 
BRANCH  74  75
ATOM     75  S   UNL     1      -1.094   4.503  12.301  1.00  0.00     0.124 S 
ATOM     76  O   UNL     1      -0.603   4.186  13.636  1.00  0.00    -0.237 OA
ATOM     77  O   UNL     1      -0.263   5.406  11.512  1.00  0.00    -0.237 OA
ATOM     78  O   UNL     1      -2.532   4.735  12.194  1.00  0.00    -0.744 OA
ENDBRANCH  74  75
ENDBRANCH  42  67
BRANCH  54  79
ATOM     79  C   UNL     1       2.592  -5.510  11.773  1.00  0.00     0.058 A 
ATOM     80  C   UNL     1       1.943  -5.775  12.988  1.00  0.00     0.135 A 
ATOM     81  C   UNL     1       3.984  -5.680  11.719  1.00  0.00     0.135 A 
ATOM     82  F   UNL     1       0.613  -5.622  13.092  1.00  0.00    -0.206 F 
ATOM     83  C   UNL     1       2.653  -6.162  14.120  1.00  0.00     0.059 A 
ATOM     84  C   UNL     1       4.712  -6.089  12.832  1.00  0.00     0.059 A 
ATOM     85  F   UNL     1       4.650  -5.450  10.576  1.00  0.00    -0.206 F 
ATOM     86  C   UNL     1       4.038  -6.311  14.033  1.00  0.00     0.060 A 
BRANCH  86  87
ATOM     87  S   UNL     1       4.952  -6.819  15.504  1.00  0.00     0.124 S 
ATOM     88  O   UNL     1       5.019  -5.570  16.254  1.00  0.00    -0.237 OA
ATOM     89  O   UNL     1       4.091  -7.853  16.070  1.00  0.00    -0.237 OA
ATOM     90  O   UNL     1       6.222  -7.298  14.965  1.00  0.00    -0.744 OA
ENDBRANCH  86  87
ENDBRANCH  54  79
ENDBRANCH  28  29
ENDBRANCH  21  23
ENDBRANCH  20  21
ENDBRANCH  19  20
ENDBRANCH   1  19
TORSDOF 19
