REMARK SMILES O=C(OCCOC(=O)[C@@H]1CCCN(C(=O)Nc2ccccc2)C1)c1ccc(-c2c3nc(c(-c4c(F)cc(S(=O)(=O)[O-])cc4F)c4ccc([nH]4)c(-c4c(F)cc(S(=O)(=O)[O-])cc4F)c4nc(c(-c5c(F)cc(S(=O)(=O)[O-])cc5F)c5ccc2[nH]5)C=C4)C=C3)cc1
REMARK SMILES IDX 4 1 3 2 2 3 1 4 24 5 25 6 89 7 26 8 88 9 27 10 28 11 29 12
REMARK SMILES IDX 82 13 30 14 87 15 81 16 83 17 31 18 86 19 80 20 79 21 32 23
REMARK SMILES IDX 66 24 45 25 65 26 46 27 49 28 64 29 84 30 47 31 48 32 63 34
REMARK SMILES IDX 85 35 50 36 33 37 34 38 43 39 35 40 36 41 42 42 44 43 37 44
REMARK SMILES IDX 38 45 39 46 40 47 41 48 67 49 68 50 77 51 69 52 70 53 76 54
REMARK SMILES IDX 78 55 71 56 72 57 73 58 74 59 75 60 51 61 52 62 61 63 53 64
REMARK SMILES IDX 54 65 60 66 62 67 55 68 56 69 57 70 58 71 59 72 5 73 6 74
REMARK SMILES IDX 7 75 8 76 9 77 10 78 23 79 11 80 13 81 12 82 14 83 15 84
REMARK SMILES IDX 16 85 17 87 18 88 22 89 19 90 21 91 20 92
REMARK H PARENT 83 22 49 33 16 86
REMARK Flexibility Score: inf
ROOT
ATOM      1  C   UNL     1       4.145  -0.831  -1.090  1.00  0.00     0.275 C 
ENDROOT
BRANCH   1   2
ATOM      2  O   UNL     1       2.858  -1.214  -0.538  1.00  0.00    -0.458 OA
BRANCH   2   3
ATOM      3  C   UNL     1       2.318  -1.089   0.700  1.00  0.00     0.338 C 
ATOM      4  O   UNL     1       1.147  -1.433   0.865  1.00  0.00    -0.246 OA
BRANCH   3   5
ATOM      5  C   UNL     1       3.021  -0.500   1.882  1.00  0.00     0.060 A 
ATOM      6  C   UNL     1       4.377  -0.645   2.146  1.00  0.00     0.016 A 
ATOM      7  C   UNL     1       2.244   0.195   2.837  1.00  0.00     0.016 A 
ATOM      8  C   UNL     1       4.964   0.028   3.233  1.00  0.00     0.010 A 
ATOM      9  C   UNL     1       2.825   0.819   3.965  1.00  0.00     0.010 A 
ATOM     10  C   UNL     1       4.210   0.789   4.151  1.00  0.00    -0.014 A 
BRANCH  10  11
ATOM     11  C   UNL     1       4.937   1.435   5.297  1.00  0.00     0.031 A 
ATOM     12  C   UNL     1       5.735   0.541   6.203  1.00  0.00     0.074 A 
ATOM     13  C   UNL     1       5.018   2.772   5.486  1.00  0.00     0.049 A 
ATOM     14  N   UNL     1       6.708   0.836   7.023  1.00  0.00    -0.248 NA
ATOM     15  C   UNL     1       5.368  -0.884   6.176  1.00  0.00     0.031 C 
ATOM     16  C   UNL     1       4.230   3.773   4.789  1.00  0.00     0.029 A 
ATOM     17  N   UNL     1       5.857   3.533   6.278  1.00  0.00    -0.354 N 
ATOM     18  C   UNL     1       7.068  -0.366   7.615  1.00  0.00     0.074 A 
ATOM     19  C   UNL     1       6.244  -1.400   7.023  1.00  0.00     0.031 C 
ATOM     20  C   UNL     1       4.741   4.996   5.015  1.00  0.00     0.029 A 
ATOM     21  C   UNL     1       5.839   4.884   5.968  1.00  0.00     0.049 A 
ATOM     22  H   UNL     1       6.415   3.152   6.994  1.00  0.00     0.167 HD
ATOM     23  C   UNL     1       7.955  -0.589   8.614  1.00  0.00     0.037 A 
ATOM     24  C   UNL     1       6.627   5.899   6.395  1.00  0.00     0.037 A 
ATOM     25  C   UNL     1       8.681   0.439   9.302  1.00  0.00     0.049 A 
ATOM     26  C   UNL     1       7.639   5.609   7.480  1.00  0.00     0.074 A 
ATOM     27  C   UNL     1       9.493   0.322  10.416  1.00  0.00     0.029 A 
ATOM     28  N   UNL     1       8.650   1.783   8.966  1.00  0.00    -0.354 N 
ATOM     29  N   UNL     1       8.034   4.457   7.963  1.00  0.00    -0.248 NA
ATOM     30  C   UNL     1       8.284   6.776   8.108  1.00  0.00     0.031 C 
ATOM     31  C   UNL     1       9.915   1.604  10.784  1.00  0.00     0.029 A 
ATOM     32  C   UNL     1       9.405   2.511   9.870  1.00  0.00     0.049 A 
ATOM     33  H   UNL     1       8.163   2.164   8.200  1.00  0.00     0.167 HD
ATOM     34  C   UNL     1       8.967   4.764   8.948  1.00  0.00     0.074 A 
ATOM     35  C   UNL     1       9.139   6.199   8.938  1.00  0.00     0.031 C 
ATOM     36  C   UNL     1       9.591   3.937   9.821  1.00  0.00     0.037 A 
BRANCH  23  37
ATOM     37  C   UNL     1       8.042  -2.002   9.100  1.00  0.00     0.058 A 
ATOM     38  C   UNL     1       8.732  -2.990   8.383  1.00  0.00     0.135 A 
ATOM     39  C   UNL     1       7.324  -2.387  10.242  1.00  0.00     0.135 A 
ATOM     40  F   UNL     1       9.403  -2.670   7.264  1.00  0.00    -0.206 F 
ATOM     41  C   UNL     1       8.665  -4.327   8.756  1.00  0.00     0.059 A 
ATOM     42  C   UNL     1       7.258  -3.715  10.643  1.00  0.00     0.059 A 
ATOM     43  F   UNL     1       6.635  -1.476  10.947  1.00  0.00    -0.206 F 
ATOM     44  C   UNL     1       7.908  -4.680   9.876  1.00  0.00     0.060 A 
BRANCH  44  45
ATOM     45  S   UNL     1       7.744  -6.426  10.298  1.00  0.00     0.124 S 
ATOM     46  O   UNL     1       6.779  -6.874   9.299  1.00  0.00    -0.237 OA
ATOM     47  O   UNL     1       9.107  -6.921  10.129  1.00  0.00    -0.237 OA
ATOM     48  O   UNL     1       7.258  -6.397  11.674  1.00  0.00    -0.744 OA
ENDBRANCH  44  45
ENDBRANCH  23  37
BRANCH  24  49
ATOM     49  C   UNL     1       6.574   7.285   5.819  1.00  0.00     0.058 A 
ATOM     50  C   UNL     1       7.748   7.863   5.294  1.00  0.00     0.135 A 
ATOM     51  C   UNL     1       5.428   8.092   5.831  1.00  0.00     0.135 A 
ATOM     52  F   UNL     1       8.883   7.148   5.244  1.00  0.00    -0.206 F 
ATOM     53  C   UNL     1       7.788   9.169   4.813  1.00  0.00     0.059 A 
ATOM     54  C   UNL     1       5.428   9.386   5.303  1.00  0.00     0.059 A 
ATOM     55  F   UNL     1       4.281   7.630   6.352  1.00  0.00    -0.206 F 
ATOM     56  C   UNL     1       6.614   9.916   4.798  1.00  0.00     0.060 A 
BRANCH  56  57
ATOM     57  S   UNL     1       6.644  11.544   4.016  1.00  0.00     0.124 S 
ATOM     58  O   UNL     1       7.376  12.332   5.000  1.00  0.00    -0.237 OA
ATOM     59  O   UNL     1       7.348  11.265   2.767  1.00  0.00    -0.237 OA
ATOM     60  O   UNL     1       5.229  11.869   3.869  1.00  0.00    -0.744 OA
ENDBRANCH  56  57
ENDBRANCH  24  49
BRANCH  36  61
ATOM     61  C   UNL     1      10.505   4.563  10.836  1.00  0.00     0.058 A 
ATOM     62  C   UNL     1       9.999   5.332  11.897  1.00  0.00     0.135 A 
ATOM     63  C   UNL     1      11.890   4.347  10.783  1.00  0.00     0.135 A 
ATOM     64  F   UNL     1       8.681   5.575  11.989  1.00  0.00    -0.206 F 
ATOM     65  C   UNL     1      10.837   5.883  12.860  1.00  0.00     0.059 A 
ATOM     66  C   UNL     1      12.744   4.866  11.751  1.00  0.00     0.059 A 
ATOM     67  F   UNL     1      12.423   3.613   9.794  1.00  0.00    -0.206 F 
ATOM     68  C   UNL     1      12.209   5.641  12.781  1.00  0.00     0.060 A 
BRANCH  68  69
ATOM     69  S   UNL     1      13.281   6.311  14.069  1.00  0.00     0.124 S 
ATOM     70  O   UNL     1      13.371   7.713  13.676  1.00  0.00    -0.237 OA
ATOM     71  O   UNL     1      12.519   6.040  15.284  1.00  0.00    -0.237 OA
ATOM     72  O   UNL     1      14.509   5.536  13.923  1.00  0.00    -0.744 OA
ENDBRANCH  68  69
ENDBRANCH  36  61
ENDBRANCH  10  11
ENDBRANCH   3   5
ENDBRANCH   2   3
ENDBRANCH   1   2
BRANCH   1  73
ATOM     73  C   UNL     1       4.123   0.556  -1.716  1.00  0.00     0.274 C 
BRANCH  73  74
ATOM     74  O   UNL     1       3.860   1.493  -0.675  1.00  0.00    -0.462 OA
BRANCH  74  75
ATOM     75  C   UNL     1       2.867   2.394  -0.842  1.00  0.00     0.310 C 
ATOM     76  O   UNL     1       2.180   2.507  -1.847  1.00  0.00    -0.252 OA
BRANCH  75  77
ATOM     77  C   UNL     1       2.658   3.200   0.425  1.00  0.00     0.119 C 
ATOM     78  C   UNL     1       2.406   4.677   0.138  1.00  0.00     0.019 C 
ATOM     79  C   UNL     1       3.814   3.083   1.410  1.00  0.00     0.136 C 
ATOM     80  C   UNL     1       3.685   5.373  -0.314  1.00  0.00     0.023 C 
ATOM     81  N   UNL     1       5.042   3.747   1.005  1.00  0.00    -0.324 N 
ATOM     82  C   UNL     1       4.859   5.152   0.640  1.00  0.00     0.121 C 
BRANCH  81  83
ATOM     83  C   UNL     1       6.207   3.005   1.023  1.00  0.00     0.321 C 
ATOM     84  O   UNL     1       6.199   1.769   1.071  1.00  0.00    -0.248 OA
ATOM     85  N   UNL     1       7.430   3.562   0.858  1.00  0.00    -0.308 N 
ATOM     86  H   UNL     1       8.110   2.929   0.533  1.00  0.00     0.171 HD
BRANCH  85  87
ATOM     87  C   UNL     1       7.918   4.851   1.056  1.00  0.00     0.042 A 
ATOM     88  C   UNL     1       8.910   5.301   0.182  1.00  0.00     0.026 A 
ATOM     89  C   UNL     1       7.410   5.702   2.031  1.00  0.00     0.026 A 
ATOM     90  C   UNL     1       9.281   6.645   0.185  1.00  0.00     0.002 A 
ATOM     91  C   UNL     1       7.750   7.050   1.997  1.00  0.00     0.002 A 
ATOM     92  C   UNL     1       8.679   7.526   1.077  1.00  0.00     0.000 A 
ENDBRANCH  85  87
ENDBRANCH  81  83
ENDBRANCH  75  77
ENDBRANCH  74  75
ENDBRANCH  73  74
ENDBRANCH   1  73
TORSDOF 16
