REMARK SMILES O=C(CCC(=O)N1N=C(c2ccc(F)cc2)C[C@@H]1c1ccc2nccnc2c1)OCCOC(=O)c1ccc(-c2c3nc(c(-c4c(F)cc(S(=O)(=O)[O-])cc4F)c4ccc([nH]4)c(-c4c(F)cc(S(=O)(=O)[O-])cc4F)c4nc(c(-c5c(F)cc(S(=O)(=O)[O-])cc5F)c5ccc2[nH]5)C=C4)C=C3)cc1
REMARK SMILES IDX 30 1 29 2 2 3 1 4 3 5 4 6 5 7 6 8 7 9 8 10 18 11 9 12 17 13
REMARK SMILES IDX 19 14 20 15 28 16 21 17 27 18 22 19 26 20 23 21 25 22 24 23
REMARK SMILES IDX 10 24 11 25 16 26 12 27 15 28 13 29 14 30 31 31 32 32 33 33
REMARK SMILES IDX 34 34 35 35 36 36 100 37 37 38 99 39 38 40 39 41 40 42 93 43
REMARK SMILES IDX 41 44 98 45 92 46 94 47 42 48 97 49 91 50 90 51 43 53 77 54
REMARK SMILES IDX 56 55 76 56 57 57 60 58 75 59 95 60 58 61 59 62 74 64 96 65
REMARK SMILES IDX 61 66 44 67 45 68 54 69 46 70 47 71 53 72 55 73 48 74 49 75
REMARK SMILES IDX 50 76 51 77 52 78 78 79 79 80 88 81 80 82 81 83 87 84 89 85
REMARK SMILES IDX 82 86 83 87 84 88 85 89 86 90 62 91 63 92 72 93 64 94 65 95
REMARK SMILES IDX 71 96 73 97 66 98 67 99 68 100 69 101 70 102
REMARK H PARENT 94 52 60 63
REMARK Flexibility Score: inf
ROOT
ATOM      1  C   UNL     1       5.420  -0.754   0.157  1.00  0.00     0.274 C 
ENDROOT
BRANCH   1   2
ATOM      2  O   UNL     1       4.051  -0.318   0.357  1.00  0.00    -0.462 OA
BRANCH   2   3
ATOM      3  C   UNL     1       2.926  -0.763  -0.226  1.00  0.00     0.306 C 
ATOM      4  O   UNL     1       1.815  -0.337   0.079  1.00  0.00    -0.252 OA
BRANCH   3   5
ATOM      5  C   UNL     1       3.099  -1.613  -1.411  1.00  0.00     0.132 C 
BRANCH   5   6
ATOM      6  C   UNL     1       3.368  -0.679  -2.568  1.00  0.00     0.114 C 
BRANCH   6   7
ATOM      7  C   UNL     1       4.383   0.460  -2.389  1.00  0.00     0.243 C 
ATOM      8  O   UNL     1       5.472   0.260  -2.964  1.00  0.00    -0.273 OA
BRANCH   7   9
ATOM      9  N   UNL     1       4.141   1.691  -1.760  1.00  0.00    -0.225 N 
ATOM     10  N   UNL     1       4.818   2.693  -2.429  1.00  0.00    -0.174 NA
ATOM     11  C   UNL     1       3.094   2.326  -0.836  1.00  0.00     0.147 C 
ATOM     12  C   UNL     1       4.187   3.799  -2.246  1.00  0.00     0.071 C 
ATOM     13  C   UNL     1       3.057   3.793  -1.285  1.00  0.00     0.091 C 
BRANCH  11  14
ATOM     14  C   UNL     1       3.297   2.397   0.704  1.00  0.00    -0.021 A 
ATOM     15  C   UNL     1       2.174   2.695   1.501  1.00  0.00     0.008 A 
ATOM     16  C   UNL     1       4.507   2.212   1.397  1.00  0.00     0.036 A 
ATOM     17  C   UNL     1       2.235   2.668   2.902  1.00  0.00     0.031 A 
ATOM     18  C   UNL     1       4.562   2.069   2.802  1.00  0.00     0.089 A 
ATOM     19  C   UNL     1       3.385   2.281   3.563  1.00  0.00     0.089 A 
ATOM     20  N   UNL     1       5.691   1.636   3.416  1.00  0.00    -0.253 NA
ATOM     21  N   UNL     1       3.328   2.055   4.895  1.00  0.00    -0.253 NA
ATOM     22  C   UNL     1       5.567   1.265   4.716  1.00  0.00     0.132 A 
ATOM     23  C   UNL     1       4.413   1.471   5.441  1.00  0.00     0.132 A 
ENDBRANCH  11  14
BRANCH  12  24
ATOM     24  C   UNL     1       4.485   4.966  -3.062  1.00  0.00    -0.002 A 
ATOM     25  C   UNL     1       5.011   6.122  -2.494  1.00  0.00     0.013 A 
ATOM     26  C   UNL     1       4.273   4.849  -4.442  1.00  0.00     0.013 A 
ATOM     27  C   UNL     1       5.331   7.186  -3.335  1.00  0.00     0.040 A 
ATOM     28  C   UNL     1       4.580   5.921  -5.271  1.00  0.00     0.040 A 
ATOM     29  C   UNL     1       5.109   7.078  -4.709  1.00  0.00     0.123 A 
ATOM     30  F   UNL     1       5.421   8.107  -5.507  1.00  0.00    -0.207 F 
ENDBRANCH  12  24
ENDBRANCH   7   9
ENDBRANCH   6   7
ENDBRANCH   5   6
ENDBRANCH   3   5
ENDBRANCH   2   3
ENDBRANCH   1   2
BRANCH   1  31
ATOM     31  C   UNL     1       5.961  -1.205   1.500  1.00  0.00     0.275 C 
BRANCH  31  32
ATOM     32  O   UNL     1       5.104  -2.216   2.029  1.00  0.00    -0.458 OA
BRANCH  32  33
ATOM     33  C   UNL     1       3.954  -1.816   2.634  1.00  0.00     0.338 C 
ATOM     34  O   UNL     1       3.608  -0.712   3.002  1.00  0.00    -0.246 OA
BRANCH  33  35
ATOM     35  C   UNL     1       3.074  -2.974   2.564  1.00  0.00     0.060 A 
ATOM     36  C   UNL     1       1.788  -2.868   2.015  1.00  0.00     0.016 A 
ATOM     37  C   UNL     1       3.624  -4.194   2.942  1.00  0.00     0.016 A 
ATOM     38  C   UNL     1       1.062  -4.023   1.774  1.00  0.00     0.010 A 
ATOM     39  C   UNL     1       2.903  -5.337   2.715  1.00  0.00     0.010 A 
ATOM     40  C   UNL     1       1.627  -5.247   2.138  1.00  0.00    -0.014 A 
BRANCH  40  41
ATOM     41  C   UNL     1       0.855  -6.486   2.119  1.00  0.00     0.031 A 
ATOM     42  C   UNL     1       0.313  -6.948   3.429  1.00  0.00     0.074 A 
ATOM     43  C   UNL     1       0.836  -7.224   1.002  1.00  0.00     0.049 A 
ATOM     44  N   UNL     1      -0.133  -8.122   3.764  1.00  0.00    -0.248 NA
ATOM     45  C   UNL     1       0.326  -5.960   4.526  1.00  0.00     0.031 C 
ATOM     46  C   UNL     1       1.361  -6.805  -0.299  1.00  0.00     0.029 A 
ATOM     47  N   UNL     1       0.400  -8.501   0.801  1.00  0.00    -0.354 N 
ATOM     48  C   UNL     1      -0.445  -8.021   5.111  1.00  0.00     0.074 A 
ATOM     49  C   UNL     1      -0.092  -6.691   5.547  1.00  0.00     0.031 C 
ATOM     50  C   UNL     1       1.231  -7.823  -1.165  1.00  0.00     0.029 A 
ATOM     51  C   UNL     1       0.662  -8.970  -0.462  1.00  0.00     0.049 A 
ATOM     52  H   UNL     1      -0.056  -9.033   1.492  1.00  0.00     0.167 HD
ATOM     53  C   UNL     1      -0.990  -8.970   5.901  1.00  0.00     0.037 A 
ATOM     54  C   UNL     1       0.484 -10.204  -0.964  1.00  0.00     0.037 A 
ATOM     55  C   UNL     1      -1.303 -10.288   5.421  1.00  0.00     0.049 A 
ATOM     56  C   UNL     1      -0.083 -11.260  -0.054  1.00  0.00     0.074 A 
ATOM     57  C   UNL     1      -1.871 -11.342   6.107  1.00  0.00     0.029 A 
ATOM     58  N   UNL     1      -1.062 -10.728   4.124  1.00  0.00    -0.354 N 
ATOM     59  N   UNL     1      -0.407 -11.163   1.217  1.00  0.00    -0.248 NA
ATOM     60  C   UNL     1      -0.308 -12.587  -0.635  1.00  0.00     0.031 C 
ATOM     61  C   UNL     1      -1.929 -12.435   5.238  1.00  0.00     0.029 A 
ATOM     62  C   UNL     1      -1.455 -12.046   3.992  1.00  0.00     0.049 A 
ATOM     63  H   UNL     1      -0.670 -10.181   3.405  1.00  0.00     0.167 HD
ATOM     64  C   UNL     1      -0.905 -12.408   1.581  1.00  0.00     0.074 A 
ATOM     65  C   UNL     1      -0.841 -13.238   0.392  1.00  0.00     0.031 C 
ATOM     66  C   UNL     1      -1.376 -12.830   2.781  1.00  0.00     0.037 A 
BRANCH  53  67
ATOM     67  C   UNL     1      -1.261  -8.611   7.332  1.00  0.00     0.058 A 
ATOM     68  C   UNL     1      -0.537  -9.216   8.370  1.00  0.00     0.135 A 
ATOM     69  C   UNL     1      -2.243  -7.668   7.681  1.00  0.00     0.135 A 
ATOM     70  F   UNL     1       0.429 -10.106   8.095  1.00  0.00    -0.206 F 
ATOM     71  C   UNL     1      -0.789  -8.913   9.704  1.00  0.00     0.059 A 
ATOM     72  C   UNL     1      -2.490  -7.326   9.006  1.00  0.00     0.059 A 
ATOM     73  F   UNL     1      -2.939  -7.032   6.725  1.00  0.00    -0.206 F 
ATOM     74  C   UNL     1      -1.768  -7.966  10.012  1.00  0.00     0.060 A 
BRANCH  74  75
ATOM     75  S   UNL     1      -2.057  -7.560  11.746  1.00  0.00     0.124 S 
ATOM     76  O   UNL     1      -2.659  -8.791  12.245  1.00  0.00    -0.237 OA
ATOM     77  O   UNL     1      -0.707  -7.272  12.222  1.00  0.00    -0.237 OA
ATOM     78  O   UNL     1      -2.948  -6.405  11.680  1.00  0.00    -0.744 OA
ENDBRANCH  74  75
ENDBRANCH  53  67
BRANCH  54  79
ATOM     79  C   UNL     1       0.803 -10.469  -2.389  1.00  0.00     0.058 A 
ATOM     80  C   UNL     1       2.123 -10.461  -2.865  1.00  0.00     0.135 A 
ATOM     81  C   UNL     1      -0.227 -10.650  -3.323  1.00  0.00     0.135 A 
ATOM     82  F   UNL     1       3.146 -10.272  -2.016  1.00  0.00    -0.206 F 
ATOM     83  C   UNL     1       2.409 -10.595  -4.220  1.00  0.00     0.059 A 
ATOM     84  C   UNL     1       0.034 -10.810  -4.680  1.00  0.00     0.059 A 
ATOM     85  F   UNL     1      -1.505 -10.666  -2.914  1.00  0.00    -0.206 F 
ATOM     86  C   UNL     1       1.355 -10.762  -5.121  1.00  0.00     0.060 A 
BRANCH  86  87
ATOM     87  S   UNL     1       1.743 -10.893  -6.879  1.00  0.00     0.124 S 
ATOM     88  O   UNL     1       2.267  -9.560  -7.163  1.00  0.00    -0.237 OA
ATOM     89  O   UNL     1       2.720 -11.977  -6.895  1.00  0.00    -0.237 OA
ATOM     90  O   UNL     1       0.454 -11.203  -7.488  1.00  0.00    -0.744 OA
ENDBRANCH  86  87
ENDBRANCH  54  79
BRANCH  66  91
ATOM     91  C   UNL     1      -1.889 -14.239   2.864  1.00  0.00     0.058 A 
ATOM     92  C   UNL     1      -3.261 -14.479   3.046  1.00  0.00     0.135 A 
ATOM     93  C   UNL     1      -1.019 -15.339   2.871  1.00  0.00     0.135 A 
ATOM     94  F   UNL     1      -4.132 -13.457   3.056  1.00  0.00    -0.206 F 
ATOM     95  C   UNL     1      -3.749 -15.760   3.260  1.00  0.00     0.059 A 
ATOM     96  C   UNL     1      -1.490 -16.635   3.052  1.00  0.00     0.059 A 
ATOM     97  F   UNL     1       0.299 -15.159   2.692  1.00  0.00    -0.206 F 
ATOM     98  C   UNL     1      -2.855 -16.832   3.265  1.00  0.00     0.060 A 
BRANCH  98  99
ATOM     99  S   UNL     1      -3.509 -18.489   3.548  1.00  0.00     0.124 S 
ATOM    100  O   UNL     1      -3.907 -18.418   4.949  1.00  0.00    -0.237 OA
ATOM    101  O   UNL     1      -4.600 -18.556   2.580  1.00  0.00    -0.237 OA
ATOM    102  O   UNL     1      -2.370 -19.356   3.261  1.00  0.00    -0.744 OA
ENDBRANCH  98  99
ENDBRANCH  66  91
ENDBRANCH  40  41
ENDBRANCH  33  35
ENDBRANCH  32  33
ENDBRANCH  31  32
ENDBRANCH   1  31
TORSDOF 19
