REMARK SMILES O=C(OCCOC(=O)c1ccncc1-c1ccc(F)cc1F)c1ccc(-c2c3nc(c(-c4c(F)cc(S(=O)(=O)[O-])cc4F)c4ccc([nH]4)c(-c4c(F)cc(S(=O)(=O)[O-])cc4F)c4nc(c(-c5c(F)cc(S(=O)(=O)[O-])cc5F)c5ccc2[nH]5)C=C4)C=C3)cc1
REMARK SMILES IDX 4 1 3 2 2 3 1 4 23 5 24 6 88 7 25 8 87 9 26 10 27 11 28 12
REMARK SMILES IDX 81 13 29 14 86 15 80 16 82 17 30 18 85 19 79 20 78 21 31 23
REMARK SMILES IDX 65 24 44 25 64 26 45 27 48 28 63 29 83 30 46 31 47 32 62 34
REMARK SMILES IDX 84 35 49 36 32 37 33 38 42 39 34 40 35 41 41 42 43 43 36 44
REMARK SMILES IDX 37 45 38 46 39 47 40 48 66 49 67 50 76 51 68 52 69 53 75 54
REMARK SMILES IDX 77 55 70 56 71 57 72 58 73 59 74 60 50 61 51 62 60 63 52 64
REMARK SMILES IDX 53 65 59 66 61 67 54 68 55 69 56 70 57 71 58 72 5 73 6 74
REMARK SMILES IDX 7 75 8 76 9 77 10 78 14 79 11 80 13 81 12 82 15 83 16 84
REMARK SMILES IDX 21 85 17 86 20 87 22 88 18 89 19 90
REMARK H PARENT 82 22 48 33
REMARK Flexibility Score: inf
ROOT
ATOM      1  C   UNL     1       4.661   0.215  -1.935  1.00  0.00     0.275 C 
ENDROOT
BRANCH   1   2
ATOM      2  O   UNL     1       4.910  -0.746  -0.902  1.00  0.00    -0.458 OA
BRANCH   2   3
ATOM      3  C   UNL     1       3.969  -0.946   0.037  1.00  0.00     0.338 C 
ATOM      4  O   UNL     1       2.904  -1.497  -0.158  1.00  0.00    -0.246 OA
BRANCH   3   5
ATOM      5  C   UNL     1       4.429  -0.336   1.317  1.00  0.00     0.060 A 
ATOM      6  C   UNL     1       5.590   0.448   1.346  1.00  0.00     0.016 A 
ATOM      7  C   UNL     1       3.637  -0.436   2.464  1.00  0.00     0.016 A 
ATOM      8  C   UNL     1       5.958   1.106   2.504  1.00  0.00     0.010 A 
ATOM      9  C   UNL     1       3.943   0.310   3.595  1.00  0.00     0.010 A 
ATOM     10  C   UNL     1       5.139   1.031   3.633  1.00  0.00    -0.014 A 
BRANCH  10  11
ATOM     11  C   UNL     1       5.669   1.531   4.910  1.00  0.00     0.031 A 
ATOM     12  C   UNL     1       6.134   0.512   5.908  1.00  0.00     0.074 A 
ATOM     13  C   UNL     1       5.825   2.854   5.086  1.00  0.00     0.049 A 
ATOM     14  N   UNL     1       6.791   0.689   7.019  1.00  0.00    -0.248 NA
ATOM     15  C   UNL     1       5.833  -0.902   5.612  1.00  0.00     0.031 C 
ATOM     16  C   UNL     1       5.413   3.885   4.129  1.00  0.00     0.029 A 
ATOM     17  N   UNL     1       6.392   3.560   6.108  1.00  0.00    -0.354 N 
ATOM     18  C   UNL     1       7.005  -0.586   7.529  1.00  0.00     0.074 A 
ATOM     19  C   UNL     1       6.322  -1.521   6.671  1.00  0.00     0.031 C 
ATOM     20  C   UNL     1       5.737   5.094   4.613  1.00  0.00     0.029 A 
ATOM     21  C   UNL     1       6.396   4.918   5.901  1.00  0.00     0.049 A 
ATOM     22  H   UNL     1       6.762   3.136   6.916  1.00  0.00     0.167 HD
ATOM     23  C   UNL     1       7.761  -0.945   8.590  1.00  0.00     0.037 A 
ATOM     24  C   UNL     1       6.911   5.900   6.663  1.00  0.00     0.037 A 
ATOM     25  C   UNL     1       8.425   0.023   9.416  1.00  0.00     0.049 A 
ATOM     26  C   UNL     1       7.690   5.487   7.880  1.00  0.00     0.074 A 
ATOM     27  C   UNL     1       9.213  -0.182  10.530  1.00  0.00     0.029 A 
ATOM     28  N   UNL     1       8.364   1.397   9.204  1.00  0.00    -0.354 N 
ATOM     29  N   UNL     1       7.923   4.274   8.332  1.00  0.00    -0.248 NA
ATOM     30  C   UNL     1       8.308   6.556   8.668  1.00  0.00     0.031 C 
ATOM     31  C   UNL     1       9.595   1.074  11.016  1.00  0.00     0.029 A 
ATOM     32  C   UNL     1       9.089   2.058  10.176  1.00  0.00     0.049 A 
ATOM     33  H   UNL     1       7.877   1.834   8.469  1.00  0.00     0.167 HD
ATOM     34  C   UNL     1       8.742   4.429   9.441  1.00  0.00     0.074 A 
ATOM     35  C   UNL     1       8.966   5.858   9.585  1.00  0.00     0.031 C 
ATOM     36  C   UNL     1       9.271   3.488  10.264  1.00  0.00     0.037 A 
BRANCH  23  37
ATOM     37  C   UNL     1       7.884  -2.416   8.878  1.00  0.00     0.058 A 
ATOM     38  C   UNL     1       7.267  -2.982  10.004  1.00  0.00     0.135 A 
ATOM     39  C   UNL     1       8.562  -3.283   8.002  1.00  0.00     0.135 A 
ATOM     40  F   UNL     1       6.594  -2.207  10.868  1.00  0.00    -0.206 F 
ATOM     41  C   UNL     1       7.303  -4.354  10.245  1.00  0.00     0.059 A 
ATOM     42  C   UNL     1       8.585  -4.660   8.207  1.00  0.00     0.059 A 
ATOM     43  F   UNL     1       9.145  -2.803   6.891  1.00  0.00    -0.206 F 
ATOM     44  C   UNL     1       7.947  -5.187   9.330  1.00  0.00     0.060 A 
BRANCH  44  45
ATOM     45  S   UNL     1       7.956  -6.978   9.560  1.00  0.00     0.124 S 
ATOM     46  O   UNL     1       7.080  -7.417   8.478  1.00  0.00    -0.237 OA
ATOM     47  O   UNL     1       9.370  -7.303   9.402  1.00  0.00    -0.237 OA
ATOM     48  O   UNL     1       7.422  -7.151  10.907  1.00  0.00    -0.744 OA
ENDBRANCH  44  45
ENDBRANCH  23  37
BRANCH  24  49
ATOM     49  C   UNL     1       6.767   7.318   6.238  1.00  0.00     0.058 A 
ATOM     50  C   UNL     1       5.514   7.954   6.255  1.00  0.00     0.135 A 
ATOM     51  C   UNL     1       7.854   8.042   5.728  1.00  0.00     0.135 A 
ATOM     52  F   UNL     1       4.434   7.298   6.709  1.00  0.00    -0.206 F 
ATOM     53  C   UNL     1       5.338   9.248   5.769  1.00  0.00     0.059 A 
ATOM     54  C   UNL     1       7.707   9.343   5.253  1.00  0.00     0.059 A 
ATOM     55  F   UNL     1       9.070   7.479   5.680  1.00  0.00    -0.206 F 
ATOM     56  C   UNL     1       6.442   9.935   5.269  1.00  0.00     0.060 A 
BRANCH  56  57
ATOM     57  S   UNL     1       6.258  11.596   4.582  1.00  0.00     0.124 S 
ATOM     58  O   UNL     1       7.042  12.394   5.517  1.00  0.00    -0.237 OA
ATOM     59  O   UNL     1       6.827  11.433   3.247  1.00  0.00    -0.237 OA
ATOM     60  O   UNL     1       4.815  11.818   4.617  1.00  0.00    -0.744 OA
ENDBRANCH  56  57
ENDBRANCH  24  49
BRANCH  36  61
ATOM     61  C   UNL     1      10.152   3.981  11.371  1.00  0.00     0.058 A 
ATOM     62  C   UNL     1      11.535   3.745  11.330  1.00  0.00     0.135 A 
ATOM     63  C   UNL     1       9.617   4.611  12.504  1.00  0.00     0.135 A 
ATOM     64  F   UNL     1      12.086   3.131  10.271  1.00  0.00    -0.206 F 
ATOM     65  C   UNL     1      12.362   4.109  12.383  1.00  0.00     0.059 A 
ATOM     66  C   UNL     1      10.430   5.011  13.554  1.00  0.00     0.059 A 
ATOM     67  F   UNL     1       8.300   4.859  12.582  1.00  0.00    -0.206 F 
ATOM     68  C   UNL     1      11.801   4.751  13.486  1.00  0.00     0.060 A 
BRANCH  68  69
ATOM     69  S   UNL     1      12.836   5.242  14.878  1.00  0.00     0.124 S 
ATOM     70  O   UNL     1      12.843   6.694  14.739  1.00  0.00    -0.237 OA
ATOM     71  O   UNL     1      12.092   4.716  16.018  1.00  0.00    -0.237 OA
ATOM     72  O   UNL     1      14.108   4.579  14.606  1.00  0.00    -0.744 OA
ENDBRANCH  68  69
ENDBRANCH  36  61
ENDBRANCH  10  11
ENDBRANCH   3   5
ENDBRANCH   2   3
ENDBRANCH   1   2
BRANCH   1  73
ATOM     73  C   UNL     1       3.629   1.356  -1.769  1.00  0.00     0.275 C 
BRANCH  73  74
ATOM     74  O   UNL     1       3.186   1.643  -0.434  1.00  0.00    -0.458 OA
BRANCH  74  75
ATOM     75  C   UNL     1       1.835   1.731  -0.244  1.00  0.00     0.338 C 
ATOM     76  O   UNL     1       0.970   1.562  -1.085  1.00  0.00    -0.246 OA
BRANCH  75  77
ATOM     77  C   UNL     1       1.557   2.114   1.161  1.00  0.00     0.071 A 
ATOM     78  C   UNL     1       2.257   3.222   1.670  1.00  0.00     0.036 A 
ATOM     79  C   UNL     1       0.596   1.460   1.954  1.00  0.00     0.017 A 
ATOM     80  C   UNL     1       2.015   3.622   2.970  1.00  0.00     0.112 A 
ATOM     81  C   UNL     1       0.483   1.938   3.265  1.00  0.00     0.120 A 
ATOM     82  N   UNL     1       1.161   2.985   3.787  1.00  0.00    -0.264 NA
BRANCH  79  83
ATOM     83  C   UNL     1      -0.284   0.341   1.565  1.00  0.00     0.020 A 
ATOM     84  C   UNL     1       0.198  -0.959   1.372  1.00  0.00     0.015 A 
ATOM     85  C   UNL     1      -1.679   0.498   1.547  1.00  0.00     0.134 A 
ATOM     86  C   UNL     1      -0.653  -2.057   1.226  1.00  0.00     0.040 A 
ATOM     87  C   UNL     1      -2.546  -0.583   1.386  1.00  0.00     0.079 A 
ATOM     88  F   UNL     1      -2.215   1.712   1.741  1.00  0.00    -0.206 F 
ATOM     89  C   UNL     1      -2.022  -1.858   1.242  1.00  0.00     0.126 A 
ATOM     90  F   UNL     1      -2.844  -2.908   1.130  1.00  0.00    -0.207 F 
ENDBRANCH  79  83
ENDBRANCH  75  77
ENDBRANCH  74  75
ENDBRANCH  73  74
ENDBRANCH   1  73
TORSDOF 15
