REMARK SMILES Cn1ncc(C(=O)OCCOC(=O)c2ccc(-c3c4nc(c(-c5c(F)cc(S(=O)(=O)[O-])cc5F)c5ccc([nH]5)c(-c5c(F)cc(S(=O)(=O)[O-])cc5F)c5nc(c(-c6c(F)cc(S(=O)(=O)[O-])cc6F)c6ccc3[nH]6)C=C5)C=C4)cc2)c1C(=O)NCC1CC[NH+](Cc2ccccc2)CC1
REMARK SMILES IDX 9 1 8 2 6 3 7 4 5 5 1 6 2 7 3 8 80 9 4 10 81 11 82 12 83 13
REMARK SMILES IDX 84 15 85 16 86 17 97 18 87 19 96 20 88 21 89 23 90 24 91 25
REMARK SMILES IDX 95 26 92 27 94 28 93 29 10 30 11 31 12 32 13 33 14 34 15 35
REMARK SMILES IDX 79 36 16 37 78 38 17 39 18 40 19 41 72 42 20 43 77 44 71 45
REMARK SMILES IDX 73 46 21 47 76 48 70 49 69 50 22 52 56 53 35 54 55 55 36 56
REMARK SMILES IDX 39 57 54 58 74 59 37 60 38 61 53 63 75 64 40 65 23 66 24 67
REMARK SMILES IDX 33 68 25 69 26 70 32 71 34 72 27 73 28 74 29 75 30 76 31 77
REMARK SMILES IDX 57 78 58 79 67 80 59 81 60 82 66 83 68 84 61 85 62 86 63 87
REMARK SMILES IDX 64 88 65 89 41 90 42 91 51 92 43 93 44 94 50 95 52 96 45 97
REMARK SMILES IDX 46 98 47 99 48 100 49 101
REMARK H PARENT 83 14 88 22 73 51 39 62
REMARK Flexibility Score: inf
ROOT
ATOM      1  C   UNL     1       3.962  -3.236   0.794  1.00  0.00     0.275 C 
ENDROOT
BRANCH   1   2
ATOM      2  O   UNL     1       2.784  -2.471   0.463  1.00  0.00    -0.458 OA
BRANCH   2   3
ATOM      3  C   UNL     1       2.453  -1.509   1.375  1.00  0.00     0.342 C 
ATOM      4  O   UNL     1       3.136  -1.246   2.362  1.00  0.00    -0.246 OA
BRANCH   3   5
ATOM      5  C   UNL     1       1.313  -0.673   1.031  1.00  0.00     0.111 A 
ATOM      6  C   UNL     1      -1.908   0.681   0.151  1.00  0.00     0.174 C 
ATOM      7  N   UNL     1      -0.583   0.273   0.513  1.00  0.00    -0.262 N 
ATOM      8  N   UNL     1       0.224   1.303   0.808  1.00  0.00    -0.180 NA
ATOM      9  C   UNL     1      -0.014  -0.978   0.655  1.00  0.00     0.140 A 
ATOM     10  C   UNL     1       1.355   0.727   1.165  1.00  0.00     0.151 A 
BRANCH   9  11
ATOM     11  C   UNL     1      -0.541  -2.329   0.515  1.00  0.00     0.270 C 
ATOM     12  O   UNL     1       0.194  -3.307   0.702  1.00  0.00    -0.268 OA
ATOM     13  N   UNL     1      -1.818  -2.729   0.210  1.00  0.00    -0.350 N 
ATOM     14  H   UNL     1      -1.806  -3.633  -0.180  1.00  0.00     0.163 HD
BRANCH  13  15
ATOM     15  C   UNL     1      -3.182  -2.232   0.285  1.00  0.00     0.120 C 
BRANCH  15  16
ATOM     16  C   UNL     1      -4.055  -2.305  -1.005  1.00  0.00     0.019 C 
ATOM     17  C   UNL     1      -4.147  -3.712  -1.619  1.00  0.00     0.067 C 
ATOM     18  C   UNL     1      -3.729  -1.327  -2.144  1.00  0.00     0.067 C 
ATOM     19  C   UNL     1      -2.942  -4.065  -2.494  1.00  0.00     0.262 C 
ATOM     20  C   UNL     1      -2.465  -1.715  -2.913  1.00  0.00     0.262 C 
ATOM     21  N   UNL     1      -2.659  -3.042  -3.500  1.00  0.00    -0.331 N 
ATOM     22  H   UNL     1      -3.502  -2.983  -4.070  1.00  0.00     0.348 HD
BRANCH  21  23
ATOM     23  C   UNL     1      -1.591  -3.417  -4.443  1.00  0.00     0.299 C 
BRANCH  23  24
ATOM     24  C   UNL     1      -0.190  -3.553  -3.886  1.00  0.00     0.006 A 
ATOM     25  C   UNL     1       0.789  -2.600  -4.199  1.00  0.00     0.009 A 
ATOM     26  C   UNL     1       0.168  -4.638  -3.069  1.00  0.00     0.009 A 
ATOM     27  C   UNL     1       2.081  -2.723  -3.692  1.00  0.00     0.001 A 
ATOM     28  C   UNL     1       1.445  -4.735  -2.523  1.00  0.00     0.001 A 
ATOM     29  C   UNL     1       2.402  -3.783  -2.847  1.00  0.00     0.000 A 
ENDBRANCH  23  24
ENDBRANCH  21  23
ENDBRANCH  15  16
ENDBRANCH  13  15
ENDBRANCH   9  11
ENDBRANCH   3   5
ENDBRANCH   2   3
ENDBRANCH   1   2
BRANCH   1  30
ATOM     30  C   UNL     1       5.152  -2.894  -0.102  1.00  0.00     0.275 C 
BRANCH  30  31
ATOM     31  O   UNL     1       5.302  -1.472  -0.221  1.00  0.00    -0.458 OA
BRANCH  31  32
ATOM     32  C   UNL     1       5.119  -0.983  -1.472  1.00  0.00     0.338 C 
ATOM     33  O   UNL     1       4.934  -1.615  -2.495  1.00  0.00    -0.246 OA
BRANCH  32  34
ATOM     34  C   UNL     1       5.199   0.484  -1.460  1.00  0.00     0.060 A 
ATOM     35  C   UNL     1       4.424   1.218  -0.570  1.00  0.00     0.016 A 
ATOM     36  C   UNL     1       5.984   1.130  -2.414  1.00  0.00     0.016 A 
ATOM     37  C   UNL     1       4.384   2.606  -0.666  1.00  0.00     0.010 A 
ATOM     38  C   UNL     1       6.034   2.525  -2.434  1.00  0.00     0.010 A 
ATOM     39  C   UNL     1       5.234   3.278  -1.560  1.00  0.00    -0.014 A 
BRANCH  39  40
ATOM     40  C   UNL     1       5.359   4.759  -1.502  1.00  0.00     0.031 A 
ATOM     41  C   UNL     1       5.083   5.612  -2.710  1.00  0.00     0.074 A 
ATOM     42  C   UNL     1       5.769   5.323  -0.346  1.00  0.00     0.049 A 
ATOM     43  N   UNL     1       5.303   6.890  -2.882  1.00  0.00    -0.248 NA
ATOM     44  C   UNL     1       4.503   4.942  -3.884  1.00  0.00     0.031 C 
ATOM     45  C   UNL     1       6.071   4.590   0.888  1.00  0.00     0.029 A 
ATOM     46  N   UNL     1       5.999   6.632  -0.010  1.00  0.00    -0.354 N 
ATOM     47  C   UNL     1       4.932   7.171  -4.192  1.00  0.00     0.074 A 
ATOM     48  C   UNL     1       4.474   5.927  -4.774  1.00  0.00     0.031 C 
ATOM     49  C   UNL     1       6.388   5.459   1.856  1.00  0.00     0.029 A 
ATOM     50  C   UNL     1       6.420   6.799   1.289  1.00  0.00     0.049 A 
ATOM     51  H   UNL     1       5.875   7.381  -0.638  1.00  0.00     0.167 HD
ATOM     52  C   UNL     1       4.977   8.360  -4.843  1.00  0.00     0.037 A 
ATOM     53  C   UNL     1       6.835   7.898   1.945  1.00  0.00     0.037 A 
ATOM     54  C   UNL     1       5.408   9.592  -4.229  1.00  0.00     0.049 A 
ATOM     55  C   UNL     1       6.886   9.196   1.198  1.00  0.00     0.074 A 
ATOM     56  C   UNL     1       5.478  10.857  -4.787  1.00  0.00     0.029 A 
ATOM     57  N   UNL     1       5.835   9.715  -2.912  1.00  0.00    -0.354 N 
ATOM     58  N   UNL     1       6.559   9.438  -0.049  1.00  0.00    -0.248 NA
ATOM     59  C   UNL     1       7.381  10.365   1.934  1.00  0.00     0.031 C 
ATOM     60  C   UNL     1       5.981  11.736  -3.821  1.00  0.00     0.029 A 
ATOM     61  C   UNL     1       6.183  11.030  -2.646  1.00  0.00     0.049 A 
ATOM     62  H   UNL     1       5.882   8.976  -2.263  1.00  0.00     0.167 HD
ATOM     63  C   UNL     1       6.807  10.789  -0.249  1.00  0.00     0.074 A 
ATOM     64  C   UNL     1       7.285  11.315   1.014  1.00  0.00     0.031 C 
ATOM     65  C   UNL     1       6.661  11.525  -1.378  1.00  0.00     0.037 A 
BRANCH  52  66
ATOM     66  C   UNL     1       4.583   8.387  -6.297  1.00  0.00     0.058 A 
ATOM     67  C   UNL     1       3.249   8.251  -6.712  1.00  0.00     0.135 A 
ATOM     68  C   UNL     1       5.555   8.596  -7.291  1.00  0.00     0.135 A 
ATOM     69  F   UNL     1       2.279   8.037  -5.809  1.00  0.00    -0.206 F 
ATOM     70  C   UNL     1       2.896   8.297  -8.059  1.00  0.00     0.059 A 
ATOM     71  C   UNL     1       5.221   8.669  -8.642  1.00  0.00     0.059 A 
ATOM     72  F   UNL     1       6.847   8.735  -6.954  1.00  0.00    -0.206 F 
ATOM     73  C   UNL     1       3.889   8.505  -9.017  1.00  0.00     0.060 A 
BRANCH  73  74
ATOM     74  S   UNL     1       3.415   8.563 -10.759  1.00  0.00     0.124 S 
ATOM     75  O   UNL     1       3.136   7.157 -11.032  1.00  0.00    -0.237 OA
ATOM     76  O   UNL     1       2.254   9.446 -10.739  1.00  0.00    -0.237 OA
ATOM     77  O   UNL     1       4.599   9.106 -11.417  1.00  0.00    -0.744 OA
ENDBRANCH  73  74
ENDBRANCH  52  66
BRANCH  53  78
ATOM     78  C   UNL     1       7.271   7.792   3.363  1.00  0.00     0.058 A 
ATOM     79  C   UNL     1       6.515   8.361   4.397  1.00  0.00     0.135 A 
ATOM     80  C   UNL     1       8.428   7.077   3.717  1.00  0.00     0.135 A 
ATOM     81  F   UNL     1       5.405   9.059   4.111  1.00  0.00    -0.206 F 
ATOM     82  C   UNL     1       6.892   8.232   5.731  1.00  0.00     0.059 A 
ATOM     83  C   UNL     1       8.807   6.907   5.043  1.00  0.00     0.059 A 
ATOM     84  F   UNL     1       9.177   6.496   2.766  1.00  0.00    -0.206 F 
ATOM     85  C   UNL     1       8.038   7.498   6.044  1.00  0.00     0.060 A 
BRANCH  85  86
ATOM     86  S   UNL     1       8.490   7.288   7.779  1.00  0.00     0.124 S 
ATOM     87  O   UNL     1       9.039   8.600   8.099  1.00  0.00    -0.237 OA
ATOM     88  O   UNL     1       7.207   6.964   8.396  1.00  0.00    -0.237 OA
ATOM     89  O   UNL     1       9.453   6.191   7.744  1.00  0.00    -0.744 OA
ENDBRANCH  85  86
ENDBRANCH  53  78
BRANCH  65  90
ATOM     90  C   UNL     1       7.007  12.982  -1.281  1.00  0.00     0.058 A 
ATOM     91  C   UNL     1       8.340  13.416  -1.219  1.00  0.00     0.135 A 
ATOM     92  C   UNL     1       5.995  13.954  -1.276  1.00  0.00     0.135 A 
ATOM     93  F   UNL     1       9.342  12.523  -1.207  1.00  0.00    -0.206 F 
ATOM     94  C   UNL     1       8.658  14.767  -1.131  1.00  0.00     0.059 A 
ATOM     95  C   UNL     1       6.290  15.311  -1.215  1.00  0.00     0.059 A 
ATOM     96  F   UNL     1       4.705  13.587  -1.339  1.00  0.00    -0.206 F 
ATOM     97  C   UNL     1       7.625  15.707  -1.131  1.00  0.00     0.060 A 
BRANCH  97  98
ATOM     98  S   UNL     1       8.050  17.458  -1.046  1.00  0.00     0.124 S 
ATOM     99  O   UNL     1       8.422  17.603   0.357  1.00  0.00    -0.237 OA
ATOM    100  O   UNL     1       9.145  17.562  -2.006  1.00  0.00    -0.237 OA
ATOM    101  O   UNL     1       6.814  18.127  -1.441  1.00  0.00    -0.744 OA
ENDBRANCH  97  98
ENDBRANCH  65  90
ENDBRANCH  39  40
ENDBRANCH  32  34
ENDBRANCH  31  32
ENDBRANCH  30  31
ENDBRANCH   1  30
TORSDOF 19
