REMARK SMILES CC(C)[C@H](NC(=O)OCc1ccccc1)C(=O)NCC(=O)OCCOC(=O)c1ccc(-c2c3nc(c(-c4c(F)cc(S(=O)(=O)[O-])cc4F)c4ccc([nH]4)c(-c4c(F)cc(S(=O)(=O)[O-])cc4F)c4nc(c(-c5c(F)cc(S(=O)(=O)[O-])cc5F)c5ccc2[nH]5)C=C4)C=C3)cc1
REMARK SMILES IDX 22 1 20 2 21 3 19 4 18 5 16 6 17 7 4 9 2 10 1 11 3 12 5 13
REMARK SMILES IDX 6 14 7 16 8 17 9 18 10 19 11 20 15 21 12 22 14 23 13 24
REMARK SMILES IDX 23 25 24 26 25 27 26 28 27 29 28 30 29 31 93 32 30 33 92 34
REMARK SMILES IDX 31 35 32 36 33 37 86 38 34 39 91 40 85 41 87 42 35 43 90 44
REMARK SMILES IDX 84 45 83 46 36 48 70 49 49 50 69 51 50 52 53 53 68 54 88 55
REMARK SMILES IDX 51 56 52 57 67 59 89 60 54 61 37 62 38 63 47 64 39 65 40 66
REMARK SMILES IDX 46 67 48 68 41 69 42 70 43 71 44 72 45 73 71 74 72 75 81 76
REMARK SMILES IDX 73 77 74 78 80 79 82 80 75 81 76 82 77 83 78 84 79 85 55 86
REMARK SMILES IDX 56 87 65 88 57 89 58 90 64 91 66 92 59 93 60 94 61 95 62 96
REMARK SMILES IDX 63 97
REMARK H PARENT 18 8 5 15 87 47 53 58
REMARK Flexibility Score: inf
ROOT
ATOM      1  O   UNL     1       1.248   2.825   3.913  1.00  0.00    -0.461 OA
ENDROOT
BRANCH   1   2
ATOM      2  C   UNL     1       0.658   1.644   4.226  1.00  0.00     0.325 C 
ATOM      3  O   UNL     1       1.163   0.797   4.957  1.00  0.00    -0.250 OA
BRANCH   2   4
ATOM      4  C   UNL     1      -0.781   1.515   3.742  1.00  0.00     0.238 C 
BRANCH   4   5
ATOM      5  N   UNL     1      -1.226   2.336   2.642  1.00  0.00    -0.343 N 
ATOM      6  C   UNL     1      -1.388   2.009   1.335  1.00  0.00     0.243 C 
ATOM      7  O   UNL     1      -1.957   2.833   0.612  1.00  0.00    -0.273 OA
ATOM      8  H   UNL     1      -1.443   3.268   2.873  1.00  0.00     0.164 HD
BRANCH   6   9
ATOM      9  C   UNL     1      -0.880   0.671   0.734  1.00  0.00     0.177 C 
BRANCH   9  10
ATOM     10  C   UNL     1      -1.682  -0.602   1.091  1.00  0.00     0.015 C 
ATOM     11  C   UNL     1      -3.197  -0.371   1.020  1.00  0.00     0.010 C 
ATOM     12  C   UNL     1      -1.317  -1.749   0.137  1.00  0.00     0.010 C 
ENDBRANCH   9  10
BRANCH   9  13
ATOM     13  N   UNL     1       0.585   0.636   0.853  1.00  0.00    -0.309 N 
ATOM     14  C   UNL     1       1.440  -0.037   1.669  1.00  0.00     0.408 C 
ATOM     15  H   UNL     1       1.042   1.222   0.208  1.00  0.00     0.167 HD
ATOM     16  O   UNL     1       2.612   0.309   1.737  1.00  0.00    -0.225 OA
BRANCH  14  17
ATOM     17  O   UNL     1       0.870  -1.031   2.382  1.00  0.00    -0.445 OA
BRANCH  17  18
ATOM     18  C   UNL     1       1.686  -1.618   3.407  1.00  0.00     0.270 C 
BRANCH  18  19
ATOM     19  C   UNL     1       2.487  -2.797   2.926  1.00  0.00    -0.011 A 
ATOM     20  C   UNL     1       1.930  -4.080   2.877  1.00  0.00     0.007 A 
ATOM     21  C   UNL     1       3.834  -2.622   2.576  1.00  0.00     0.007 A 
ATOM     22  C   UNL     1       2.719  -5.172   2.513  1.00  0.00     0.000 A 
ATOM     23  C   UNL     1       4.620  -3.713   2.211  1.00  0.00     0.000 A 
ATOM     24  C   UNL     1       4.063  -4.989   2.186  1.00  0.00     0.000 A 
ENDBRANCH  18  19
ENDBRANCH  17  18
ENDBRANCH  14  17
ENDBRANCH   9  13
ENDBRANCH   6   9
ENDBRANCH   4   5
ENDBRANCH   2   4
ENDBRANCH   1   2
BRANCH   1  25
ATOM     25  C   UNL     1       2.521   3.035   4.558  1.00  0.00     0.274 C 
BRANCH  25  26
ATOM     26  C   UNL     1       2.378   3.700   5.938  1.00  0.00     0.275 C 
BRANCH  26  27
ATOM     27  O   UNL     1       1.781   2.838   6.931  1.00  0.00    -0.458 OA
BRANCH  27  28
ATOM     28  C   UNL     1       0.430   2.899   7.003  1.00  0.00     0.338 C 
ATOM     29  O   UNL     1      -0.304   3.607   6.330  1.00  0.00    -0.246 OA
BRANCH  28  30
ATOM     30  C   UNL     1      -0.108   1.877   7.916  1.00  0.00     0.060 A 
ATOM     31  C   UNL     1      -0.810   0.801   7.363  1.00  0.00     0.016 A 
ATOM     32  C   UNL     1      -0.107   2.078   9.295  1.00  0.00     0.016 A 
ATOM     33  C   UNL     1      -1.572  -0.035   8.164  1.00  0.00     0.010 A 
ATOM     34  C   UNL     1      -0.854   1.216  10.109  1.00  0.00     0.010 A 
ATOM     35  C   UNL     1      -1.624   0.184   9.542  1.00  0.00    -0.014 A 
BRANCH  35  36
ATOM     36  C   UNL     1      -2.598  -0.589  10.347  1.00  0.00     0.031 A 
ATOM     37  C   UNL     1      -3.818   0.107  10.882  1.00  0.00     0.074 A 
ATOM     38  C   UNL     1      -2.433  -1.913  10.524  1.00  0.00     0.049 A 
ATOM     39  N   UNL     1      -4.743  -0.345  11.688  1.00  0.00    -0.248 NA
ATOM     40  C   UNL     1      -4.025   1.500  10.452  1.00  0.00     0.031 C 
ATOM     41  C   UNL     1      -1.335  -2.710   9.972  1.00  0.00     0.029 A 
ATOM     42  N   UNL     1      -3.194  -2.822  11.211  1.00  0.00    -0.354 N 
ATOM     43  C   UNL     1      -5.615   0.717  11.895  1.00  0.00     0.074 A 
ATOM     44  C   UNL     1      -5.108   1.838  11.135  1.00  0.00     0.031 C 
ATOM     45  C   UNL     1      -1.496  -3.991  10.341  1.00  0.00     0.029 A 
ATOM     46  C   UNL     1      -2.671  -4.094  11.201  1.00  0.00     0.049 A 
ATOM     47  H   UNL     1      -4.033  -2.588  11.668  1.00  0.00     0.167 HD
ATOM     48  C   UNL     1      -6.736   0.749  12.654  1.00  0.00     0.037 A 
ATOM     49  C   UNL     1      -3.078  -5.206  11.842  1.00  0.00     0.037 A 
ATOM     50  C   UNL     1      -7.246  -0.386  13.378  1.00  0.00     0.049 A 
ATOM     51  C   UNL     1      -4.301  -5.135  12.716  1.00  0.00     0.074 A 
ATOM     52  C   UNL     1      -8.363  -0.461  14.191  1.00  0.00     0.029 A 
ATOM     53  N   UNL     1      -6.675  -1.651  13.364  1.00  0.00    -0.354 N 
ATOM     54  N   UNL     1      -5.084  -4.109  12.954  1.00  0.00    -0.248 NA
ATOM     55  C   UNL     1      -4.693  -6.367  13.411  1.00  0.00     0.031 C 
ATOM     56  C   UNL     1      -8.450  -1.765  14.693  1.00  0.00     0.029 A 
ATOM     57  C   UNL     1      -7.412  -2.513  14.158  1.00  0.00     0.049 A 
ATOM     58  H   UNL     1      -5.865  -1.899  12.863  1.00  0.00     0.167 HD
ATOM     59  C   UNL     1      -6.076  -4.579  13.808  1.00  0.00     0.074 A 
ATOM     60  C   UNL     1      -5.798  -5.983  14.034  1.00  0.00     0.031 C 
ATOM     61  C   UNL     1      -7.122  -3.911  14.355  1.00  0.00     0.037 A 
BRANCH  48  62
ATOM     62  C   UNL     1      -7.456   2.064  12.773  1.00  0.00     0.058 A 
ATOM     63  C   UNL     1      -8.203   2.603  11.714  1.00  0.00     0.135 A 
ATOM     64  C   UNL     1      -7.403   2.791  13.973  1.00  0.00     0.135 A 
ATOM     65  F   UNL     1      -8.269   1.961  10.537  1.00  0.00    -0.206 F 
ATOM     66  C   UNL     1      -8.849   3.831  11.832  1.00  0.00     0.059 A 
ATOM     67  C   UNL     1      -8.061   4.008  14.122  1.00  0.00     0.059 A 
ATOM     68  F   UNL     1      -6.698   2.324  15.016  1.00  0.00    -0.206 F 
ATOM     69  C   UNL     1      -8.768   4.528  13.039  1.00  0.00     0.060 A 
BRANCH  69  70
ATOM     70  S   UNL     1      -9.603   6.123  13.177  1.00  0.00     0.124 S 
ATOM     71  O   UNL     1      -8.717   6.983  12.400  1.00  0.00    -0.237 OA
ATOM     72  O   UNL     1     -10.905   5.848  12.578  1.00  0.00    -0.237 OA
ATOM     73  O   UNL     1      -9.619   6.374  14.615  1.00  0.00    -0.744 OA
ENDBRANCH  69  70
ENDBRANCH  48  62
BRANCH  49  74
ATOM     74  C   UNL     1      -2.303  -6.467  11.706  1.00  0.00     0.058 A 
ATOM     75  C   UNL     1      -2.825  -7.569  11.015  1.00  0.00     0.135 A 
ATOM     76  C   UNL     1      -1.016  -6.590  12.254  1.00  0.00     0.135 A 
ATOM     77  F   UNL     1      -4.054  -7.504  10.480  1.00  0.00    -0.206 F 
ATOM     78  C   UNL     1      -2.107  -8.753  10.882  1.00  0.00     0.059 A 
ATOM     79  C   UNL     1      -0.267  -7.753  12.112  1.00  0.00     0.059 A 
ATOM     80  F   UNL     1      -0.465  -5.559  12.914  1.00  0.00    -0.206 F 
ATOM     81  C   UNL     1      -0.826  -8.834  11.432  1.00  0.00     0.060 A 
BRANCH  81  82
ATOM     82  S   UNL     1       0.120 -10.356  11.211  1.00  0.00     0.124 S 
ATOM     83  O   UNL     1      -0.532 -11.248  12.162  1.00  0.00    -0.237 OA
ATOM     84  O   UNL     1      -0.101 -10.654   9.800  1.00  0.00    -0.237 OA
ATOM     85  O   UNL     1       1.482  -9.955  11.552  1.00  0.00    -0.744 OA
ENDBRANCH  81  82
ENDBRANCH  49  74
BRANCH  61  86
ATOM     86  C   UNL     1      -8.068  -4.704  15.210  1.00  0.00     0.058 A 
ATOM     87  C   UNL     1      -7.723  -5.120  16.505  1.00  0.00     0.135 A 
ATOM     88  C   UNL     1      -9.352  -5.019  14.737  1.00  0.00     0.135 A 
ATOM     89  F   UNL     1      -6.505  -4.848  17.000  1.00  0.00    -0.206 F 
ATOM     90  C   UNL     1      -8.609  -5.847  17.293  1.00  0.00     0.059 A 
ATOM     91  C   UNL     1     -10.263  -5.723  15.517  1.00  0.00     0.059 A 
ATOM     92  F   UNL     1      -9.734  -4.634  13.509  1.00  0.00    -0.206 F 
ATOM     93  C   UNL     1      -9.877  -6.146  16.788  1.00  0.00     0.060 A 
BRANCH  93  94
ATOM     94  S   UNL     1     -11.027  -7.074  17.825  1.00  0.00     0.124 S 
ATOM     95  O   UNL     1     -10.499  -8.429  17.707  1.00  0.00    -0.237 OA
ATOM     96  O   UNL     1     -10.860  -6.438  19.128  1.00  0.00    -0.237 OA
ATOM     97  O   UNL     1     -12.319  -6.844  17.185  1.00  0.00    -0.744 OA
ENDBRANCH  93  94
ENDBRANCH  61  86
ENDBRANCH  35  36
ENDBRANCH  28  30
ENDBRANCH  27  28
ENDBRANCH  26  27
ENDBRANCH  25  26
ENDBRANCH   1  25
TORSDOF 21
