REMARK SMILES CCCC[C@H](C(=O)OCCOC(=O)c1ccc(-c2c3nc(c(-c4c(F)cc(S(=O)(=O)[O-])cc4F)c4ccc([nH]4)c(-c4c(F)cc(S(=O)(=O)[O-])cc4F)c4nc(c(-c5c(F)cc(S(=O)(=O)[O-])cc5F)c5ccc2[nH]5)C=C4)C=C3)cc1)[C@H](O)c1ccc(C(F)(F)F)cc1
REMARK SMILES IDX 9 1 8 2 6 3 7 4 5 5 4 6 3 7 2 8 1 9 80 10 82 11 83 12 91 13
REMARK SMILES IDX 84 14 90 15 85 16 86 17 87 18 88 19 89 20 81 21 10 23 11 24
REMARK SMILES IDX 12 25 13 26 14 27 15 28 79 29 16 30 78 31 17 32 18 33 19 34
REMARK SMILES IDX 72 35 20 36 77 37 71 38 73 39 21 40 76 41 70 42 69 43 22 45
REMARK SMILES IDX 56 46 35 47 55 48 36 49 39 50 54 51 74 52 37 53 38 54 53 56
REMARK SMILES IDX 75 57 40 58 23 59 24 60 33 61 25 62 26 63 32 64 34 65 27 66
REMARK SMILES IDX 28 67 29 68 30 69 31 70 57 71 58 72 67 73 59 74 60 75 66 76
REMARK SMILES IDX 68 77 61 78 62 79 63 80 64 81 65 82 41 83 42 84 51 85 43 86
REMARK SMILES IDX 44 87 50 88 52 89 45 90 46 91 47 92 48 93 49 94
REMARK H PARENT 81 22 73 44 39 55
REMARK Flexibility Score: inf
ROOT
ATOM      1  C   UNL     1      -1.655  -2.366  -0.990  1.00  0.00     0.274 C 
ENDROOT
BRANCH   1   2
ATOM      2  O   UNL     1      -1.785  -1.725  -2.276  1.00  0.00    -0.462 OA
BRANCH   2   3
ATOM      3  C   UNL     1      -1.206  -0.513  -2.400  1.00  0.00     0.312 C 
ATOM      4  O   UNL     1      -0.669   0.095  -1.477  1.00  0.00    -0.252 OA
BRANCH   3   5
ATOM      5  C   UNL     1      -1.291   0.106  -3.780  1.00  0.00     0.132 C 
BRANCH   5   6
ATOM      6  C   UNL     1      -1.463  -0.749  -5.061  1.00  0.00     0.018 C 
BRANCH   6   7
ATOM      7  C   UNL     1      -2.235  -2.071  -5.126  1.00  0.00     0.001 C 
BRANCH   7   8
ATOM      8  C   UNL     1      -3.759  -2.029  -5.122  1.00  0.00    -0.003 C 
ATOM      9  C   UNL     1      -4.361  -1.093  -6.156  1.00  0.00     0.004 C 
ENDBRANCH   7   8
ENDBRANCH   6   7
ENDBRANCH   5   6
BRANCH   5  10
ATOM     10  C   UNL     1      -2.047   1.455  -3.748  1.00  0.00     0.158 C 
BRANCH  10  11
ATOM     11  C   UNL     1      -3.532   1.541  -3.489  1.00  0.00    -0.019 A 
ATOM     12  C   UNL     1      -4.196   2.718  -3.879  1.00  0.00     0.007 A 
ATOM     13  C   UNL     1      -4.289   0.539  -2.883  1.00  0.00     0.007 A 
ATOM     14  C   UNL     1      -5.580   2.843  -3.765  1.00  0.00     0.013 A 
ATOM     15  C   UNL     1      -5.680   0.646  -2.790  1.00  0.00     0.013 A 
ATOM     16  C   UNL     1      -6.343   1.785  -3.260  1.00  0.00     0.056 A 
BRANCH  16  17
ATOM     17  C   UNL     1      -7.844   1.880  -3.203  1.00  0.00     0.416 C 
ATOM     18  F   UNL     1      -8.292   2.463  -2.058  1.00  0.00    -0.166 F 
ATOM     19  F   UNL     1      -8.373   2.609  -4.226  1.00  0.00    -0.166 F 
ATOM     20  F   UNL     1      -8.459   0.664  -3.266  1.00  0.00    -0.166 F 
ENDBRANCH  16  17
ENDBRANCH  10  11
BRANCH  10  21
ATOM     21  O   UNL     1      -1.416   2.393  -2.864  1.00  0.00    -0.388 OA
ATOM     22  H   UNL     1      -1.540   2.106  -1.946  1.00  0.00     0.211 HD
ENDBRANCH  10  21
ENDBRANCH   5  10
ENDBRANCH   3   5
ENDBRANCH   2   3
ENDBRANCH   1   2
BRANCH   1  23
ATOM     23  C   UNL     1      -0.652  -3.514  -1.067  1.00  0.00     0.275 C 
BRANCH  23  24
ATOM     24  O   UNL     1       0.645  -3.017  -1.436  1.00  0.00    -0.458 OA
BRANCH  24  25
ATOM     25  C   UNL     1       1.020  -3.265  -2.711  1.00  0.00     0.338 C 
ATOM     26  O   UNL     1       0.408  -3.889  -3.563  1.00  0.00    -0.246 OA
BRANCH  25  27
ATOM     27  C   UNL     1       2.304  -2.607  -2.969  1.00  0.00     0.060 A 
ATOM     28  C   UNL     1       2.315  -1.260  -3.333  1.00  0.00     0.016 A 
ATOM     29  C   UNL     1       3.483  -3.349  -2.945  1.00  0.00     0.016 A 
ATOM     30  C   UNL     1       3.505  -0.649  -3.711  1.00  0.00     0.010 A 
ATOM     31  C   UNL     1       4.684  -2.722  -3.278  1.00  0.00     0.010 A 
ATOM     32  C   UNL     1       4.702  -1.373  -3.679  1.00  0.00    -0.014 A 
BRANCH  32  33
ATOM     33  C   UNL     1       5.979  -0.743  -4.086  1.00  0.00     0.031 A 
ATOM     34  C   UNL     1       6.685  -1.232  -5.316  1.00  0.00     0.074 A 
ATOM     35  C   UNL     1       6.515   0.236  -3.332  1.00  0.00     0.049 A 
ATOM     36  N   UNL     1       7.906  -0.998  -5.717  1.00  0.00    -0.248 NA
ATOM     37  C   UNL     1       5.915  -2.114  -6.208  1.00  0.00     0.031 C 
ATOM     38  C   UNL     1       5.891   0.832  -2.149  1.00  0.00     0.029 A 
ATOM     39  N   UNL     1       7.717   0.888  -3.439  1.00  0.00    -0.354 N 
ATOM     40  C   UNL     1       8.070  -1.739  -6.881  1.00  0.00     0.074 A 
ATOM     41  C   UNL     1       6.820  -2.427  -7.126  1.00  0.00     0.031 C 
ATOM     42  C   UNL     1       6.718   1.755  -1.634  1.00  0.00     0.029 A 
ATOM     43  C   UNL     1       7.955   1.765  -2.408  1.00  0.00     0.049 A 
ATOM     44  H   UNL     1       8.347   0.742  -4.182  1.00  0.00     0.167 HD
ATOM     45  C   UNL     1       9.171  -1.839  -7.663  1.00  0.00     0.037 A 
ATOM     46  C   UNL     1       9.066   2.457  -2.091  1.00  0.00     0.037 A 
ATOM     47  C   UNL     1      10.395  -1.123  -7.417  1.00  0.00     0.049 A 
ATOM     48  C   UNL     1      10.289   2.300  -2.950  1.00  0.00     0.074 A 
ATOM     49  C   UNL     1      11.572  -1.149  -8.145  1.00  0.00     0.029 A 
ATOM     50  N   UNL     1      10.595  -0.243  -6.363  1.00  0.00    -0.354 N 
ATOM     51  N   UNL     1      10.453   1.557  -4.019  1.00  0.00    -0.248 NA
ATOM     52  C   UNL     1      11.482   3.059  -2.553  1.00  0.00     0.031 C 
ATOM     53  C   UNL     1      12.492  -0.304  -7.515  1.00  0.00     0.029 A 
ATOM     54  C   UNL     1      11.878   0.274  -6.415  1.00  0.00     0.049 A 
ATOM     55  H   UNL     1       9.924  -0.020  -5.679  1.00  0.00     0.167 HD
ATOM     56  C   UNL     1      11.763   1.768  -4.431  1.00  0.00     0.074 A 
ATOM     57  C   UNL     1      12.345   2.717  -3.502  1.00  0.00     0.031 C 
ATOM     58  C   UNL     1      12.427   1.224  -5.480  1.00  0.00     0.037 A 
BRANCH  45  59
ATOM     59  C   UNL     1       9.111  -2.783  -8.830  1.00  0.00     0.058 A 
ATOM     60  C   UNL     1       8.388  -2.481  -9.994  1.00  0.00     0.135 A 
ATOM     61  C   UNL     1       9.802  -4.005  -8.787  1.00  0.00     0.135 A 
ATOM     62  F   UNL     1       7.692  -1.336 -10.079  1.00  0.00    -0.206 F 
ATOM     63  C   UNL     1       8.332  -3.368 -11.066  1.00  0.00     0.059 A 
ATOM     64  C   UNL     1       9.778  -4.897  -9.855  1.00  0.00     0.059 A 
ATOM     65  F   UNL     1      10.506  -4.345  -7.696  1.00  0.00    -0.206 F 
ATOM     66  C   UNL     1       9.026  -4.576 -10.984  1.00  0.00     0.060 A 
BRANCH  66  67
ATOM     67  S   UNL     1       8.940  -5.723 -12.377  1.00  0.00     0.124 S 
ATOM     68  O   UNL     1       7.608  -6.293 -12.200  1.00  0.00    -0.237 OA
ATOM     69  O   UNL     1       9.102  -4.837 -13.525  1.00  0.00    -0.237 OA
ATOM     70  O   UNL     1      10.051  -6.637 -12.133  1.00  0.00    -0.744 OA
ENDBRANCH  66  67
ENDBRANCH  45  59
BRANCH  46  71
ATOM     71  C   UNL     1       9.078   3.318  -0.880  1.00  0.00     0.058 A 
ATOM     72  C   UNL     1       9.077   4.716  -0.990  1.00  0.00     0.135 A 
ATOM     73  C   UNL     1       9.054   2.762   0.408  1.00  0.00     0.135 A 
ATOM     74  F   UNL     1       9.109   5.293  -2.200  1.00  0.00    -0.206 F 
ATOM     75  C   UNL     1       9.054   5.533   0.136  1.00  0.00     0.059 A 
ATOM     76  C   UNL     1       9.007   3.558   1.548  1.00  0.00     0.059 A 
ATOM     77  F   UNL     1       9.041   1.429   0.565  1.00  0.00    -0.206 F 
ATOM     78  C   UNL     1       9.014   4.944   1.401  1.00  0.00     0.060 A 
BRANCH  78  79
ATOM     79  S   UNL     1       8.916   6.010   2.856  1.00  0.00     0.124 S 
ATOM     80  O   UNL     1      10.295   6.468   2.978  1.00  0.00    -0.237 OA
ATOM     81  O   UNL     1       7.944   7.016   2.439  1.00  0.00    -0.237 OA
ATOM     82  O   UNL     1       8.456   5.103   3.903  1.00  0.00    -0.744 OA
ENDBRANCH  78  79
ENDBRANCH  46  71
BRANCH  58  83
ATOM     83  C   UNL     1      13.844   1.667  -5.697  1.00  0.00     0.058 A 
ATOM     84  C   UNL     1      14.896   1.165  -4.916  1.00  0.00     0.135 A 
ATOM     85  C   UNL     1      14.158   2.555  -6.737  1.00  0.00     0.135 A 
ATOM     86  F   UNL     1      14.643   0.319  -3.905  1.00  0.00    -0.206 F 
ATOM     87  C   UNL     1      16.214   1.538  -5.154  1.00  0.00     0.059 A 
ATOM     88  C   UNL     1      15.471   2.927  -7.004  1.00  0.00     0.059 A 
ATOM     89  F   UNL     1      13.185   3.057  -7.514  1.00  0.00    -0.206 F 
ATOM     90  C   UNL     1      16.492   2.418  -6.202  1.00  0.00     0.060 A 
BRANCH  90  91
ATOM     91  S   UNL     1      18.210   2.859  -6.533  1.00  0.00     0.124 S 
ATOM     92  O   UNL     1      18.473   3.832  -5.479  1.00  0.00    -0.237 OA
ATOM     93  O   UNL     1      18.896   1.577  -6.398  1.00  0.00    -0.237 OA
ATOM     94  O   UNL     1      18.166   3.397  -7.890  1.00  0.00    -0.744 OA
ENDBRANCH  90  91
ENDBRANCH  58  83
ENDBRANCH  32  33
ENDBRANCH  25  27
ENDBRANCH  24  25
ENDBRANCH  23  24
ENDBRANCH   1  23
TORSDOF 21
