REMARK SMILES Cn1cnnc1CCNC(=O)NCc1ccc(C(=O)OCCOC(=O)c2ccc(-c3c4nc(c(-c5c(F)cc(S(=O)(=O)[O-])cc5F)c5ccc([nH]5)c(-c5c(F)cc(S(=O)(=O)[O-])cc5F)c5nc(c(-c6c(F)cc(S(=O)(=O)[O-])cc6F)c6ccc3[nH]6)C=C5)C=C4)cc2)o1
REMARK SMILES IDX 21 1 20 2 18 3 19 4 17 5 14 6 15 7 92 8 16 9 13 10 12 11
REMARK SMILES IDX 9 12 10 13 11 15 8 17 7 18 6 19 1 20 2 21 3 22 4 23 5 24
REMARK SMILES IDX 22 25 23 26 24 27 25 28 26 29 27 30 91 31 28 32 90 33 29 34
REMARK SMILES IDX 30 35 31 36 84 37 32 38 89 39 83 40 85 41 33 42 88 43 82 44
REMARK SMILES IDX 81 45 34 47 68 48 47 49 67 50 48 51 51 52 66 53 86 54 49 55
REMARK SMILES IDX 50 56 65 58 87 59 52 60 35 61 36 62 45 63 37 64 38 65 44 66
REMARK SMILES IDX 46 67 39 68 40 69 41 70 42 71 43 72 69 73 70 74 79 75 71 76
REMARK SMILES IDX 72 77 78 78 80 79 73 80 74 81 75 82 76 83 77 84 53 85 54 86
REMARK SMILES IDX 63 87 55 88 56 89 62 90 64 91 57 92 58 93 59 94 60 95 61 96
REMARK H PARENT 9 14 12 16 85 46 51 57
REMARK Flexibility Score: inf
ROOT
ATOM      1  C   UNL     1       1.393 -10.957   6.012  1.00  0.00     0.275 C 
ENDROOT
BRANCH   1   2
ATOM      2  O   UNL     1       1.497  -9.584   5.592  1.00  0.00    -0.456 OA
BRANCH   2   3
ATOM      3  C   UNL     1       1.762  -9.385   4.266  1.00  0.00     0.374 C 
ATOM      4  O   UNL     1       2.091 -10.272   3.487  1.00  0.00    -0.242 OA
BRANCH   3   5
ATOM      5  C   UNL     1       1.493  -8.011   3.910  1.00  0.00     0.211 A 
ATOM      6  C   UNL     1       0.799  -6.460   2.497  1.00  0.00     0.124 A 
ATOM      7  C   UNL     1       0.840  -5.865   3.742  1.00  0.00     0.048 A 
ATOM      8  O   UNL     1       1.286  -7.730   2.584  1.00  0.00    -0.452 OA
ATOM      9  C   UNL     1       1.281  -6.862   4.649  1.00  0.00     0.058 A 
BRANCH   6  10
ATOM     10  C   UNL     1       0.256  -6.061   1.170  1.00  0.00     0.193 C 
BRANCH  10  11
ATOM     11  N   UNL     1      -1.139  -5.716   1.333  1.00  0.00    -0.331 N 
ATOM     12  N   UNL     1      -1.273  -3.368   1.545  1.00  0.00    -0.338 N 
ATOM     13  C   UNL     1      -1.825  -4.584   1.498  1.00  0.00     0.315 C 
ATOM     14  H   UNL     1      -1.941  -2.655   1.663  1.00  0.00     0.165 HD
ATOM     15  O   UNL     1      -3.047  -4.669   1.625  1.00  0.00    -0.249 OA
ATOM     16  H   UNL     1      -1.724  -6.508   1.319  1.00  0.00     0.165 HD
BRANCH  12  17
ATOM     17  C   UNL     1       0.079  -2.855   1.464  1.00  0.00     0.126 C 
BRANCH  17  18
ATOM     18  C   UNL     1       0.420  -2.345   0.062  1.00  0.00     0.099 C 
BRANCH  18  19
ATOM     19  C   UNL     1       0.015  -0.915  -0.087  1.00  0.00     0.134 A 
ATOM     20  C   UNL     1       2.289   0.218  -0.049  1.00  0.00     0.152 C 
ATOM     21  N   UNL     1       0.855   0.168  -0.119  1.00  0.00    -0.321 N 
ATOM     22  C   UNL     1       0.053   1.268  -0.195  1.00  0.00     0.225 A 
ATOM     23  N   UNL     1      -1.203   0.895  -0.207  1.00  0.00    -0.139 NA
ATOM     24  N   UNL     1      -1.228  -0.475  -0.141  1.00  0.00    -0.136 NA
ENDBRANCH  18  19
ENDBRANCH  17  18
ENDBRANCH  12  17
ENDBRANCH  10  11
ENDBRANCH   6  10
ENDBRANCH   3   5
ENDBRANCH   2   3
ENDBRANCH   1   2
BRANCH   1  25
ATOM     25  C   UNL     1      -0.073 -11.392   6.133  1.00  0.00     0.275 C 
BRANCH  25  26
ATOM     26  O   UNL     1      -0.715 -11.515   4.849  1.00  0.00    -0.458 OA
BRANCH  26  27
ATOM     27  C   UNL     1      -1.379 -10.411   4.427  1.00  0.00     0.338 C 
ATOM     28  O   UNL     1      -1.476  -9.351   5.023  1.00  0.00    -0.246 OA
BRANCH  27  29
ATOM     29  C   UNL     1      -1.873 -10.611   3.051  1.00  0.00     0.060 A 
ATOM     30  C   UNL     1      -1.488  -9.678   2.086  1.00  0.00     0.016 A 
ATOM     31  C   UNL     1      -2.744 -11.649   2.714  1.00  0.00     0.016 A 
ATOM     32  C   UNL     1      -1.956  -9.778   0.779  1.00  0.00     0.010 A 
ATOM     33  C   UNL     1      -3.226 -11.744   1.401  1.00  0.00     0.010 A 
ATOM     34  C   UNL     1      -2.838 -10.806   0.428  1.00  0.00    -0.014 A 
BRANCH  34  35
ATOM     35  C   UNL     1      -3.374 -10.857  -0.954  1.00  0.00     0.031 A 
ATOM     36  C   UNL     1      -4.758 -10.349  -1.242  1.00  0.00     0.074 A 
ATOM     37  C   UNL     1      -2.595 -11.303  -1.958  1.00  0.00     0.049 A 
ATOM     38  N   UNL     1      -5.409 -10.328  -2.377  1.00  0.00    -0.248 NA
ATOM     39  C   UNL     1      -5.505  -9.790  -0.105  1.00  0.00     0.031 C 
ATOM     40  C   UNL     1      -1.219 -11.777  -1.810  1.00  0.00     0.029 A 
ATOM     41  N   UNL     1      -2.848 -11.421  -3.301  1.00  0.00    -0.354 N 
ATOM     42  C   UNL     1      -6.647  -9.766  -2.091  1.00  0.00     0.074 A 
ATOM     43  C   UNL     1      -6.660  -9.472  -0.673  1.00  0.00     0.031 C 
ATOM     44  C   UNL     1      -0.745 -12.126  -3.018  1.00  0.00     0.029 A 
ATOM     45  C   UNL     1      -1.793 -11.932  -4.018  1.00  0.00     0.049 A 
ATOM     46  H   UNL     1      -3.705 -11.165  -3.713  1.00  0.00     0.167 HD
ATOM     47  C   UNL     1      -7.678  -9.517  -2.935  1.00  0.00     0.037 A 
ATOM     48  C   UNL     1      -1.687 -12.223  -5.329  1.00  0.00     0.037 A 
ATOM     49  C   UNL     1      -7.659  -9.794  -4.347  1.00  0.00     0.049 A 
ATOM     50  C   UNL     1      -2.858 -11.972  -6.239  1.00  0.00     0.074 A 
ATOM     51  C   UNL     1      -8.656  -9.579  -5.283  1.00  0.00     0.029 A 
ATOM     52  N   UNL     1      -6.583 -10.341  -5.031  1.00  0.00    -0.354 N 
ATOM     53  N   UNL     1      -4.031 -11.462  -5.949  1.00  0.00    -0.248 NA
ATOM     54  C   UNL     1      -2.694 -12.341  -7.652  1.00  0.00     0.031 C 
ATOM     55  C   UNL     1      -8.193 -10.020  -6.528  1.00  0.00     0.029 A 
ATOM     56  C   UNL     1      -6.896 -10.484  -6.373  1.00  0.00     0.049 A 
ATOM     57  H   UNL     1      -5.723 -10.592  -4.622  1.00  0.00     0.167 HD
ATOM     58  C   UNL     1      -4.742 -11.441  -7.144  1.00  0.00     0.074 A 
ATOM     59  C   UNL     1      -3.862 -11.976  -8.163  1.00  0.00     0.031 C 
ATOM     60  C   UNL     1      -6.009 -11.020  -7.374  1.00  0.00     0.037 A 
BRANCH  47  61
ATOM     61  C   UNL     1      -8.930  -8.941  -2.338  1.00  0.00     0.058 A 
ATOM     62  C   UNL     1      -9.021  -7.587  -1.981  1.00  0.00     0.135 A 
ATOM     63  C   UNL     1     -10.056  -9.754  -2.132  1.00  0.00     0.135 A 
ATOM     64  F   UNL     1      -7.967  -6.773  -2.146  1.00  0.00    -0.206 F 
ATOM     65  C   UNL     1     -10.180  -7.063  -1.415  1.00  0.00     0.059 A 
ATOM     66  C   UNL     1     -11.230  -9.246  -1.585  1.00  0.00     0.059 A 
ATOM     67  F   UNL     1     -10.018 -11.056  -2.455  1.00  0.00    -0.206 F 
ATOM     68  C   UNL     1     -11.277  -7.903  -1.214  1.00  0.00     0.060 A 
BRANCH  68  69
ATOM     69  S   UNL     1     -12.776  -7.222  -0.471  1.00  0.00     0.124 S 
ATOM     70  O   UNL     1     -12.417  -7.203   0.943  1.00  0.00    -0.237 OA
ATOM     71  O   UNL     1     -12.887  -5.917  -1.115  1.00  0.00    -0.237 OA
ATOM     72  O   UNL     1     -13.805  -8.187  -0.845  1.00  0.00    -0.744 OA
ENDBRANCH  68  69
ENDBRANCH  47  61
BRANCH  48  73
ATOM     73  C   UNL     1      -0.424 -12.799  -5.856  1.00  0.00     0.058 A 
ATOM     74  C   UNL     1       0.448 -12.032  -6.641  1.00  0.00     0.135 A 
ATOM     75  C   UNL     1      -0.057 -14.122  -5.568  1.00  0.00     0.135 A 
ATOM     76  F   UNL     1       0.133 -10.765  -6.951  1.00  0.00    -0.206 F 
ATOM     77  C   UNL     1       1.641 -12.557  -7.127  1.00  0.00     0.059 A 
ATOM     78  C   UNL     1       1.140 -14.663  -6.026  1.00  0.00     0.059 A 
ATOM     79  F   UNL     1      -0.856 -14.893  -4.814  1.00  0.00    -0.206 F 
ATOM     80  C   UNL     1       1.980 -13.874  -6.811  1.00  0.00     0.060 A 
BRANCH  80  81
ATOM     81  S   UNL     1       3.562 -14.531  -7.385  1.00  0.00     0.124 S 
ATOM     82  O   UNL     1       3.253 -14.872  -8.768  1.00  0.00    -0.237 OA
ATOM     83  O   UNL     1       4.460 -13.397  -7.192  1.00  0.00    -0.237 OA
ATOM     84  O   UNL     1       3.795 -15.661  -6.490  1.00  0.00    -0.744 OA
ENDBRANCH  80  81
ENDBRANCH  48  73
BRANCH  60  85
ATOM     85  C   UNL     1      -6.517 -11.109  -8.784  1.00  0.00     0.058 A 
ATOM     86  C   UNL     1      -6.939 -12.330  -9.331  1.00  0.00     0.135 A 
ATOM     87  C   UNL     1      -6.622  -9.958  -9.580  1.00  0.00     0.135 A 
ATOM     88  F   UNL     1      -6.851 -13.460  -8.611  1.00  0.00    -0.206 F 
ATOM     89  C   UNL     1      -7.436 -12.411 -10.628  1.00  0.00     0.059 A 
ATOM     90  C   UNL     1      -7.131 -10.013 -10.874  1.00  0.00     0.059 A 
ATOM     91  F   UNL     1      -6.236  -8.766  -9.099  1.00  0.00    -0.206 F 
ATOM     92  C   UNL     1      -7.526 -11.246 -11.393  1.00  0.00     0.060 A 
BRANCH  92  93
ATOM     93  S   UNL     1      -8.200 -11.352 -13.066  1.00  0.00     0.124 S 
ATOM     94  O   UNL     1      -7.051 -11.850 -13.814  1.00  0.00    -0.237 OA
ATOM     95  O   UNL     1      -9.305 -12.291 -12.904  1.00  0.00    -0.237 OA
ATOM     96  O   UNL     1      -8.594  -9.977 -13.358  1.00  0.00    -0.744 OA
ENDBRANCH  92  93
ENDBRANCH  60  85
ENDBRANCH  34  35
ENDBRANCH  27  29
ENDBRANCH  26  27
ENDBRANCH  25  26
ENDBRANCH   1  25
TORSDOF 19
