REMARK SMILES O=C(OCCOC(=O)c1ccc(F)cc1-c1ccc(F)c(Cl)c1)c1ccc(-c2c3nc(c(-c4c(F)cc(S(=O)(=O)[O-])cc4F)c4ccc([nH]4)c(-c4c(F)cc(S(=O)(=O)[O-])cc4F)c4nc(c(-c5c(F)cc(S(=O)(=O)[O-])cc5F)c5ccc2[nH]5)C=C4)C=C3)cc1
REMARK SMILES IDX 4 1 3 2 2 3 1 4 24 5 25 6 89 7 26 8 88 9 27 10 28 11 29 12
REMARK SMILES IDX 82 13 30 14 87 15 81 16 83 17 31 18 86 19 80 20 79 21 32 23
REMARK SMILES IDX 66 24 45 25 65 26 46 27 49 28 64 29 84 30 47 31 48 32 63 34
REMARK SMILES IDX 85 35 50 36 33 37 34 38 43 39 35 40 36 41 42 42 44 43 37 44
REMARK SMILES IDX 38 45 39 46 40 47 41 48 67 49 68 50 77 51 69 52 70 53 76 54
REMARK SMILES IDX 78 55 71 56 72 57 73 58 74 59 75 60 51 61 52 62 61 63 53 64
REMARK SMILES IDX 54 65 60 66 62 67 55 68 56 69 57 70 58 71 59 72 5 73 6 74
REMARK SMILES IDX 7 75 8 76 9 77 10 78 15 79 11 80 14 81 12 82 13 83 16 84
REMARK SMILES IDX 17 85 23 86 18 87 21 88 19 89 22 90 20 91
REMARK H PARENT 83 22 49 33
REMARK Flexibility Score: inf
ROOT
ATOM      1  C   UNL     1       4.821  -2.021   0.110  1.00  0.00     0.275 C 
ENDROOT
BRANCH   1   2
ATOM      2  O   UNL     1       5.351  -0.736   0.418  1.00  0.00    -0.458 OA
BRANCH   2   3
ATOM      3  C   UNL     1       4.444   0.216   0.725  1.00  0.00     0.338 C 
ATOM      4  O   UNL     1       3.467   0.075   1.439  1.00  0.00    -0.246 OA
BRANCH   3   5
ATOM      5  C   UNL     1       4.723   1.371  -0.168  1.00  0.00     0.060 A 
ATOM      6  C   UNL     1       5.733   1.268  -1.139  1.00  0.00     0.016 A 
ATOM      7  C   UNL     1       3.886   2.488  -0.153  1.00  0.00     0.016 A 
ATOM      8  C   UNL     1       5.928   2.276  -2.059  1.00  0.00     0.010 A 
ATOM      9  C   UNL     1       4.012   3.456  -1.138  1.00  0.00     0.010 A 
ATOM     10  C   UNL     1       5.076   3.377  -2.046  1.00  0.00    -0.014 A 
BRANCH  10  11
ATOM     11  C   UNL     1       5.462   4.580  -2.791  1.00  0.00     0.031 A 
ATOM     12  C   UNL     1       5.939   5.745  -1.979  1.00  0.00     0.074 A 
ATOM     13  C   UNL     1       5.391   4.595  -4.131  1.00  0.00     0.049 A 
ATOM     14  N   UNL     1       6.251   6.949  -2.364  1.00  0.00    -0.248 NA
ATOM     15  C   UNL     1       6.051   5.535  -0.520  1.00  0.00     0.031 C 
ATOM     16  C   UNL     1       4.971   3.471  -4.970  1.00  0.00     0.029 A 
ATOM     17  N   UNL     1       5.651   5.597  -5.020  1.00  0.00    -0.354 N 
ATOM     18  C   UNL     1       6.579   7.631  -1.200  1.00  0.00     0.074 A 
ATOM     19  C   UNL     1       6.324   6.753  -0.087  1.00  0.00     0.031 C 
ATOM     20  C   UNL     1       4.947   3.866  -6.253  1.00  0.00     0.029 A 
ATOM     21  C   UNL     1       5.359   5.263  -6.319  1.00  0.00     0.049 A 
ATOM     22  H   UNL     1       6.013   6.473  -4.755  1.00  0.00     0.167 HD
ATOM     23  C   UNL     1       7.114   8.865  -1.084  1.00  0.00     0.037 A 
ATOM     24  C   UNL     1       5.420   6.020  -7.429  1.00  0.00     0.037 A 
ATOM     25  C   UNL     1       7.403   9.676  -2.230  1.00  0.00     0.049 A 
ATOM     26  C   UNL     1       5.975   7.409  -7.287  1.00  0.00     0.074 A 
ATOM     27  C   UNL     1       7.996  10.920  -2.282  1.00  0.00     0.029 A 
ATOM     28  N   UNL     1       7.118   9.301  -3.539  1.00  0.00    -0.354 N 
ATOM     29  N   UNL     1       6.336   8.035  -6.189  1.00  0.00    -0.248 NA
ATOM     30  C   UNL     1       6.175   8.180  -8.517  1.00  0.00     0.031 C 
ATOM     31  C   UNL     1       8.036  11.313  -3.623  1.00  0.00     0.029 A 
ATOM     32  C   UNL     1       7.513  10.294  -4.411  1.00  0.00     0.049 A 
ATOM     33  H   UNL     1       6.696   8.452  -3.804  1.00  0.00     0.167 HD
ATOM     34  C   UNL     1       6.854   9.255  -6.596  1.00  0.00     0.074 A 
ATOM     35  C   UNL     1       6.739   9.286  -8.043  1.00  0.00     0.031 C 
ATOM     36  C   UNL     1       7.393  10.252  -5.850  1.00  0.00     0.037 A 
BRANCH  23  37
ATOM     37  C   UNL     1       7.423   9.358   0.302  1.00  0.00     0.058 A 
ATOM     38  C   UNL     1       6.697  10.419   0.862  1.00  0.00     0.135 A 
ATOM     39  C   UNL     1       8.409   8.750   1.101  1.00  0.00     0.135 A 
ATOM     40  F   UNL     1       5.734  11.029   0.153  1.00  0.00    -0.206 F 
ATOM     41  C   UNL     1       6.927  10.851   2.165  1.00  0.00     0.059 A 
ATOM     42  C   UNL     1       8.632   9.143   2.418  1.00  0.00     0.059 A 
ATOM     43  F   UNL     1       9.113   7.708   0.630  1.00  0.00    -0.206 F 
ATOM     44  C   UNL     1       7.889  10.200   2.939  1.00  0.00     0.060 A 
BRANCH  44  45
ATOM     45  S   UNL     1       8.113  10.713   4.655  1.00  0.00     0.124 S 
ATOM     46  O   UNL     1       8.780  12.000   4.498  1.00  0.00    -0.237 OA
ATOM     47  O   UNL     1       6.738  10.761   5.144  1.00  0.00    -0.237 OA
ATOM     48  O   UNL     1       8.931   9.644   5.223  1.00  0.00    -0.744 OA
ENDBRANCH  44  45
ENDBRANCH  23  37
BRANCH  24  49
ATOM     49  C   UNL     1       5.019   5.428  -8.731  1.00  0.00     0.058 A 
ATOM     50  C   UNL     1       3.671   5.163  -9.021  1.00  0.00     0.135 A 
ATOM     51  C   UNL     1       5.982   4.993  -9.652  1.00  0.00     0.135 A 
ATOM     52  F   UNL     1       2.711   5.536  -8.161  1.00  0.00    -0.206 F 
ATOM     53  C   UNL     1       3.294   4.460 -10.162  1.00  0.00     0.059 A 
ATOM     54  C   UNL     1       5.629   4.300 -10.808  1.00  0.00     0.059 A 
ATOM     55  F   UNL     1       7.283   5.215  -9.414  1.00  0.00    -0.206 F 
ATOM     56  C   UNL     1       4.283   4.021 -11.043  1.00  0.00     0.060 A 
BRANCH  56  57
ATOM     57  S   UNL     1       3.782   3.037 -12.474  1.00  0.00     0.124 S 
ATOM     58  O   UNL     1       3.228   1.849 -11.831  1.00  0.00    -0.237 OA
ATOM     59  O   UNL     1       2.818   3.917 -13.125  1.00  0.00    -0.237 OA
ATOM     60  O   UNL     1       5.033   2.830 -13.197  1.00  0.00    -0.744 OA
ENDBRANCH  56  57
ENDBRANCH  24  49
BRANCH  36  61
ATOM     61  C   UNL     1       7.944  11.439  -6.578  1.00  0.00     0.058 A 
ATOM     62  C   UNL     1       9.332  11.646  -6.623  1.00  0.00     0.135 A 
ATOM     63  C   UNL     1       7.101  12.446  -7.067  1.00  0.00     0.135 A 
ATOM     64  F   UNL     1      10.172  10.708  -6.157  1.00  0.00    -0.206 F 
ATOM     65  C   UNL     1       9.866  12.840  -7.084  1.00  0.00     0.059 A 
ATOM     66  C   UNL     1       7.616  13.639  -7.557  1.00  0.00     0.059 A 
ATOM     67  F   UNL     1       5.769  12.280  -7.050  1.00  0.00    -0.206 F 
ATOM     68  C   UNL     1       8.998  13.837  -7.532  1.00  0.00     0.060 A 
BRANCH  68  69
ATOM     69  S   UNL     1       9.706  15.408  -8.062  1.00  0.00     0.124 S 
ATOM     70  O   UNL     1      10.179  15.962  -6.798  1.00  0.00    -0.237 OA
ATOM     71  O   UNL     1      10.743  14.977  -8.995  1.00  0.00    -0.237 OA
ATOM     72  O   UNL     1       8.574  16.102  -8.669  1.00  0.00    -0.744 OA
ENDBRANCH  68  69
ENDBRANCH  36  61
ENDBRANCH  10  11
ENDBRANCH   3   5
ENDBRANCH   2   3
ENDBRANCH   1   2
BRANCH   1  73
ATOM     73  C   UNL     1       3.866  -2.090  -1.107  1.00  0.00     0.275 C 
BRANCH  73  74
ATOM     74  O   UNL     1       3.297  -0.835  -1.529  1.00  0.00    -0.458 OA
BRANCH  74  75
ATOM     75  C   UNL     1       1.938  -0.730  -1.581  1.00  0.00     0.338 C 
ATOM     76  O   UNL     1       1.133  -1.576  -1.264  1.00  0.00    -0.246 OA
BRANCH  75  77
ATOM     77  C   UNL     1       1.584   0.599  -2.157  1.00  0.00     0.068 A 
ATOM     78  C   UNL     1       2.133   0.928  -3.416  1.00  0.00     0.019 A 
ATOM     79  C   UNL     1       0.690   1.488  -1.518  1.00  0.00    -0.001 A 
ATOM     80  C   UNL     1       1.829   2.147  -4.027  1.00  0.00     0.040 A 
ATOM     81  C   UNL     1       0.452   2.736  -2.138  1.00  0.00     0.048 A 
ATOM     82  C   UNL     1       1.015   3.052  -3.369  1.00  0.00     0.123 A 
ATOM     83  F   UNL     1       0.751   4.240  -3.926  1.00  0.00    -0.207 F 
BRANCH  79  84
ATOM     84  C   UNL     1      -0.032   1.221  -0.260  1.00  0.00    -0.016 A 
ATOM     85  C   UNL     1       0.589   1.335   0.989  1.00  0.00     0.012 A 
ATOM     86  C   UNL     1      -1.414   0.978  -0.274  1.00  0.00     0.032 A 
ATOM     87  C   UNL     1      -0.121   1.236   2.186  1.00  0.00     0.041 A 
ATOM     88  C   UNL     1      -2.134   0.870   0.921  1.00  0.00     0.077 A 
ATOM     89  C   UNL     1      -1.484   1.006   2.146  1.00  0.00     0.141 A 
ATOM     90  Cl  UNL     1      -3.833   0.604   0.864  1.00  0.00    -0.081 Cl
ATOM     91  F   UNL     1      -2.160   0.930   3.301  1.00  0.00    -0.205 F 
ENDBRANCH  79  84
ENDBRANCH  75  77
ENDBRANCH  74  75
ENDBRANCH  73  74
ENDBRANCH   1  73
TORSDOF 15
