REMARK SMILES O=C(CCCNC(=O)N1CC[C@@H](C(=O)OCCOC(=O)c2ccc(-c3c4nc(c(-c5c(F)cc(S(=O)(=O)[O-])cc5F)c5ccc([nH]5)c(-c5c(F)cc(S(=O)(=O)[O-])cc5F)c5nc(c(-c6c(F)cc(S(=O)(=O)[O-])cc6F)c6ccc3[nH]6)C=C5)C=C4)cc2)C1)NC1CC1
REMARK SMILES IDX 15 1 13 2 14 3 12 4 9 5 10 6 87 7 11 8 7 9 6 10 8 12 5 13
REMARK SMILES IDX 4 14 3 15 2 16 1 17 88 18 89 20 90 21 91 22 16 23 17 24
REMARK SMILES IDX 18 25 19 26 20 27 21 28 22 29 86 30 23 31 85 32 24 33 25 34
REMARK SMILES IDX 26 35 79 36 27 37 84 38 78 39 80 40 28 41 83 42 77 43 76 44
REMARK SMILES IDX 29 46 63 47 42 48 62 49 43 50 46 51 61 52 81 53 44 54 45 55
REMARK SMILES IDX 60 57 82 58 47 59 30 60 31 61 40 62 32 63 33 64 39 65 41 66
REMARK SMILES IDX 34 67 35 68 36 69 37 70 38 71 64 72 65 73 74 74 66 75 67 76
REMARK SMILES IDX 73 77 75 78 68 79 69 80 70 81 71 82 72 83 48 84 49 85 58 86
REMARK SMILES IDX 50 87 51 88 57 89 59 90 52 91 53 92 54 93 55 94 56 95
REMARK H PARENT 6 11 88 19 80 45 46 56
REMARK Flexibility Score: inf
ROOT
ATOM      1  O   UNL     1      11.400  -0.625  -3.499  1.00  0.00    -0.462 OA
ENDROOT
BRANCH   1   2
ATOM      2  C   UNL     1      10.223   0.018  -3.270  1.00  0.00     0.310 C 
ATOM      3  O   UNL     1      10.078   1.232  -3.296  1.00  0.00    -0.252 OA
BRANCH   2   4
ATOM      4  C   UNL     1       9.114  -0.971  -2.970  1.00  0.00     0.120 C 
ATOM      5  N   UNL     1       7.596  -0.449  -1.220  1.00  0.00    -0.324 N 
ATOM      6  C   UNL     1       7.256   0.384  -2.356  1.00  0.00     0.122 C 
ATOM      7  C   UNL     1       8.890  -1.084  -1.459  1.00  0.00     0.136 C 
ATOM      8  C   UNL     1       7.755  -0.483  -3.494  1.00  0.00     0.039 C 
BRANCH   5   9
ATOM      9  C   UNL     1       6.914  -0.670  -0.070  1.00  0.00     0.317 C 
ATOM     10  N   UNL     1       5.570  -0.515  -0.026  1.00  0.00    -0.338 N 
ATOM     11  H   UNL     1       5.199  -0.364   0.873  1.00  0.00     0.165 HD
ATOM     12  O   UNL     1       7.472  -1.068   0.955  1.00  0.00    -0.249 OA
BRANCH  10  13
ATOM     13  C   UNL     1       4.589  -0.537  -1.101  1.00  0.00     0.118 C 
BRANCH  13  14
ATOM     14  C   UNL     1       3.430  -1.500  -0.846  1.00  0.00     0.031 C 
BRANCH  14  15
ATOM     15  C   UNL     1       2.627  -1.258   0.427  1.00  0.00     0.102 C 
BRANCH  15  16
ATOM     16  C   UNL     1       1.742  -0.034   0.348  1.00  0.00     0.220 C 
ATOM     17  O   UNL     1       0.543  -0.124   0.102  1.00  0.00    -0.275 OA
ATOM     18  N   UNL     1       2.398   1.155   0.591  1.00  0.00    -0.353 N 
ATOM     19  H   UNL     1       3.365   1.135   0.773  1.00  0.00     0.163 HD
BRANCH  18  20
ATOM     20  C   UNL     1       1.722   2.412   0.586  1.00  0.00     0.082 C 
ATOM     21  C   UNL     1       2.410   3.641   0.057  1.00  0.00     0.027 C 
ATOM     22  C   UNL     1       1.259   3.044  -0.696  1.00  0.00     0.027 C 
ENDBRANCH  18  20
ENDBRANCH  15  16
ENDBRANCH  14  15
ENDBRANCH  13  14
ENDBRANCH  10  13
ENDBRANCH   5   9
ENDBRANCH   2   4
ENDBRANCH   1   2
BRANCH   1  23
ATOM     23  C   UNL     1      12.528   0.218  -3.808  1.00  0.00     0.274 C 
BRANCH  23  24
ATOM     24  C   UNL     1      12.796   0.270  -5.312  1.00  0.00     0.275 C 
BRANCH  24  25
ATOM     25  O   UNL     1      11.768   1.006  -6.002  1.00  0.00    -0.458 OA
BRANCH  25  26
ATOM     26  C   UNL     1      10.892   0.254  -6.704  1.00  0.00     0.338 C 
ATOM     27  O   UNL     1      10.878  -0.963  -6.807  1.00  0.00    -0.246 OA
BRANCH  26  28
ATOM     28  C   UNL     1       9.855   1.106  -7.305  1.00  0.00     0.060 A 
ATOM     29  C   UNL     1       8.787   1.500  -6.507  1.00  0.00     0.016 A 
ATOM     30  C   UNL     1       9.832   1.357  -8.675  1.00  0.00     0.016 A 
ATOM     31  C   UNL     1       7.632   2.021  -7.086  1.00  0.00     0.010 A 
ATOM     32  C   UNL     1       8.718   1.994  -9.239  1.00  0.00     0.010 A 
ATOM     33  C   UNL     1       7.582   2.292  -8.460  1.00  0.00    -0.014 A 
BRANCH  33  34
ATOM     34  C   UNL     1       6.338   2.840  -9.081  1.00  0.00     0.031 A 
ATOM     35  C   UNL     1       5.667   2.104 -10.216  1.00  0.00     0.074 A 
ATOM     36  C   UNL     1       5.778   3.978  -8.618  1.00  0.00     0.049 A 
ATOM     37  N   UNL     1       4.714   2.509 -11.017  1.00  0.00    -0.248 NA
ATOM     38  C   UNL     1       6.136   0.736 -10.492  1.00  0.00     0.031 C 
ATOM     39  C   UNL     1       6.268   4.772  -7.489  1.00  0.00     0.029 A 
ATOM     40  N   UNL     1       4.660   4.660  -9.035  1.00  0.00    -0.354 N 
ATOM     41  C   UNL     1       4.511   1.475 -11.926  1.00  0.00     0.074 A 
ATOM     42  C   UNL     1       5.437   0.420 -11.575  1.00  0.00     0.031 C 
ATOM     43  C   UNL     1       5.433   5.800  -7.274  1.00  0.00     0.029 A 
ATOM     44  C   UNL     1       4.403   5.799  -8.306  1.00  0.00     0.049 A 
ATOM     45  H   UNL     1       4.096   4.363  -9.785  1.00  0.00     0.167 HD
ATOM     46  C   UNL     1       3.636   1.413 -12.959  1.00  0.00     0.037 A 
ATOM     47  C   UNL     1       3.476   6.762  -8.472  1.00  0.00     0.037 A 
ATOM     48  C   UNL     1       2.674   2.437 -13.272  1.00  0.00     0.049 A 
ATOM     49  C   UNL     1       2.534   6.686  -9.641  1.00  0.00     0.074 A 
ATOM     50  C   UNL     1       1.770   2.482 -14.320  1.00  0.00     0.029 A 
ATOM     51  N   UNL     1       2.467   3.583 -12.520  1.00  0.00    -0.354 N 
ATOM     52  N   UNL     1       2.436   5.756 -10.559  1.00  0.00    -0.248 NA
ATOM     53  C   UNL     1       1.598   7.806  -9.813  1.00  0.00     0.031 C 
ATOM     54  C   UNL     1       1.024   3.662 -14.208  1.00  0.00     0.029 A 
ATOM     55  C   UNL     1       1.446   4.337 -13.075  1.00  0.00     0.049 A 
ATOM     56  H   UNL     1       2.972   3.825 -11.710  1.00  0.00     0.167 HD
ATOM     57  C   UNL     1       1.423   6.175 -11.414  1.00  0.00     0.074 A 
ATOM     58  C   UNL     1       0.927   7.432 -10.894  1.00  0.00     0.031 C 
ATOM     59  C   UNL     1       0.955   5.578 -12.536  1.00  0.00     0.037 A 
BRANCH  46  60
ATOM     60  C   UNL     1       3.695   0.204 -13.850  1.00  0.00     0.058 A 
ATOM     61  C   UNL     1       3.165  -1.034 -13.457  1.00  0.00     0.135 A 
ATOM     62  C   UNL     1       4.255   0.300 -15.135  1.00  0.00     0.135 A 
ATOM     63  F   UNL     1       2.635  -1.183 -12.233  1.00  0.00    -0.206 F 
ATOM     64  C   UNL     1       3.207  -2.141 -14.299  1.00  0.00     0.059 A 
ATOM     65  C   UNL     1       4.290  -0.788 -16.001  1.00  0.00     0.059 A 
ATOM     66  F   UNL     1       4.776   1.462 -15.560  1.00  0.00    -0.206 F 
ATOM     67  C   UNL     1       3.775  -2.010 -15.568  1.00  0.00     0.060 A 
BRANCH  67  68
ATOM     68  S   UNL     1       3.822  -3.452 -16.654  1.00  0.00     0.124 S 
ATOM     69  O   UNL     1       4.929  -4.210 -16.079  1.00  0.00    -0.237 OA
ATOM     70  O   UNL     1       2.495  -4.031 -16.469  1.00  0.00    -0.237 OA
ATOM     71  O   UNL     1       4.073  -2.876 -17.971  1.00  0.00    -0.744 OA
ENDBRANCH  67  68
ENDBRANCH  46  60
BRANCH  47  72
ATOM     72  C   UNL     1       3.424   7.918  -7.538  1.00  0.00     0.058 A 
ATOM     73  C   UNL     1       2.357   8.074  -6.642  1.00  0.00     0.135 A 
ATOM     74  C   UNL     1       4.436   8.890  -7.527  1.00  0.00     0.135 A 
ATOM     75  F   UNL     1       1.360   7.176  -6.624  1.00  0.00    -0.206 F 
ATOM     76  C   UNL     1       2.285   9.161  -5.777  1.00  0.00     0.059 A 
ATOM     77  C   UNL     1       4.401   9.972  -6.654  1.00  0.00     0.059 A 
ATOM     78  F   UNL     1       5.485   8.779  -8.357  1.00  0.00    -0.206 F 
ATOM     79  C   UNL     1       3.313  10.106  -5.792  1.00  0.00     0.060 A 
BRANCH  79  80
ATOM     80  S   UNL     1       3.245  11.494  -4.639  1.00  0.00     0.124 S 
ATOM     81  O   UNL     1       2.340  12.404  -5.331  1.00  0.00    -0.237 OA
ATOM     82  O   UNL     1       2.721  10.870  -3.428  1.00  0.00    -0.237 OA
ATOM     83  O   UNL     1       4.638  11.925  -4.558  1.00  0.00    -0.744 OA
ENDBRANCH  79  80
ENDBRANCH  47  72
BRANCH  59  84
ATOM     84  C   UNL     1      -0.172   6.259 -13.255  1.00  0.00     0.058 A 
ATOM     85  C   UNL     1       0.051   7.378 -14.072  1.00  0.00     0.135 A 
ATOM     86  C   UNL     1      -1.482   5.765 -13.154  1.00  0.00     0.135 A 
ATOM     87  F   UNL     1       1.285   7.891 -14.193  1.00  0.00    -0.206 F 
ATOM     88  C   UNL     1      -0.992   7.997 -14.752  1.00  0.00     0.059 A 
ATOM     89  C   UNL     1      -2.537   6.358 -13.840  1.00  0.00     0.059 A 
ATOM     90  F   UNL     1      -1.743   4.694 -12.389  1.00  0.00    -0.206 F 
ATOM     91  C   UNL     1      -2.284   7.480 -14.628  1.00  0.00     0.060 A 
BRANCH  91  92
ATOM     92  S   UNL     1      -3.628   8.270 -15.540  1.00  0.00     0.124 S 
ATOM     93  O   UNL     1      -3.904   9.434 -14.704  1.00  0.00    -0.237 OA
ATOM     94  O   UNL     1      -3.011   8.550 -16.833  1.00  0.00    -0.237 OA
ATOM     95  O   UNL     1      -4.669   7.247 -15.559  1.00  0.00    -0.744 OA
ENDBRANCH  91  92
ENDBRANCH  59  84
ENDBRANCH  33  34
ENDBRANCH  26  28
ENDBRANCH  25  26
ENDBRANCH  24  25
ENDBRANCH  23  24
ENDBRANCH   1  23
TORSDOF 20
