REMARK SMILES C[C@@]1(CN2C(=O)c3ccc(C(=O)OCCOC(=O)c4ccc(-c5c6nc(c(-c7c(F)cc(S(=O)(=O)[O-])cc7F)c7ccc([nH]7)c(-c7c(F)cc(S(=O)(=O)[O-])cc7F)c7nc(c(-c8c(F)cc(S(=O)(=O)[O-])cc8F)c8ccc5[nH]8)C=C7)C=C6)cc4)cc3C2=O)CCCO1
REMARK SMILES IDX 15 1 14 2 13 3 11 4 12 5 10 6 4 7 5 8 87 9 6 10 7 11 86 12
REMARK SMILES IDX 88 13 8 14 85 15 9 16 3 17 2 18 1 19 89 20 92 21 90 22 91 23
REMARK SMILES IDX 16 24 17 25 18 26 19 27 20 28 84 29 21 30 83 31 22 32 23 33
REMARK SMILES IDX 24 34 77 35 25 36 82 37 76 38 78 39 26 40 81 41 75 42 74 43
REMARK SMILES IDX 27 45 61 46 40 47 60 48 41 49 44 50 59 51 79 52 42 53 43 54
REMARK SMILES IDX 58 56 80 57 45 58 28 59 29 60 38 61 30 62 31 63 37 64 39 65
REMARK SMILES IDX 32 66 33 67 34 68 35 69 36 70 62 71 63 72 72 73 64 74 65 75
REMARK SMILES IDX 71 76 73 77 66 78 67 79 68 80 69 81 70 82 46 83 47 84 56 85
REMARK SMILES IDX 48 86 49 87 55 88 57 89 50 90 51 91 52 92 53 93 54 94
REMARK H PARENT 78 44 44 55
REMARK Flexibility Score: inf
ROOT
ATOM      1  C   UNL     1      -4.160   5.987  -7.387  1.00  0.00     0.275 C 
ENDROOT
BRANCH   1   2
ATOM      2  C   UNL     1      -4.388   6.205  -5.888  1.00  0.00     0.275 C 
BRANCH   2   3
ATOM      3  O   UNL     1      -3.345   5.599  -5.093  1.00  0.00    -0.458 OA
BRANCH   3   4
ATOM      4  C   UNL     1      -3.678   4.446  -4.462  1.00  0.00     0.338 C 
ATOM      5  O   UNL     1      -4.770   3.902  -4.477  1.00  0.00    -0.246 OA
BRANCH   4   6
ATOM      6  C   UNL     1      -2.493   3.835  -3.807  1.00  0.00     0.060 A 
ATOM      7  N   UNL     1       0.263   0.434  -2.407  1.00  0.00    -0.271 N 
ATOM      8  C   UNL     1       0.723   1.698  -2.142  1.00  0.00     0.261 C 
ATOM      9  C   UNL     1      -0.914   0.462  -3.099  1.00  0.00     0.261 C 
ATOM     10  O   UNL     1       1.746   2.051  -1.594  1.00  0.00    -0.269 OA
ATOM     11  C   UNL     1      -0.288   2.626  -2.652  1.00  0.00     0.053 A 
ATOM     12  C   UNL     1      -1.291   1.865  -3.213  1.00  0.00     0.054 A 
ATOM     13  O   UNL     1      -1.551  -0.445  -3.605  1.00  0.00    -0.269 OA
ATOM     14  C   UNL     1      -0.356   4.008  -2.624  1.00  0.00     0.015 A 
ATOM     15  C   UNL     1      -2.420   2.435  -3.759  1.00  0.00     0.030 A 
ATOM     16  C   UNL     1      -1.469   4.618  -3.227  1.00  0.00     0.016 A 
BRANCH   7  17
ATOM     17  C   UNL     1       0.947  -0.796  -2.032  1.00  0.00     0.164 C 
BRANCH  17  18
ATOM     18  C   UNL     1       0.645  -1.262  -0.579  1.00  0.00     0.084 C 
ATOM     19  C   UNL     1       1.036  -0.216   0.465  1.00  0.00     0.044 C 
ATOM     20  C   UNL     1       1.334  -2.600  -0.283  1.00  0.00     0.039 C 
ATOM     21  O   UNL     1      -0.771  -1.512  -0.438  1.00  0.00    -0.373 OA
ATOM     22  C   UNL     1       0.293  -3.617  -0.679  1.00  0.00     0.031 C 
ATOM     23  C   UNL     1      -0.995  -2.922  -0.302  1.00  0.00     0.161 C 
ENDBRANCH  17  18
ENDBRANCH   7  17
ENDBRANCH   4   6
ENDBRANCH   3   4
ENDBRANCH   2   3
ENDBRANCH   1   2
BRANCH   1  24
ATOM     24  O   UNL     1      -4.347   4.607  -7.750  1.00  0.00    -0.458 OA
BRANCH  24  25
ATOM     25  C   UNL     1      -3.204   3.898  -7.881  1.00  0.00     0.338 C 
ATOM     26  O   UNL     1      -2.062   4.306  -7.744  1.00  0.00    -0.246 OA
BRANCH  25  27
ATOM     27  C   UNL     1      -3.503   2.478  -8.106  1.00  0.00     0.060 A 
ATOM     28  C   UNL     1      -3.691   1.683  -6.982  1.00  0.00     0.016 A 
ATOM     29  C   UNL     1      -3.388   1.893  -9.363  1.00  0.00     0.016 A 
ATOM     30  C   UNL     1      -3.622   0.299  -7.078  1.00  0.00     0.010 A 
ATOM     31  C   UNL     1      -3.457   0.497  -9.475  1.00  0.00     0.010 A 
ATOM     32  C   UNL     1      -3.528  -0.322  -8.330  1.00  0.00    -0.014 A 
BRANCH  32  33
ATOM     33  C   UNL     1      -3.488  -1.811  -8.435  1.00  0.00     0.031 A 
ATOM     34  C   UNL     1      -2.355  -2.494  -9.163  1.00  0.00     0.074 A 
ATOM     35  C   UNL     1      -4.464  -2.561  -7.879  1.00  0.00     0.049 A 
ATOM     36  N   UNL     1      -2.242  -3.743  -9.537  1.00  0.00    -0.248 NA
ATOM     37  C   UNL     1      -1.204  -1.655  -9.537  1.00  0.00     0.031 C 
ATOM     38  C   UNL     1      -5.594  -2.044  -7.101  1.00  0.00     0.029 A 
ATOM     39  N   UNL     1      -4.668  -3.920  -7.882  1.00  0.00    -0.354 N 
ATOM     40  C   UNL     1      -1.042  -3.828 -10.237  1.00  0.00     0.074 A 
ATOM     41  C   UNL     1      -0.469  -2.500 -10.247  1.00  0.00     0.031 C 
ATOM     42  C   UNL     1      -6.346  -3.068  -6.675  1.00  0.00     0.029 A 
ATOM     43  C   UNL     1      -5.821  -4.305  -7.236  1.00  0.00     0.049 A 
ATOM     44  H   UNL     1      -4.049  -4.557  -8.306  1.00  0.00     0.167 HD
ATOM     45  C   UNL     1      -0.474  -4.915 -10.815  1.00  0.00     0.037 A 
ATOM     46  C   UNL     1      -6.427  -5.505  -7.148  1.00  0.00     0.037 A 
ATOM     47  C   UNL     1      -1.032  -6.244 -10.752  1.00  0.00     0.049 A 
ATOM     48  C   UNL     1      -5.806  -6.685  -7.840  1.00  0.00     0.074 A 
ATOM     49  C   UNL     1      -0.526  -7.416 -11.287  1.00  0.00     0.029 A 
ATOM     50  N   UNL     1      -2.215  -6.580 -10.107  1.00  0.00    -0.354 N 
ATOM     51  N   UNL     1      -4.697  -6.741  -8.537  1.00  0.00    -0.248 NA
ATOM     52  C   UNL     1      -6.524  -7.963  -7.746  1.00  0.00     0.031 C 
ATOM     53  C   UNL     1      -1.427  -8.449 -11.012  1.00  0.00     0.029 A 
ATOM     54  C   UNL     1      -2.464  -7.936 -10.249  1.00  0.00     0.049 A 
ATOM     55  H   UNL     1      -2.791  -5.948  -9.620  1.00  0.00     0.167 HD
ATOM     56  C   UNL     1      -4.570  -8.064  -8.943  1.00  0.00     0.074 A 
ATOM     57  C   UNL     1      -5.710  -8.777  -8.402  1.00  0.00     0.031 C 
ATOM     58  C   UNL     1      -3.597  -8.635  -9.695  1.00  0.00     0.037 A 
BRANCH  45  59
ATOM     59  C   UNL     1       0.798  -4.716 -11.600  1.00  0.00     0.058 A 
ATOM     60  C   UNL     1       2.022  -4.411 -10.984  1.00  0.00     0.135 A 
ATOM     61  C   UNL     1       0.797  -4.879 -12.997  1.00  0.00     0.135 A 
ATOM     62  F   UNL     1       2.084  -4.231  -9.655  1.00  0.00    -0.206 F 
ATOM     63  C   UNL     1       3.190  -4.245 -11.724  1.00  0.00     0.059 A 
ATOM     64  C   UNL     1       1.959  -4.750 -13.753  1.00  0.00     0.059 A 
ATOM     65  F   UNL     1      -0.342  -5.175 -13.642  1.00  0.00    -0.206 F 
ATOM     66  C   UNL     1       3.148  -4.417 -13.109  1.00  0.00     0.060 A 
BRANCH  66  67
ATOM     67  S   UNL     1       4.673  -4.202 -14.053  1.00  0.00     0.124 S 
ATOM     68  O   UNL     1       4.866  -2.757 -13.971  1.00  0.00    -0.237 OA
ATOM     69  O   UNL     1       5.624  -5.012 -13.299  1.00  0.00    -0.237 OA
ATOM     70  O   UNL     1       4.330  -4.713 -15.377  1.00  0.00    -0.744 OA
ENDBRANCH  66  67
ENDBRANCH  45  59
BRANCH  46  71
ATOM     71  C   UNL     1      -7.718  -5.633  -6.416  1.00  0.00     0.058 A 
ATOM     72  C   UNL     1      -7.807  -6.368  -5.225  1.00  0.00     0.135 A 
ATOM     73  C   UNL     1      -8.885  -5.004  -6.882  1.00  0.00     0.135 A 
ATOM     74  F   UNL     1      -6.725  -6.998  -4.743  1.00  0.00    -0.206 F 
ATOM     75  C   UNL     1      -9.006  -6.486  -4.529  1.00  0.00     0.059 A 
ATOM     76  C   UNL     1     -10.087  -5.079  -6.186  1.00  0.00     0.059 A 
ATOM     77  F   UNL     1      -8.854  -4.278  -8.011  1.00  0.00    -0.206 F 
ATOM     78  C   UNL     1     -10.140  -5.832  -5.015  1.00  0.00     0.060 A 
BRANCH  78  79
ATOM     79  S   UNL     1     -11.680  -5.955  -4.080  1.00  0.00     0.124 S 
ATOM     80  O   UNL     1     -12.068  -7.338  -4.333  1.00  0.00    -0.237 OA
ATOM     81  O   UNL     1     -11.238  -5.654  -2.722  1.00  0.00    -0.237 OA
ATOM     82  O   UNL     1     -12.529  -4.938  -4.694  1.00  0.00    -0.744 OA
ENDBRANCH  78  79
ENDBRANCH  46  71
BRANCH  58  83
ATOM     83  C   UNL     1      -3.691 -10.117  -9.935  1.00  0.00     0.058 A 
ATOM     84  C   UNL     1      -4.655 -10.672 -10.790  1.00  0.00     0.135 A 
ATOM     85  C   UNL     1      -2.770 -10.989  -9.331  1.00  0.00     0.135 A 
ATOM     86  F   UNL     1      -5.566  -9.885 -11.385  1.00  0.00    -0.206 F 
ATOM     87  C   UNL     1      -4.717 -12.043 -11.021  1.00  0.00     0.059 A 
ATOM     88  C   UNL     1      -2.794 -12.358  -9.573  1.00  0.00     0.059 A 
ATOM     89  F   UNL     1      -1.823 -10.510  -8.510  1.00  0.00    -0.206 F 
ATOM     90  C   UNL     1      -3.779 -12.878 -10.411  1.00  0.00     0.060 A 
BRANCH  90  91
ATOM     91  S   UNL     1      -3.848 -14.649 -10.748  1.00  0.00     0.124 S 
ATOM     92  O   UNL     1      -5.039 -15.045 -10.004  1.00  0.00    -0.237 OA
ATOM     93  O   UNL     1      -3.968 -14.684 -12.203  1.00  0.00    -0.237 OA
ATOM     94  O   UNL     1      -2.583 -15.147 -10.218  1.00  0.00    -0.744 OA
ENDBRANCH  90  91
ENDBRANCH  58  83
ENDBRANCH  32  33
ENDBRANCH  25  27
ENDBRANCH  24  25
ENDBRANCH   1  24
TORSDOF 16
