REMARK SMILES O=C(Cc1ccccc1)Nc1cccc(C(=O)Nc2ccccc2C(=O)OCCOC(=O)c2ccc(-c3c4nc(c(-c5c(F)cc(S(=O)(=O)[O-])cc5F)c5ccc([nH]5)c(-c5c(F)cc(S(=O)(=O)[O-])cc5F)c5nc(c(-c6c(F)cc(S(=O)(=O)[O-])cc6F)c6ccc3[nH]6)C=C5)C=C4)cc2)c1
REMARK SMILES IDX 28 1 27 2 25 3 26 4 24 5 19 6 20 7 21 8 23 9 22 10 18 11
REMARK SMILES IDX 16 12 17 13 15 15 11 16 12 17 99 18 13 19 14 20 10 21 1 22
REMARK SMILES IDX 2 23 3 25 4 26 5 27 9 28 6 29 8 30 7 31 29 32 30 33 31 34
REMARK SMILES IDX 32 35 33 36 34 37 98 38 35 39 97 40 36 41 37 42 38 43 91 44
REMARK SMILES IDX 39 45 96 46 90 47 92 48 40 49 95 50 89 51 88 52 41 54 75 55
REMARK SMILES IDX 54 56 74 57 55 58 58 59 73 60 93 61 56 62 57 63 72 65 94 66
REMARK SMILES IDX 59 67 42 68 43 69 52 70 44 71 45 72 51 73 53 74 46 75 47 76
REMARK SMILES IDX 48 77 49 78 50 79 76 80 77 81 86 82 78 83 79 84 85 85 87 86
REMARK SMILES IDX 80 87 81 88 82 89 83 90 84 91 60 92 61 93 70 94 62 95 63 96
REMARK SMILES IDX 69 97 71 98 64 99 65 100 66 101 67 102 68 103
REMARK H PARENT 18 14 10 24 92 53 58 64
REMARK Flexibility Score: inf
ROOT
ATOM      1  C   UNL     1       2.146   5.867  -0.393  1.00  0.00     0.275 C 
ENDROOT
BRANCH   1   2
ATOM      2  O   UNL     1       1.250   5.167   0.501  1.00  0.00    -0.458 OA
BRANCH   2   3
ATOM      3  C   UNL     1       1.506   3.838   0.605  1.00  0.00     0.340 C 
ATOM      4  O   UNL     1       2.473   3.278   0.122  1.00  0.00    -0.246 OA
BRANCH   3   5
ATOM      5  C   UNL     1       0.483   3.091   1.376  1.00  0.00     0.083 A 
ATOM      6  C   UNL     1      -0.889   3.084   1.086  1.00  0.00     0.056 A 
ATOM      7  C   UNL     1      -1.747   2.329   1.911  1.00  0.00     0.027 A 
ATOM      8  C   UNL     1      -1.251   1.498   2.919  1.00  0.00     0.002 A 
ATOM      9  C   UNL     1       0.960   2.271   2.418  1.00  0.00     0.018 A 
ATOM     10  C   UNL     1       0.110   1.460   3.166  1.00  0.00     0.001 A 
BRANCH   6  11
ATOM     11  N   UNL     1      -1.536   3.724   0.011  1.00  0.00    -0.321 N 
ATOM     12  C   UNL     1      -1.175   3.967  -1.296  1.00  0.00     0.255 C 
ATOM     13  O   UNL     1      -1.850   4.764  -1.951  1.00  0.00    -0.269 OA
ATOM     14  H   UNL     1      -2.430   4.067   0.240  1.00  0.00     0.170 HD
BRANCH  12  15
ATOM     15  C   UNL     1      -0.053   3.263  -1.973  1.00  0.00     0.042 A 
ATOM     16  C   UNL     1       1.591   1.486  -2.087  1.00  0.00     0.041 A 
ATOM     17  C   UNL     1       2.283   2.213  -3.066  1.00  0.00     0.026 A 
ATOM     18  C   UNL     1       0.371   1.976  -1.611  1.00  0.00     0.040 A 
ATOM     19  C   UNL     1       1.789   3.431  -3.535  1.00  0.00     0.003 A 
ATOM     20  C   UNL     1       0.630   3.963  -2.978  1.00  0.00     0.014 A 
BRANCH  16  21
ATOM     21  N   UNL     1       2.269   0.389  -1.514  1.00  0.00    -0.326 N 
ATOM     22  O   UNL     1       0.711  -0.489  -0.033  1.00  0.00    -0.274 OA
ATOM     23  C   UNL     1       1.862  -0.408  -0.457  1.00  0.00     0.228 C 
ATOM     24  H   UNL     1       3.138   0.162  -1.916  1.00  0.00     0.169 HD
BRANCH  23  25
ATOM     25  C   UNL     1       3.011  -1.098   0.278  1.00  0.00     0.135 C 
BRANCH  25  26
ATOM     26  C   UNL     1       3.962  -1.888  -0.589  1.00  0.00    -0.039 A 
ATOM     27  C   UNL     1       3.747  -3.256  -0.807  1.00  0.00     0.004 A 
ATOM     28  C   UNL     1       5.077  -1.274  -1.183  1.00  0.00     0.004 A 
ATOM     29  C   UNL     1       4.620  -3.989  -1.613  1.00  0.00     0.000 A 
ATOM     30  C   UNL     1       5.930  -2.004  -2.013  1.00  0.00     0.000 A 
ATOM     31  C   UNL     1       5.702  -3.361  -2.225  1.00  0.00     0.000 A 
ENDBRANCH  25  26
ENDBRANCH  23  25
ENDBRANCH  16  21
ENDBRANCH  12  15
ENDBRANCH   6  11
ENDBRANCH   3   5
ENDBRANCH   2   3
ENDBRANCH   1   2
BRANCH   1  32
ATOM     32  C   UNL     1       3.353   6.506   0.300  1.00  0.00     0.275 C 
BRANCH  32  33
ATOM     33  O   UNL     1       4.290   5.521   0.775  1.00  0.00    -0.458 OA
BRANCH  33  34
ATOM     34  C   UNL     1       4.174   5.232   2.089  1.00  0.00     0.338 C 
ATOM     35  O   UNL     1       3.402   5.743   2.888  1.00  0.00    -0.246 OA
BRANCH  34  36
ATOM     36  C   UNL     1       5.047   4.115   2.477  1.00  0.00     0.060 A 
ATOM     37  C   UNL     1       4.540   2.832   2.333  1.00  0.00     0.016 A 
ATOM     38  C   UNL     1       6.197   4.319   3.232  1.00  0.00     0.016 A 
ATOM     39  C   UNL     1       5.043   1.783   3.077  1.00  0.00     0.010 A 
ATOM     40  C   UNL     1       6.807   3.222   3.860  1.00  0.00     0.010 A 
ATOM     41  C   UNL     1       6.200   1.952   3.834  1.00  0.00    -0.014 A 
BRANCH  41  42
ATOM     42  C   UNL     1       6.703   0.799   4.625  1.00  0.00     0.031 A 
ATOM     43  C   UNL     1       6.859   0.920   6.117  1.00  0.00     0.074 A 
ATOM     44  C   UNL     1       6.936  -0.381   4.012  1.00  0.00     0.049 A 
ATOM     45  N   UNL     1       7.405   0.083   6.960  1.00  0.00    -0.248 NA
ATOM     46  C   UNL     1       6.346   2.150   6.745  1.00  0.00     0.031 C 
ATOM     47  C   UNL     1       6.745  -0.647   2.581  1.00  0.00     0.029 A 
ATOM     48  N   UNL     1       7.356  -1.587   4.511  1.00  0.00    -0.354 N 
ATOM     49  C   UNL     1       7.365   0.711   8.200  1.00  0.00     0.074 A 
ATOM     50  C   UNL     1       6.741   2.000   8.001  1.00  0.00     0.031 C 
ATOM     51  C   UNL     1       6.985  -1.941   2.333  1.00  0.00     0.029 A 
ATOM     52  C   UNL     1       7.470  -2.568   3.554  1.00  0.00     0.049 A 
ATOM     53  H   UNL     1       7.557  -1.736   5.464  1.00  0.00     0.167 HD
ATOM     54  C   UNL     1       7.817   0.249   9.391  1.00  0.00     0.037 A 
ATOM     55  C   UNL     1       7.966  -3.816   3.632  1.00  0.00     0.037 A 
ATOM     56  C   UNL     1       8.386  -1.063   9.573  1.00  0.00     0.049 A 
ATOM     57  C   UNL     1       8.500  -4.288   4.953  1.00  0.00     0.074 A 
ATOM     58  C   UNL     1       8.869  -1.640  10.734  1.00  0.00     0.029 A 
ATOM     59  N   UNL     1       8.536  -2.008   8.566  1.00  0.00    -0.354 N 
ATOM     60  N   UNL     1       8.525  -3.657   6.104  1.00  0.00    -0.248 NA
ATOM     61  C   UNL     1       9.090  -5.630   4.984  1.00  0.00     0.031 C 
ATOM     62  C   UNL     1       9.358  -2.913  10.419  1.00  0.00     0.029 A 
ATOM     63  C   UNL     1       9.125  -3.155   9.074  1.00  0.00     0.049 A 
ATOM     64  H   UNL     1       8.264  -1.881   7.628  1.00  0.00     0.167 HD
ATOM     65  C   UNL     1       9.125  -4.531   7.002  1.00  0.00     0.074 A 
ATOM     66  C   UNL     1       9.416  -5.745   6.264  1.00  0.00     0.031 C 
ATOM     67  C   UNL     1       9.416  -4.347   8.315  1.00  0.00     0.037 A 
BRANCH  54  68
ATOM     68  C   UNL     1       7.770   1.185  10.571  1.00  0.00     0.058 A 
ATOM     69  C   UNL     1       6.568   1.565  11.188  1.00  0.00     0.135 A 
ATOM     70  C   UNL     1       8.965   1.695  11.107  1.00  0.00     0.135 A 
ATOM     71  F   UNL     1       5.393   1.127  10.707  1.00  0.00    -0.206 F 
ATOM     72  C   UNL     1       6.550   2.437  12.274  1.00  0.00     0.059 A 
ATOM     73  C   UNL     1       8.973   2.543  12.210  1.00  0.00     0.059 A 
ATOM     74  F   UNL     1      10.146   1.371  10.556  1.00  0.00    -0.206 F 
ATOM     75  C   UNL     1       7.758   2.920  12.778  1.00  0.00     0.060 A 
BRANCH  75  76
ATOM     76  S   UNL     1       7.720   4.045  14.191  1.00  0.00     0.124 S 
ATOM     77  O   UNL     1       7.193   5.262  13.581  1.00  0.00    -0.237 OA
ATOM     78  O   UNL     1       6.821   3.357  15.112  1.00  0.00    -0.237 OA
ATOM     79  O   UNL     1       9.115   4.109  14.614  1.00  0.00    -0.744 OA
ENDBRANCH  75  76
ENDBRANCH  54  68
BRANCH  55  80
ATOM     80  C   UNL     1       8.031  -4.669   2.414  1.00  0.00     0.058 A 
ATOM     81  C   UNL     1       7.262  -5.835   2.301  1.00  0.00     0.135 A 
ATOM     82  C   UNL     1       8.846  -4.318   1.324  1.00  0.00     0.135 A 
ATOM     83  F   UNL     1       6.477  -6.223   3.318  1.00  0.00    -0.206 F 
ATOM     84  C   UNL     1       7.301  -6.626   1.157  1.00  0.00     0.059 A 
ATOM     85  C   UNL     1       8.874  -5.072   0.156  1.00  0.00     0.059 A 
ATOM     86  F   UNL     1       9.598  -3.207   1.373  1.00  0.00    -0.206 F 
ATOM     87  C   UNL     1       8.103  -6.230   0.085  1.00  0.00     0.060 A 
BRANCH  87  88
ATOM     88  S   UNL     1       8.091  -7.221  -1.423  1.00  0.00     0.124 S 
ATOM     89  O   UNL     1       8.836  -8.402  -1.004  1.00  0.00    -0.237 OA
ATOM     90  O   UNL     1       6.662  -7.413  -1.653  1.00  0.00    -0.237 OA
ATOM     91  O   UNL     1       8.760  -6.362  -2.396  1.00  0.00    -0.744 OA
ENDBRANCH  87  88
ENDBRANCH  55  80
BRANCH  67  92
ATOM     92  C   UNL     1      10.056  -5.504   9.029  1.00  0.00     0.058 A 
ATOM     93  C   UNL     1      11.376  -5.901   8.758  1.00  0.00     0.135 A 
ATOM     94  C   UNL     1       9.336  -6.230   9.991  1.00  0.00     0.135 A 
ATOM     95  F   UNL     1      12.105  -5.244   7.843  1.00  0.00    -0.206 F 
ATOM     96  C   UNL     1      11.939  -7.012   9.375  1.00  0.00     0.059 A 
ATOM     97  C   UNL     1       9.893  -7.323  10.646  1.00  0.00     0.059 A 
ATOM     98  F   UNL     1       8.076  -5.883  10.299  1.00  0.00    -0.206 F 
ATOM     99  C   UNL     1      11.186  -7.721  10.313  1.00  0.00     0.060 A 
BRANCH  99 100
ATOM    100  S   UNL     1      11.920  -9.174  11.091  1.00  0.00     0.124 S 
ATOM    101  O   UNL     1      11.862 -10.147  10.006  1.00  0.00    -0.237 OA
ATOM    102  O   UNL     1      13.253  -8.699  11.447  1.00  0.00    -0.237 OA
ATOM    103  O   UNL     1      11.033  -9.439  12.220  1.00  0.00    -0.744 OA
ENDBRANCH  99 100
ENDBRANCH  67  92
ENDBRANCH  41  42
ENDBRANCH  34  36
ENDBRANCH  33  34
ENDBRANCH  32  33
ENDBRANCH   1  32
TORSDOF 19
