REMARK SMILES O=C(OCCOC(=O)[C@@H]1[C@@H](C(=O)Nc2cccc([N+](=O)[O-])c2)[C@@H]2C=C[C@H]1O2)c1ccc(-c2c3nc(c(-c4c(F)cc(S(=O)(=O)[O-])cc4F)c4ccc([nH]4)c(-c4c(F)cc(S(=O)(=O)[O-])cc4F)c4nc(c(-c5c(F)cc(S(=O)(=O)[O-])cc5F)c5ccc2[nH]5)C=C4)C=C3)cc1
REMARK SMILES IDX 4 1 3 2 2 3 1 4 28 5 29 6 93 7 30 8 92 9 31 10 32 11 33 12
REMARK SMILES IDX 86 13 34 14 91 15 85 16 87 17 35 18 90 19 84 20 83 21 36 23
REMARK SMILES IDX 70 24 49 25 69 26 50 27 53 28 68 29 88 30 51 31 52 32 67 34
REMARK SMILES IDX 89 35 54 36 37 37 38 38 47 39 39 40 40 41 46 42 48 43 41 44
REMARK SMILES IDX 42 45 43 46 44 47 45 48 71 49 72 50 81 51 73 52 74 53 80 54
REMARK SMILES IDX 82 55 75 56 76 57 77 58 78 59 79 60 55 61 56 62 65 63 57 64
REMARK SMILES IDX 58 65 64 66 66 67 59 68 60 69 61 70 62 71 63 72 5 73 6 74
REMARK SMILES IDX 7 75 8 76 9 77 10 78 26 79 23 80 25 81 27 82 24 83 11 84
REMARK SMILES IDX 12 85 13 86 14 88 15 89 22 90 16 91 18 92 17 93 19 94 20 95
REMARK SMILES IDX 21 96
REMARK H PARENT 87 22 53 33 13 87
REMARK Flexibility Score: inf
ROOT
ATOM      1  C   UNL     1       3.985   1.010   1.618  1.00  0.00     0.275 C 
ENDROOT
BRANCH   1   2
ATOM      2  O   UNL     1       2.802   1.350   0.839  1.00  0.00    -0.458 OA
BRANCH   2   3
ATOM      3  C   UNL     1       2.618   1.354  -0.524  1.00  0.00     0.338 C 
ATOM      4  O   UNL     1       1.596   1.827  -1.009  1.00  0.00    -0.246 OA
BRANCH   3   5
ATOM      5  C   UNL     1       3.531   0.559  -1.428  1.00  0.00     0.060 A 
ATOM      6  C   UNL     1       4.197  -0.582  -0.591  1.00  0.00     0.016 A 
ATOM      7  C   UNL     1       3.067   0.349  -3.060  1.00  0.00     0.016 A 
ATOM      8  C   UNL     1       4.217  -2.191  -1.156  1.00  0.00     0.010 A 
ATOM      9  C   UNL     1       3.170  -1.099  -3.965  1.00  0.00     0.010 A 
ATOM     10  C   UNL     1       3.769  -2.520  -3.161  1.00  0.00    -0.014 A 
BRANCH  10  11
ATOM     11  C   UNL     1       4.522  -3.637  -4.355  1.00  0.00     0.031 A 
ATOM     12  C   UNL     1       5.434  -3.035  -5.479  1.00  0.00     0.074 A 
ATOM     13  C   UNL     1       5.117  -4.888  -4.200  1.00  0.00     0.049 A 
ATOM     14  N   UNL     1       6.198  -3.726  -6.305  1.00  0.00    -0.248 NA
ATOM     15  C   UNL     1       5.658  -1.587  -5.614  1.00  0.00     0.031 C 
ATOM     16  C   UNL     1       5.577  -5.575  -2.983  1.00  0.00     0.029 A 
ATOM     17  N   UNL     1       4.904  -5.990  -5.034  1.00  0.00    -0.354 N 
ATOM     18  C   UNL     1       6.947  -2.822  -7.035  1.00  0.00     0.074 A 
ATOM     19  C   UNL     1       6.596  -1.512  -6.554  1.00  0.00     0.031 C 
ATOM     20  C   UNL     1       5.071  -6.808  -2.961  1.00  0.00     0.029 A 
ATOM     21  C   UNL     1       4.761  -7.171  -4.311  1.00  0.00     0.049 A 
ATOM     22  H   UNL     1       4.860  -5.936  -6.016  1.00  0.00     0.167 HD
ATOM     23  C   UNL     1       7.824  -3.088  -8.030  1.00  0.00     0.037 A 
ATOM     24  C   UNL     1       4.860  -8.486  -4.579  1.00  0.00     0.037 A 
ATOM     25  C   UNL     1       8.164  -4.423  -8.465  1.00  0.00     0.049 A 
ATOM     26  C   UNL     1       5.773  -8.751  -5.704  1.00  0.00     0.074 A 
ATOM     27  C   UNL     1       8.924  -4.795  -9.560  1.00  0.00     0.029 A 
ATOM     28  N   UNL     1       7.754  -5.600  -7.848  1.00  0.00    -0.354 N 
ATOM     29  N   UNL     1       6.457  -7.852  -6.364  1.00  0.00    -0.248 NA
ATOM     30  C   UNL     1       6.045 -10.140  -6.060  1.00  0.00     0.031 C 
ATOM     31  C   UNL     1       8.867  -6.185  -9.678  1.00  0.00     0.029 A 
ATOM     32  C   UNL     1       8.163  -6.692  -8.600  1.00  0.00     0.049 A 
ATOM     33  H   UNL     1       7.250  -5.651  -7.003  1.00  0.00     0.167 HD
ATOM     34  C   UNL     1       7.198  -8.562  -7.267  1.00  0.00     0.074 A 
ATOM     35  C   UNL     1       6.992  -9.970  -6.970  1.00  0.00     0.031 C 
ATOM     36  C   UNL     1       7.910  -8.077  -8.301  1.00  0.00     0.037 A 
BRANCH  23  37
ATOM     37  C   UNL     1       8.309  -1.935  -8.861  1.00  0.00     0.058 A 
ATOM     38  C   UNL     1       9.316  -1.045  -8.467  1.00  0.00     0.135 A 
ATOM     39  C   UNL     1       7.764  -1.783 -10.149  1.00  0.00     0.135 A 
ATOM     40  F   UNL     1       9.845  -1.119  -7.236  1.00  0.00    -0.206 F 
ATOM     41  C   UNL     1       9.783  -0.056  -9.334  1.00  0.00     0.059 A 
ATOM     42  C   UNL     1       8.234  -0.827 -11.038  1.00  0.00     0.059 A 
ATOM     43  F   UNL     1       6.780  -2.597 -10.565  1.00  0.00    -0.206 F 
ATOM     44  C   UNL     1       9.248   0.029 -10.623  1.00  0.00     0.060 A 
BRANCH  44  45
ATOM     45  S   UNL     1       9.923   1.251 -11.768  1.00  0.00     0.124 S 
ATOM     46  O   UNL     1       9.506   2.502 -11.143  1.00  0.00    -0.237 OA
ATOM     47  O   UNL     1      11.352   0.960 -11.717  1.00  0.00    -0.237 OA
ATOM     48  O   UNL     1       9.265   0.934 -13.033  1.00  0.00    -0.744 OA
ENDBRANCH  44  45
ENDBRANCH  23  37
BRANCH  24  49
ATOM     49  C   UNL     1       4.377  -9.537  -3.632  1.00  0.00     0.058 A 
ATOM     50  C   UNL     1       5.184 -10.536  -3.064  1.00  0.00     0.135 A 
ATOM     51  C   UNL     1       3.011  -9.559  -3.299  1.00  0.00     0.135 A 
ATOM     52  F   UNL     1       6.514 -10.516  -3.241  1.00  0.00    -0.206 F 
ATOM     53  C   UNL     1       4.649 -11.558  -2.278  1.00  0.00     0.059 A 
ATOM     54  C   UNL     1       2.457 -10.553  -2.498  1.00  0.00     0.059 A 
ATOM     55  F   UNL     1       2.197  -8.588  -3.737  1.00  0.00    -0.206 F 
ATOM     56  C   UNL     1       3.281 -11.561  -2.006  1.00  0.00     0.060 A 
BRANCH  56  57
ATOM     57  S   UNL     1       2.612 -12.851  -0.935  1.00  0.00     0.124 S 
ATOM     58  O   UNL     1       2.820 -14.046  -1.743  1.00  0.00    -0.237 OA
ATOM     59  O   UNL     1       3.461 -12.716   0.244  1.00  0.00    -0.237 OA
ATOM     60  O   UNL     1       1.223 -12.443  -0.750  1.00  0.00    -0.744 OA
ENDBRANCH  56  57
ENDBRANCH  24  49
BRANCH  36  61
ATOM     61  C   UNL     1       8.393  -9.115  -9.246  1.00  0.00     0.058 A 
ATOM     62  C   UNL     1       7.475  -9.853 -10.013  1.00  0.00     0.135 A 
ATOM     63  C   UNL     1       9.759  -9.371  -9.387  1.00  0.00     0.135 A 
ATOM     64  F   UNL     1       6.153  -9.655  -9.873  1.00  0.00    -0.206 F 
ATOM     65  C   UNL     1       7.903 -10.836 -10.882  1.00  0.00     0.059 A 
ATOM     66  C   UNL     1      10.211 -10.316 -10.290  1.00  0.00     0.059 A 
ATOM     67  F   UNL     1      10.657  -8.694  -8.654  1.00  0.00    -0.206 F 
ATOM     68  C   UNL     1       9.275 -11.043 -11.028  1.00  0.00     0.060 A 
BRANCH  68  69
ATOM     69  S   UNL     1       9.813 -12.250 -12.246  1.00  0.00     0.124 S 
ATOM     70  O   UNL     1       9.362 -13.498 -11.642  1.00  0.00    -0.237 OA
ATOM     71  O   UNL     1       9.088 -11.820 -13.437  1.00  0.00    -0.237 OA
ATOM     72  O   UNL     1      11.259 -12.060 -12.292  1.00  0.00    -0.744 OA
ENDBRANCH  68  69
ENDBRANCH  36  61
ENDBRANCH  10  11
ENDBRANCH   3   5
ENDBRANCH   2   3
ENDBRANCH   1   2
BRANCH   1  73
ATOM     73  C   UNL     1       4.002  -0.406   2.311  1.00  0.00     0.274 C 
BRANCH  73  74
ATOM     74  O   UNL     1       3.594  -1.574   1.541  1.00  0.00    -0.462 OA
BRANCH  74  75
ATOM     75  C   UNL     1       2.317  -1.648   1.056  1.00  0.00     0.312 C 
ATOM     76  O   UNL     1       1.380  -1.078   1.595  1.00  0.00    -0.252 OA
BRANCH  75  77
ATOM     77  C   UNL     1       2.216  -2.434  -0.278  1.00  0.00     0.147 C 
ATOM     78  C   UNL     1       3.121  -3.964  -0.222  1.00  0.00     0.129 C 
ATOM     79  C   UNL     1       2.742  -1.570  -1.885  1.00  0.00     0.157 C 
ATOM     80  C   UNL     1       4.014  -4.058  -1.703  1.00  0.00     0.155 C 
ATOM     81  C   UNL     1       4.851  -1.238  -2.518  1.00  0.00     0.004 C 
ATOM     82  O   UNL     1       2.423  -3.344  -2.176  1.00  0.00    -0.365 OA
ATOM     83  C   UNL     1       5.545  -2.808  -2.337  1.00  0.00     0.004 C 
BRANCH  78  84
ATOM     84  C   UNL     1       2.222  -5.205  -0.165  1.00  0.00     0.231 C 
ATOM     85  O   UNL     1       0.998  -5.127  -0.295  1.00  0.00    -0.274 OA
ATOM     86  N   UNL     1       2.748  -6.466   0.009  1.00  0.00    -0.325 N 
ATOM     87  H   UNL     1       2.075  -7.179  -0.086  1.00  0.00     0.169 HD
BRANCH  86  88
ATOM     88  C   UNL     1       4.037  -6.960   0.292  1.00  0.00     0.048 A 
ATOM     89  C   UNL     1       4.287  -8.312   0.016  1.00  0.00     0.026 A 
ATOM     90  C   UNL     1       5.094  -6.196   0.772  1.00  0.00     0.111 A 
ATOM     91  C   UNL     1       5.598  -8.815  -0.003  1.00  0.00     0.009 A 
ATOM     92  C   UNL     1       6.406  -6.698   0.754  1.00  0.00     0.271 A 
ATOM     93  C   UNL     1       6.673  -7.988   0.305  1.00  0.00     0.086 A 
BRANCH  92  94
ATOM     94  N   UNL     1       7.501  -5.833   1.202  1.00  0.00     0.062 N 
ATOM     95  O   UNL     1       8.636  -6.323   1.278  1.00  0.00    -0.258 OA
ATOM     96  O   UNL     1       7.223  -4.656   1.484  1.00  0.00    -0.258 OA
ENDBRANCH  92  94
ENDBRANCH  86  88
ENDBRANCH  78  84
ENDBRANCH  75  77
ENDBRANCH  74  75
ENDBRANCH  73  74
ENDBRANCH   1  73
TORSDOF 17
