REMARK SMILES Cc1ccccc1OCC(=O)NCCC(=O)OCCOC(=O)c1ccc(-c2c3nc(c(-c4c(F)cc(S(=O)(=O)[O-])cc4F)c4ccc([nH]4)c(-c4c(F)cc(S(=O)(=O)[O-])cc4F)c4nc(c(-c5c(F)cc(S(=O)(=O)[O-])cc5F)c5ccc2[nH]5)C=C4)C=C3)cc1
REMARK SMILES IDX 18 1 17 2 15 3 16 4 14 5 13 6 12 7 10 8 11 9 9 11 8 12 7 13
REMARK SMILES IDX 1 14 2 15 3 16 4 17 6 18 5 19 19 20 20 21 21 22 22 23 23 24
REMARK SMILES IDX 24 25 88 26 25 27 87 28 26 29 27 30 28 31 81 32 29 33 86 34
REMARK SMILES IDX 80 35 82 36 30 37 85 38 79 39 78 40 31 42 65 43 44 44 64 45
REMARK SMILES IDX 45 46 48 47 63 48 83 49 46 50 47 51 62 53 84 54 49 55 32 56
REMARK SMILES IDX 33 57 42 58 34 59 35 60 41 61 43 62 36 63 37 64 38 65 39 66
REMARK SMILES IDX 40 67 66 68 67 69 76 70 68 71 69 72 75 73 77 74 70 75 71 76
REMARK SMILES IDX 72 77 73 78 74 79 50 80 51 81 60 82 52 83 53 84 59 85 61 86
REMARK SMILES IDX 54 87 55 88 56 89 57 90 58 91
REMARK H PARENT 12 10 82 41 48 52
REMARK Flexibility Score: inf
ROOT
ATOM      1  C   UNL     1       4.150   1.645   5.385  1.00  0.00     0.274 C 
ENDROOT
BRANCH   1   2
ATOM      2  O   UNL     1       3.536   2.273   4.261  1.00  0.00    -0.462 OA
BRANCH   2   3
ATOM      3  C   UNL     1       2.713   1.469   3.531  1.00  0.00     0.307 C 
ATOM      4  O   UNL     1       2.648   0.269   3.646  1.00  0.00    -0.252 OA
BRANCH   3   5
ATOM      5  C   UNL     1       1.857   2.281   2.585  1.00  0.00     0.144 C 
BRANCH   5   6
ATOM      6  C   UNL     1       2.603   3.444   1.956  1.00  0.00     0.127 C 
BRANCH   6   7
ATOM      7  N   UNL     1       3.796   2.968   1.283  1.00  0.00    -0.353 N 
ATOM      8  C   UNL     1       3.864   2.326   0.080  1.00  0.00     0.257 C 
ATOM      9  O   UNL     1       4.909   1.740  -0.213  1.00  0.00    -0.271 OA
ATOM     10  H   UNL     1       4.651   3.126   1.744  1.00  0.00     0.163 HD
BRANCH   8  11
ATOM     11  C   UNL     1       2.703   2.461  -0.919  1.00  0.00     0.329 C 
BRANCH  11  12
ATOM     12  O   UNL     1       1.374   2.294  -0.489  1.00  0.00    -0.484 OA
BRANCH  12  13
ATOM     13  C   UNL     1       0.694   1.113  -0.547  1.00  0.00     0.122 A 
ATOM     14  C   UNL     1       2.612  -0.621  -0.617  1.00  0.00     0.048 C 
ATOM     15  C   UNL     1       1.170  -0.204  -0.615  1.00  0.00    -0.009 A 
ATOM     16  C   UNL     1       0.228  -1.259  -0.552  1.00  0.00     0.007 A 
ATOM     17  C   UNL     1      -1.140  -1.023  -0.413  1.00  0.00     0.001 A 
ATOM     18  C   UNL     1      -0.690   1.331  -0.398  1.00  0.00     0.047 A 
ATOM     19  C   UNL     1      -1.602   0.280  -0.330  1.00  0.00     0.004 A 
ENDBRANCH  12  13
ENDBRANCH  11  12
ENDBRANCH   8  11
ENDBRANCH   6   7
ENDBRANCH   5   6
ENDBRANCH   3   5
ENDBRANCH   2   3
ENDBRANCH   1   2
BRANCH   1  20
ATOM     20  C   UNL     1       4.567   2.706   6.422  1.00  0.00     0.275 C 
BRANCH  20  21
ATOM     21  O   UNL     1       3.599   3.677   6.910  1.00  0.00    -0.458 OA
BRANCH  21  22
ATOM     22  C   UNL     1       2.592   4.116   6.099  1.00  0.00     0.338 C 
ATOM     23  O   UNL     1       2.741   4.944   5.216  1.00  0.00    -0.246 OA
BRANCH  22  24
ATOM     24  C   UNL     1       1.405   3.228   6.254  1.00  0.00     0.060 A 
ATOM     25  C   UNL     1       0.299   3.323   5.392  1.00  0.00     0.016 A 
ATOM     26  C   UNL     1       1.592   2.087   7.023  1.00  0.00     0.016 A 
ATOM     27  C   UNL     1      -0.539   2.216   5.213  1.00  0.00     0.010 A 
ATOM     28  C   UNL     1       0.959   0.942   6.641  1.00  0.00     0.010 A 
ATOM     29  C   UNL     1      -0.157   1.013   5.799  1.00  0.00    -0.014 A 
BRANCH  29  30
ATOM     30  C   UNL     1      -0.972  -0.185   5.913  1.00  0.00     0.031 A 
ATOM     31  C   UNL     1      -1.073  -1.205   4.863  1.00  0.00     0.074 A 
ATOM     32  C   UNL     1      -1.373  -0.361   7.193  1.00  0.00     0.049 A 
ATOM     33  N   UNL     1      -1.931  -2.160   4.888  1.00  0.00    -0.248 NA
ATOM     34  C   UNL     1      -0.217  -1.258   3.688  1.00  0.00     0.031 C 
ATOM     35  C   UNL     1      -1.895  -1.507   7.905  1.00  0.00     0.029 A 
ATOM     36  N   UNL     1      -1.449   0.674   8.139  1.00  0.00    -0.354 N 
ATOM     37  C   UNL     1      -1.554  -3.107   3.955  1.00  0.00     0.074 A 
ATOM     38  C   UNL     1      -0.546  -2.446   3.165  1.00  0.00     0.031 C 
ATOM     39  C   UNL     1      -2.547  -1.057   8.998  1.00  0.00     0.029 A 
ATOM     40  C   UNL     1      -2.551   0.405   8.936  1.00  0.00     0.049 A 
ATOM     41  H   UNL     1      -0.839   1.442   8.219  1.00  0.00     0.167 HD
ATOM     42  C   UNL     1      -2.054  -4.373   4.095  1.00  0.00     0.037 A 
ATOM     43  C   UNL     1      -3.631   1.218   8.737  1.00  0.00     0.037 A 
ATOM     44  C   UNL     1      -3.022  -4.378   5.202  1.00  0.00     0.049 A 
ATOM     45  C   UNL     1      -4.745   0.410   8.110  1.00  0.00     0.074 A 
ATOM     46  C   UNL     1      -2.904  -4.751   6.530  1.00  0.00     0.029 A 
ATOM     47  N   UNL     1      -4.169  -3.590   5.114  1.00  0.00    -0.354 N 
ATOM     48  N   UNL     1      -4.567  -0.600   7.295  1.00  0.00    -0.248 NA
ATOM     49  C   UNL     1      -6.133   0.573   8.515  1.00  0.00     0.031 C 
ATOM     50  C   UNL     1      -3.916  -4.068   7.262  1.00  0.00     0.029 A 
ATOM     51  C   UNL     1      -4.660  -3.301   6.376  1.00  0.00     0.049 A 
ATOM     52  H   UNL     1      -4.574  -3.281   4.271  1.00  0.00     0.167 HD
ATOM     53  C   UNL     1      -5.745  -1.293   7.174  1.00  0.00     0.074 A 
ATOM     54  C   UNL     1      -6.700  -0.496   7.931  1.00  0.00     0.031 C 
ATOM     55  C   UNL     1      -5.868  -2.502   6.542  1.00  0.00     0.037 A 
BRANCH  42  56
ATOM     56  C   UNL     1      -1.505  -5.659   3.474  1.00  0.00     0.058 A 
ATOM     57  C   UNL     1      -1.877  -6.919   4.006  1.00  0.00     0.135 A 
ATOM     58  C   UNL     1      -0.575  -5.744   2.416  1.00  0.00     0.135 A 
ATOM     59  F   UNL     1      -2.806  -7.026   4.966  1.00  0.00    -0.206 F 
ATOM     60  C   UNL     1      -1.318  -8.134   3.589  1.00  0.00     0.059 A 
ATOM     61  C   UNL     1       0.013  -6.946   1.993  1.00  0.00     0.059 A 
ATOM     62  F   UNL     1      -0.211  -4.674   1.704  1.00  0.00    -0.206 F 
ATOM     63  C   UNL     1      -0.354  -8.138   2.593  1.00  0.00     0.060 A 
BRANCH  63  64
ATOM     64  S   UNL     1       0.376  -9.707   2.082  1.00  0.00     0.124 S 
ATOM     65  O   UNL     1       1.019 -10.161   3.310  1.00  0.00    -0.237 OA
ATOM     66  O   UNL     1      -0.795 -10.468   1.659  1.00  0.00    -0.237 OA
ATOM     67  O   UNL     1       1.289  -9.325   1.008  1.00  0.00    -0.744 OA
ENDBRANCH  63  64
ENDBRANCH  42  56
BRANCH  43  68
ATOM     68  C   UNL     1      -3.251   2.661   8.480  1.00  0.00     0.058 A 
ATOM     69  C   UNL     1      -2.383   3.288   9.413  1.00  0.00     0.135 A 
ATOM     70  C   UNL     1      -3.423   3.334   7.261  1.00  0.00     0.135 A 
ATOM     71  F   UNL     1      -2.162   2.715  10.610  1.00  0.00    -0.206 F 
ATOM     72  C   UNL     1      -1.640   4.431   9.117  1.00  0.00     0.059 A 
ATOM     73  C   UNL     1      -2.705   4.508   6.951  1.00  0.00     0.059 A 
ATOM     74  F   UNL     1      -4.227   2.828   6.316  1.00  0.00    -0.206 F 
ATOM     75  C   UNL     1      -1.787   5.025   7.870  1.00  0.00     0.060 A 
BRANCH  75  76
ATOM     76  S   UNL     1      -0.642   6.362   7.421  1.00  0.00     0.124 S 
ATOM     77  O   UNL     1      -1.223   7.504   8.116  1.00  0.00    -0.237 OA
ATOM     78  O   UNL     1       0.626   5.873   7.960  1.00  0.00    -0.237 OA
ATOM     79  O   UNL     1      -0.726   6.398   5.964  1.00  0.00    -0.744 OA
ENDBRANCH  75  76
ENDBRANCH  43  68
BRANCH  55  80
ATOM     80  C   UNL     1      -7.178  -3.126   6.111  1.00  0.00     0.058 A 
ATOM     81  C   UNL     1      -8.341  -2.384   5.847  1.00  0.00     0.135 A 
ATOM     82  C   UNL     1      -7.246  -4.503   5.773  1.00  0.00     0.135 A 
ATOM     83  F   UNL     1      -8.376  -1.053   5.994  1.00  0.00    -0.206 F 
ATOM     84  C   UNL     1      -9.507  -2.973   5.364  1.00  0.00     0.059 A 
ATOM     85  C   UNL     1      -8.372  -5.092   5.214  1.00  0.00     0.059 A 
ATOM     86  F   UNL     1      -6.206  -5.331   5.948  1.00  0.00    -0.206 F 
ATOM     87  C   UNL     1      -9.512  -4.325   5.044  1.00  0.00     0.060 A 
BRANCH  87  88
ATOM     88  S   UNL     1     -10.993  -5.067   4.349  1.00  0.00     0.124 S 
ATOM     89  O   UNL     1     -11.719  -5.443   5.557  1.00  0.00    -0.237 OA
ATOM     90  O   UNL     1     -11.572  -3.967   3.581  1.00  0.00    -0.237 OA
ATOM     91  O   UNL     1     -10.473  -6.172   3.551  1.00  0.00    -0.744 OA
ENDBRANCH  87  88
ENDBRANCH  55  80
ENDBRANCH  29  30
ENDBRANCH  22  24
ENDBRANCH  21  22
ENDBRANCH  20  21
ENDBRANCH   1  20
TORSDOF 19
