REMARK SMILES CCC[C@@H](C(=O)N1CC[C@@](C)(C(=O)OCCOC(=O)c2ccc(-c3c4nc(c(-c5c(F)cc(S(=O)(=O)[O-])cc5F)c5ccc([nH]5)c(-c5c(F)cc(S(=O)(=O)[O-])cc5F)c5nc(c(-c6c(F)cc(S(=O)(=O)[O-])cc6F)c6ccc3[nH]6)C=C5)C=C4)cc2)C1)c1ccccc1
REMARK SMILES IDX 15 1 14 2 12 3 13 4 10 5 7 6 8 7 86 8 9 9 11 10 5 11 6 12
REMARK SMILES IDX 4 13 3 14 2 15 1 16 87 17 88 18 92 19 89 20 91 21 90 22
REMARK SMILES IDX 16 23 17 24 18 25 19 26 20 27 21 28 85 29 22 30 84 31 23 32
REMARK SMILES IDX 24 33 25 34 78 35 26 36 83 37 77 38 79 39 27 40 82 41 76 42
REMARK SMILES IDX 75 43 28 45 62 46 41 47 61 48 42 49 45 50 60 51 80 52 43 53
REMARK SMILES IDX 44 54 59 56 81 57 46 58 29 59 30 60 39 61 31 62 32 63 38 64
REMARK SMILES IDX 40 65 33 66 34 67 35 68 36 69 37 70 63 71 64 72 73 73 65 74
REMARK SMILES IDX 66 75 72 76 74 77 67 78 68 79 69 80 70 81 71 82 47 83 48 84
REMARK SMILES IDX 57 85 49 86 50 87 56 88 58 89 51 90 52 91 53 92 54 93 55 94
REMARK H PARENT 79 44 45 55
REMARK Flexibility Score: inf
ROOT
ATOM      1  C   UNL     1      -3.491  -1.405   3.361  1.00  0.00     0.274 C 
ENDROOT
BRANCH   1   2
ATOM      2  O   UNL     1      -3.767  -0.710   2.126  1.00  0.00    -0.462 OA
BRANCH   2   3
ATOM      3  C   UNL     1      -2.783   0.110   1.666  1.00  0.00     0.313 C 
ATOM      4  O   UNL     1      -1.687   0.227   2.203  1.00  0.00    -0.252 OA
BRANCH   3   5
ATOM      5  C   UNL     1      -3.250   0.990   0.506  1.00  0.00     0.084 C 
ATOM      6  N   UNL     1      -2.038   0.788  -1.564  1.00  0.00    -0.341 N 
ATOM      7  C   UNL     1      -3.144  -0.151  -1.635  1.00  0.00     0.120 C 
ATOM      8  C   UNL     1      -2.033   1.487  -0.298  1.00  0.00     0.138 C 
ATOM      9  C   UNL     1      -4.115   0.282  -0.549  1.00  0.00     0.042 C 
ATOM     10  C   UNL     1      -4.007   2.173   1.125  1.00  0.00     0.026 C 
BRANCH   6  11
ATOM     11  C   UNL     1      -1.394   1.236  -2.707  1.00  0.00     0.230 C 
ATOM     12  O   UNL     1      -2.014   1.240  -3.774  1.00  0.00    -0.274 OA
BRANCH  11  13
ATOM     13  C   UNL     1       0.142   1.543  -2.634  1.00  0.00     0.108 C 
BRANCH  13  14
ATOM     14  C   UNL     1       0.632   2.862  -1.979  1.00  0.00     0.018 C 
BRANCH  14  15
ATOM     15  C   UNL     1       0.851   3.001  -0.466  1.00  0.00    -0.002 C 
ATOM     16  C   UNL     1       1.616   1.886   0.220  1.00  0.00     0.004 C 
ENDBRANCH  14  15
ENDBRANCH  13  14
BRANCH  13  17
ATOM     17  C   UNL     1       0.724   1.516  -4.071  1.00  0.00    -0.036 A 
ATOM     18  C   UNL     1       1.437   0.406  -4.550  1.00  0.00     0.004 A 
ATOM     19  C   UNL     1       0.552   2.619  -4.931  1.00  0.00     0.004 A 
ATOM     20  C   UNL     1       1.991   0.421  -5.836  1.00  0.00     0.000 A 
ATOM     21  C   UNL     1       1.118   2.637  -6.206  1.00  0.00     0.000 A 
ATOM     22  C   UNL     1       1.842   1.539  -6.657  1.00  0.00     0.000 A 
ENDBRANCH  13  17
ENDBRANCH  11  13
ENDBRANCH   6  11
ENDBRANCH   3   5
ENDBRANCH   2   3
ENDBRANCH   1   2
BRANCH   1  23
ATOM     23  C   UNL     1      -3.130  -2.876   3.140  1.00  0.00     0.275 C 
BRANCH  23  24
ATOM     24  O   UNL     1      -1.804  -3.025   2.601  1.00  0.00    -0.458 OA
BRANCH  24  25
ATOM     25  C   UNL     1      -1.744  -3.111   1.252  1.00  0.00     0.338 C 
ATOM     26  O   UNL     1      -2.685  -3.123   0.476  1.00  0.00    -0.246 OA
BRANCH  25  27
ATOM     27  C   UNL     1      -0.343  -2.990   0.814  1.00  0.00     0.060 A 
ATOM     28  C   UNL     1      -0.025  -1.863   0.062  1.00  0.00     0.016 A 
ATOM     29  C   UNL     1       0.627  -3.962   1.072  1.00  0.00     0.016 A 
ATOM     30  C   UNL     1       1.259  -1.697  -0.434  1.00  0.00     0.010 A 
ATOM     31  C   UNL     1       1.927  -3.790   0.566  1.00  0.00     0.010 A 
ATOM     32  C   UNL     1       2.246  -2.651  -0.189  1.00  0.00    -0.014 A 
BRANCH  32  33
ATOM     33  C   UNL     1       3.570  -2.426  -0.813  1.00  0.00     0.031 A 
ATOM     34  C   UNL     1       3.841  -2.987  -2.177  1.00  0.00     0.074 A 
ATOM     35  C   UNL     1       4.449  -1.578  -0.247  1.00  0.00     0.049 A 
ATOM     36  N   UNL     1       4.934  -2.926  -2.891  1.00  0.00    -0.248 NA
ATOM     37  C   UNL     1       2.724  -3.680  -2.838  1.00  0.00     0.031 C 
ATOM     38  C   UNL     1       4.220  -0.829   0.989  1.00  0.00     0.029 A 
ATOM     39  N   UNL     1       5.695  -1.175  -0.656  1.00  0.00    -0.354 N 
ATOM     40  C   UNL     1       4.650  -3.597  -4.072  1.00  0.00     0.074 A 
ATOM     41  C   UNL     1       3.272  -4.032  -3.993  1.00  0.00     0.031 C 
ATOM     42  C   UNL     1       5.289  -0.050   1.232  1.00  0.00     0.029 A 
ATOM     43  C   UNL     1       6.301  -0.291   0.205  1.00  0.00     0.049 A 
ATOM     44  H   UNL     1       6.116  -1.490  -1.488  1.00  0.00     0.167 HD
ATOM     45  C   UNL     1       5.476  -3.849  -5.114  1.00  0.00     0.037 A 
ATOM     46  C   UNL     1       7.544   0.231   0.186  1.00  0.00     0.037 A 
ATOM     47  C   UNL     1       6.849  -3.424  -5.177  1.00  0.00     0.049 A 
ATOM     48  C   UNL     1       8.486  -0.168  -0.923  1.00  0.00     0.074 A 
ATOM     49  C   UNL     1       7.797  -3.713  -6.143  1.00  0.00     0.029 A 
ATOM     50  N   UNL     1       7.470  -2.617  -4.235  1.00  0.00    -0.354 N 
ATOM     51  N   UNL     1       8.247  -0.899  -1.985  1.00  0.00    -0.248 NA
ATOM     52  C   UNL     1       9.876   0.303  -0.820  1.00  0.00     0.031 C 
ATOM     53  C   UNL     1       9.003  -3.116  -5.762  1.00  0.00     0.029 A 
ATOM     54  C   UNL     1       8.794  -2.417  -4.584  1.00  0.00     0.049 A 
ATOM     55  H   UNL     1       7.033  -2.243  -3.437  1.00  0.00     0.167 HD
ATOM     56  C   UNL     1       9.450  -0.969  -2.679  1.00  0.00     0.074 A 
ATOM     57  C   UNL     1      10.412  -0.189  -1.929  1.00  0.00     0.031 C 
ATOM     58  C   UNL     1       9.736  -1.629  -3.829  1.00  0.00     0.037 A 
BRANCH  45  59
ATOM     59  C   UNL     1       4.939  -4.707  -6.220  1.00  0.00     0.058 A 
ATOM     60  C   UNL     1       4.067  -4.207  -7.198  1.00  0.00     0.135 A 
ATOM     61  C   UNL     1       5.316  -6.058  -6.298  1.00  0.00     0.135 A 
ATOM     62  F   UNL     1       3.658  -2.930  -7.150  1.00  0.00    -0.206 F 
ATOM     63  C   UNL     1       3.572  -5.026  -8.209  1.00  0.00     0.059 A 
ATOM     64  C   UNL     1       4.848  -6.888  -7.309  1.00  0.00     0.059 A 
ATOM     65  F   UNL     1       6.140  -6.583  -5.377  1.00  0.00    -0.206 F 
ATOM     66  C   UNL     1       3.966  -6.366  -8.253  1.00  0.00     0.060 A 
BRANCH  66  67
ATOM     67  S   UNL     1       3.312  -7.423  -9.562  1.00  0.00     0.124 S 
ATOM     68  O   UNL     1       1.942  -7.638  -9.105  1.00  0.00    -0.237 OA
ATOM     69  O   UNL     1       3.461  -6.585 -10.747  1.00  0.00    -0.237 OA
ATOM     70  O   UNL     1       4.179  -8.597  -9.516  1.00  0.00    -0.744 OA
ENDBRANCH  66  67
ENDBRANCH  45  59
BRANCH  46  71
ATOM     71  C   UNL     1       8.008   1.121   1.286  1.00  0.00     0.058 A 
ATOM     72  C   UNL     1       8.341   2.463   1.049  1.00  0.00     0.135 A 
ATOM     73  C   UNL     1       8.165   0.632   2.593  1.00  0.00     0.135 A 
ATOM     74  F   UNL     1       8.226   2.975  -0.185  1.00  0.00    -0.206 F 
ATOM     75  C   UNL     1       8.832   3.283   2.062  1.00  0.00     0.059 A 
ATOM     76  C   UNL     1       8.626   1.439   3.628  1.00  0.00     0.059 A 
ATOM     77  F   UNL     1       7.861  -0.644   2.877  1.00  0.00    -0.206 F 
ATOM     78  C   UNL     1       8.973   2.760   3.349  1.00  0.00     0.060 A 
BRANCH  78  79
ATOM     79  S   UNL     1       9.589   3.829   4.668  1.00  0.00     0.124 S 
ATOM     80  O   UNL     1      11.021   3.841   4.389  1.00  0.00    -0.237 OA
ATOM     81  O   UNL     1       8.878   5.078   4.414  1.00  0.00    -0.237 OA
ATOM     82  O   UNL     1       9.187   3.124   5.882  1.00  0.00    -0.744 OA
ENDBRANCH  78  79
ENDBRANCH  46  71
BRANCH  58  83
ATOM     83  C   UNL     1      11.139  -1.530  -4.360  1.00  0.00     0.058 A 
ATOM     84  C   UNL     1      12.195  -2.247  -3.777  1.00  0.00     0.135 A 
ATOM     85  C   UNL     1      11.412  -0.777  -5.513  1.00  0.00     0.135 A 
ATOM     86  F   UNL     1      11.986  -2.977  -2.670  1.00  0.00    -0.206 F 
ATOM     87  C   UNL     1      13.478  -2.214  -4.314  1.00  0.00     0.059 A 
ATOM     88  C   UNL     1      12.682  -0.748  -6.080  1.00  0.00     0.059 A 
ATOM     89  F   UNL     1      10.434  -0.082  -6.114  1.00  0.00    -0.206 F 
ATOM     90  C   UNL     1      13.711  -1.465  -5.470  1.00  0.00     0.060 A 
BRANCH  90  91
ATOM     91  S   UNL     1      15.365  -1.480  -6.194  1.00  0.00     0.124 S 
ATOM     92  O   UNL     1      16.092  -0.599  -5.285  1.00  0.00    -0.237 OA
ATOM     93  O   UNL     1      15.724  -2.893  -6.129  1.00  0.00    -0.237 OA
ATOM     94  O   UNL     1      15.151  -0.956  -7.540  1.00  0.00    -0.744 OA
ENDBRANCH  90  91
ENDBRANCH  58  83
ENDBRANCH  32  33
ENDBRANCH  25  27
ENDBRANCH  24  25
ENDBRANCH  23  24
ENDBRANCH   1  23
TORSDOF 19
