REMARK SMILES COc1ccc([C@H]2CC(c3ccc(S(C)(=O)=O)cc3)=NN2c2ccc(C(=O)OCCOC(=O)c3ccc(-c4c5nc(c(-c6c(F)cc(S(=O)(=O)[O-])cc6F)c6ccc([nH]6)c(-c6c(F)cc(S(=O)(=O)[O-])cc6F)c6nc(c(-c7c(F)cc(S(=O)(=O)[O-])cc7F)c7ccc4[nH]7)C=C6)C=C5)cc3)cc2)cc1OC
REMARK SMILES IDX 29 1 28 2 26 3 27 4 25 5 22 6 23 7 101 8 24 9 100 10 21 11
REMARK SMILES IDX 7 12 8 13 9 14 20 15 6 16 3 17 4 18 103 19 5 20 102 21 2 22
REMARK SMILES IDX 1 23 104 24 105 25 10 26 11 27 19 28 12 29 18 30 13 31 14 32
REMARK SMILES IDX 15 33 16 34 17 35 30 36 31 37 32 38 33 39 34 40 35 41 99 42
REMARK SMILES IDX 36 43 98 44 37 45 38 46 39 47 92 48 40 49 97 50 91 51 93 52
REMARK SMILES IDX 41 53 96 54 90 55 89 56 42 58 76 59 55 60 75 61 56 62 59 63
REMARK SMILES IDX 74 64 94 65 57 66 58 67 73 69 95 70 60 71 43 72 44 73 53 74
REMARK SMILES IDX 45 75 46 76 52 77 54 78 47 79 48 80 49 81 50 82 51 83 77 84
REMARK SMILES IDX 78 85 87 86 79 87 80 88 86 89 88 90 81 91 82 92 83 93 84 94
REMARK SMILES IDX 85 95 61 96 62 97 71 98 63 99 64 100 70 101 72 102 65 103
REMARK SMILES IDX 66 104 67 105 68 106 69 107
REMARK H PARENT 93 57 59 68
REMARK Flexibility Score: inf
ROOT
ATOM      1  C   UNL     1       1.605 -10.762  -3.546  1.00  0.00     0.275 C 
ENDROOT
BRANCH   1   2
ATOM      2  O   UNL     1       1.664  -9.525  -4.286  1.00  0.00    -0.458 OA
BRANCH   2   3
ATOM      3  C   UNL     1       2.092  -8.453  -3.576  1.00  0.00     0.338 C 
ATOM      4  O   UNL     1       2.415  -8.445  -2.397  1.00  0.00    -0.246 OA
BRANCH   3   5
ATOM      5  C   UNL     1       2.189  -7.250  -4.429  1.00  0.00     0.060 A 
ATOM      6  C   UNL     1       2.379  -4.809  -5.823  1.00  0.00     0.060 A 
ATOM      7  C   UNL     1       3.458  -5.297  -5.084  1.00  0.00     0.029 A 
ATOM      8  C   UNL     1       1.210  -5.583  -5.881  1.00  0.00     0.029 A 
ATOM      9  C   UNL     1       3.350  -6.479  -4.362  1.00  0.00     0.018 A 
ATOM     10  C   UNL     1       1.118  -6.813  -5.209  1.00  0.00     0.018 A 
BRANCH   6  11
ATOM     11  N   UNL     1       2.481  -3.571  -6.445  1.00  0.00    -0.257 N 
ATOM     12  C   UNL     1       1.624  -2.430  -6.120  1.00  0.00     0.144 C 
ATOM     13  C   UNL     1       2.338  -1.263  -6.819  1.00  0.00     0.091 C 
ATOM     14  C   UNL     1       3.582  -1.956  -7.298  1.00  0.00     0.071 C 
ATOM     15  N   UNL     1       3.637  -3.231  -7.082  1.00  0.00    -0.176 NA
BRANCH  12  16
ATOM     16  C   UNL     1       1.450  -2.185  -4.625  1.00  0.00    -0.019 A 
ATOM     17  C   UNL     1       1.084  -1.638  -1.878  1.00  0.00     0.160 A 
ATOM     18  C   UNL     1      -0.002  -2.010  -2.681  1.00  0.00     0.051 A 
ATOM     19  C   UNL     1       2.369  -1.578  -2.424  1.00  0.00     0.161 A 
ATOM     20  C   UNL     1       0.177  -2.271  -4.043  1.00  0.00     0.010 A 
ATOM     21  C   UNL     1       2.536  -1.863  -3.790  1.00  0.00     0.056 A 
BRANCH  17  22
ATOM     22  O   UNL     1       0.858  -1.438  -0.542  1.00  0.00    -0.493 OA
ATOM     23  C   UNL     1       0.150  -0.222  -0.300  1.00  0.00     0.278 C 
ENDBRANCH  17  22
BRANCH  19  24
ATOM     24  O   UNL     1       3.548  -1.268  -1.802  1.00  0.00    -0.493 OA
ATOM     25  C   UNL     1       3.510  -0.745  -0.483  1.00  0.00     0.278 C 
ENDBRANCH  19  24
ENDBRANCH  12  16
BRANCH  14  26
ATOM     26  C   UNL     1       4.612  -1.228  -8.051  1.00  0.00    -0.002 A 
ATOM     27  C   UNL     1       4.991  -1.724  -9.303  1.00  0.00     0.011 A 
ATOM     28  C   UNL     1       5.163  -0.044  -7.554  1.00  0.00     0.011 A 
ATOM     29  C   UNL     1       5.889  -1.004 -10.091  1.00  0.00     0.021 A 
ATOM     30  C   UNL     1       6.083   0.666  -8.330  1.00  0.00     0.021 A 
ATOM     31  C   UNL     1       6.429   0.190  -9.600  1.00  0.00     0.067 A 
BRANCH  31  32
ATOM     32  S   UNL     1       7.493   1.151 -10.654  1.00  0.00     0.175 S 
ATOM     33  C   UNL     1       8.929   0.137 -10.887  1.00  0.00     0.163 C 
ATOM     34  O   UNL     1       6.806   1.277 -11.926  1.00  0.00    -0.224 OA
ATOM     35  O   UNL     1       7.892   2.333  -9.914  1.00  0.00    -0.224 OA
ENDBRANCH  31  32
ENDBRANCH  14  26
ENDBRANCH   6  11
ENDBRANCH   3   5
ENDBRANCH   2   3
ENDBRANCH   1   2
BRANCH   1  36
ATOM     36  C   UNL     1       2.839 -11.631  -3.789  1.00  0.00     0.275 C 
BRANCH  36  37
ATOM     37  O   UNL     1       4.016 -11.000  -3.252  1.00  0.00    -0.458 OA
BRANCH  37  38
ATOM     38  C   UNL     1       4.963 -10.672  -4.160  1.00  0.00     0.338 C 
ATOM     39  O   UNL     1       4.944 -10.892  -5.359  1.00  0.00    -0.246 OA
BRANCH  38  40
ATOM     40  C   UNL     1       6.077  -9.960  -3.509  1.00  0.00     0.060 A 
ATOM     41  C   UNL     1       5.842  -8.721  -2.927  1.00  0.00     0.016 A 
ATOM     42  C   UNL     1       7.382 -10.427  -3.642  1.00  0.00     0.016 A 
ATOM     43  C   UNL     1       6.909  -7.873  -2.633  1.00  0.00     0.010 A 
ATOM     44  C   UNL     1       8.449  -9.632  -3.205  1.00  0.00     0.010 A 
ATOM     45  C   UNL     1       8.234  -8.318  -2.750  1.00  0.00    -0.014 A 
BRANCH  45  46
ATOM     46  C   UNL     1       9.383  -7.411  -2.434  1.00  0.00     0.031 A 
ATOM     47  C   UNL     1      10.487  -7.196  -3.446  1.00  0.00     0.074 A 
ATOM     48  C   UNL     1       9.448  -6.767  -1.248  1.00  0.00     0.049 A 
ATOM     49  N   UNL     1      11.659  -6.631  -3.288  1.00  0.00    -0.248 NA
ATOM     50  C   UNL     1      10.252  -7.699  -4.809  1.00  0.00     0.031 C 
ATOM     51  C   UNL     1       8.444  -6.836  -0.184  1.00  0.00     0.029 A 
ATOM     52  N   UNL     1      10.404  -5.920  -0.736  1.00  0.00    -0.354 N 
ATOM     53  C   UNL     1      12.321  -6.771  -4.504  1.00  0.00     0.074 A 
ATOM     54  C   UNL     1      11.422  -7.477  -5.391  1.00  0.00     0.031 C 
ATOM     55  C   UNL     1       8.808  -6.033   0.825  1.00  0.00     0.029 A 
ATOM     56  C   UNL     1      10.122  -5.473   0.535  1.00  0.00     0.049 A 
ATOM     57  H   UNL     1      11.213  -5.659  -1.232  1.00  0.00     0.167 HD
ATOM     58  C   UNL     1      13.562  -6.349  -4.850  1.00  0.00     0.037 A 
ATOM     59  C   UNL     1      10.851  -4.740   1.398  1.00  0.00     0.037 A 
ATOM     60  C   UNL     1      14.425  -5.582  -3.987  1.00  0.00     0.049 A 
ATOM     61  C   UNL     1      12.231  -4.298   1.001  1.00  0.00     0.074 A 
ATOM     62  C   UNL     1      15.696  -5.097  -4.249  1.00  0.00     0.029 A 
ATOM     63  N   UNL     1      14.099  -5.166  -2.704  1.00  0.00    -0.354 N 
ATOM     64  N   UNL     1      12.868  -4.502  -0.127  1.00  0.00    -0.248 NA
ATOM     65  C   UNL     1      13.000  -3.544   2.000  1.00  0.00     0.031 C 
ATOM     66  C   UNL     1      16.148  -4.413  -3.116  1.00  0.00     0.029 A 
ATOM     67  C   UNL     1      15.144  -4.435  -2.163  1.00  0.00     0.049 A 
ATOM     68  H   UNL     1      13.249  -5.361  -2.247  1.00  0.00     0.167 HD
ATOM     69  C   UNL     1      14.107  -3.890   0.022  1.00  0.00     0.074 A 
ATOM     70  C   UNL     1      14.123  -3.292   1.341  1.00  0.00     0.031 C 
ATOM     71  C   UNL     1      15.140  -3.834  -0.853  1.00  0.00     0.037 A 
BRANCH  58  72
ATOM     72  C   UNL     1      14.084  -6.723  -6.212  1.00  0.00     0.058 A 
ATOM     73  C   UNL     1      13.611  -6.116  -7.385  1.00  0.00     0.135 A 
ATOM     74  C   UNL     1      15.117  -7.668  -6.338  1.00  0.00     0.135 A 
ATOM     75  F   UNL     1      12.617  -5.216  -7.328  1.00  0.00    -0.206 F 
ATOM     76  C   UNL     1      14.127  -6.447  -8.636  1.00  0.00     0.059 A 
ATOM     77  C   UNL     1      15.666  -7.995  -7.575  1.00  0.00     0.059 A 
ATOM     78  F   UNL     1      15.610  -8.278  -5.249  1.00  0.00    -0.206 F 
ATOM     79  C   UNL     1      15.156  -7.388  -8.720  1.00  0.00     0.060 A 
BRANCH  79  80
ATOM     80  S   UNL     1      15.828  -7.793 -10.347  1.00  0.00     0.124 S 
ATOM     81  O   UNL     1      14.758  -8.611 -10.908  1.00  0.00    -0.237 OA
ATOM     82  O   UNL     1      15.999  -6.475 -10.952  1.00  0.00    -0.237 OA
ATOM     83  O   UNL     1      17.065  -8.502 -10.038  1.00  0.00    -0.744 OA
ENDBRANCH  79  80
ENDBRANCH  58  72
BRANCH  59  84
ATOM     84  C   UNL     1      10.309  -4.424   2.748  1.00  0.00     0.058 A 
ATOM     85  C   UNL     1       9.967  -3.111   3.102  1.00  0.00     0.135 A 
ATOM     86  C   UNL     1      10.114  -5.430   3.708  1.00  0.00     0.135 A 
ATOM     87  F   UNL     1      10.147  -2.111   2.225  1.00  0.00    -0.206 F 
ATOM     88  C   UNL     1       9.463  -2.803   4.362  1.00  0.00     0.059 A 
ATOM     89  C   UNL     1       9.582  -5.152   4.963  1.00  0.00     0.059 A 
ATOM     90  F   UNL     1      10.414  -6.706   3.417  1.00  0.00    -0.206 F 
ATOM     91  C   UNL     1       9.272  -3.833   5.285  1.00  0.00     0.060 A 
BRANCH  91  92
ATOM     92  S   UNL     1       8.575  -3.434   6.903  1.00  0.00     0.124 S 
ATOM     93  O   UNL     1       9.725  -2.843   7.578  1.00  0.00    -0.237 OA
ATOM     94  O   UNL     1       7.496  -2.514   6.558  1.00  0.00    -0.237 OA
ATOM     95  O   UNL     1       8.143  -4.732   7.410  1.00  0.00    -0.744 OA
ENDBRANCH  91  92
ENDBRANCH  59  84
BRANCH  71  96
ATOM     96  C   UNL     1      16.358  -3.064  -0.429  1.00  0.00     0.058 A 
ATOM     97  C   UNL     1      17.260  -3.574   0.517  1.00  0.00     0.135 A 
ATOM     98  C   UNL     1      16.644  -1.816  -1.005  1.00  0.00     0.135 A 
ATOM     99  F   UNL     1      17.027  -4.759   1.103  1.00  0.00    -0.206 F 
ATOM    100  C   UNL     1      18.393  -2.861   0.896  1.00  0.00     0.059 A 
ATOM    101  C   UNL     1      17.783  -1.097  -0.658  1.00  0.00     0.059 A 
ATOM    102  F   UNL     1      15.816  -1.288  -1.921  1.00  0.00    -0.206 F 
ATOM    103  C   UNL     1      18.646  -1.623   0.303  1.00  0.00     0.060 A 
BRANCH 103 104
ATOM    104  S   UNL     1      20.133  -0.719   0.782  1.00  0.00     0.124 S 
ATOM    105  O   UNL     1      19.754  -0.202   2.092  1.00  0.00    -0.237 OA
ATOM    106  O   UNL     1      21.150  -1.766   0.783  1.00  0.00    -0.237 OA
ATOM    107  O   UNL     1      20.276   0.282  -0.272  1.00  0.00    -0.744 OA
ENDBRANCH 103 104
ENDBRANCH  71  96
ENDBRANCH  45  46
ENDBRANCH  38  40
ENDBRANCH  37  38
ENDBRANCH  36  37
ENDBRANCH   1  36
TORSDOF 20
