REMARK SMILES Cc1ccc(CN2/C(=[NH+]/C(=O)CCC(=O)OCCOC(=O)c3ccc(-c4c5nc(c(-c6c(F)cc(S(=O)(=O)[O-])cc6F)c6ccc([nH]6)c(-c6c(F)cc(S(=O)(=O)[O-])cc6F)c6nc(c(-c7c(F)cc(S(=O)(=O)[O-])cc7F)c7ccc4[nH]7)C=C6)C=C5)cc3)S[C@H]3CS(=O)(=O)C[C@@H]32)cc1
REMARK SMILES IDX 17 1 16 2 14 3 15 4 13 5 12 6 10 7 7 8 8 9 95 10 9 11 88 12
REMARK SMILES IDX 89 13 94 14 90 16 91 17 11 18 92 19 93 20 6 21 5 22 1 23
REMARK SMILES IDX 2 24 3 25 97 26 4 27 96 28 18 29 19 30 20 31 21 32 22 33
REMARK SMILES IDX 23 34 87 35 24 36 86 37 25 38 26 39 27 40 80 41 28 42 85 43
REMARK SMILES IDX 79 44 81 45 29 46 84 47 78 48 77 49 30 51 64 52 43 53 63 54
REMARK SMILES IDX 44 55 47 56 62 57 82 58 45 59 46 60 61 62 83 63 48 64 31 65
REMARK SMILES IDX 32 66 41 67 33 68 34 69 40 70 42 71 35 72 36 73 37 74 38 75
REMARK SMILES IDX 39 76 65 77 66 78 75 79 67 80 68 81 74 82 76 83 69 84 70 85
REMARK SMILES IDX 71 86 72 87 73 88 49 89 50 90 59 91 51 92 52 93 58 94 60 95
REMARK SMILES IDX 53 96 54 97 55 98 56 99 57 100
REMARK H PARENT 9 15 81 50 47 61
REMARK Flexibility Score: inf
ROOT
ATOM      1  C   UNL     1      -2.338  -3.510   0.318  1.00  0.00     0.274 C 
ENDROOT
BRANCH   1   2
ATOM      2  O   UNL     1      -2.573  -4.470  -0.687  1.00  0.00    -0.462 OA
BRANCH   2   3
ATOM      3  C   UNL     1      -2.156  -4.272  -1.958  1.00  0.00     0.306 C 
ATOM      4  O   UNL     1      -1.406  -3.432  -2.368  1.00  0.00    -0.252 OA
BRANCH   3   5
ATOM      5  C   UNL     1      -2.915  -5.261  -2.795  1.00  0.00     0.135 C 
BRANCH   5   6
ATOM      6  C   UNL     1      -4.324  -5.401  -2.214  1.00  0.00     0.139 C 
BRANCH   6   7
ATOM      7  C   UNL     1      -5.139  -4.103  -2.237  1.00  0.00     0.308 C 
ATOM      8  N   UNL     1      -4.204  -0.594  -1.746  1.00  0.00    -0.247 N 
ATOM      9  C   UNL     1      -4.386  -1.923  -2.186  1.00  0.00     0.314 C 
ATOM     10  C   UNL     1      -4.954   0.242  -2.683  1.00  0.00     0.206 C 
ATOM     11  N   UNL     1      -4.687  -2.993  -1.525  1.00  0.00    -0.205 N 
ATOM     12  S   UNL     1      -4.343  -1.928  -3.993  1.00  0.00    -0.030 SA
ATOM     13  C   UNL     1      -4.428  -0.138  -4.069  1.00  0.00     0.120 C 
ATOM     14  C   UNL     1      -4.933   1.743  -2.704  1.00  0.00     0.187 C 
ATOM     15  H   UNL     1      -4.600  -3.022  -0.545  1.00  0.00     0.316 HD
ATOM     16  C   UNL     1      -5.412   0.477  -5.036  1.00  0.00     0.156 C 
ATOM     17  S   UNL     1      -5.750   2.073  -4.271  1.00  0.00     0.155 S 
ATOM     18  O   UNL     1      -6.239  -4.113  -2.793  1.00  0.00    -0.247 OA
ATOM     19  O   UNL     1      -5.013   3.108  -4.960  1.00  0.00    -0.229 OA
ATOM     20  O   UNL     1      -7.173   2.176  -4.018  1.00  0.00    -0.229 OA
BRANCH   8  21
ATOM     21  C   UNL     1      -3.958  -0.115  -0.376  1.00  0.00     0.273 C 
BRANCH  21  22
ATOM     22  C   UNL     1      -2.565   0.495  -0.179  1.00  0.00    -0.007 A 
ATOM     23  C   UNL     1       1.547   1.871  -0.170  1.00  0.00     0.044 C 
ATOM     24  C   UNL     1       0.111   1.473  -0.033  1.00  0.00    -0.051 A 
ATOM     25  C   UNL     1      -0.280   0.348   0.691  1.00  0.00     0.004 A 
ATOM     26  C   UNL     1      -0.867   2.185  -0.714  1.00  0.00     0.004 A 
ATOM     27  C   UNL     1      -1.601  -0.125   0.627  1.00  0.00     0.008 A 
ATOM     28  C   UNL     1      -2.187   1.721  -0.746  1.00  0.00     0.008 A 
ENDBRANCH  21  22
ENDBRANCH   8  21
ENDBRANCH   6   7
ENDBRANCH   5   6
ENDBRANCH   3   5
ENDBRANCH   2   3
ENDBRANCH   1   2
BRANCH   1  29
ATOM     29  C   UNL     1      -2.218  -4.289   1.618  1.00  0.00     0.275 C 
BRANCH  29  30
ATOM     30  O   UNL     1      -1.817  -5.702   1.468  1.00  0.00    -0.458 OA
BRANCH  30  31
ATOM     31  C   UNL     1      -0.797  -6.315   0.790  1.00  0.00     0.338 C 
ATOM     32  O   UNL     1      -0.838  -7.513   0.523  1.00  0.00    -0.246 OA
BRANCH  31  33
ATOM     33  C   UNL     1       0.284  -5.493   0.201  1.00  0.00     0.060 A 
ATOM     34  C   UNL     1       1.013  -5.865  -0.946  1.00  0.00     0.016 A 
ATOM     35  C   UNL     1       0.448  -4.234   0.699  1.00  0.00     0.016 A 
ATOM     36  C   UNL     1       1.754  -4.894  -1.644  1.00  0.00     0.010 A 
ATOM     37  C   UNL     1       0.793  -3.269  -0.186  1.00  0.00     0.010 A 
ATOM     38  C   UNL     1       1.580  -3.560  -1.280  1.00  0.00    -0.014 A 
BRANCH  38  39
ATOM     39  C   UNL     1       2.225  -2.353  -1.812  1.00  0.00     0.031 A 
ATOM     40  C   UNL     1       2.078  -2.081  -3.248  1.00  0.00     0.074 A 
ATOM     41  C   UNL     1       2.827  -1.573  -0.872  1.00  0.00     0.049 A 
ATOM     42  N   UNL     1       2.950  -2.245  -4.186  1.00  0.00    -0.248 NA
ATOM     43  C   UNL     1       0.764  -1.674  -3.761  1.00  0.00     0.031 C 
ATOM     44  C   UNL     1       3.675  -0.405  -0.932  1.00  0.00     0.029 A 
ATOM     45  N   UNL     1       2.875  -1.878   0.499  1.00  0.00    -0.354 N 
ATOM     46  C   UNL     1       2.449  -1.504  -5.252  1.00  0.00     0.074 A 
ATOM     47  C   UNL     1       1.017  -1.489  -5.061  1.00  0.00     0.031 C 
ATOM     48  C   UNL     1       4.447  -0.373   0.181  1.00  0.00     0.029 A 
ATOM     49  C   UNL     1       4.093  -1.510   1.026  1.00  0.00     0.049 A 
ATOM     50  H   UNL     1       2.143  -2.295   1.009  1.00  0.00     0.167 HD
ATOM     51  C   UNL     1       3.187  -0.476  -5.787  1.00  0.00     0.037 A 
ATOM     52  C   UNL     1       4.848  -2.572   1.427  1.00  0.00     0.037 A 
ATOM     53  C   UNL     1       4.320  -0.177  -4.896  1.00  0.00     0.049 A 
ATOM     54  C   UNL     1       5.845  -2.786   0.307  1.00  0.00     0.074 A 
ATOM     55  C   UNL     1       4.616   0.905  -4.084  1.00  0.00     0.029 A 
ATOM     56  N   UNL     1       5.178  -1.199  -4.493  1.00  0.00    -0.354 N 
ATOM     57  N   UNL     1       5.595  -2.575  -0.968  1.00  0.00    -0.248 NA
ATOM     58  C   UNL     1       7.272  -2.877   0.595  1.00  0.00     0.031 C 
ATOM     59  C   UNL     1       5.642   0.509  -3.179  1.00  0.00     0.029 A 
ATOM     60  C   UNL     1       5.900  -0.843  -3.370  1.00  0.00     0.049 A 
ATOM     61  H   UNL     1       5.260  -2.067  -4.952  1.00  0.00     0.167 HD
ATOM     62  C   UNL     1       6.780  -2.302  -1.612  1.00  0.00     0.074 A 
ATOM     63  C   UNL     1       7.797  -2.554  -0.598  1.00  0.00     0.031 C 
ATOM     64  C   UNL     1       6.929  -1.733  -2.852  1.00  0.00     0.037 A 
BRANCH  51  65
ATOM     65  C   UNL     1       2.712   0.472  -6.894  1.00  0.00     0.058 A 
ATOM     66  C   UNL     1       3.381   1.690  -7.162  1.00  0.00     0.135 A 
ATOM     67  C   UNL     1       1.667   0.182  -7.805  1.00  0.00     0.135 A 
ATOM     68  F   UNL     1       4.447   2.077  -6.449  1.00  0.00    -0.206 F 
ATOM     69  C   UNL     1       3.022   2.562  -8.196  1.00  0.00     0.059 A 
ATOM     70  C   UNL     1       1.270   1.054  -8.835  1.00  0.00     0.059 A 
ATOM     71  F   UNL     1       1.019  -0.992  -7.769  1.00  0.00    -0.206 F 
ATOM     72  C   UNL     1       1.962   2.241  -9.030  1.00  0.00     0.060 A 
BRANCH  72  73
ATOM     73  S   UNL     1       1.569   3.354 -10.397  1.00  0.00     0.124 S 
ATOM     74  O   UNL     1       1.262   4.599  -9.699  1.00  0.00    -0.237 OA
ATOM     75  O   UNL     1       2.810   3.348 -11.164  1.00  0.00    -0.237 OA
ATOM     76  O   UNL     1       0.431   2.710 -11.046  1.00  0.00    -0.744 OA
ENDBRANCH  72  73
ENDBRANCH  51  65
BRANCH  52  77
ATOM     77  C   UNL     1       4.050  -3.506   2.334  1.00  0.00     0.058 A 
ATOM     78  C   UNL     1       3.435  -2.877   3.456  1.00  0.00     0.135 A 
ATOM     79  C   UNL     1       3.603  -4.814   2.079  1.00  0.00     0.135 A 
ATOM     80  F   UNL     1       3.803  -1.632   3.804  1.00  0.00    -0.206 F 
ATOM     81  C   UNL     1       2.366  -3.421   4.170  1.00  0.00     0.059 A 
ATOM     82  C   UNL     1       2.547  -5.410   2.827  1.00  0.00     0.059 A 
ATOM     83  F   UNL     1       4.111  -5.517   1.058  1.00  0.00    -0.206 F 
ATOM     84  C   UNL     1       1.903  -4.683   3.836  1.00  0.00     0.060 A 
BRANCH  84  85
ATOM     85  S   UNL     1       0.340  -5.214   4.604  1.00  0.00     0.124 S 
ATOM     86  O   UNL     1       0.751  -5.531   5.965  1.00  0.00    -0.237 OA
ATOM     87  O   UNL     1      -0.484  -4.014   4.459  1.00  0.00    -0.237 OA
ATOM     88  O   UNL     1      -0.068  -6.342   3.780  1.00  0.00    -0.744 OA
ENDBRANCH  84  85
ENDBRANCH  52  77
BRANCH  64  89
ATOM     89  C   UNL     1       8.166  -1.897  -3.710  1.00  0.00     0.058 A 
ATOM     90  C   UNL     1       9.092  -2.933  -3.523  1.00  0.00     0.135 A 
ATOM     91  C   UNL     1       8.339  -1.132  -4.896  1.00  0.00     0.135 A 
ATOM     92  F   UNL     1       8.981  -3.811  -2.516  1.00  0.00    -0.206 F 
ATOM     93  C   UNL     1      10.153  -3.146  -4.394  1.00  0.00     0.059 A 
ATOM     94  C   UNL     1       9.336  -1.387  -5.824  1.00  0.00     0.059 A 
ATOM     95  F   UNL     1       7.527  -0.116  -5.224  1.00  0.00    -0.206 F 
ATOM     96  C   UNL     1      10.261  -2.374  -5.545  1.00  0.00     0.060 A 
BRANCH  96  97
ATOM     97  S   UNL     1      11.603  -2.698  -6.689  1.00  0.00     0.124 S 
ATOM     98  O   UNL     1      12.701  -1.987  -6.043  1.00  0.00    -0.237 OA
ATOM     99  O   UNL     1      11.691  -4.155  -6.665  1.00  0.00    -0.237 OA
ATOM    100  O   UNL     1      11.127  -2.124  -7.943  1.00  0.00    -0.744 OA
ENDBRANCH  96  97
ENDBRANCH  64  89
ENDBRANCH  38  39
ENDBRANCH  31  33
ENDBRANCH  30  31
ENDBRANCH  29  30
ENDBRANCH   1  29
TORSDOF 18
