REMARK SMILES CCC(CC)COc1cc2c(cc1Cl)C=C(C(=O)OCCOC(=O)c1ccc(-c3c4nc(c(-c5c(F)cc(S(=O)(=O)[O-])cc5F)c5ccc([nH]5)c(-c5c(F)cc(S(=O)(=O)[O-])cc5F)c5nc(c(-c6c(F)cc(S(=O)(=O)[O-])cc6F)c6ccc3[nH]6)C=C5)C=C4)cc1)[C@@H](C(F)(F)F)O2
REMARK SMILES IDX 20 1 19 2 17 3 18 4 16 5 8 6 9 7 13 8 10 9 12 10 14 11 11 12
REMARK SMILES IDX 96 13 15 14 91 15 7 16 6 17 3 18 2 19 1 20 4 21 5 22 92 23
REMARK SMILES IDX 93 24 94 25 95 26 21 27 22 28 23 29 24 30 25 31 26 32 90 33
REMARK SMILES IDX 27 34 89 35 28 36 29 37 30 38 83 39 31 40 88 41 82 42 84 43
REMARK SMILES IDX 32 44 87 45 81 46 80 47 33 49 67 50 46 51 66 52 47 53 50 54
REMARK SMILES IDX 65 55 85 56 48 57 49 58 64 60 86 61 51 62 34 63 35 64 44 65
REMARK SMILES IDX 36 66 37 67 43 68 45 69 38 70 39 71 40 72 41 73 42 74 68 75
REMARK SMILES IDX 69 76 78 77 70 78 71 79 77 80 79 81 72 82 73 83 74 84 75 85
REMARK SMILES IDX 76 86 52 87 53 88 62 89 54 90 55 91 61 92 63 93 56 94 57 95
REMARK SMILES IDX 58 96 59 97 60 98
REMARK H PARENT 84 48 50 59
REMARK Flexibility Score: inf
ROOT
ATOM      1  C   UNL     1      -0.745   0.085 -10.123  1.00  0.00     0.275 C 
ENDROOT
BRANCH   1   2
ATOM      2  O   UNL     1      -0.675  -0.817  -8.995  1.00  0.00    -0.459 OA
BRANCH   2   3
ATOM      3  C   UNL     1       0.337  -0.545  -8.134  1.00  0.00     0.338 C 
ATOM      4  O   UNL     1       1.129   0.370  -8.246  1.00  0.00    -0.246 OA
BRANCH   3   5
ATOM      5  C   UNL     1       0.366  -1.473  -6.983  1.00  0.00     0.087 C 
ATOM      6  C   UNL     1       1.322  -3.423  -2.462  1.00  0.00     0.141 A 
ATOM      7  C   UNL     1       0.514  -3.854  -3.528  1.00  0.00     0.095 A 
ATOM      8  C   UNL     1       2.164  -2.317  -2.631  1.00  0.00     0.083 A 
ATOM      9  C   UNL     1       0.465  -3.098  -4.706  1.00  0.00     0.131 A 
ATOM     10  C   UNL     1       2.002  -1.496  -3.736  1.00  0.00     0.036 A 
ATOM     11  Cl  UNL     1       3.440  -1.928  -1.540  1.00  0.00    -0.080 Cl
ATOM     12  C   UNL     1       1.139  -1.878  -4.758  1.00  0.00     0.019 A 
ATOM     13  O   UNL     1      -0.268  -3.561  -5.774  1.00  0.00    -0.475 OA
ATOM     14  C   UNL     1       0.958  -0.993  -5.884  1.00  0.00     0.027 C 
ATOM     15  C   UNL     1      -0.013  -2.924  -7.077  1.00  0.00     0.316 C 
BRANCH   6  16
ATOM     16  O   UNL     1       1.335  -4.123  -1.283  1.00  0.00    -0.492 OA
BRANCH  16  17
ATOM     17  C   UNL     1       0.303  -3.700  -0.353  1.00  0.00     0.233 C 
BRANCH  17  18
ATOM     18  C   UNL     1       0.659  -2.411   0.439  1.00  0.00     0.026 C 
BRANCH  18  19
ATOM     19  C   UNL     1       0.033  -1.160  -0.223  1.00  0.00     0.003 C 
ATOM     20  C   UNL     1       0.639   0.151   0.263  1.00  0.00     0.004 C 
ENDBRANCH  18  19
BRANCH  18  21
ATOM     21  C   UNL     1       0.304  -2.513   1.940  1.00  0.00     0.003 C 
ATOM     22  C   UNL     1      -1.179  -2.547   2.269  1.00  0.00     0.004 C 
ENDBRANCH  18  21
ENDBRANCH  17  18
ENDBRANCH  16  17
ENDBRANCH   6  16
BRANCH  15  23
ATOM     23  C   UNL     1       1.085  -3.674  -7.857  1.00  0.00     0.430 C 
ATOM     24  F   UNL     1       0.810  -4.993  -7.978  1.00  0.00    -0.167 F 
ATOM     25  F   UNL     1       1.207  -3.186  -9.118  1.00  0.00    -0.167 F 
ATOM     26  F   UNL     1       2.301  -3.567  -7.273  1.00  0.00    -0.167 F 
ENDBRANCH  15  23
ENDBRANCH   3   5
ENDBRANCH   2   3
ENDBRANCH   1   2
BRANCH   1  27
ATOM     27  C   UNL     1      -1.815   1.170  -9.959  1.00  0.00     0.275 C 
BRANCH  27  28
ATOM     28  O   UNL     1      -1.508   2.089  -8.894  1.00  0.00    -0.458 OA
BRANCH  28  29
ATOM     29  C   UNL     1      -2.151   1.848  -7.729  1.00  0.00     0.338 C 
ATOM     30  O   UNL     1      -2.937   0.940  -7.498  1.00  0.00    -0.246 OA
BRANCH  29  31
ATOM     31  C   UNL     1      -1.665   2.754  -6.679  1.00  0.00     0.060 A 
ATOM     32  C   UNL     1      -2.254   3.986  -6.415  1.00  0.00     0.016 A 
ATOM     33  C   UNL     1      -0.680   2.261  -5.829  1.00  0.00     0.016 A 
ATOM     34  C   UNL     1      -1.814   4.725  -5.307  1.00  0.00     0.010 A 
ATOM     35  C   UNL     1      -0.304   2.954  -4.683  1.00  0.00     0.010 A 
ATOM     36  C   UNL     1      -0.844   4.213  -4.414  1.00  0.00    -0.014 A 
BRANCH  36  37
ATOM     37  C   UNL     1      -0.428   4.983  -3.204  1.00  0.00     0.031 A 
ATOM     38  C   UNL     1       1.016   5.366  -2.969  1.00  0.00     0.074 A 
ATOM     39  C   UNL     1      -1.362   5.338  -2.295  1.00  0.00     0.049 A 
ATOM     40  N   UNL     1       1.517   6.154  -2.049  1.00  0.00    -0.248 NA
ATOM     41  C   UNL     1       2.035   4.765  -3.845  1.00  0.00     0.031 C 
ATOM     42  C   UNL     1      -2.765   4.916  -2.321  1.00  0.00     0.029 A 
ATOM     43  N   UNL     1      -1.287   6.159  -1.196  1.00  0.00    -0.354 N 
ATOM     44  C   UNL     1       2.895   6.142  -2.242  1.00  0.00     0.074 A 
ATOM     45  C   UNL     1       3.163   5.199  -3.301  1.00  0.00     0.031 C 
ATOM     46  C   UNL     1      -3.438   5.561  -1.355  1.00  0.00     0.029 A 
ATOM     47  C   UNL     1      -2.512   6.418  -0.621  1.00  0.00     0.049 A 
ATOM     48  H   UNL     1      -0.441   6.527  -0.853  1.00  0.00     0.167 HD
ATOM     49  C   UNL     1       3.848   6.891  -1.636  1.00  0.00     0.037 A 
ATOM     50  C   UNL     1      -2.859   7.277   0.359  1.00  0.00     0.037 A 
ATOM     51  C   UNL     1       3.569   7.870  -0.621  1.00  0.00     0.049 A 
ATOM     52  C   UNL     1      -1.798   8.140   0.985  1.00  0.00     0.074 A 
ATOM     53  C   UNL     1       4.444   8.753  -0.013  1.00  0.00     0.029 A 
ATOM     54  N   UNL     1       2.318   8.099  -0.068  1.00  0.00    -0.354 N 
ATOM     55  N   UNL     1      -0.521   8.210   0.697  1.00  0.00    -0.248 NA
ATOM     56  C   UNL     1      -2.221   9.039   2.069  1.00  0.00     0.031 C 
ATOM     57  C   UNL     1       3.729   9.489   0.936  1.00  0.00     0.029 A 
ATOM     58  C   UNL     1       2.402   9.091   0.893  1.00  0.00     0.049 A 
ATOM     59  H   UNL     1       1.493   7.625  -0.321  1.00  0.00     0.167 HD
ATOM     60  C   UNL     1       0.013   9.160   1.560  1.00  0.00     0.074 A 
ATOM     61  C   UNL     1      -1.085   9.658   2.364  1.00  0.00     0.031 C 
ATOM     62  C   UNL     1       1.297   9.573   1.683  1.00  0.00     0.037 A 
BRANCH  49  63
ATOM     63  C   UNL     1       5.273   6.730  -2.096  1.00  0.00     0.058 A 
ATOM     64  C   UNL     1       5.681   7.174  -3.366  1.00  0.00     0.135 A 
ATOM     65  C   UNL     1       6.253   6.186  -1.250  1.00  0.00     0.135 A 
ATOM     66  F   UNL     1       4.785   7.694  -4.220  1.00  0.00    -0.206 F 
ATOM     67  C   UNL     1       6.999   7.058  -3.791  1.00  0.00     0.059 A 
ATOM     68  C   UNL     1       7.586   6.086  -1.645  1.00  0.00     0.059 A 
ATOM     69  F   UNL     1       5.923   5.752  -0.024  1.00  0.00    -0.206 F 
ATOM     70  C   UNL     1       7.947   6.514  -2.922  1.00  0.00     0.060 A 
BRANCH  70  71
ATOM     71  S   UNL     1       9.656   6.390  -3.491  1.00  0.00     0.124 S 
ATOM     72  O   UNL     1       9.553   5.335  -4.495  1.00  0.00    -0.237 OA
ATOM     73  O   UNL     1       9.909   7.731  -4.007  1.00  0.00    -0.237 OA
ATOM     74  O   UNL     1      10.393   6.036  -2.283  1.00  0.00    -0.744 OA
ENDBRANCH  70  71
ENDBRANCH  49  63
BRANCH  50  75
ATOM     75  C   UNL     1      -4.289   7.413   0.749  1.00  0.00     0.058 A 
ATOM     76  C   UNL     1      -5.019   8.563   0.410  1.00  0.00     0.135 A 
ATOM     77  C   UNL     1      -4.967   6.387   1.425  1.00  0.00     0.135 A 
ATOM     78  F   UNL     1      -4.417   9.575  -0.233  1.00  0.00    -0.206 F 
ATOM     79  C   UNL     1      -6.368   8.692   0.729  1.00  0.00     0.059 A 
ATOM     80  C   UNL     1      -6.321   6.483   1.734  1.00  0.00     0.059 A 
ATOM     81  F   UNL     1      -4.319   5.260   1.757  1.00  0.00    -0.206 F 
ATOM     82  C   UNL     1      -7.012   7.643   1.386  1.00  0.00     0.060 A 
BRANCH  82  83
ATOM     83  S   UNL     1      -8.777   7.796   1.736  1.00  0.00     0.124 S 
ATOM     84  O   UNL     1      -8.783   8.810   2.784  1.00  0.00    -0.237 OA
ATOM     85  O   UNL     1      -9.309   8.212   0.442  1.00  0.00    -0.237 OA
ATOM     86  O   UNL     1      -9.155   6.450   2.157  1.00  0.00    -0.744 OA
ENDBRANCH  82  83
ENDBRANCH  50  75
BRANCH  62  87
ATOM     87  C   UNL     1       1.609  10.596   2.737  1.00  0.00     0.058 A 
ATOM     88  C   UNL     1       1.685  10.235   4.090  1.00  0.00     0.135 A 
ATOM     89  C   UNL     1       1.965  11.907   2.381  1.00  0.00     0.135 A 
ATOM     90  F   UNL     1       1.347   8.996   4.479  1.00  0.00    -0.206 F 
ATOM     91  C   UNL     1       2.116  11.137   5.056  1.00  0.00     0.059 A 
ATOM     92  C   UNL     1       2.420  12.819   3.328  1.00  0.00     0.059 A 
ATOM     93  F   UNL     1       1.917  12.296   1.097  1.00  0.00    -0.206 F 
ATOM     94  C   UNL     1       2.496  12.422   4.663  1.00  0.00     0.060 A 
BRANCH  94  95
ATOM     95  S   UNL     1       3.143  13.547   5.918  1.00  0.00     0.124 S 
ATOM     96  O   UNL     1       1.946  13.837   6.700  1.00  0.00    -0.237 OA
ATOM     97  O   UNL     1       4.149  12.723   6.581  1.00  0.00    -0.237 OA
ATOM     98  O   UNL     1       3.668  14.663   5.138  1.00  0.00    -0.744 OA
ENDBRANCH  94  95
ENDBRANCH  62  87
ENDBRANCH  36  37
ENDBRANCH  29  31
ENDBRANCH  28  29
ENDBRANCH  27  28
ENDBRANCH   1  27
TORSDOF 20
