REMARK SMILES COc1cc2c(CC(=O)OCCOC(=O)c3ccc(-c4c5nc(c(-c6c(F)cc(S(=O)(=O)[O-])cc6F)c6ccc([nH]6)c(-c6c(F)cc(S(=O)(=O)[O-])cc6F)c6nc(c(-c7c(F)cc(S(=O)(=O)[O-])cc7F)c7ccc4[nH]7)C=C6)C=C5)cc3)c(C)n(C(=O)c3ccc(Cl)cc3)c2cc1Cl
REMARK SMILES IDX 11 1 10 2 8 3 9 4 7 5 6 6 3 7 4 8 96 9 5 10 95 11 97 12
REMARK SMILES IDX 94 13 82 14 84 15 83 16 2 17 1 18 85 19 86 20 87 21 88 22
REMARK SMILES IDX 93 23 89 24 92 25 90 26 91 27 12 28 13 29 14 30 15 31 16 32
REMARK SMILES IDX 17 33 81 34 18 35 80 36 19 37 20 38 21 39 74 40 22 41 79 42
REMARK SMILES IDX 73 43 75 44 23 45 78 46 72 47 71 48 24 50 58 51 37 52 57 53
REMARK SMILES IDX 38 54 41 55 56 56 76 57 39 58 40 59 55 61 77 62 42 63 25 64
REMARK SMILES IDX 26 65 35 66 27 67 28 68 34 69 36 70 29 71 30 72 31 73 32 74
REMARK SMILES IDX 33 75 59 76 60 77 69 78 61 79 62 80 68 81 70 82 63 83 64 84
REMARK SMILES IDX 65 85 66 86 67 87 43 88 44 89 53 90 45 91 46 92 52 93 54 94
REMARK SMILES IDX 47 95 48 96 49 97 50 98 51 99
REMARK H PARENT 75 49 41 60
REMARK Flexibility Score: inf
ROOT
ATOM      1  C   UNL     1      -1.533   2.483   6.580  1.00  0.00     0.274 C 
ENDROOT
BRANCH   1   2
ATOM      2  O   UNL     1      -1.012   1.139   6.481  1.00  0.00    -0.462 OA
BRANCH   2   3
ATOM      3  C   UNL     1      -1.861   0.161   6.879  1.00  0.00     0.310 C 
ATOM      4  O   UNL     1      -2.991   0.369   7.314  1.00  0.00    -0.252 OA
BRANCH   3   5
ATOM      5  C   UNL     1      -1.315  -1.236   6.804  1.00  0.00     0.160 C 
BRANCH   5   6
ATOM      6  C   UNL     1       0.070  -1.512   6.280  1.00  0.00    -0.008 A 
ATOM      7  C   UNL     1       1.011  -0.581   2.623  1.00  0.00     0.138 A 
ATOM      8  C   UNL     1       0.246  -0.588   3.812  1.00  0.00     0.058 A 
ATOM      9  C   UNL     1       2.229  -1.244   2.625  1.00  0.00     0.085 A 
ATOM     10  C   UNL     1       0.654  -1.255   4.995  1.00  0.00     0.008 A 
ATOM     11  C   UNL     1       2.652  -1.928   3.774  1.00  0.00     0.051 A 
ATOM     12  Cl  UNL     1       3.381  -1.228   1.331  1.00  0.00    -0.080 Cl
ATOM     13  C   UNL     1       1.898  -1.892   4.969  1.00  0.00     0.058 A 
ATOM     14  C   UNL     1       0.976  -2.306   6.977  1.00  0.00     0.028 A 
ATOM     15  N   UNL     1       2.166  -2.371   6.261  1.00  0.00    -0.280 N 
ATOM     16  C   UNL     1       0.732  -2.982   8.293  1.00  0.00     0.065 C 
BRANCH   7  17
ATOM     17  O   UNL     1       0.429   0.142   1.618  1.00  0.00    -0.495 OA
ATOM     18  C   UNL     1       0.772  -0.120   0.264  1.00  0.00     0.278 C 
ENDBRANCH   7  17
BRANCH  15  19
ATOM     19  C   UNL     1       3.422  -2.822   6.751  1.00  0.00     0.262 C 
ATOM     20  O   UNL     1       3.518  -3.237   7.904  1.00  0.00    -0.268 OA
BRANCH  19  21
ATOM     21  C   UNL     1       4.668  -2.797   5.976  1.00  0.00     0.040 A 
ATOM     22  C   UNL     1       5.252  -1.573   5.632  1.00  0.00     0.015 A 
ATOM     23  C   UNL     1       5.197  -4.010   5.526  1.00  0.00     0.015 A 
ATOM     24  C   UNL     1       6.346  -1.565   4.766  1.00  0.00     0.021 A 
ATOM     25  C   UNL     1       6.295  -3.993   4.667  1.00  0.00     0.021 A 
ATOM     26  C   UNL     1       6.854  -2.772   4.280  1.00  0.00     0.041 A 
ATOM     27  Cl  UNL     1       8.170  -2.754   3.172  1.00  0.00    -0.084 Cl
ENDBRANCH  19  21
ENDBRANCH  15  19
ENDBRANCH   5   6
ENDBRANCH   3   5
ENDBRANCH   2   3
ENDBRANCH   1   2
BRANCH   1  28
ATOM     28  C   UNL     1      -2.006   2.979   5.211  1.00  0.00     0.275 C 
BRANCH  28  29
ATOM     29  O   UNL     1      -3.202   2.272   4.855  1.00  0.00    -0.458 OA
BRANCH  29  30
ATOM     30  C   UNL     1      -3.132   1.422   3.804  1.00  0.00     0.338 C 
ATOM     31  O   UNL     1      -2.328   1.444   2.887  1.00  0.00    -0.246 OA
BRANCH  30  32
ATOM     32  C   UNL     1      -3.993   0.280   4.158  1.00  0.00     0.060 A 
ATOM     33  C   UNL     1      -5.262   0.502   4.690  1.00  0.00     0.016 A 
ATOM     34  C   UNL     1      -3.436  -1.005   4.152  1.00  0.00     0.016 A 
ATOM     35  C   UNL     1      -5.923  -0.547   5.314  1.00  0.00     0.010 A 
ATOM     36  C   UNL     1      -4.081  -2.043   4.816  1.00  0.00     0.010 A 
ATOM     37  C   UNL     1      -5.309  -1.806   5.426  1.00  0.00    -0.014 A 
BRANCH  37  38
ATOM     38  C   UNL     1      -6.154  -2.930   5.812  1.00  0.00     0.031 A 
ATOM     39  C   UNL     1      -6.943  -3.392   4.653  1.00  0.00     0.074 A 
ATOM     40  C   UNL     1      -6.268  -3.583   6.985  1.00  0.00     0.049 A 
ATOM     41  N   UNL     1      -8.117  -2.975   4.319  1.00  0.00    -0.248 NA
ATOM     42  C   UNL     1      -6.288  -4.235   3.643  1.00  0.00     0.031 C 
ATOM     43  C   UNL     1      -5.371  -3.559   8.137  1.00  0.00     0.029 A 
ATOM     44  N   UNL     1      -7.237  -4.479   7.359  1.00  0.00    -0.354 N 
ATOM     45  C   UNL     1      -8.461  -3.735   3.215  1.00  0.00     0.074 A 
ATOM     46  C   UNL     1      -7.235  -4.288   2.704  1.00  0.00     0.031 C 
ATOM     47  C   UNL     1      -5.735  -4.538   9.004  1.00  0.00     0.029 A 
ATOM     48  C   UNL     1      -6.986  -5.137   8.556  1.00  0.00     0.049 A 
ATOM     49  H   UNL     1      -8.046  -4.643   6.822  1.00  0.00     0.167 HD
ATOM     50  C   UNL     1      -9.751  -4.127   3.043  1.00  0.00     0.037 A 
ATOM     51  C   UNL     1      -7.758  -6.092   9.136  1.00  0.00     0.037 A 
ATOM     52  C   UNL     1     -10.636  -3.424   3.937  1.00  0.00     0.049 A 
ATOM     53  C   UNL     1      -9.160  -5.879   8.691  1.00  0.00     0.074 A 
ATOM     54  C   UNL     1     -11.206  -2.174   4.032  1.00  0.00     0.029 A 
ATOM     55  N   UNL     1     -10.756  -4.018   5.163  1.00  0.00    -0.354 N 
ATOM     56  N   UNL     1      -9.875  -4.831   9.005  1.00  0.00    -0.248 NA
ATOM     57  C   UNL     1      -9.730  -6.739   7.657  1.00  0.00     0.031 C 
ATOM     58  C   UNL     1     -11.594  -2.005   5.395  1.00  0.00     0.029 A 
ATOM     59  C   UNL     1     -11.264  -3.159   6.100  1.00  0.00     0.049 A 
ATOM     60  H   UNL     1     -10.508  -4.952   5.349  1.00  0.00     0.167 HD
ATOM     61  C   UNL     1     -10.756  -4.693   7.955  1.00  0.00     0.074 A 
ATOM     62  C   UNL     1     -10.741  -5.968   7.255  1.00  0.00     0.031 C 
ATOM     63  C   UNL     1     -11.137  -3.464   7.510  1.00  0.00     0.037 A 
BRANCH  50  64
ATOM     64  C   UNL     1     -10.159  -5.464   2.473  1.00  0.00     0.058 A 
ATOM     65  C   UNL     1     -11.517  -5.680   2.167  1.00  0.00     0.135 A 
ATOM     66  C   UNL     1      -9.346  -6.620   2.502  1.00  0.00     0.135 A 
ATOM     67  F   UNL     1     -12.382  -4.654   2.140  1.00  0.00    -0.206 F 
ATOM     68  C   UNL     1     -12.038  -6.955   1.952  1.00  0.00     0.059 A 
ATOM     69  C   UNL     1      -9.833  -7.892   2.233  1.00  0.00     0.059 A 
ATOM     70  F   UNL     1      -8.067  -6.589   2.896  1.00  0.00    -0.206 F 
ATOM     71  C   UNL     1     -11.187  -8.055   1.994  1.00  0.00     0.060 A 
BRANCH  71  72
ATOM     72  S   UNL     1     -11.865  -9.707   1.776  1.00  0.00     0.124 S 
ATOM     73  O   UNL     1     -12.614  -9.879   3.016  1.00  0.00    -0.237 OA
ATOM     74  O   UNL     1     -12.661  -9.548   0.563  1.00  0.00    -0.237 OA
ATOM     75  O   UNL     1     -10.675 -10.540   1.632  1.00  0.00    -0.744 OA
ENDBRANCH  71  72
ENDBRANCH  50  64
BRANCH  51  76
ATOM     76  C   UNL     1      -7.372  -7.314   9.895  1.00  0.00     0.058 A 
ATOM     77  C   UNL     1      -8.345  -8.088  10.561  1.00  0.00     0.135 A 
ATOM     78  C   UNL     1      -6.117  -7.924   9.714  1.00  0.00     0.135 A 
ATOM     79  F   UNL     1      -9.572  -7.591  10.781  1.00  0.00    -0.206 F 
ATOM     80  C   UNL     1      -8.120  -9.415  10.937  1.00  0.00     0.059 A 
ATOM     81  C   UNL     1      -5.864  -9.244  10.094  1.00  0.00     0.059 A 
ATOM     82  F   UNL     1      -5.127  -7.284   9.072  1.00  0.00    -0.206 F 
ATOM     83  C   UNL     1      -6.883  -9.995  10.671  1.00  0.00     0.060 A 
BRANCH  83  84
ATOM     84  S   UNL     1      -6.662 -11.766  10.965  1.00  0.00     0.124 S 
ATOM     85  O   UNL     1      -6.717 -11.840  12.421  1.00  0.00    -0.237 OA
ATOM     86  O   UNL     1      -7.799 -12.341  10.255  1.00  0.00    -0.237 OA
ATOM     87  O   UNL     1      -5.355 -12.046  10.376  1.00  0.00    -0.744 OA
ENDBRANCH  83  84
ENDBRANCH  51  76
BRANCH  63  88
ATOM     88  C   UNL     1     -11.292  -2.353   8.498  1.00  0.00     0.058 A 
ATOM     89  C   UNL     1     -10.247  -1.710   9.177  1.00  0.00     0.135 A 
ATOM     90  C   UNL     1     -12.589  -1.837   8.663  1.00  0.00     0.135 A 
ATOM     91  F   UNL     1      -8.976  -2.115   9.031  1.00  0.00    -0.206 F 
ATOM     92  C   UNL     1     -10.486  -0.588   9.976  1.00  0.00     0.059 A 
ATOM     93  C   UNL     1     -12.845  -0.708   9.430  1.00  0.00     0.059 A 
ATOM     94  F   UNL     1     -13.624  -2.403   8.020  1.00  0.00    -0.206 F 
ATOM     95  C   UNL     1     -11.786  -0.084  10.081  1.00  0.00     0.060 A 
BRANCH  95  96
ATOM     96  S   UNL     1     -12.073   1.450  10.991  1.00  0.00     0.124 S 
ATOM     97  O   UNL     1     -11.869   1.033  12.374  1.00  0.00    -0.237 OA
ATOM     98  O   UNL     1     -11.055   2.339  10.438  1.00  0.00    -0.237 OA
ATOM     99  O   UNL     1     -13.448   1.803  10.643  1.00  0.00    -0.744 OA
ENDBRANCH  95  96
ENDBRANCH  63  88
ENDBRANCH  37  38
ENDBRANCH  30  32
ENDBRANCH  29  30
ENDBRANCH  28  29
ENDBRANCH   1  28
TORSDOF 18
