REMARK SMILES Cc1ccc(C)c(S(=O)(=O)N[C@H](CC2=c3ccccc3=NC2)C(=O)OCCOC(=O)c2ccc(-c3c4nc(c(-c5c(F)cc(S(=O)(=O)[O-])cc5F)c5ccc([nH]5)c(-c5c(F)cc(S(=O)(=O)[O-])cc5F)c5nc(c(-c6c(F)cc(S(=O)(=O)[O-])cc6F)c6ccc3[nH]6)C=C5)C=C4)cc2)c1
REMARK SMILES IDX 26 1 25 2 23 3 24 4 12 5 11 6 8 8 9 9 10 10 7 11 1 12 2 13
REMARK SMILES IDX 3 14 97 15 4 16 5 17 6 18 13 19 14 20 15 21 22 22 16 23
REMARK SMILES IDX 20 24 21 25 17 26 19 27 18 28 27 29 28 30 29 31 30 32 31 33
REMARK SMILES IDX 32 34 96 35 33 36 95 37 34 38 35 39 36 40 89 41 37 42 94 43
REMARK SMILES IDX 88 44 90 45 38 46 93 47 87 48 86 49 39 51 73 52 52 53 72 54
REMARK SMILES IDX 53 55 56 56 71 57 91 58 54 59 55 60 70 62 92 63 57 64 40 65
REMARK SMILES IDX 41 66 50 67 42 68 43 69 49 70 51 71 44 72 45 73 46 74 47 75
REMARK SMILES IDX 48 76 74 77 75 78 84 79 76 80 77 81 83 82 85 83 78 84 79 85
REMARK SMILES IDX 80 86 81 87 82 88 58 89 59 90 68 91 60 92 61 93 67 94 69 95
REMARK SMILES IDX 62 96 63 97 64 98 65 99 66 100
REMARK H PARENT 11 7 90 50 56 61
REMARK Flexibility Score: inf
ROOT
ATOM      1  C   UNL     1       3.602   8.376  -0.703  1.00  0.00     0.274 C 
ENDROOT
BRANCH   1   2
ATOM      2  O   UNL     1       2.514   7.892  -1.497  1.00  0.00    -0.461 OA
BRANCH   2   3
ATOM      3  C   UNL     1       2.600   6.502  -1.925  1.00  0.00     0.324 C 
ATOM      4  O   UNL     1       3.823   6.353  -2.188  1.00  0.00    -0.250 OA
BRANCH   3   5
ATOM      5  C   UNL     1       0.881   5.123  -1.913  1.00  0.00     0.183 C 
BRANCH   5   6
ATOM      6  N   UNL     1      -0.131   4.502  -3.113  1.00  0.00    -0.197 NA
ATOM      7  H   UNL     1      -1.070   4.559  -2.720  1.00  0.00     0.142 HD
BRANCH   6   8
ATOM      8  S   UNL     1      -0.047   2.931  -3.842  1.00  0.00     0.241 S 
ATOM      9  O   UNL     1       1.317   2.730  -4.275  1.00  0.00    -0.207 OA
ATOM     10  O   UNL     1      -1.139   2.948  -4.799  1.00  0.00    -0.207 OA
BRANCH   8  11
ATOM     11  C   UNL     1      -0.425   1.433  -2.844  1.00  0.00     0.085 A 
ATOM     12  C   UNL     1      -1.630   0.254   0.625  1.00  0.00     0.044 C 
ATOM     13  C   UNL     1      -1.127   0.265  -0.793  1.00  0.00    -0.050 A 
ATOM     14  C   UNL     1      -0.815  -0.974  -1.359  1.00  0.00     0.004 A 
ATOM     15  C   UNL     1      -0.965   1.460  -1.550  1.00  0.00     0.025 A 
ATOM     16  C   UNL     1      -0.351  -1.031  -2.662  1.00  0.00     0.005 A 
ATOM     17  C   UNL     1      -0.157   0.148  -3.419  1.00  0.00    -0.031 A 
ATOM     18  C   UNL     1       0.314  -0.113  -4.830  1.00  0.00     0.046 C 
ENDBRANCH   8  11
ENDBRANCH   6   8
ENDBRANCH   5   6
BRANCH   5  19
ATOM     19  C   UNL     1      -0.415   4.805  -0.564  1.00  0.00     0.065 C 
BRANCH  19  20
ATOM     20  C   UNL     1      -0.787   5.561   0.740  1.00  0.00    -0.037 C 
ATOM     21  C   UNL     1      -0.321   5.398   1.989  1.00  0.00     0.001 A 
ATOM     22  C   UNL     1      -1.625   6.817   0.691  1.00  0.00     0.174 C 
ATOM     23  C   UNL     1       0.431   4.419   2.712  1.00  0.00     0.010 A 
ATOM     24  C   UNL     1      -0.498   6.760   2.555  1.00  0.00     0.065 A 
ATOM     25  N   UNL     1      -1.212   7.606   1.879  1.00  0.00    -0.280 NA
ATOM     26  C   UNL     1       1.005   4.757   3.882  1.00  0.00     0.001 A 
ATOM     27  C   UNL     1       0.282   7.092   3.771  1.00  0.00     0.028 A 
ATOM     28  C   UNL     1       0.988   6.123   4.374  1.00  0.00     0.002 A 
ENDBRANCH  19  20
ENDBRANCH   5  19
ENDBRANCH   3   5
ENDBRANCH   2   3
ENDBRANCH   1   2
BRANCH   1  29
ATOM     29  C   UNL     1       3.588   7.765   0.711  1.00  0.00     0.275 C 
BRANCH  29  30
ATOM     30  O   UNL     1       4.019   6.373   0.869  1.00  0.00    -0.458 OA
BRANCH  30  31
ATOM     31  C   UNL     1       3.260   5.248   0.769  1.00  0.00     0.338 C 
ATOM     32  O   UNL     1       3.437   4.231   1.424  1.00  0.00    -0.246 OA
BRANCH  31  33
ATOM     33  C   UNL     1       2.342   5.223  -0.369  1.00  0.00     0.060 A 
ATOM     34  C   UNL     1       2.918   4.439  -1.902  1.00  0.00     0.016 A 
ATOM     35  C   UNL     1       1.155   6.578  -0.476  1.00  0.00     0.016 A 
ATOM     36  C   UNL     1       2.412   5.172  -3.494  1.00  0.00     0.010 A 
ATOM     37  C   UNL     1       0.581   7.194  -2.075  1.00  0.00     0.010 A 
ATOM     38  C   UNL     1       1.380   6.640  -3.560  1.00  0.00    -0.014 A 
BRANCH  38  39
ATOM     39  C   UNL     1       1.540   7.845  -4.591  1.00  0.00     0.031 A 
ATOM     40  C   UNL     1       0.244   7.799  -5.285  1.00  0.00     0.074 A 
ATOM     41  C   UNL     1       2.354   8.956  -4.864  1.00  0.00     0.049 A 
ATOM     42  N   UNL     1      -0.044   6.884  -6.152  1.00  0.00    -0.248 NA
ATOM     43  C   UNL     1      -0.940   8.447  -4.694  1.00  0.00     0.031 C 
ATOM     44  C   UNL     1       3.590   9.460  -4.224  1.00  0.00     0.029 A 
ATOM     45  N   UNL     1       2.217   9.957  -5.875  1.00  0.00    -0.354 N 
ATOM     46  C   UNL     1      -1.351   7.153  -6.488  1.00  0.00     0.074 A 
ATOM     47  C   UNL     1      -1.910   7.767  -5.317  1.00  0.00     0.031 C 
ATOM     48  C   UNL     1       3.949  10.701  -4.685  1.00  0.00     0.029 A 
ATOM     49  C   UNL     1       3.070  11.124  -5.771  1.00  0.00     0.049 A 
ATOM     50  H   UNL     1       1.571   9.857  -6.612  1.00  0.00     0.167 HD
ATOM     51  C   UNL     1      -1.689   7.302  -7.798  1.00  0.00     0.037 A 
ATOM     52  C   UNL     1       3.273  12.198  -6.648  1.00  0.00     0.037 A 
ATOM     53  C   UNL     1      -0.564   6.934  -8.643  1.00  0.00     0.049 A 
ATOM     54  C   UNL     1       2.813  11.740  -7.974  1.00  0.00     0.074 A 
ATOM     55  C   UNL     1       0.214   5.810  -8.841  1.00  0.00     0.029 A 
ATOM     56  N   UNL     1       0.179   7.997  -9.084  1.00  0.00    -0.354 N 
ATOM     57  N   UNL     1       3.405  10.813  -8.665  1.00  0.00    -0.248 NA
ATOM     58  C   UNL     1       1.419  11.986  -8.273  1.00  0.00     0.031 C 
ATOM     59  C   UNL     1       1.535   6.287  -9.099  1.00  0.00     0.029 A 
ATOM     60  C   UNL     1       1.505   7.677  -9.179  1.00  0.00     0.049 A 
ATOM     61  H   UNL     1      -0.194   8.881  -9.304  1.00  0.00     0.167 HD
ATOM     62  C   UNL     1       2.358  10.012  -9.080  1.00  0.00     0.074 A 
ATOM     63  C   UNL     1       1.153  10.821  -8.860  1.00  0.00     0.031 C 
ATOM     64  C   UNL     1       2.555   8.671  -9.238  1.00  0.00     0.037 A 
BRANCH  51  65
ATOM     65  C   UNL     1      -2.787   8.220  -8.299  1.00  0.00     0.058 A 
ATOM     66  C   UNL     1      -3.157   8.133  -9.656  1.00  0.00     0.135 A 
ATOM     67  C   UNL     1      -3.341   9.317  -7.595  1.00  0.00     0.135 A 
ATOM     68  F   UNL     1      -2.671   7.153 -10.433  1.00  0.00    -0.206 F 
ATOM     69  C   UNL     1      -3.986   9.073 -10.269  1.00  0.00     0.059 A 
ATOM     70  C   UNL     1      -4.209  10.234  -8.172  1.00  0.00     0.059 A 
ATOM     71  F   UNL     1      -3.013   9.619  -6.336  1.00  0.00    -0.206 F 
ATOM     72  C   UNL     1      -4.511  10.118  -9.515  1.00  0.00     0.060 A 
BRANCH  72  73
ATOM     73  S   UNL     1      -5.575  11.332 -10.306  1.00  0.00     0.124 S 
ATOM     74  O   UNL     1      -4.660  11.947 -11.260  1.00  0.00    -0.237 OA
ATOM     75  O   UNL     1      -6.619  10.484 -10.872  1.00  0.00    -0.237 OA
ATOM     76  O   UNL     1      -5.998  12.182  -9.197  1.00  0.00    -0.744 OA
ENDBRANCH  72  73
ENDBRANCH  51  65
BRANCH  52  77
ATOM     77  C   UNL     1       3.364  13.736  -6.486  1.00  0.00     0.058 A 
ATOM     78  C   UNL     1       3.498  14.648  -7.590  1.00  0.00     0.135 A 
ATOM     79  C   UNL     1       2.963  14.353  -5.295  1.00  0.00     0.135 A 
ATOM     80  F   UNL     1       3.886  14.199  -8.796  1.00  0.00    -0.206 F 
ATOM     81  C   UNL     1       3.172  16.030  -7.523  1.00  0.00     0.059 A 
ATOM     82  C   UNL     1       2.631  15.723  -5.206  1.00  0.00     0.059 A 
ATOM     83  F   UNL     1       2.803  13.616  -4.189  1.00  0.00    -0.206 F 
ATOM     84  C   UNL     1       2.702  16.553  -6.324  1.00  0.00     0.060 A 
BRANCH  84  85
ATOM     85  S   UNL     1       2.076  18.268  -6.235  1.00  0.00     0.124 S 
ATOM     86  O   UNL     1       3.285  19.059  -6.441  1.00  0.00    -0.237 OA
ATOM     87  O   UNL     1       1.101  18.310  -7.320  1.00  0.00    -0.237 OA
ATOM     88  O   UNL     1       1.507  18.347  -4.891  1.00  0.00    -0.744 OA
ENDBRANCH  84  85
ENDBRANCH  52  77
BRANCH  64  89
ATOM     89  C   UNL     1       3.977   8.172  -9.373  1.00  0.00     0.058 A 
ATOM     90  C   UNL     1       4.965   8.194  -8.368  1.00  0.00     0.135 A 
ATOM     91  C   UNL     1       4.307   7.520 -10.570  1.00  0.00     0.135 A 
ATOM     92  F   UNL     1       4.717   8.741  -7.170  1.00  0.00    -0.206 F 
ATOM     93  C   UNL     1       6.223   7.606  -8.557  1.00  0.00     0.059 A 
ATOM     94  C   UNL     1       5.538   6.904 -10.769  1.00  0.00     0.059 A 
ATOM     95  F   UNL     1       3.400   7.435 -11.556  1.00  0.00    -0.206 F 
ATOM     96  C   UNL     1       6.498   6.959  -9.763  1.00  0.00     0.060 A 
BRANCH  96  97
ATOM     97  S   UNL     1       8.103   6.164 -10.009  1.00  0.00     0.124 S 
ATOM     98  O   UNL     1       9.016   7.301  -9.997  1.00  0.00    -0.237 OA
ATOM     99  O   UNL     1       8.191   5.267  -8.860  1.00  0.00    -0.237 OA
ATOM    100  O   UNL     1       7.960   5.495 -11.300  1.00  0.00    -0.744 OA
ENDBRANCH  96  97
ENDBRANCH  64  89
ENDBRANCH  38  39
ENDBRANCH  31  33
ENDBRANCH  30  31
ENDBRANCH  29  30
ENDBRANCH   1  29
TORSDOF 19
