REMARK SMILES O=C(OCCOC(=O)c1ccc(-c2c3nc(c(-c4c(F)cc(S(=O)(=O)[O-])cc4F)c4ccc([nH]4)c(-c4c(F)cc(S(=O)(=O)[O-])cc4F)c4nc(c(-c5c(F)cc(S(=O)(=O)[O-])cc5F)c5ccc2[nH]5)C=C4)C=C3)cc1)c1ccc(NS(=O)(=O)C2=Cc3ccccc3CC2)cc1
REMARK SMILES IDX 4 1 3 2 2 3 1 4 75 5 76 6 94 7 77 8 93 9 78 10 79 11 80 13
REMARK SMILES IDX 81 14 82 15 83 16 84 17 92 18 85 19 91 20 86 21 90 22 87 23
REMARK SMILES IDX 89 24 88 25 5 26 6 27 7 28 8 29 9 30 10 31 74 32 11 33 73 34
REMARK SMILES IDX 12 35 13 36 14 37 67 38 15 39 72 40 66 41 68 42 16 43 71 44
REMARK SMILES IDX 65 45 64 46 17 48 51 49 30 50 50 51 31 52 34 53 49 54 69 55
REMARK SMILES IDX 32 56 33 57 48 59 70 60 35 61 18 62 19 63 28 64 20 65 21 66
REMARK SMILES IDX 27 67 29 68 22 69 23 70 24 71 25 72 26 73 52 74 53 75 62 76
REMARK SMILES IDX 54 77 55 78 61 79 63 80 56 81 57 82 58 83 59 84 60 85 36 86
REMARK SMILES IDX 37 87 46 88 38 89 39 90 45 91 47 92 40 93 41 94 42 95 43 96
REMARK SMILES IDX 44 97
REMARK H PARENT 79 12 68 47 34 58
REMARK Flexibility Score: inf
ROOT
ATOM      1  C   UNL     1       4.249  -0.354  -1.129  1.00  0.00     0.275 C 
ENDROOT
BRANCH   1   2
ATOM      2  O   UNL     1       3.014  -0.938  -0.655  1.00  0.00    -0.458 OA
BRANCH   2   3
ATOM      3  C   UNL     1       2.634  -1.205   0.622  1.00  0.00     0.338 C 
ATOM      4  O   UNL     1       1.643  -1.890   0.849  1.00  0.00    -0.246 OA
BRANCH   3   5
ATOM      5  C   UNL     1       3.302  -0.524   1.756  1.00  0.00     0.060 A 
ATOM      6  C   UNL     1       4.673  -0.558   1.987  1.00  0.00     0.018 A 
ATOM      7  C   UNL     1       2.494   0.173   2.655  1.00  0.00     0.018 A 
ATOM      8  C   UNL     1       5.243   0.310   2.925  1.00  0.00     0.027 A 
ATOM      9  C   UNL     1       3.080   1.037   3.581  1.00  0.00     0.027 A 
ATOM     10  C   UNL     1       4.457   1.206   3.633  1.00  0.00     0.049 A 
BRANCH  10  11
ATOM     11  N   UNL     1       4.920   2.412   4.228  1.00  0.00    -0.280 N 
ATOM     12  H   UNL     1       4.236   3.025   4.582  1.00  0.00     0.180 HD
BRANCH  11  13
ATOM     13  S   UNL     1       6.517   2.892   4.387  1.00  0.00     0.258 S 
ATOM     14  O   UNL     1       6.428   4.138   5.113  1.00  0.00    -0.202 OA
ATOM     15  O   UNL     1       7.223   1.764   4.971  1.00  0.00    -0.202 OA
BRANCH  13  16
ATOM     16  C   UNL     1       7.158   3.217   2.739  1.00  0.00     0.066 C 
ATOM     17  C   UNL     1       7.608   4.482   2.549  1.00  0.00     0.026 C 
ATOM     18  C   UNL     1       8.121   2.176   2.196  1.00  0.00     0.055 C 
ATOM     19  C   UNL     1       9.018   4.709   3.004  1.00  0.00    -0.021 A 
ATOM     20  C   UNL     1       9.437   2.200   2.980  1.00  0.00     0.041 C 
ATOM     21  C   UNL     1       9.495   6.010   3.169  1.00  0.00     0.008 A 
ATOM     22  C   UNL     1       9.873   3.616   3.275  1.00  0.00    -0.040 A 
ATOM     23  C   UNL     1      10.778   6.223   3.680  1.00  0.00     0.001 A 
ATOM     24  C   UNL     1      11.132   3.840   3.840  1.00  0.00     0.004 A 
ATOM     25  C   UNL     1      11.580   5.142   4.046  1.00  0.00     0.000 A 
ENDBRANCH  13  16
ENDBRANCH  11  13
ENDBRANCH  10  11
ENDBRANCH   3   5
ENDBRANCH   2   3
ENDBRANCH   1   2
BRANCH   1  26
ATOM     26  C   UNL     1       4.186   1.144  -1.422  1.00  0.00     0.275 C 
BRANCH  26  27
ATOM     27  O   UNL     1       3.708   1.902  -0.303  1.00  0.00    -0.458 OA
BRANCH  27  28
ATOM     28  C   UNL     1       2.427   2.337  -0.432  1.00  0.00     0.338 C 
ATOM     29  O   UNL     1       1.695   2.153  -1.391  1.00  0.00    -0.246 OA
BRANCH  28  30
ATOM     30  C   UNL     1       1.967   2.998   0.808  1.00  0.00     0.060 A 
ATOM     31  C   UNL     1       0.636   2.791   1.187  1.00  0.00     0.016 A 
ATOM     32  C   UNL     1       2.800   3.807   1.589  1.00  0.00     0.016 A 
ATOM     33  C   UNL     1       0.133   3.388   2.342  1.00  0.00     0.010 A 
ATOM     34  C   UNL     1       2.293   4.401   2.754  1.00  0.00     0.010 A 
ATOM     35  C   UNL     1       0.953   4.204   3.133  1.00  0.00    -0.014 A 
BRANCH  35  36
ATOM     36  C   UNL     1       0.374   4.893   4.315  1.00  0.00     0.031 A 
ATOM     37  C   UNL     1       0.027   6.352   4.226  1.00  0.00     0.074 A 
ATOM     38  C   UNL     1       0.119   4.218   5.453  1.00  0.00     0.049 A 
ATOM     39  N   UNL     1      -0.602   7.098   5.096  1.00  0.00    -0.248 NA
ATOM     40  C   UNL     1       0.407   7.054   2.990  1.00  0.00     0.031 C 
ATOM     41  C   UNL     1       0.352   2.792   5.663  1.00  0.00     0.029 A 
ATOM     42  N   UNL     1      -0.383   4.645   6.656  1.00  0.00    -0.354 N 
ATOM     43  C   UNL     1      -0.751   8.338   4.491  1.00  0.00     0.074 A 
ATOM     44  C   UNL     1      -0.069   8.271   3.215  1.00  0.00     0.031 C 
ATOM     45  C   UNL     1       0.090   2.478   6.941  1.00  0.00     0.029 A 
ATOM     46  C   UNL     1      -0.407   3.667   7.623  1.00  0.00     0.049 A 
ATOM     47  H   UNL     1      -0.697   5.564   6.813  1.00  0.00     0.167 HD
ATOM     48  C   UNL     1      -1.435   9.418   4.937  1.00  0.00     0.037 A 
ATOM     49  C   UNL     1      -0.819   3.706   8.903  1.00  0.00     0.037 A 
ATOM     50  C   UNL     1      -2.088   9.494   6.217  1.00  0.00     0.049 A 
ATOM     51  C   UNL     1      -1.501   4.943   9.411  1.00  0.00     0.074 A 
ATOM     52  C   UNL     1      -2.821  10.541   6.750  1.00  0.00     0.029 A 
ATOM     53  N   UNL     1      -2.075   8.491   7.175  1.00  0.00    -0.354 N 
ATOM     54  N   UNL     1      -1.719   6.075   8.787  1.00  0.00    -0.248 NA
ATOM     55  C   UNL     1      -2.047   4.887  10.774  1.00  0.00     0.031 C 
ATOM     56  C   UNL     1      -3.218  10.185   8.044  1.00  0.00     0.029 A 
ATOM     57  C   UNL     1      -2.766   8.901   8.303  1.00  0.00     0.049 A 
ATOM     58  H   UNL     1      -1.639   7.615   7.068  1.00  0.00     0.167 HD
ATOM     59  C   UNL     1      -2.464   6.853   9.666  1.00  0.00     0.074 A 
ATOM     60  C   UNL     1      -2.662   6.058  10.862  1.00  0.00     0.031 C 
ATOM     61  C   UNL     1      -2.951   8.106   9.491  1.00  0.00     0.037 A 
BRANCH  48  62
ATOM     62  C   UNL     1      -1.531  10.595   4.011  1.00  0.00     0.058 A 
ATOM     63  C   UNL     1      -2.356  10.555   2.874  1.00  0.00     0.135 A 
ATOM     64  C   UNL     1      -0.822  11.777   4.267  1.00  0.00     0.135 A 
ATOM     65  F   UNL     1      -3.042   9.440   2.575  1.00  0.00    -0.206 F 
ATOM     66  C   UNL     1      -2.458  11.640   2.012  1.00  0.00     0.059 A 
ATOM     67  C   UNL     1      -0.924  12.883   3.428  1.00  0.00     0.059 A 
ATOM     68  F   UNL     1      -0.016  11.864   5.337  1.00  0.00    -0.206 F 
ATOM     69  C   UNL     1      -1.735  12.800   2.296  1.00  0.00     0.060 A 
BRANCH  69  70
ATOM     70  S   UNL     1      -1.878  14.202   1.168  1.00  0.00     0.124 S 
ATOM     71  O   UNL     1      -1.082  13.744   0.034  1.00  0.00    -0.237 OA
ATOM     72  O   UNL     1      -3.318  14.277   0.942  1.00  0.00    -0.237 OA
ATOM     73  O   UNL     1      -1.307  15.309   1.929  1.00  0.00    -0.744 OA
ENDBRANCH  69  70
ENDBRANCH  48  62
BRANCH  49  74
ATOM     74  C   UNL     1      -0.654   2.513   9.773  1.00  0.00     0.058 A 
ATOM     75  C   UNL     1      -1.746   1.706  10.122  1.00  0.00     0.135 A 
ATOM     76  C   UNL     1       0.609   2.162  10.274  1.00  0.00     0.135 A 
ATOM     77  F   UNL     1      -2.971   2.002   9.662  1.00  0.00    -0.206 F 
ATOM     78  C   UNL     1      -1.599   0.609  10.964  1.00  0.00     0.059 A 
ATOM     79  C   UNL     1       0.784   1.059  11.104  1.00  0.00     0.059 A 
ATOM     80  F   UNL     1       1.688   2.891   9.948  1.00  0.00    -0.206 F 
ATOM     81  C   UNL     1      -0.330   0.297  11.455  1.00  0.00     0.060 A 
BRANCH  81  82
ATOM     82  S   UNL     1      -0.146  -1.141  12.533  1.00  0.00     0.124 S 
ATOM     83  O   UNL     1      -0.697  -0.638  13.786  1.00  0.00    -0.237 OA
ATOM     84  O   UNL     1      -0.945  -2.148  11.842  1.00  0.00    -0.237 OA
ATOM     85  O   UNL     1       1.294  -1.382  12.526  1.00  0.00    -0.744 OA
ENDBRANCH  81  82
ENDBRANCH  49  74
BRANCH  61  86
ATOM     86  C   UNL     1      -3.761   8.686  10.616  1.00  0.00     0.058 A 
ATOM     87  C   UNL     1      -3.163   9.095  11.818  1.00  0.00     0.135 A 
ATOM     88  C   UNL     1      -5.151   8.843  10.488  1.00  0.00     0.135 A 
ATOM     89  F   UNL     1      -1.839   8.959  11.993  1.00  0.00    -0.206 F 
ATOM     90  C   UNL     1      -3.917   9.606  12.868  1.00  0.00     0.059 A 
ATOM     91  C   UNL     1      -5.922   9.377  11.515  1.00  0.00     0.059 A 
ATOM     92  F   UNL     1      -5.772   8.477   9.355  1.00  0.00    -0.206 F 
ATOM     93  C   UNL     1      -5.298   9.739  12.709  1.00  0.00     0.060 A 
BRANCH  93  94
ATOM     94  S   UNL     1      -6.270  10.410  14.075  1.00  0.00     0.124 S 
ATOM     95  O   UNL     1      -6.367   9.255  14.960  1.00  0.00    -0.237 OA
ATOM     96  O   UNL     1      -5.431  11.505  14.551  1.00  0.00    -0.237 OA
ATOM     97  O   UNL     1      -7.516  10.818  13.433  1.00  0.00    -0.744 OA
ENDBRANCH  93  94
ENDBRANCH  61  86
ENDBRANCH  35  36
ENDBRANCH  28  30
ENDBRANCH  27  28
ENDBRANCH  26  27
ENDBRANCH   1  26
TORSDOF 17
