REMARK SMILES CNC(=O)NC1=[NH+]N=CN[C@@H]1C(=O)OCCOC(=O)c1ccc(-c2c3nc(c(-c4c(F)cc(S(=O)(=O)[O-])cc4F)c4ccc([nH]4)c(-c4c(F)cc(S(=O)(=O)[O-])cc4F)c4nc(c(-c5c(F)cc(S(=O)(=O)[O-])cc5F)c5ccc2[nH]5)C=C4)C=C3)cc1
REMARK SMILES IDX 17 1 16 2 15 3 14 4 12 5 13 6 11 7 1 8 2 9 3 10 4 12 5 13
REMARK SMILES IDX 6 14 7 16 8 17 10 19 9 20 18 22 19 23 20 24 21 25 85 26
REMARK SMILES IDX 22 27 84 28 23 29 24 30 25 31 78 32 26 33 83 34 77 35 79 36
REMARK SMILES IDX 27 37 82 38 76 39 75 40 28 42 62 43 41 44 61 45 42 46 45 47
REMARK SMILES IDX 60 48 80 49 43 50 44 51 59 53 81 54 46 55 29 56 30 57 39 58
REMARK SMILES IDX 31 59 32 60 38 61 40 62 33 63 34 64 35 65 36 66 37 67 63 68
REMARK SMILES IDX 64 69 73 70 65 71 66 72 72 73 74 74 67 75 68 76 69 77 70 78
REMARK SMILES IDX 71 79 47 80 48 81 57 82 49 83 50 84 56 85 58 86 51 87 52 88
REMARK SMILES IDX 53 89 54 90 55 91
REMARK H PARENT 2 11 5 15 7 18 10 21 79 41 45 52
REMARK Flexibility Score: inf
ROOT
ATOM      1  O   UNL     1      -3.675  -2.290   0.784  1.00  0.00    -0.458 OA
ENDROOT
BRANCH   1   2
ATOM      2  C   UNL     1      -4.267  -2.723  -0.458  1.00  0.00     0.275 C 
BRANCH   2   3
ATOM      3  C   UNL     1      -4.034  -1.726  -1.599  1.00  0.00     0.274 C 
BRANCH   3   4
ATOM      4  O   UNL     1      -2.651  -1.731  -2.003  1.00  0.00    -0.460 OA
BRANCH   4   5
ATOM      5  C   UNL     1      -1.901  -0.644  -1.654  1.00  0.00     0.341 C 
ATOM      6  O   UNL     1      -2.367   0.362  -1.132  1.00  0.00    -0.249 OA
BRANCH   5   7
ATOM      7  C   UNL     1      -0.400  -0.857  -1.885  1.00  0.00     0.308 C 
ATOM      8  C   UNL     1       2.142   0.673  -0.107  1.00  0.00     0.147 C 
ATOM      9  N   UNL     1       0.945   1.488  -0.082  1.00  0.00    -0.321 N 
ATOM     10  C   UNL     1       0.286   2.033  -1.136  1.00  0.00     0.406 C 
ATOM     11  H   UNL     1       0.563   1.669   0.808  1.00  0.00     0.167 HD
ATOM     12  O   UNL     1      -0.407   3.033  -0.980  1.00  0.00    -0.221 OA
ATOM     13  N   UNL     1       0.448   1.470  -2.369  1.00  0.00    -0.191 N 
ATOM     14  C   UNL     1       0.179   0.196  -2.816  1.00  0.00     0.311 C 
ATOM     15  H   UNL     1       0.817   2.075  -3.052  1.00  0.00     0.317 HD
ATOM     16  N   UNL     1       0.448  -0.020  -4.069  1.00  0.00    -0.148 N 
ATOM     17  N   UNL     1       0.299  -1.326  -4.584  1.00  0.00    -0.077 NA
ATOM     18  H   UNL     1       0.751   0.715  -4.650  1.00  0.00     0.342 HD
ATOM     19  N   UNL     1      -0.106  -2.184  -2.413  1.00  0.00    -0.350 N 
ATOM     20  C   UNL     1       0.091  -2.292  -3.750  1.00  0.00     0.241 C 
ATOM     21  H   UNL     1      -0.053  -2.970  -1.823  1.00  0.00     0.163 HD
ENDBRANCH   5   7
ENDBRANCH   4   5
ENDBRANCH   3   4
ENDBRANCH   2   3
ENDBRANCH   1   2
BRANCH   1  22
ATOM     22  C   UNL     1      -2.367  -2.601   0.934  1.00  0.00     0.338 C 
ATOM     23  O   UNL     1      -1.652  -3.186   0.134  1.00  0.00    -0.246 OA
BRANCH  22  24
ATOM     24  C   UNL     1      -1.831  -1.996   2.165  1.00  0.00     0.060 A 
ATOM     25  C   UNL     1      -0.755  -1.120   2.022  1.00  0.00     0.016 A 
ATOM     26  C   UNL     1      -2.269  -2.368   3.435  1.00  0.00     0.016 A 
ATOM     27  C   UNL     1      -0.064  -0.663   3.135  1.00  0.00     0.010 A 
ATOM     28  C   UNL     1      -1.593  -1.879   4.563  1.00  0.00     0.010 A 
ATOM     29  C   UNL     1      -0.466  -1.048   4.419  1.00  0.00    -0.014 A 
BRANCH  29  30
ATOM     30  C   UNL     1       0.357  -0.628   5.581  1.00  0.00     0.031 A 
ATOM     31  C   UNL     1       1.168  -1.648   6.333  1.00  0.00     0.074 A 
ATOM     32  C   UNL     1       0.450   0.676   5.905  1.00  0.00     0.049 A 
ATOM     33  N   UNL     1       1.903  -1.492   7.404  1.00  0.00    -0.248 NA
ATOM     34  C   UNL     1       1.150  -3.024   5.812  1.00  0.00     0.031 C 
ATOM     35  C   UNL     1      -0.234   1.770   5.212  1.00  0.00     0.029 A 
ATOM     36  N   UNL     1       1.172   1.304   6.888  1.00  0.00    -0.354 N 
ATOM     37  C   UNL     1       2.403  -2.752   7.708  1.00  0.00     0.074 A 
ATOM     38  C   UNL     1       1.887  -3.664   6.709  1.00  0.00     0.031 C 
ATOM     39  C   UNL     1       0.125   2.936   5.773  1.00  0.00     0.029 A 
ATOM     40  C   UNL     1       1.014   2.669   6.900  1.00  0.00     0.049 A 
ATOM     41  H   UNL     1       1.749   0.823   7.523  1.00  0.00     0.167 HD
ATOM     42  C   UNL     1       3.217  -3.116   8.729  1.00  0.00     0.037 A 
ATOM     43  C   UNL     1       1.507   3.599   7.741  1.00  0.00     0.037 A 
ATOM     44  C   UNL     1       3.758  -2.203   9.700  1.00  0.00     0.049 A 
ATOM     45  C   UNL     1       2.384   3.167   8.883  1.00  0.00     0.074 A 
ATOM     46  C   UNL     1       4.580  -2.478  10.780  1.00  0.00     0.029 A 
ATOM     47  N   UNL     1       3.543  -0.832   9.701  1.00  0.00    -0.354 N 
ATOM     48  N   UNL     1       2.798   1.961   9.193  1.00  0.00    -0.248 NA
ATOM     49  C   UNL     1       2.848   4.218   9.798  1.00  0.00     0.031 C 
ATOM     50  C   UNL     1       4.844  -1.276  11.447  1.00  0.00     0.029 A 
ATOM     51  C   UNL     1       4.212  -0.249  10.764  1.00  0.00     0.049 A 
ATOM     52  H   UNL     1       2.996  -0.346   9.043  1.00  0.00     0.167 HD
ATOM     53  C   UNL     1       3.577   2.110  10.334  1.00  0.00     0.074 A 
ATOM     54  C   UNL     1       3.592   3.525  10.649  1.00  0.00     0.031 C 
ATOM     55  C   UNL     1       4.218   1.161  11.060  1.00  0.00     0.037 A 
BRANCH  42  56
ATOM     56  C   UNL     1       3.538  -4.577   8.865  1.00  0.00     0.058 A 
ATOM     57  C   UNL     1       4.452  -5.218   8.016  1.00  0.00     0.135 A 
ATOM     58  C   UNL     1       2.924  -5.343   9.869  1.00  0.00     0.135 A 
ATOM     59  F   UNL     1       5.049  -4.535   7.027  1.00  0.00    -0.206 F 
ATOM     60  C   UNL     1       4.727  -6.577   8.139  1.00  0.00     0.059 A 
ATOM     61  C   UNL     1       3.199  -6.699  10.024  1.00  0.00     0.059 A 
ATOM     62  F   UNL     1       2.040  -4.778  10.706  1.00  0.00    -0.206 F 
ATOM     63  C   UNL     1       4.089  -7.310   9.142  1.00  0.00     0.060 A 
BRANCH  63  64
ATOM     64  S   UNL     1       4.435  -9.076   9.281  1.00  0.00     0.124 S 
ATOM     65  O   UNL     1       3.628  -9.615   8.191  1.00  0.00    -0.237 OA
ATOM     66  O   UNL     1       5.881  -9.132   9.086  1.00  0.00    -0.237 OA
ATOM     67  O   UNL     1       3.975  -9.406  10.627  1.00  0.00    -0.744 OA
ENDBRANCH  63  64
ENDBRANCH  42  56
BRANCH  43  68
ATOM     68  C   UNL     1       1.156   5.029   7.550  1.00  0.00     0.058 A 
ATOM     69  C   UNL     1       2.108   5.954   7.099  1.00  0.00     0.135 A 
ATOM     70  C   UNL     1      -0.143   5.496   7.805  1.00  0.00     0.135 A 
ATOM     71  F   UNL     1       3.365   5.555   6.851  1.00  0.00    -0.206 F 
ATOM     72  C   UNL     1       1.789   7.295   6.914  1.00  0.00     0.059 A 
ATOM     73  C   UNL     1      -0.492   6.827   7.606  1.00  0.00     0.059 A 
ATOM     74  F   UNL     1      -1.091   4.646   8.229  1.00  0.00    -0.206 F 
ATOM     75  C   UNL     1       0.484   7.721   7.170  1.00  0.00     0.060 A 
BRANCH  75  76
ATOM     76  S   UNL     1       0.057   9.452   6.877  1.00  0.00     0.124 S 
ATOM     77  O   UNL     1       0.585  10.089   8.078  1.00  0.00    -0.237 OA
ATOM     78  O   UNL     1       0.766   9.742   5.635  1.00  0.00    -0.237 OA
ATOM     79  O   UNL     1      -1.398   9.419   6.766  1.00  0.00    -0.744 OA
ENDBRANCH  75  76
ENDBRANCH  43  68
BRANCH  55  80
ATOM     80  C   UNL     1       5.006   1.627  12.249  1.00  0.00     0.058 A 
ATOM     81  C   UNL     1       4.375   1.992  13.448  1.00  0.00     0.135 A 
ATOM     82  C   UNL     1       6.408   1.676  12.200  1.00  0.00     0.135 A 
ATOM     83  F   UNL     1       3.037   1.967  13.542  1.00  0.00    -0.206 F 
ATOM     84  C   UNL     1       5.108   2.413  14.553  1.00  0.00     0.059 A 
ATOM     85  C   UNL     1       7.161   2.076  13.299  1.00  0.00     0.059 A 
ATOM     86  F   UNL     1       7.057   1.328  11.077  1.00  0.00    -0.206 F 
ATOM     87  C   UNL     1       6.501   2.455  14.467  1.00  0.00     0.060 A 
BRANCH  87  88
ATOM     88  S   UNL     1       7.447   2.980  15.913  1.00  0.00     0.124 S 
ATOM     89  O   UNL     1       7.310   4.431  15.841  1.00  0.00    -0.237 OA
ATOM     90  O   UNL     1       6.738   2.329  17.010  1.00  0.00    -0.237 OA
ATOM     91  O   UNL     1       8.785   2.460  15.646  1.00  0.00    -0.744 OA
ENDBRANCH  87  88
ENDBRANCH  55  80
ENDBRANCH  29  30
ENDBRANCH  22  24
ENDBRANCH   1  22
TORSDOF 14
