REMARK SMILES CCCCCCNC(=O)Oc1cccc(-c2ccc([C@H](C)C(=O)OCCOC(=O)c3ccc(-c4c5nc(c(-c6c(F)cc(S(=O)(=O)[O-])cc6F)c6ccc([nH]6)c(-c6c(F)cc(S(=O)(=O)[O-])cc6F)c6nc(c(-c7c(F)cc(S(=O)(=O)[O-])cc7F)c7ccc4[nH]7)C=C6)C=C5)cc3)cc2F)c1
REMARK SMILES IDX 20 1 21 2 19 3 16 4 17 5 97 6 18 7 96 8 98 9 15 10 11 11
REMARK SMILES IDX 12 12 99 13 13 14 14 15 10 16 8 17 7 18 9 20 6 21 5 22 4 23
REMARK SMILES IDX 3 24 2 25 1 26 22 27 23 28 24 29 25 30 26 31 27 32 28 33
REMARK SMILES IDX 29 34 30 35 31 36 95 37 32 38 94 39 33 40 34 41 35 42 88 43
REMARK SMILES IDX 36 44 93 45 87 46 89 47 37 48 92 49 86 50 85 51 38 53 72 54
REMARK SMILES IDX 51 55 71 56 52 57 55 58 70 59 90 60 53 61 54 62 69 64 91 65
REMARK SMILES IDX 56 66 39 67 40 68 49 69 41 70 42 71 48 72 50 73 43 74 44 75
REMARK SMILES IDX 45 76 46 77 47 78 73 79 74 80 83 81 75 82 76 83 82 84 84 85
REMARK SMILES IDX 77 86 78 87 79 88 80 89 81 90 57 91 58 92 67 93 59 94 60 95
REMARK SMILES IDX 66 96 68 97 61 98 62 99 63 100 64 101 65 102
REMARK H PARENT 7 19 89 52 55 63
REMARK Flexibility Score: inf
ROOT
ATOM      1  C   UNL     1      -4.812 -13.312  -2.335  1.00  0.00     0.126 C 
ATOM      2  C   UNL     1      -4.803 -11.917  -2.954  1.00  0.00     0.025 C 
ENDROOT
BRANCH   1   3
ATOM      3  C   UNL     1      -6.113 -14.052  -2.554  1.00  0.00    -0.031 A 
ATOM      4  C   UNL     1      -8.439 -15.603  -2.934  1.00  0.00     0.018 A 
ATOM      5  C   UNL     1      -7.723 -15.101  -4.031  1.00  0.00     0.012 A 
ATOM      6  C   UNL     1      -7.976 -15.299  -1.648  1.00  0.00     0.131 A 
ATOM      7  C   UNL     1      -6.575 -14.333  -3.845  1.00  0.00     0.005 A 
ATOM      8  C   UNL     1      -6.829 -14.540  -1.452  1.00  0.00     0.044 A 
ATOM      9  F   UNL     1      -8.630 -15.751  -0.566  1.00  0.00    -0.206 F 
BRANCH   4  10
ATOM     10  C   UNL     1      -9.646 -16.404  -3.141  1.00  0.00    -0.012 A 
ATOM     11  C   UNL     1     -12.030 -16.711  -2.861  1.00  0.00     0.133 A 
ATOM     12  C   UNL     1     -11.985 -17.912  -3.562  1.00  0.00     0.047 A 
ATOM     13  C   UNL     1     -10.873 -15.971  -2.626  1.00  0.00     0.056 A 
ATOM     14  C   UNL     1     -10.767 -18.362  -4.066  1.00  0.00     0.004 A 
ATOM     15  C   UNL     1      -9.607 -17.610  -3.861  1.00  0.00     0.009 A 
BRANCH  11  16
ATOM     16  O   UNL     1     -13.255 -16.330  -2.298  1.00  0.00    -0.410 OA
BRANCH  16  17
ATOM     17  C   UNL     1     -13.666 -15.020  -2.496  1.00  0.00     0.412 C 
ATOM     18  N   UNL     1     -14.739 -14.675  -1.723  1.00  0.00    -0.321 N 
ATOM     19  H   UNL     1     -15.083 -13.758  -1.827  1.00  0.00     0.167 HD
ATOM     20  O   UNL     1     -13.170 -14.213  -3.273  1.00  0.00    -0.224 OA
BRANCH  18  21
ATOM     21  C   UNL     1     -15.422 -15.521  -0.768  1.00  0.00     0.119 C 
BRANCH  21  22
ATOM     22  C   UNL     1     -15.443 -14.909   0.632  1.00  0.00     0.021 C 
BRANCH  22  23
ATOM     23  C   UNL     1     -16.191 -13.575   0.745  1.00  0.00     0.002 C 
BRANCH  23  24
ATOM     24  C   UNL     1     -17.643 -13.587   0.253  1.00  0.00    -0.000 C 
BRANCH  24  25
ATOM     25  C   UNL     1     -18.556 -14.616   0.925  1.00  0.00    -0.003 C 
ATOM     26  C   UNL     1     -18.722 -14.388   2.419  1.00  0.00     0.004 C 
ENDBRANCH  24  25
ENDBRANCH  23  24
ENDBRANCH  22  23
ENDBRANCH  21  22
ENDBRANCH  18  21
ENDBRANCH  16  17
ENDBRANCH  11  16
ENDBRANCH   4  10
ENDBRANCH   1   3
BRANCH   1  27
ATOM     27  C   UNL     1      -3.641 -14.207  -2.733  1.00  0.00     0.313 C 
ATOM     28  O   UNL     1      -3.289 -15.173  -2.063  1.00  0.00    -0.252 OA
BRANCH  27  29
ATOM     29  O   UNL     1      -3.078 -13.851  -3.919  1.00  0.00    -0.462 OA
BRANCH  29  30
ATOM     30  C   UNL     1      -1.953 -14.646  -4.338  1.00  0.00     0.274 C 
BRANCH  30  31
ATOM     31  C   UNL     1      -0.623 -13.993  -3.950  1.00  0.00     0.275 C 
BRANCH  31  32
ATOM     32  O   UNL     1      -0.419 -13.987  -2.524  1.00  0.00    -0.458 OA
BRANCH  32  33
ATOM     33  C   UNL     1      -0.863 -12.878  -1.888  1.00  0.00     0.338 C 
ATOM     34  O   UNL     1      -1.374 -11.893  -2.395  1.00  0.00    -0.246 OA
BRANCH  33  35
ATOM     35  C   UNL     1      -0.766 -13.060  -0.434  1.00  0.00     0.060 A 
ATOM     36  C   UNL     1      -1.950 -13.204   0.293  1.00  0.00     0.016 A 
ATOM     37  C   UNL     1       0.461 -12.976   0.222  1.00  0.00     0.016 A 
ATOM     38  C   UNL     1      -1.923 -13.247   1.681  1.00  0.00     0.010 A 
ATOM     39  C   UNL     1       0.491 -13.034   1.619  1.00  0.00     0.010 A 
ATOM     40  C   UNL     1      -0.702 -13.154   2.355  1.00  0.00    -0.014 A 
BRANCH  40  41
ATOM     41  C   UNL     1      -0.688 -13.126   3.836  1.00  0.00     0.031 A 
ATOM     42  C   UNL     1      -0.367 -11.845   4.550  1.00  0.00     0.074 A 
ATOM     43  C   UNL     1      -0.992 -14.239   4.529  1.00  0.00     0.049 A 
ATOM     44  N   UNL     1      -0.188 -11.634   5.827  1.00  0.00    -0.248 NA
ATOM     45  C   UNL     1      -0.228 -10.642   3.714  1.00  0.00     0.031 C 
ATOM     46  C   UNL     1      -1.384 -15.521   3.939  1.00  0.00     0.029 A 
ATOM     47  N   UNL     1      -1.020 -14.471   5.880  1.00  0.00    -0.354 N 
ATOM     48  C   UNL     1       0.112 -10.283   5.949  1.00  0.00     0.074 A 
ATOM     49  C   UNL     1       0.102  -9.725   4.613  1.00  0.00     0.031 C 
ATOM     50  C   UNL     1      -1.615 -16.404   4.924  1.00  0.00     0.029 A 
ATOM     51  C   UNL     1      -1.333 -15.768   6.208  1.00  0.00     0.049 A 
ATOM     52  H   UNL     1      -0.833 -13.774   6.551  1.00  0.00     0.167 HD
ATOM     53  C   UNL     1       0.372  -9.577   7.075  1.00  0.00     0.037 A 
ATOM     54  C   UNL     1      -1.355 -16.382   7.406  1.00  0.00     0.037 A 
ATOM     55  C   UNL     1       0.360 -10.143   8.399  1.00  0.00     0.049 A 
ATOM     56  C   UNL     1      -1.004 -15.591   8.636  1.00  0.00     0.074 A 
ATOM     57  C   UNL     1       0.618  -9.518   9.606  1.00  0.00     0.029 A 
ATOM     58  N   UNL     1       0.069 -11.469   8.689  1.00  0.00    -0.354 N 
ATOM     59  N   UNL     1      -0.680 -14.323   8.735  1.00  0.00    -0.248 NA
ATOM     60  C   UNL     1      -1.010 -16.314   9.915  1.00  0.00     0.031 C 
ATOM     61  C   UNL     1       0.515 -10.474  10.623  1.00  0.00     0.029 A 
ATOM     62  C   UNL     1       0.153 -11.685  10.054  1.00  0.00     0.049 A 
ATOM     63  H   UNL     1      -0.163 -12.155   8.022  1.00  0.00     0.167 HD
ATOM     64  C   UNL     1      -0.463 -14.092  10.088  1.00  0.00     0.074 A 
ATOM     65  C   UNL     1      -0.703 -15.348  10.770  1.00  0.00     0.031 C 
ATOM     66  C   UNL     1      -0.096 -12.944  10.711  1.00  0.00     0.037 A 
BRANCH  53  67
ATOM     67  C   UNL     1       0.724  -8.124   6.917  1.00  0.00     0.058 A 
ATOM     68  C   UNL     1      -0.239  -7.159   6.584  1.00  0.00     0.135 A 
ATOM     69  C   UNL     1       2.044  -7.689   7.120  1.00  0.00     0.135 A 
ATOM     70  F   UNL     1      -1.512  -7.524   6.360  1.00  0.00    -0.206 F 
ATOM     71  C   UNL     1       0.098  -5.817   6.433  1.00  0.00     0.059 A 
ATOM     72  C   UNL     1       2.399  -6.349   6.997  1.00  0.00     0.059 A 
ATOM     73  F   UNL     1       3.006  -8.570   7.436  1.00  0.00    -0.206 F 
ATOM     74  C   UNL     1       1.421  -5.422   6.638  1.00  0.00     0.060 A 
BRANCH  74  75
ATOM     75  S   UNL     1       1.847  -3.679   6.434  1.00  0.00     0.124 S 
ATOM     76  O   UNL     1       1.828  -3.544   4.981  1.00  0.00    -0.237 OA
ATOM     77  O   UNL     1       0.765  -3.006   7.146  1.00  0.00    -0.237 OA
ATOM     78  O   UNL     1       3.163  -3.575   7.056  1.00  0.00    -0.744 OA
ENDBRANCH  74  75
ENDBRANCH  53  67
BRANCH  54  79
ATOM     79  C   UNL     1      -1.694 -17.827   7.492  1.00  0.00     0.058 A 
ATOM     80  C   UNL     1      -2.902 -18.253   8.061  1.00  0.00     0.135 A 
ATOM     81  C   UNL     1      -0.825 -18.808   6.989  1.00  0.00     0.135 A 
ATOM     82  F   UNL     1      -3.761 -17.353   8.565  1.00  0.00    -0.206 F 
ATOM     83  C   UNL     1      -3.235 -19.602   8.139  1.00  0.00     0.059 A 
ATOM     84  C   UNL     1      -1.146 -20.161   7.032  1.00  0.00     0.059 A 
ATOM     85  F   UNL     1       0.339 -18.451   6.425  1.00  0.00    -0.206 F 
ATOM     86  C   UNL     1      -2.350 -20.549   7.618  1.00  0.00     0.060 A 
BRANCH  86  87
ATOM     87  S   UNL     1      -2.812 -22.294   7.675  1.00  0.00     0.124 S 
ATOM     88  O   UNL     1      -2.586 -22.611   9.081  1.00  0.00    -0.237 OA
ATOM     89  O   UNL     1      -4.206 -22.259   7.244  1.00  0.00    -0.237 OA
ATOM     90  O   UNL     1      -1.888 -22.916   6.731  1.00  0.00    -0.744 OA
ENDBRANCH  86  87
ENDBRANCH  54  79
BRANCH  66  91
ATOM     91  C   UNL     1       0.035 -12.988  12.207  1.00  0.00     0.058 A 
ATOM     92  C   UNL     1       1.132 -13.601  12.831  1.00  0.00     0.135 A 
ATOM     93  C   UNL     1      -0.924 -12.367  13.022  1.00  0.00     0.135 A 
ATOM     94  F   UNL     1       2.072 -14.215  12.095  1.00  0.00    -0.206 F 
ATOM     95  C   UNL     1       1.262 -13.616  14.216  1.00  0.00     0.059 A 
ATOM     96  C   UNL     1      -0.802 -12.349  14.407  1.00  0.00     0.059 A 
ATOM     97  F   UNL     1      -1.987 -11.758  12.472  1.00  0.00    -0.206 F 
ATOM     98  C   UNL     1       0.289 -12.987  14.996  1.00  0.00     0.060 A 
BRANCH  98  99
ATOM     99  S   UNL     1       0.485 -12.983  16.790  1.00  0.00     0.124 S 
ATOM    100  O   UNL     1       0.096 -14.347  17.131  1.00  0.00    -0.237 OA
ATOM    101  O   UNL     1       1.901 -12.668  16.952  1.00  0.00    -0.237 OA
ATOM    102  O   UNL     1      -0.435 -11.938  17.229  1.00  0.00    -0.744 OA
ENDBRANCH  98  99
ENDBRANCH  66  91
ENDBRANCH  40  41
ENDBRANCH  33  35
ENDBRANCH  32  33
ENDBRANCH  31  32
ENDBRANCH  30  31
ENDBRANCH  29  30
ENDBRANCH  27  29
ENDBRANCH   1  27
TORSDOF 23
