REMARK SMILES C[C@@H]1CN(S(=O)(=O)[C@@H](C)C(=O)OCCOC(=O)c2ccc(-c3c4nc(c(-c5c(F)cc(S(=O)(=O)[O-])cc5F)c5ccc([nH]5)c(-c5c(F)cc(S(=O)(=O)[O-])cc5F)c5nc(c(-c6c(F)cc(S(=O)(=O)[O-])cc6F)c6ccc3[nH]6)C=C5)C=C4)cc2)CC[C@@H]1[NH3+]
REMARK SMILES IDX 13 1 12 2 10 3 11 4 8 5 9 6 5 7 6 8 7 9 4 10 1 11 2 12 3 13
REMARK SMILES IDX 86 14 85 15 84 16 87 17 14 21 15 22 16 23 17 24 18 25 19 26
REMARK SMILES IDX 83 27 20 28 82 29 21 30 22 31 23 32 76 33 24 34 81 35 75 36
REMARK SMILES IDX 77 37 25 38 80 39 74 40 73 41 26 43 60 44 39 45 59 46 40 47
REMARK SMILES IDX 43 48 58 49 78 50 41 51 42 52 57 54 79 55 44 56 27 57 28 58
REMARK SMILES IDX 37 59 29 60 30 61 36 62 38 63 31 64 32 65 33 66 34 67 35 68
REMARK SMILES IDX 61 69 62 70 71 71 63 72 64 73 70 74 72 75 65 76 66 77 67 78
REMARK SMILES IDX 68 79 69 80 45 81 46 82 55 83 47 84 48 85 54 86 56 87 49 88
REMARK SMILES IDX 50 89 51 90 52 91 53 92
REMARK H PARENT 87 18 87 19 87 20 77 42 43 53
REMARK Flexibility Score: inf
ROOT
ATOM      1  C   UNL     1      -2.863  -0.002   1.448  1.00  0.00     0.274 C 
ENDROOT
BRANCH   1   2
ATOM      2  O   UNL     1      -1.657  -0.654   1.914  1.00  0.00    -0.461 OA
BRANCH   2   3
ATOM      3  C   UNL     1      -1.718  -1.289   3.109  1.00  0.00     0.325 C 
ATOM      4  O   UNL     1      -2.709  -1.258   3.832  1.00  0.00    -0.251 OA
BRANCH   3   5
ATOM      5  C   UNL     1      -0.423  -1.877   3.566  1.00  0.00     0.230 C 
ATOM      6  C   UNL     1       0.616  -0.816   3.865  1.00  0.00     0.039 C 
BRANCH   5   7
ATOM      7  S   UNL     1       0.189  -3.272   2.644  1.00  0.00     0.227 S 
ATOM      8  O   UNL     1      -0.900  -4.160   2.312  1.00  0.00    -0.211 OA
ATOM      9  O   UNL     1       1.300  -3.784   3.429  1.00  0.00    -0.211 OA
BRANCH   7  10
ATOM     10  N   UNL     1       0.867  -2.719   1.179  1.00  0.00    -0.200 NA
ATOM     11  C   UNL     1       1.009  -0.249  -0.419  1.00  0.00     0.015 C 
ATOM     12  C   UNL     1       0.574  -1.607  -0.994  1.00  0.00     0.059 C 
ATOM     13  C   UNL     1      -0.099  -2.487   0.067  1.00  0.00     0.111 C 
ATOM     14  C   UNL     1       1.734  -2.422  -1.597  1.00  0.00     0.186 C 
ATOM     15  C   UNL     1       2.694  -2.933  -0.511  1.00  0.00     0.082 C 
ATOM     16  C   UNL     1       1.962  -3.608   0.656  1.00  0.00     0.108 C 
BRANCH  14  17
ATOM     17  N   UNL     1       2.465  -1.658  -2.614  1.00  0.00    -0.355 N 
ATOM     18  H   UNL     1       2.893  -0.840  -2.182  1.00  0.00     0.344 HD
ATOM     19  H   UNL     1       1.818  -1.358  -3.343  1.00  0.00     0.344 HD
ATOM     20  H   UNL     1       3.191  -2.245  -3.024  1.00  0.00     0.344 HD
ENDBRANCH  14  17
ENDBRANCH   7  10
ENDBRANCH   5   7
ENDBRANCH   3   5
ENDBRANCH   2   3
ENDBRANCH   1   2
BRANCH   1  21
ATOM     21  C   UNL     1      -3.796  -0.951   0.688  1.00  0.00     0.275 C 
BRANCH  21  22
ATOM     22  O   UNL     1      -4.438  -1.860   1.597  1.00  0.00    -0.458 OA
BRANCH  22  23
ATOM     23  C   UNL     1      -4.070  -3.160   1.497  1.00  0.00     0.338 C 
ATOM     24  O   UNL     1      -3.341  -3.646   0.651  1.00  0.00    -0.246 OA
BRANCH  23  25
ATOM     25  C   UNL     1      -4.661  -3.900   2.628  1.00  0.00     0.060 A 
ATOM     26  C   UNL     1      -3.875  -4.187   3.746  1.00  0.00     0.016 A 
ATOM     27  C   UNL     1      -5.982  -4.343   2.564  1.00  0.00     0.016 A 
ATOM     28  C   UNL     1      -4.398  -4.925   4.804  1.00  0.00     0.010 A 
ATOM     29  C   UNL     1      -6.509  -5.086   3.627  1.00  0.00     0.010 A 
ATOM     30  C   UNL     1      -5.715  -5.394   4.746  1.00  0.00    -0.014 A 
BRANCH  30  31
ATOM     31  C   UNL     1      -6.216  -6.293   5.813  1.00  0.00     0.031 A 
ATOM     32  C   UNL     1      -6.285  -7.771   5.552  1.00  0.00     0.074 A 
ATOM     33  C   UNL     1      -6.564  -5.796   7.015  1.00  0.00     0.049 A 
ATOM     34  N   UNL     1      -6.744  -8.727   6.318  1.00  0.00    -0.248 NA
ATOM     35  C   UNL     1      -5.769  -8.233   4.253  1.00  0.00     0.031 C 
ATOM     36  C   UNL     1      -6.499  -4.385   7.398  1.00  0.00     0.029 A 
ATOM     37  N   UNL     1      -7.044  -6.425   8.136  1.00  0.00    -0.354 N 
ATOM     38  C   UNL     1      -6.575  -9.903   5.596  1.00  0.00     0.074 A 
ATOM     39  C   UNL     1      -6.000  -9.537   4.319  1.00  0.00     0.031 C 
ATOM     40  C   UNL     1      -6.936  -4.255   8.662  1.00  0.00     0.029 A 
ATOM     41  C   UNL     1      -7.336  -5.566   9.168  1.00  0.00     0.049 A 
ATOM     42  H   UNL     1      -7.168  -7.400   8.195  1.00  0.00     0.167 HD
ATOM     43  C   UNL     1      -6.862 -11.173   5.970  1.00  0.00     0.037 A 
ATOM     44  C   UNL     1      -7.881  -5.809  10.376  1.00  0.00     0.037 A 
ATOM     45  C   UNL     1      -7.435 -11.530   7.242  1.00  0.00     0.049 A 
ATOM     46  C   UNL     1      -8.220  -7.227  10.756  1.00  0.00     0.074 A 
ATOM     47  C   UNL     1      -7.811 -12.781   7.699  1.00  0.00     0.029 A 
ATOM     48  N   UNL     1      -7.702 -10.634   8.267  1.00  0.00    -0.354 N 
ATOM     49  N   UNL     1      -8.089  -8.325  10.049  1.00  0.00    -0.248 NA
ATOM     50  C   UNL     1      -8.769  -7.442  12.102  1.00  0.00     0.031 C 
ATOM     51  C   UNL     1      -8.322 -12.639   8.995  1.00  0.00     0.029 A 
ATOM     52  C   UNL     1      -8.228 -11.305   9.358  1.00  0.00     0.049 A 
ATOM     53  H   UNL     1      -7.540  -9.664   8.225  1.00  0.00     0.167 HD
ATOM     54  C   UNL     1      -8.511  -9.362  10.875  1.00  0.00     0.074 A 
ATOM     55  C   UNL     1      -8.889  -8.762  12.137  1.00  0.00     0.031 C 
ATOM     56  C   UNL     1      -8.581 -10.691  10.613  1.00  0.00     0.037 A 
BRANCH  43  57
ATOM     57  C   UNL     1      -6.572 -12.266   4.981  1.00  0.00     0.058 A 
ATOM     58  C   UNL     1      -5.257 -12.681   4.712  1.00  0.00     0.135 A 
ATOM     59  C   UNL     1      -7.616 -12.925   4.313  1.00  0.00     0.135 A 
ATOM     60  F   UNL     1      -4.221 -12.070   5.308  1.00  0.00    -0.206 F 
ATOM     61  C   UNL     1      -4.987 -13.697   3.801  1.00  0.00     0.059 A 
ATOM     62  C   UNL     1      -7.371 -13.959   3.415  1.00  0.00     0.059 A 
ATOM     63  F   UNL     1      -8.891 -12.565   4.530  1.00  0.00    -0.206 F 
ATOM     64  C   UNL     1      -6.051 -14.330   3.156  1.00  0.00     0.060 A 
BRANCH  64  65
ATOM     65  S   UNL     1      -5.688 -15.653   1.983  1.00  0.00     0.124 S 
ATOM     66  O   UNL     1      -5.186 -14.899   0.838  1.00  0.00    -0.237 OA
ATOM     67  O   UNL     1      -4.697 -16.448   2.702  1.00  0.00    -0.237 OA
ATOM     68  O   UNL     1      -6.982 -16.300   1.789  1.00  0.00    -0.744 OA
ENDBRANCH  64  65
ENDBRANCH  43  57
BRANCH  44  69
ATOM     69  C   UNL     1      -8.160  -4.687  11.312  1.00  0.00     0.058 A 
ATOM     70  C   UNL     1      -7.435  -4.531  12.503  1.00  0.00     0.135 A 
ATOM     71  C   UNL     1      -9.179  -3.760  11.043  1.00  0.00     0.135 A 
ATOM     72  F   UNL     1      -6.456  -5.396  12.810  1.00  0.00    -0.206 F 
ATOM     73  C   UNL     1      -7.728  -3.515  13.408  1.00  0.00     0.059 A 
ATOM     74  C   UNL     1      -9.474  -2.721  11.919  1.00  0.00     0.059 A 
ATOM     75  F   UNL     1      -9.894  -3.856   9.911  1.00  0.00    -0.206 F 
ATOM     76  C   UNL     1      -8.754  -2.617  13.108  1.00  0.00     0.060 A 
BRANCH  76  77
ATOM     77  S   UNL     1      -9.119  -1.287  14.275  1.00  0.00     0.124 S 
ATOM     78  O   UNL     1      -9.867  -1.999  15.305  1.00  0.00    -0.237 OA
ATOM     79  O   UNL     1      -7.785  -0.832  14.655  1.00  0.00    -0.237 OA
ATOM     80  O   UNL     1      -9.889  -0.342  13.473  1.00  0.00    -0.744 OA
ENDBRANCH  76  77
ENDBRANCH  44  69
BRANCH  56  81
ATOM     81  C   UNL     1      -9.032 -11.588  11.733  1.00  0.00     0.058 A 
ATOM     82  C   UNL     1     -10.371 -11.638  12.149  1.00  0.00     0.135 A 
ATOM     83  C   UNL     1      -8.109 -12.420  12.387  1.00  0.00     0.135 A 
ATOM     84  F   UNL     1     -11.292 -10.861  11.557  1.00  0.00    -0.206 F 
ATOM     85  C   UNL     1     -10.773 -12.452  13.203  1.00  0.00     0.059 A 
ATOM     86  C   UNL     1      -8.494 -13.260  13.427  1.00  0.00     0.059 A 
ATOM     87  F   UNL     1      -6.818 -12.420  12.018  1.00  0.00    -0.206 F 
ATOM     88  C   UNL     1      -9.825 -13.255  13.841  1.00  0.00     0.060 A 
BRANCH  88  89
ATOM     89  S   UNL     1     -10.354 -14.307  15.209  1.00  0.00     0.124 S 
ATOM     90  O   UNL     1     -10.447 -13.343  16.301  1.00  0.00    -0.237 OA
ATOM     91  O   UNL     1     -11.624 -14.841  14.726  1.00  0.00    -0.237 OA
ATOM     92  O   UNL     1      -9.274 -15.283  15.322  1.00  0.00    -0.744 OA
ENDBRANCH  88  89
ENDBRANCH  56  81
ENDBRANCH  30  31
ENDBRANCH  23  25
ENDBRANCH  22  23
ENDBRANCH  21  22
ENDBRANCH   1  21
TORSDOF 17
