REMARK SMILES O=C(OCCOC(=O)c1ccc(-c2c3nc(c(-c4c(F)cc(S(=O)(=O)[O-])cc4F)c4ccc([nH]4)c(-c4c(F)cc(S(=O)(=O)[O-])cc4F)c4nc(c(-c5c(F)cc(S(=O)(=O)[O-])cc5F)c5ccc2[nH]5)C=C4)C=C3)cc1)C1=Cc2cc(Cl)cc(-c3ccccc3)c2O[C@@H]1C(F)(F)F
REMARK SMILES IDX 5 1 4 2 3 3 2 4 1 5 75 6 76 7 91 8 77 9 90 10 78 11 89 12
REMARK SMILES IDX 79 13 82 14 80 15 81 16 92 17 93 18 94 19 95 20 83 21 84 22
REMARK SMILES IDX 88 23 85 24 87 25 86 26 6 27 7 28 8 29 9 30 10 31 74 32
REMARK SMILES IDX 11 33 73 34 12 35 13 36 14 37 67 38 15 39 72 40 66 41 68 42
REMARK SMILES IDX 16 43 71 44 65 45 64 46 17 48 51 49 30 50 50 51 31 52 34 53
REMARK SMILES IDX 49 54 69 55 32 56 33 57 48 59 70 60 35 61 18 62 19 63 28 64
REMARK SMILES IDX 20 65 21 66 27 67 29 68 22 69 23 70 24 71 25 72 26 73 52 74
REMARK SMILES IDX 53 75 62 76 54 77 55 78 61 79 63 80 56 81 57 82 58 83 59 84
REMARK SMILES IDX 60 85 36 86 37 87 46 88 38 89 39 90 45 91 47 92 40 93 41 94
REMARK SMILES IDX 42 95 43 96 44 97
REMARK H PARENT 68 47 34 58
REMARK Flexibility Score: inf
ROOT
ATOM      1  C   UNL     1       4.717   0.819   0.084  1.00  0.00     0.275 C 
ENDROOT
BRANCH   1   2
ATOM      2  C   UNL     1       3.986  -1.065   0.845  1.00  0.00     0.275 C 
BRANCH   2   3
ATOM      3  O   UNL     1       3.158  -1.278   2.156  1.00  0.00    -0.459 OA
BRANCH   3   4
ATOM      4  C   UNL     1       3.312  -0.293   3.048  1.00  0.00     0.338 C 
ATOM      5  O   UNL     1       2.775  -0.101   4.107  1.00  0.00    -0.246 OA
BRANCH   4   6
ATOM      6  C   UNL     1       4.083   0.548   2.171  1.00  0.00     0.087 C 
ATOM      7  C   UNL     1       5.474   0.072   2.091  1.00  0.00     0.027 C 
ATOM      8  C   UNL     1       2.828   0.574   0.702  1.00  0.00     0.316 C 
ATOM      9  C   UNL     1       6.167  -0.710   0.618  1.00  0.00     0.019 A 
ATOM     10  O   UNL     1       3.538  -0.299  -0.866  1.00  0.00    -0.475 OA
ATOM     11  C   UNL     1       7.393  -1.303   0.771  1.00  0.00     0.032 A 
ATOM     12  C   UNL     1       5.220  -1.008  -0.820  1.00  0.00     0.135 A 
ATOM     13  C   UNL     1       7.776  -2.132  -0.282  1.00  0.00     0.042 A 
ATOM     14  C   UNL     1       5.671  -1.885  -1.784  1.00  0.00     0.026 A 
ATOM     15  Cl  UNL     1       9.284  -2.972  -0.119  1.00  0.00    -0.084 Cl
ATOM     16  C   UNL     1       6.978  -2.398  -1.460  1.00  0.00     0.033 A 
BRANCH   8  17
ATOM     17  C   UNL     1       2.208   1.993   0.980  1.00  0.00     0.430 C 
ATOM     18  F   UNL     1       0.978   2.110   0.463  1.00  0.00    -0.167 F 
ATOM     19  F   UNL     1       2.017   2.114   2.330  1.00  0.00    -0.167 F 
ATOM     20  F   UNL     1       2.968   3.063   0.695  1.00  0.00    -0.167 F 
ENDBRANCH   8  17
BRANCH  14  21
ATOM     21  C   UNL     1       5.020  -2.459  -2.952  1.00  0.00    -0.015 A 
ATOM     22  C   UNL     1       4.698  -3.834  -2.945  1.00  0.00     0.009 A 
ATOM     23  C   UNL     1       4.957  -1.773  -4.168  1.00  0.00     0.009 A 
ATOM     24  C   UNL     1       4.344  -4.504  -4.116  1.00  0.00     0.001 A 
ATOM     25  C   UNL     1       4.601  -2.445  -5.343  1.00  0.00     0.001 A 
ATOM     26  C   UNL     1       4.302  -3.808  -5.319  1.00  0.00     0.000 A 
ENDBRANCH  14  21
ENDBRANCH   4   6
ENDBRANCH   3   4
ENDBRANCH   2   3
ENDBRANCH   1   2
BRANCH   1  27
ATOM     27  O   UNL     1       3.884   1.882  -0.965  1.00  0.00    -0.458 OA
BRANCH  27  28
ATOM     28  C   UNL     1       3.105   1.952  -2.088  1.00  0.00     0.338 C 
ATOM     29  O   UNL     1       2.801   1.075  -2.874  1.00  0.00    -0.246 OA
BRANCH  28  30
ATOM     30  C   UNL     1       2.386   3.268  -1.988  1.00  0.00     0.060 A 
ATOM     31  C   UNL     1       1.003   3.266  -1.736  1.00  0.00     0.016 A 
ATOM     32  C   UNL     1       3.121   4.432  -1.759  1.00  0.00     0.016 A 
ATOM     33  C   UNL     1       0.420   4.335  -1.024  1.00  0.00     0.010 A 
ATOM     34  C   UNL     1       2.529   5.504  -1.079  1.00  0.00     0.010 A 
ATOM     35  C   UNL     1       1.198   5.434  -0.631  1.00  0.00    -0.014 A 
BRANCH  35  36
ATOM     36  C   UNL     1       0.598   6.610   0.064  1.00  0.00     0.031 A 
ATOM     37  C   UNL     1       0.063   7.698  -0.821  1.00  0.00     0.074 A 
ATOM     38  C   UNL     1       0.582   6.767   1.407  1.00  0.00     0.049 A 
ATOM     39  N   UNL     1      -0.435   8.863  -0.506  1.00  0.00    -0.248 NA
ATOM     40  C   UNL     1       0.129   7.435  -2.269  1.00  0.00     0.031 C 
ATOM     41  C   UNL     1       1.078   5.806   2.393  1.00  0.00     0.029 A 
ATOM     42  N   UNL     1       0.143   7.823   2.181  1.00  0.00    -0.354 N 
ATOM     43  C   UNL     1      -0.754   9.463  -1.716  1.00  0.00     0.074 A 
ATOM     44  C   UNL     1      -0.334   8.567  -2.768  1.00  0.00     0.031 C 
ATOM     45  C   UNL     1       0.931   6.322   3.632  1.00  0.00     0.029 A 
ATOM     46  C   UNL     1       0.340   7.657   3.538  1.00  0.00     0.049 A 
ATOM     47  H   UNL     1      -0.276   8.628   1.798  1.00  0.00     0.167 HD
ATOM     48  C   UNL     1      -1.370  10.646  -1.940  1.00  0.00     0.037 A 
ATOM     49  C   UNL     1       0.076   8.488   4.573  1.00  0.00     0.037 A 
ATOM     50  C   UNL     1      -1.762  11.558  -0.906  1.00  0.00     0.049 A 
ATOM     51  C   UNL     1      -0.555   9.839   4.290  1.00  0.00     0.074 A 
ATOM     52  C   UNL     1      -2.381  12.787  -1.034  1.00  0.00     0.029 A 
ATOM     53  N   UNL     1      -1.564  11.343   0.449  1.00  0.00    -0.354 N 
ATOM     54  N   UNL     1      -0.915  10.363   3.141  1.00  0.00    -0.248 NA
ATOM     55  C   UNL     1      -0.825  10.711   5.447  1.00  0.00     0.031 C 
ATOM     56  C   UNL     1      -2.527  13.333   0.245  1.00  0.00     0.029 A 
ATOM     57  C   UNL     1      -2.041  12.422   1.170  1.00  0.00     0.049 A 
ATOM     58  H   UNL     1      -1.146  10.541   0.839  1.00  0.00     0.167 HD
ATOM     59  C   UNL     1      -1.489  11.597   3.443  1.00  0.00     0.074 A 
ATOM     60  C   UNL     1      -1.439  11.740   4.881  1.00  0.00     0.031 C 
ATOM     61  C   UNL     1      -2.011  12.530   2.607  1.00  0.00     0.037 A 
BRANCH  48  62
ATOM     62  C   UNL     1      -1.646  10.991  -3.372  1.00  0.00     0.058 A 
ATOM     63  C   UNL     1      -2.620  10.295  -4.107  1.00  0.00     0.135 A 
ATOM     64  C   UNL     1      -0.911  11.989  -4.027  1.00  0.00     0.135 A 
ATOM     65  F   UNL     1      -3.323   9.305  -3.532  1.00  0.00    -0.206 F 
ATOM     66  C   UNL     1      -2.833  10.554  -5.454  1.00  0.00     0.059 A 
ATOM     67  C   UNL     1      -1.128  12.285  -5.369  1.00  0.00     0.059 A 
ATOM     68  F   UNL     1       0.042  12.669  -3.372  1.00  0.00    -0.206 F 
ATOM     69  C   UNL     1      -2.080  11.550  -6.077  1.00  0.00     0.060 A 
BRANCH  69  70
ATOM     70  S   UNL     1      -2.368  11.870  -7.828  1.00  0.00     0.124 S 
ATOM     71  O   UNL     1      -1.759  10.694  -8.443  1.00  0.00    -0.237 OA
ATOM     72  O   UNL     1      -3.824  11.939  -7.897  1.00  0.00    -0.237 OA
ATOM     73  O   UNL     1      -1.671  13.132  -8.062  1.00  0.00    -0.744 OA
ENDBRANCH  69  70
ENDBRANCH  48  62
BRANCH  49  74
ATOM     74  C   UNL     1       0.387   8.112   5.990  1.00  0.00     0.058 A 
ATOM     75  C   UNL     1      -0.640   7.928   6.934  1.00  0.00     0.135 A 
ATOM     76  C   UNL     1       1.708   8.036   6.461  1.00  0.00     0.135 A 
ATOM     77  F   UNL     1      -1.923   8.013   6.551  1.00  0.00    -0.206 F 
ATOM     78  C   UNL     1      -0.373   7.726   8.289  1.00  0.00     0.059 A 
ATOM     79  C   UNL     1       2.001   7.809   7.807  1.00  0.00     0.059 A 
ATOM     80  F   UNL     1       2.733   8.205   5.612  1.00  0.00    -0.206 F 
ATOM     81  C   UNL     1       0.953   7.676   8.718  1.00  0.00     0.060 A 
BRANCH  81  82
ATOM     82  S   UNL     1       1.290   7.425  10.478  1.00  0.00     0.124 S 
ATOM     83  O   UNL     1       0.922   8.720  11.037  1.00  0.00    -0.237 OA
ATOM     84  O   UNL     1       0.403   6.314  10.807  1.00  0.00    -0.237 OA
ATOM     85  O   UNL     1       2.716   7.109  10.505  1.00  0.00    -0.744 OA
ENDBRANCH  81  82
ENDBRANCH  49  74
BRANCH  61  86
ATOM     86  C   UNL     1      -2.623  13.762   3.217  1.00  0.00     0.058 A 
ATOM     87  C   UNL     1      -1.839  14.775   3.789  1.00  0.00     0.135 A 
ATOM     88  C   UNL     1      -4.012  13.967   3.152  1.00  0.00     0.135 A 
ATOM     89  F   UNL     1      -0.507  14.631   3.876  1.00  0.00    -0.206 F 
ATOM     90  C   UNL     1      -2.412  15.938   4.296  1.00  0.00     0.059 A 
ATOM     91  C   UNL     1      -4.603  15.134   3.626  1.00  0.00     0.059 A 
ATOM     92  F   UNL     1      -4.808  13.037   2.599  1.00  0.00    -0.206 F 
ATOM     93  C   UNL     1      -3.795  16.109   4.207  1.00  0.00     0.060 A 
BRANCH  93  94
ATOM     94  S   UNL     1      -4.521  17.641   4.828  1.00  0.00     0.124 S 
ATOM     95  O   UNL     1      -4.455  17.434   6.271  1.00  0.00    -0.237 OA
ATOM     96  O   UNL     1      -3.619  18.656   4.292  1.00  0.00    -0.237 OA
ATOM     97  O   UNL     1      -5.863  17.639   4.253  1.00  0.00    -0.744 OA
ENDBRANCH  93  94
ENDBRANCH  61  86
ENDBRANCH  35  36
ENDBRANCH  28  30
ENDBRANCH  27  28
ENDBRANCH   1  27
TORSDOF 16
