REMARK SMILES COc1ccc([C@H]2[C@H](C(=O)OCCOC(=O)c3ccc(-c4c5nc(c(-c6c(F)cc(S(=O)(=O)[O-])cc6F)c6ccc([nH]6)c(-c6c(F)cc(S(=O)(=O)[O-])cc6F)c6nc(c(-c7c(F)cc(S(=O)(=O)[O-])cc7F)c7ccc4[nH]7)C=C6)C=C5)cc3)CCN2c2ccc(F)cc2)cc1
REMARK SMILES IDX 13 1 12 2 11 3 9 4 10 5 8 6 7 7 85 8 83 9 84 10 6 11 3 12
REMARK SMILES IDX 4 13 94 14 5 15 93 16 2 17 1 18 86 19 87 20 92 21 88 22
REMARK SMILES IDX 91 23 89 24 90 25 14 26 15 27 16 28 17 29 18 30 82 31 19 32
REMARK SMILES IDX 81 33 20 34 21 35 22 36 75 37 23 38 80 39 74 40 76 41 24 42
REMARK SMILES IDX 79 43 73 44 72 45 25 47 59 48 38 49 58 50 39 51 42 52 57 53
REMARK SMILES IDX 77 54 40 55 41 56 56 58 78 59 43 60 26 61 27 62 36 63 28 64
REMARK SMILES IDX 29 65 35 66 37 67 30 68 31 69 32 70 33 71 34 72 60 73 61 74
REMARK SMILES IDX 70 75 62 76 63 77 69 78 71 79 64 80 65 81 66 82 67 83 68 84
REMARK SMILES IDX 44 85 45 86 54 87 46 88 47 89 53 90 55 91 48 92 49 93 50 94
REMARK SMILES IDX 51 95 52 96
REMARK H PARENT 76 46 42 57
REMARK Flexibility Score: inf
ROOT
ATOM      1  C   UNL     1       5.265  -2.550  -2.615  1.00  0.00     0.275 C 
ENDROOT
BRANCH   1   2
ATOM      2  C   UNL     1       5.662  -2.442  -4.090  1.00  0.00     0.274 C 
BRANCH   2   3
ATOM      3  O   UNL     1       4.503  -2.457  -4.948  1.00  0.00    -0.462 OA
BRANCH   3   4
ATOM      4  C   UNL     1       4.281  -3.582  -5.669  1.00  0.00     0.311 C 
ATOM      5  O   UNL     1       5.020  -4.562  -5.659  1.00  0.00    -0.252 OA
BRANCH   4   6
ATOM      6  C   UNL     1       3.049  -3.531  -6.551  1.00  0.00     0.128 C 
ATOM      7  C   UNL     1       1.999  -2.478  -6.154  1.00  0.00     0.127 C 
ATOM      8  N   UNL     1       2.446  -1.283  -6.893  1.00  0.00    -0.364 N 
ATOM      9  C   UNL     1       3.431  -3.144  -7.976  1.00  0.00     0.039 C 
ATOM     10  C   UNL     1       3.379  -1.620  -7.968  1.00  0.00     0.118 C 
BRANCH   7  11
ATOM     11  C   UNL     1       0.592  -2.911  -6.598  1.00  0.00    -0.024 A 
ATOM     12  C   UNL     1      -1.923  -3.860  -7.485  1.00  0.00     0.118 A 
ATOM     13  C   UNL     1      -1.261  -4.494  -6.436  1.00  0.00     0.047 A 
ATOM     14  C   UNL     1      -1.368  -2.714  -8.047  1.00  0.00     0.047 A 
ATOM     15  C   UNL     1      -0.020  -4.023  -5.995  1.00  0.00     0.010 A 
ATOM     16  C   UNL     1      -0.124  -2.248  -7.608  1.00  0.00     0.010 A 
BRANCH  12  17
ATOM     17  O   UNL     1      -3.118  -4.409  -7.858  1.00  0.00    -0.497 OA
ATOM     18  C   UNL     1      -3.425  -4.285  -9.243  1.00  0.00     0.278 C 
ENDBRANCH  12  17
ENDBRANCH   7  11
BRANCH   8  19
ATOM     19  C   UNL     1       2.401   0.006  -6.410  1.00  0.00     0.037 A 
ATOM     20  C   UNL     1       2.238   1.083  -7.299  1.00  0.00     0.029 A 
ATOM     21  C   UNL     1       2.532   0.311  -5.047  1.00  0.00     0.029 A 
ATOM     22  C   UNL     1       2.207   2.405  -6.851  1.00  0.00     0.041 A 
ATOM     23  C   UNL     1       2.526   1.634  -4.592  1.00  0.00     0.041 A 
ATOM     24  C   UNL     1       2.361   2.669  -5.499  1.00  0.00     0.123 A 
ATOM     25  F   UNL     1       2.355   3.937  -5.067  1.00  0.00    -0.207 F 
ENDBRANCH   8  19
ENDBRANCH   4   6
ENDBRANCH   3   4
ENDBRANCH   2   3
ENDBRANCH   1   2
BRANCH   1  26
ATOM     26  O   UNL     1       4.707  -3.842  -2.314  1.00  0.00    -0.458 OA
BRANCH  26  27
ATOM     27  C   UNL     1       3.363  -3.919  -2.442  1.00  0.00     0.338 C 
ATOM     28  O   UNL     1       2.595  -3.019  -2.732  1.00  0.00    -0.246 OA
BRANCH  27  29
ATOM     29  C   UNL     1       2.935  -5.319  -2.328  1.00  0.00     0.060 A 
ATOM     30  C   UNL     1       2.445  -5.940  -3.478  1.00  0.00     0.016 A 
ATOM     31  C   UNL     1       2.911  -5.974  -1.098  1.00  0.00     0.016 A 
ATOM     32  C   UNL     1       1.886  -7.210  -3.401  1.00  0.00     0.010 A 
ATOM     33  C   UNL     1       2.371  -7.262  -1.025  1.00  0.00     0.010 A 
ATOM     34  C   UNL     1       1.835  -7.877  -2.171  1.00  0.00    -0.014 A 
BRANCH  34  35
ATOM     35  C   UNL     1       1.169  -9.197  -2.085  1.00  0.00     0.031 A 
ATOM     36  C   UNL     1      -0.171  -9.315  -1.418  1.00  0.00     0.074 A 
ATOM     37  C   UNL     1       1.753 -10.277  -2.636  1.00  0.00     0.049 A 
ATOM     38  N   UNL     1      -0.879 -10.385  -1.167  1.00  0.00    -0.248 NA
ATOM     39  C   UNL     1      -0.797  -8.060  -0.973  1.00  0.00     0.031 C 
ATOM     40  C   UNL     1       3.027 -10.272  -3.357  1.00  0.00     0.029 A 
ATOM     41  N   UNL     1       1.350 -11.587  -2.679  1.00  0.00    -0.354 N 
ATOM     42  C   UNL     1      -2.022  -9.940  -0.515  1.00  0.00     0.074 A 
ATOM     43  C   UNL     1      -1.907  -8.501  -0.397  1.00  0.00     0.031 C 
ATOM     44  C   UNL     1       3.296 -11.519  -3.778  1.00  0.00     0.029 A 
ATOM     45  C   UNL     1       2.241 -12.416  -3.316  1.00  0.00     0.049 A 
ATOM     46  H   UNL     1       0.502 -11.903  -2.290  1.00  0.00     0.167 HD
ATOM     47  C   UNL     1      -3.070 -10.666  -0.058  1.00  0.00     0.037 A 
ATOM     48  C   UNL     1       2.222 -13.752  -3.483  1.00  0.00     0.037 A 
ATOM     49  C   UNL     1      -3.181 -12.095  -0.194  1.00  0.00     0.049 A 
ATOM     50  C   UNL     1       1.072 -14.543  -2.924  1.00  0.00     0.074 A 
ATOM     51  C   UNL     1      -4.198 -12.927   0.241  1.00  0.00     0.029 A 
ATOM     52  N   UNL     1      -2.243 -12.904  -0.818  1.00  0.00    -0.354 N 
ATOM     53  N   UNL     1       0.014 -14.113  -2.279  1.00  0.00    -0.248 NA
ATOM     54  C   UNL     1       1.117 -16.000  -3.107  1.00  0.00     0.031 C 
ATOM     55  C   UNL     1      -3.860 -14.243  -0.096  1.00  0.00     0.029 A 
ATOM     56  C   UNL     1      -2.650 -14.227  -0.771  1.00  0.00     0.049 A 
ATOM     57  H   UNL     1      -1.410 -12.585  -1.234  1.00  0.00     0.167 HD
ATOM     58  C   UNL     1      -0.741 -15.244  -1.991  1.00  0.00     0.074 A 
ATOM     59  C   UNL     1      -0.023 -16.376  -2.543  1.00  0.00     0.031 C 
ATOM     60  C   UNL     1      -1.921 -15.338  -1.330  1.00  0.00     0.037 A 
BRANCH  47  61
ATOM     61  C   UNL     1      -4.159  -9.924   0.664  1.00  0.00     0.058 A 
ATOM     62  C   UNL     1      -5.081  -9.116  -0.019  1.00  0.00     0.135 A 
ATOM     63  C   UNL     1      -4.282 -10.024   2.059  1.00  0.00     0.135 A 
ATOM     64  F   UNL     1      -4.996  -8.971  -1.351  1.00  0.00    -0.206 F 
ATOM     65  C   UNL     1      -6.069  -8.407   0.660  1.00  0.00     0.059 A 
ATOM     66  C   UNL     1      -5.275  -9.342   2.756  1.00  0.00     0.059 A 
ATOM     67  F   UNL     1      -3.425 -10.782   2.760  1.00  0.00    -0.206 F 
ATOM     68  C   UNL     1      -6.152  -8.521   2.049  1.00  0.00     0.060 A 
BRANCH  68  69
ATOM     69  S   UNL     1      -7.423  -7.582   2.923  1.00  0.00     0.124 S 
ATOM     70  O   UNL     1      -6.843  -6.242   2.924  1.00  0.00    -0.237 OA
ATOM     71  O   UNL     1      -8.594  -7.765   2.072  1.00  0.00    -0.237 OA
ATOM     72  O   UNL     1      -7.491  -8.236   4.226  1.00  0.00    -0.744 OA
ENDBRANCH  68  69
ENDBRANCH  47  61
BRANCH  48  73
ATOM     73  C   UNL     1       3.338 -14.421  -4.200  1.00  0.00     0.058 A 
ATOM     74  C   UNL     1       3.157 -14.950  -5.485  1.00  0.00     0.135 A 
ATOM     75  C   UNL     1       4.615 -14.518  -3.624  1.00  0.00     0.135 A 
ATOM     76  F   UNL     1       1.951 -14.889  -6.071  1.00  0.00    -0.206 F 
ATOM     77  C   UNL     1       4.201 -15.557  -6.176  1.00  0.00     0.059 A 
ATOM     78  C   UNL     1       5.680 -15.100  -4.304  1.00  0.00     0.059 A 
ATOM     79  F   UNL     1       4.841 -14.017  -2.400  1.00  0.00    -0.206 F 
ATOM     80  C   UNL     1       5.461 -15.623  -5.578  1.00  0.00     0.060 A 
BRANCH  80  81
ATOM     81  S   UNL     1       6.828 -16.351  -6.507  1.00  0.00     0.124 S 
ATOM     82  O   UNL     1       6.544 -17.775  -6.378  1.00  0.00    -0.237 OA
ATOM     83  O   UNL     1       6.638 -15.779  -7.837  1.00  0.00    -0.237 OA
ATOM     84  O   UNL     1       8.008 -15.874  -5.793  1.00  0.00    -0.744 OA
ENDBRANCH  80  81
ENDBRANCH  48  73
BRANCH  60  85
ATOM     85  C   UNL     1      -2.521 -16.707  -1.191  1.00  0.00     0.058 A 
ATOM     86  C   UNL     1      -2.024 -17.635  -0.263  1.00  0.00     0.135 A 
ATOM     87  C   UNL     1      -3.632 -17.078  -1.964  1.00  0.00     0.135 A 
ATOM     88  F   UNL     1      -0.958 -17.329   0.494  1.00  0.00    -0.206 F 
ATOM     89  C   UNL     1      -2.598 -18.893  -0.118  1.00  0.00     0.059 A 
ATOM     90  C   UNL     1      -4.234 -18.324  -1.821  1.00  0.00     0.059 A 
ATOM     91  F   UNL     1      -4.149 -16.222  -2.859  1.00  0.00    -0.206 F 
ATOM     92  C   UNL     1      -3.703 -19.229  -0.903  1.00  0.00     0.060 A 
BRANCH  92  93
ATOM     93  S   UNL     1      -4.463 -20.853  -0.686  1.00  0.00     0.124 S 
ATOM     94  O   UNL     1      -3.534 -21.711  -1.414  1.00  0.00    -0.237 OA
ATOM     95  O   UNL     1      -4.465 -21.009   0.765  1.00  0.00    -0.237 OA
ATOM     96  O   UNL     1      -5.780 -20.693  -1.294  1.00  0.00    -0.744 OA
ENDBRANCH  92  93
ENDBRANCH  60  85
ENDBRANCH  34  35
ENDBRANCH  27  29
ENDBRANCH  26  27
ENDBRANCH   1  26
TORSDOF 17
