REMARK SMILES Cc1c(Br)c(C)c2c(c1Br)O[C@H](C(F)(F)F)C(C(=O)OCCOC(=O)c1ccc(-c3c4nc(c(-c5c(F)cc(S(=O)(=O)[O-])cc5F)c5ccc([nH]5)c(-c5c(F)cc(S(=O)(=O)[O-])cc5F)c5nc(c(-c6c(F)cc(S(=O)(=O)[O-])cc6F)c6ccc3[nH]6)C=C5)C=C4)cc1)=C2
REMARK SMILES IDX 22 1 21 2 20 3 18 4 19 5 17 6 1 7 2 8 3 9 9 10 4 11 5 12
REMARK SMILES IDX 8 13 10 14 6 15 7 16 11 17 92 18 12 19 13 20 14 21 15 22
REMARK SMILES IDX 16 23 23 24 24 25 25 26 26 27 27 28 91 29 28 30 90 31 29 32
REMARK SMILES IDX 30 33 31 34 84 35 32 36 89 37 83 38 85 39 33 40 88 41 82 42
REMARK SMILES IDX 81 43 34 45 68 46 47 47 67 48 48 49 51 50 66 51 86 52 49 53
REMARK SMILES IDX 50 54 65 56 87 57 52 58 35 59 36 60 45 61 37 62 38 63 44 64
REMARK SMILES IDX 46 65 39 66 40 67 41 68 42 69 43 70 69 71 70 72 79 73 71 74
REMARK SMILES IDX 72 75 78 76 80 77 73 78 74 79 75 80 76 81 77 82 53 83 54 84
REMARK SMILES IDX 63 85 55 86 56 87 62 88 64 89 57 90 58 91 59 92 60 93 61 94
REMARK H PARENT 85 44 51 55
REMARK Flexibility Score: inf
ROOT
ATOM      1  C   UNL     1      -2.631  -4.400  -8.950  1.00  0.00     0.275 C 
ENDROOT
BRANCH   1   2
ATOM      2  C   UNL     1      -1.228  -4.772  -8.471  1.00  0.00     0.275 C 
BRANCH   2   3
ATOM      3  O   UNL     1      -1.014  -4.366  -7.102  1.00  0.00    -0.459 OA
BRANCH   3   4
ATOM      4  C   UNL     1      -0.247  -3.264  -6.934  1.00  0.00     0.338 C 
ATOM      5  O   UNL     1       0.291  -2.612  -7.815  1.00  0.00    -0.246 OA
BRANCH   4   6
ATOM      6  C   UNL     1      -0.126  -2.926  -5.504  1.00  0.00     0.087 C 
ATOM      7  C   UNL     1       1.112  -0.162   0.289  1.00  0.00     0.047 C 
ATOM      8  C   UNL     1       0.664  -0.526  -1.107  1.00  0.00    -0.019 A 
ATOM      9  C   UNL     1       0.239   0.459  -2.031  1.00  0.00     0.025 A 
ATOM     10  C   UNL     1       0.731  -1.868  -1.545  1.00  0.00     0.064 A 
ATOM     11  Br  UNL     1       0.236   2.304  -1.497  1.00  0.00    -0.050 Br
ATOM     12  C   UNL     1      -0.144   0.114  -3.351  1.00  0.00    -0.026 A 
ATOM     13  C   UNL     1       0.375  -2.227  -2.856  1.00  0.00     0.142 A 
ATOM     14  Br  UNL     1       1.377  -3.249  -0.380  1.00  0.00    -0.046 Br
ATOM     15  C   UNL     1      -0.643   1.148  -4.339  1.00  0.00     0.046 C 
ATOM     16  C   UNL     1      -0.049  -1.244  -3.759  1.00  0.00     0.022 A 
ATOM     17  O   UNL     1       0.439  -3.559  -3.182  1.00  0.00    -0.474 OA
ATOM     18  C   UNL     1      -0.331  -1.657  -5.133  1.00  0.00     0.027 C 
ATOM     19  C   UNL     1       0.365  -3.977  -4.566  1.00  0.00     0.316 C 
BRANCH  19  20
ATOM     20  C   UNL     1       1.730  -4.534  -5.001  1.00  0.00     0.430 C 
ATOM     21  F   UNL     1       2.178  -5.475  -4.135  1.00  0.00    -0.167 F 
ATOM     22  F   UNL     1       1.659  -5.136  -6.214  1.00  0.00    -0.167 F 
ATOM     23  F   UNL     1       2.676  -3.572  -5.081  1.00  0.00    -0.167 F 
ENDBRANCH  19  20
ENDBRANCH   4   6
ENDBRANCH   3   4
ENDBRANCH   2   3
ENDBRANCH   1   2
BRANCH   1  24
ATOM     24  O   UNL     1      -2.769  -2.971  -9.037  1.00  0.00    -0.458 OA
BRANCH  24  25
ATOM     25  C   UNL     1      -3.471  -2.399  -8.033  1.00  0.00     0.338 C 
ATOM     26  O   UNL     1      -4.027  -2.962  -7.105  1.00  0.00    -0.246 OA
BRANCH  25  27
ATOM     27  C   UNL     1      -3.409  -0.934  -8.145  1.00  0.00     0.060 A 
ATOM     28  C   UNL     1      -2.193  -0.308  -7.908  1.00  0.00     0.016 A 
ATOM     29  C   UNL     1      -4.568  -0.175  -8.281  1.00  0.00     0.016 A 
ATOM     30  C   UNL     1      -2.157   1.055  -7.638  1.00  0.00     0.010 A 
ATOM     31  C   UNL     1      -4.497   1.221  -8.159  1.00  0.00     0.010 A 
ATOM     32  C   UNL     1      -3.300   1.853  -7.775  1.00  0.00    -0.014 A 
BRANCH  32  33
ATOM     33  C   UNL     1      -3.236   3.319  -7.473  1.00  0.00     0.031 A 
ATOM     34  C   UNL     1      -4.222   3.951  -6.514  1.00  0.00     0.074 A 
ATOM     35  C   UNL     1      -2.265   4.089  -8.012  1.00  0.00     0.049 A 
ATOM     36  N   UNL     1      -4.436   5.218  -6.264  1.00  0.00    -0.248 NA
ATOM     37  C   UNL     1      -5.091   3.043  -5.746  1.00  0.00     0.031 C 
ATOM     38  C   UNL     1      -1.206   3.617  -8.908  1.00  0.00     0.029 A 
ATOM     39  N   UNL     1      -1.988   5.428  -7.867  1.00  0.00    -0.354 N 
ATOM     40  C   UNL     1      -5.499   5.261  -5.366  1.00  0.00     0.074 A 
ATOM     41  C   UNL     1      -5.894   3.892  -5.120  1.00  0.00     0.031 C 
ATOM     42  C   UNL     1      -0.354   4.620  -9.161  1.00  0.00     0.029 A 
ATOM     43  C   UNL     1      -0.875   5.842  -8.564  1.00  0.00     0.049 A 
ATOM     44  H   UNL     1      -2.535   6.034  -7.317  1.00  0.00     0.167 HD
ATOM     45  C   UNL     1      -6.086   6.342  -4.797  1.00  0.00     0.037 A 
ATOM     46  C   UNL     1      -0.353   7.069  -8.758  1.00  0.00     0.037 A 
ATOM     47  C   UNL     1      -5.641   7.699  -4.995  1.00  0.00     0.049 A 
ATOM     48  C   UNL     1      -1.054   8.257  -8.167  1.00  0.00     0.074 A 
ATOM     49  C   UNL     1      -6.169   8.863  -4.464  1.00  0.00     0.029 A 
ATOM     50  N   UNL     1      -4.549   8.073  -5.765  1.00  0.00    -0.354 N 
ATOM     51  N   UNL     1      -2.114   8.285  -7.395  1.00  0.00    -0.248 NA
ATOM     52  C   UNL     1      -0.515   9.582  -8.502  1.00  0.00     0.031 C 
ATOM     53  C   UNL     1      -5.424   9.943  -4.947  1.00  0.00     0.029 A 
ATOM     54  C   UNL     1      -4.399   9.450  -5.737  1.00  0.00     0.049 A 
ATOM     55  H   UNL     1      -3.967   7.451  -6.259  1.00  0.00     0.167 HD
ATOM     56  C   UNL     1      -2.364   9.629  -7.144  1.00  0.00     0.074 A 
ATOM     57  C   UNL     1      -1.333  10.381  -7.829  1.00  0.00     0.031 C 
ATOM     58  C   UNL     1      -3.364  10.186  -6.419  1.00  0.00     0.037 A 
BRANCH  45  59
ATOM     59  C   UNL     1      -7.293   6.120  -3.922  1.00  0.00     0.058 A 
ATOM     60  C   UNL     1      -7.196   5.549  -2.645  1.00  0.00     0.135 A 
ATOM     61  C   UNL     1      -8.563   6.549  -4.348  1.00  0.00     0.135 A 
ATOM     62  F   UNL     1      -6.013   5.106  -2.191  1.00  0.00    -0.206 F 
ATOM     63  C   UNL     1      -8.313   5.393  -1.829  1.00  0.00     0.059 A 
ATOM     64  C   UNL     1      -9.689   6.431  -3.538  1.00  0.00     0.059 A 
ATOM     65  F   UNL     1      -8.716   7.105  -5.561  1.00  0.00    -0.206 F 
ATOM     66  C   UNL     1      -9.556   5.841  -2.283  1.00  0.00     0.060 A 
BRANCH  66  67
ATOM     67  S   UNL     1     -10.991   5.644  -1.204  1.00  0.00     0.124 S 
ATOM     68  O   UNL     1     -11.164   4.194  -1.211  1.00  0.00    -0.237 OA
ATOM     69  O   UNL     1     -10.518   6.220   0.050  1.00  0.00    -0.237 OA
ATOM     70  O   UNL     1     -12.037   6.402  -1.885  1.00  0.00    -0.744 OA
ENDBRANCH  66  67
ENDBRANCH  45  59
BRANCH  46  71
ATOM     71  C   UNL     1       0.871   7.231  -9.592  1.00  0.00     0.058 A 
ATOM     72  C   UNL     1       2.083   7.648  -9.023  1.00  0.00     0.135 A 
ATOM     73  C   UNL     1       0.864   6.933 -10.965  1.00  0.00     0.135 A 
ATOM     74  F   UNL     1       2.140   7.961  -7.720  1.00  0.00    -0.206 F 
ATOM     75  C   UNL     1       3.245   7.757  -9.782  1.00  0.00     0.059 A 
ATOM     76  C   UNL     1       2.019   7.002 -11.737  1.00  0.00     0.059 A 
ATOM     77  F   UNL     1      -0.267   6.523 -11.560  1.00  0.00    -0.206 F 
ATOM     78  C   UNL     1       3.205   7.421 -11.136  1.00  0.00     0.060 A 
BRANCH  78  79
ATOM     79  S   UNL     1       4.734   7.497 -12.094  1.00  0.00     0.124 S 
ATOM     80  O   UNL     1       4.954   8.936 -12.182  1.00  0.00    -0.237 OA
ATOM     81  O   UNL     1       5.662   6.758 -11.245  1.00  0.00    -0.237 OA
ATOM     82  O   UNL     1       4.380   6.836 -13.347  1.00  0.00    -0.744 OA
ENDBRANCH  78  79
ENDBRANCH  46  71
BRANCH  58  83
ATOM     83  C   UNL     1      -3.386  11.684  -6.304  1.00  0.00     0.058 A 
ATOM     84  C   UNL     1      -3.782  12.496  -7.378  1.00  0.00     0.135 A 
ATOM     85  C   UNL     1      -3.084  12.309  -5.083  1.00  0.00     0.135 A 
ATOM     86  F   UNL     1      -4.072  11.948  -8.569  1.00  0.00    -0.206 F 
ATOM     87  C   UNL     1      -3.870  13.877  -7.248  1.00  0.00     0.059 A 
ATOM     88  C   UNL     1      -3.191  13.686  -4.923  1.00  0.00     0.059 A 
ATOM     89  F   UNL     1      -2.707  11.575  -4.024  1.00  0.00    -0.206 F 
ATOM     90  C   UNL     1      -3.580  14.463  -6.013  1.00  0.00     0.060 A 
BRANCH  90  91
ATOM     91  S   UNL     1      -3.754  16.252  -5.848  1.00  0.00     0.124 S 
ATOM     92  O   UNL     1      -2.643  16.733  -6.662  1.00  0.00    -0.237 OA
ATOM     93  O   UNL     1      -5.088  16.485  -6.394  1.00  0.00    -0.237 OA
ATOM     94  O   UNL     1      -3.623  16.476  -4.411  1.00  0.00    -0.744 OA
ENDBRANCH  90  91
ENDBRANCH  58  83
ENDBRANCH  32  33
ENDBRANCH  25  27
ENDBRANCH  24  25
ENDBRANCH   1  24
TORSDOF 15
