REMARK SMILES COc1ccc(-c2ccc(CCC(=O)OCCOC(=O)c3ccc(-c4c5nc(c(-c6c(F)cc(S(=O)(=O)[O-])cc6F)c6ccc([nH]6)c(-c6c(F)cc(S(=O)(=O)[O-])cc6F)c6nc(c(-c7c(F)cc(S(=O)(=O)[O-])cc7F)c7ccc4[nH]7)C=C6)C=C5)cc3)n2-c2ccc(C(C)=O)cc2)cc1
REMARK SMILES IDX 16 1 15 2 13 3 14 4 12 5 11 6 10 7 7 8 8 9 87 10 9 11 6 12
REMARK SMILES IDX 3 13 4 14 98 15 5 16 97 17 2 18 1 19 88 20 89 21 96 22 90 23
REMARK SMILES IDX 95 24 91 25 92 26 93 27 94 28 17 29 18 30 19 31 20 32 21 33
REMARK SMILES IDX 22 34 86 35 23 36 85 37 24 38 25 39 26 40 79 41 27 42 84 43
REMARK SMILES IDX 78 44 80 45 28 46 83 47 77 48 76 49 29 51 63 52 42 53 62 54
REMARK SMILES IDX 43 55 46 56 61 57 81 58 44 59 45 60 60 62 82 63 47 64 30 65
REMARK SMILES IDX 31 66 40 67 32 68 33 69 39 70 41 71 34 72 35 73 36 74 37 75
REMARK SMILES IDX 38 76 64 77 65 78 74 79 66 80 67 81 73 82 75 83 68 84 69 85
REMARK SMILES IDX 70 86 71 87 72 88 48 89 49 90 58 91 50 92 51 93 57 94 59 95
REMARK SMILES IDX 52 96 53 97 54 98 55 99 56 100
REMARK H PARENT 80 50 46 61
REMARK Flexibility Score: inf
ROOT
ATOM      1  C   UNL     1       6.768   5.185  -7.591  1.00  0.00     0.274 C 
ENDROOT
BRANCH   1   2
ATOM      2  O   UNL     1       5.623   5.487  -6.769  1.00  0.00    -0.462 OA
BRANCH   2   3
ATOM      3  C   UNL     1       5.305   6.797  -6.613  1.00  0.00     0.306 C 
ATOM      4  O   UNL     1       5.958   7.731  -7.072  1.00  0.00    -0.252 OA
BRANCH   3   5
ATOM      5  C   UNL     1       4.098   7.001  -5.726  1.00  0.00     0.129 C 
BRANCH   5   6
ATOM      6  C   UNL     1       2.751   6.551  -6.296  1.00  0.00     0.066 C 
BRANCH   6   7
ATOM      7  C   UNL     1       2.493   5.076  -6.114  1.00  0.00     0.024 A 
ATOM      8  C   UNL     1       2.056   3.184  -4.978  1.00  0.00     0.053 A 
ATOM      9  C   UNL     1       2.724   2.834  -6.136  1.00  0.00     0.029 A 
ATOM     10  N   UNL     1       1.746   4.538  -5.071  1.00  0.00    -0.314 N 
ATOM     11  C   UNL     1       2.954   4.008  -6.862  1.00  0.00     0.024 A 
BRANCH   8  12
ATOM     12  C   UNL     1       1.625   2.263  -3.943  1.00  0.00    -0.001 A 
ATOM     13  C   UNL     1       0.863   0.431  -1.991  1.00  0.00     0.118 A 
ATOM     14  C   UNL     1      -0.080   0.916  -2.898  1.00  0.00     0.047 A 
ATOM     15  C   UNL     1       2.200   0.820  -2.090  1.00  0.00     0.047 A 
ATOM     16  C   UNL     1       0.298   1.838  -3.871  1.00  0.00     0.014 A 
ATOM     17  C   UNL     1       2.580   1.737  -3.066  1.00  0.00     0.014 A 
BRANCH  13  18
ATOM     18  O   UNL     1       0.411  -0.467  -1.063  1.00  0.00    -0.497 OA
ATOM     19  C   UNL     1       0.880  -0.180   0.251  1.00  0.00     0.278 C 
ENDBRANCH  13  18
ENDBRANCH   8  12
BRANCH  10  20
ATOM     20  C   UNL     1       0.815   5.260  -4.282  1.00  0.00     0.046 A 
ATOM     21  C   UNL     1      -0.151   6.040  -4.933  1.00  0.00     0.027 A 
ATOM     22  C   UNL     1       0.853   5.206  -2.891  1.00  0.00     0.027 A 
ATOM     23  C   UNL     1      -1.064   6.794  -4.193  1.00  0.00     0.014 A 
ATOM     24  C   UNL     1      -0.051   5.979  -2.156  1.00  0.00     0.014 A 
ATOM     25  C   UNL     1      -1.011   6.785  -2.796  1.00  0.00     0.017 A 
BRANCH  25  26
ATOM     26  C   UNL     1      -1.920   7.604  -1.935  1.00  0.00     0.159 C 
ATOM     27  C   UNL     1      -3.013   8.452  -2.537  1.00  0.00     0.093 C 
ATOM     28  O   UNL     1      -1.776   7.573  -0.711  1.00  0.00    -0.295 OA
ENDBRANCH  25  26
ENDBRANCH  10  20
ENDBRANCH   6   7
ENDBRANCH   5   6
ENDBRANCH   3   5
ENDBRANCH   2   3
ENDBRANCH   1   2
BRANCH   1  29
ATOM     29  C   UNL     1       6.427   4.926  -9.064  1.00  0.00     0.275 C 
BRANCH  29  30
ATOM     30  O   UNL     1       6.046   6.098  -9.803  1.00  0.00    -0.458 OA
BRANCH  30  31
ATOM     31  C   UNL     1       4.730   6.362  -9.693  1.00  0.00     0.338 C 
ATOM     32  O   UNL     1       3.945   5.827  -8.933  1.00  0.00    -0.246 OA
BRANCH  31  33
ATOM     33  C   UNL     1       4.186   7.264 -10.689  1.00  0.00     0.060 A 
ATOM     34  C   UNL     1       3.173   8.134 -10.262  1.00  0.00     0.016 A 
ATOM     35  C   UNL     1       4.392   6.959 -12.034  1.00  0.00     0.016 A 
ATOM     36  C   UNL     1       2.318   8.680 -11.198  1.00  0.00     0.010 A 
ATOM     37  C   UNL     1       3.524   7.489 -12.969  1.00  0.00     0.010 A 
ATOM     38  C   UNL     1       2.490   8.339 -12.543  1.00  0.00    -0.014 A 
BRANCH  38  39
ATOM     39  C   UNL     1       1.670   9.054 -13.539  1.00  0.00     0.031 A 
ATOM     40  C   UNL     1       2.303  10.393 -13.921  1.00  0.00     0.074 A 
ATOM     41  C   UNL     1       0.509   8.437 -13.913  1.00  0.00     0.049 A 
ATOM     42  N   UNL     1       1.771  11.454 -14.443  1.00  0.00    -0.248 NA
ATOM     43  C   UNL     1       3.745  10.624 -13.598  1.00  0.00     0.031 C 
ATOM     44  C   UNL     1       0.043   7.131 -13.403  1.00  0.00     0.029 A 
ATOM     45  N   UNL     1      -0.510   8.769 -14.785  1.00  0.00    -0.354 N 
ATOM     46  C   UNL     1       2.820  12.360 -14.707  1.00  0.00     0.074 A 
ATOM     47  C   UNL     1       3.984  11.852 -14.054  1.00  0.00     0.031 C 
ATOM     48  C   UNL     1      -1.169   6.822 -13.912  1.00  0.00     0.029 A 
ATOM     49  C   UNL     1      -1.603   7.867 -14.819  1.00  0.00     0.049 A 
ATOM     50  H   UNL     1      -0.479   9.579 -15.345  1.00  0.00     0.167 HD
ATOM     51  C   UNL     1       2.708  13.420 -15.555  1.00  0.00     0.037 A 
ATOM     52  C   UNL     1      -2.784   7.975 -15.503  1.00  0.00     0.037 A 
ATOM     53  C   UNL     1       1.384  13.514 -16.066  1.00  0.00     0.049 A 
ATOM     54  C   UNL     1      -2.631   9.170 -16.353  1.00  0.00     0.074 A 
ATOM     55  C   UNL     1       0.208  13.940 -15.509  1.00  0.00     0.029 A 
ATOM     56  N   UNL     1       1.108  12.819 -17.218  1.00  0.00    -0.354 N 
ATOM     57  N   UNL     1      -1.869   9.246 -17.404  1.00  0.00    -0.248 NA
ATOM     58  C   UNL     1      -3.316  10.405 -15.955  1.00  0.00     0.031 C 
ATOM     59  C   UNL     1      -0.777  13.143 -16.128  1.00  0.00     0.029 A 
ATOM     60  C   UNL     1      -0.183  12.355 -17.120  1.00  0.00     0.049 A 
ATOM     61  H   UNL     1       1.722  12.679 -17.975  1.00  0.00     0.167 HD
ATOM     62  C   UNL     1      -1.742  10.602 -17.588  1.00  0.00     0.074 A 
ATOM     63  C   UNL     1      -2.849  11.220 -16.895  1.00  0.00     0.031 C 
ATOM     64  C   UNL     1      -0.520  11.139 -17.831  1.00  0.00     0.037 A 
BRANCH  51  65
ATOM     65  C   UNL     1       3.758  14.314 -16.148  1.00  0.00     0.058 A 
ATOM     66  C   UNL     1       3.370  15.602 -16.583  1.00  0.00     0.135 A 
ATOM     67  C   UNL     1       5.011  13.858 -16.586  1.00  0.00     0.135 A 
ATOM     68  F   UNL     1       2.213  16.146 -16.172  1.00  0.00    -0.206 F 
ATOM     69  C   UNL     1       4.117  16.337 -17.496  1.00  0.00     0.059 A 
ATOM     70  C   UNL     1       5.798  14.599 -17.472  1.00  0.00     0.059 A 
ATOM     71  F   UNL     1       5.470  12.649 -16.233  1.00  0.00    -0.206 F 
ATOM     72  C   UNL     1       5.314  15.810 -17.963  1.00  0.00     0.060 A 
BRANCH  72  73
ATOM     73  S   UNL     1       6.196  16.707 -19.257  1.00  0.00     0.124 S 
ATOM     74  O   UNL     1       5.354  16.452 -20.421  1.00  0.00    -0.237 OA
ATOM     75  O   UNL     1       6.176  18.078 -18.752  1.00  0.00    -0.237 OA
ATOM     76  O   UNL     1       7.510  16.073 -19.272  1.00  0.00    -0.744 OA
ENDBRANCH  72  73
ENDBRANCH  51  65
BRANCH  52  77
ATOM     77  C   UNL     1      -4.151   7.310 -15.520  1.00  0.00     0.058 A 
ATOM     78  C   UNL     1      -4.559   6.222 -14.736  1.00  0.00     0.135 A 
ATOM     79  C   UNL     1      -5.207   7.900 -16.277  1.00  0.00     0.135 A 
ATOM     80  F   UNL     1      -3.674   5.470 -14.073  1.00  0.00    -0.206 F 
ATOM     81  C   UNL     1      -5.911   5.862 -14.583  1.00  0.00     0.059 A 
ATOM     82  C   UNL     1      -6.556   7.597 -16.105  1.00  0.00     0.059 A 
ATOM     83  F   UNL     1      -4.972   8.843 -17.200  1.00  0.00    -0.206 F 
ATOM     84  C   UNL     1      -6.907   6.596 -15.223  1.00  0.00     0.060 A 
BRANCH  84  85
ATOM     85  S   UNL     1      -8.649   6.354 -14.816  1.00  0.00     0.124 S 
ATOM     86  O   UNL     1      -9.046   5.329 -15.773  1.00  0.00    -0.237 OA
ATOM     87  O   UNL     1      -8.594   5.933 -13.418  1.00  0.00    -0.237 OA
ATOM     88  O   UNL     1      -9.223   7.680 -15.032  1.00  0.00    -0.744 OA
ENDBRANCH  84  85
ENDBRANCH  52  77
BRANCH  64  89
ATOM     89  C   UNL     1       0.463  10.191 -18.485  1.00  0.00     0.058 A 
ATOM     90  C   UNL     1       0.269   9.784 -19.813  1.00  0.00     0.135 A 
ATOM     91  C   UNL     1       1.549   9.604 -17.812  1.00  0.00     0.135 A 
ATOM     92  F   UNL     1      -0.754  10.288 -20.523  1.00  0.00    -0.206 F 
ATOM     93  C   UNL     1       1.114   8.865 -20.441  1.00  0.00     0.059 A 
ATOM     94  C   UNL     1       2.418   8.693 -18.417  1.00  0.00     0.059 A 
ATOM     95  F   UNL     1       1.790   9.898 -16.535  1.00  0.00    -0.206 F 
ATOM     96  C   UNL     1       2.192   8.328 -19.737  1.00  0.00     0.060 A 
BRANCH  96  97
ATOM     97  S   UNL     1       3.296   7.166 -20.573  1.00  0.00     0.124 S 
ATOM     98  O   UNL     1       2.392   6.076 -20.927  1.00  0.00    -0.237 OA
ATOM     99  O   UNL     1       3.790   7.964 -21.690  1.00  0.00    -0.237 OA
ATOM    100  O   UNL     1       4.291   6.838 -19.555  1.00  0.00    -0.744 OA
ENDBRANCH  96  97
ENDBRANCH  64  89
ENDBRANCH  38  39
ENDBRANCH  31  33
ENDBRANCH  30  31
ENDBRANCH  29  30
ENDBRANCH   1  29
TORSDOF 20
