REMARK SMILES O=C(N[C@@H](C(=O)OCCOC(=O)c1ccc(-c2c3nc(c(-c4c(F)cc(S(=O)(=O)[O-])cc4F)c4ccc([nH]4)c(-c4c(F)cc(S(=O)(=O)[O-])cc4F)c4nc(c(-c5c(F)cc(S(=O)(=O)[O-])cc5F)c5ccc2[nH]5)C=C4)C=C3)cc1)c1ccccc1)c1ccc(Br)nc1
REMARK SMILES IDX 9 1 8 2 7 3 5 4 6 5 4 6 3 7 1 8 2 9 85 11 86 12 91 13 87 14
REMARK SMILES IDX 90 15 88 16 89 17 79 18 80 19 84 20 81 21 83 22 82 23 10 24
REMARK SMILES IDX 11 25 12 26 13 27 14 28 78 29 15 30 77 31 16 32 17 33 18 34
REMARK SMILES IDX 71 35 19 36 76 37 70 38 72 39 20 40 75 41 69 42 68 43 21 45
REMARK SMILES IDX 55 46 34 47 54 48 35 49 38 50 53 51 73 52 36 53 37 54 52 56
REMARK SMILES IDX 74 57 39 58 22 59 23 60 32 61 24 62 25 63 31 64 33 65 26 66
REMARK SMILES IDX 27 67 28 68 29 69 30 70 56 71 57 72 66 73 58 74 59 75 65 76
REMARK SMILES IDX 67 77 60 78 61 79 62 80 63 81 64 82 40 83 41 84 50 85 42 86
REMARK SMILES IDX 43 87 49 88 51 89 44 90 45 91 46 92 47 93 48 94
REMARK H PARENT 3 10 72 44 38 55
REMARK Flexibility Score: inf
ROOT
ATOM      1  C   UNL     1       4.698  -1.424   4.844  1.00  0.00     0.275 C 
ENDROOT
BRANCH   1   2
ATOM      2  C   UNL     1       4.993  -0.205   3.975  1.00  0.00     0.274 C 
BRANCH   2   3
ATOM      3  O   UNL     1       4.351  -0.337   2.689  1.00  0.00    -0.460 OA
BRANCH   3   4
ATOM      4  C   UNL     1       5.171  -0.554   1.619  1.00  0.00     0.333 C 
ATOM      5  O   UNL     1       6.393  -0.624   1.691  1.00  0.00    -0.249 OA
BRANCH   4   6
ATOM      6  C   UNL     1       4.390  -0.638   0.290  1.00  0.00     0.223 C 
BRANCH   6   7
ATOM      7  N   UNL     1       2.940  -0.459   0.438  1.00  0.00    -0.335 N 
ATOM      8  O   UNL     1       0.954   0.601   0.265  1.00  0.00    -0.269 OA
ATOM      9  C   UNL     1       2.136   0.531  -0.053  1.00  0.00     0.253 C 
ATOM     10  H   UNL     1       2.481  -1.151   0.967  1.00  0.00     0.165 HD
BRANCH   9  11
ATOM     11  C   UNL     1       2.712   1.587  -0.897  1.00  0.00     0.058 A 
ATOM     12  C   UNL     1       2.607   2.911  -0.475  1.00  0.00     0.018 A 
ATOM     13  C   UNL     1       3.386   1.316  -2.078  1.00  0.00     0.126 A 
ATOM     14  C   UNL     1       3.236   3.908  -1.215  1.00  0.00     0.037 A 
ATOM     15  N   UNL     1       4.016   2.268  -2.809  1.00  0.00    -0.249 NA
ATOM     16  C   UNL     1       3.937   3.541  -2.356  1.00  0.00     0.106 A 
ATOM     17  Br  UNL     1       4.856   4.882  -3.330  1.00  0.00    -0.029 Br
ENDBRANCH   9  11
ENDBRANCH   6   7
BRANCH   6  18
ATOM     18  C   UNL     1       4.697  -1.886  -0.527  1.00  0.00    -0.014 A 
ATOM     19  C   UNL     1       3.879  -3.030  -0.486  1.00  0.00     0.006 A 
ATOM     20  C   UNL     1       5.829  -1.912  -1.361  1.00  0.00     0.006 A 
ATOM     21  C   UNL     1       4.170  -4.150  -1.272  1.00  0.00     0.000 A 
ATOM     22  C   UNL     1       6.119  -3.034  -2.142  1.00  0.00     0.000 A 
ATOM     23  C   UNL     1       5.287  -4.150  -2.102  1.00  0.00     0.000 A 
ENDBRANCH   6  18
ENDBRANCH   4   6
ENDBRANCH   3   4
ENDBRANCH   2   3
ENDBRANCH   1   2
BRANCH   1  24
ATOM     24  O   UNL     1       5.310  -2.587   4.262  1.00  0.00    -0.458 OA
BRANCH  24  25
ATOM     25  C   UNL     1       4.467  -3.473   3.683  1.00  0.00     0.338 C 
ATOM     26  O   UNL     1       3.250  -3.441   3.669  1.00  0.00    -0.246 OA
BRANCH  25  27
ATOM     27  C   UNL     1       5.259  -4.485   2.967  1.00  0.00     0.060 A 
ATOM     28  C   UNL     1       6.064  -4.073   1.912  1.00  0.00     0.016 A 
ATOM     29  C   UNL     1       5.116  -5.842   3.249  1.00  0.00     0.016 A 
ATOM     30  C   UNL     1       6.653  -5.015   1.079  1.00  0.00     0.010 A 
ATOM     31  C   UNL     1       5.807  -6.784   2.473  1.00  0.00     0.010 A 
ATOM     32  C   UNL     1       6.564  -6.384   1.356  1.00  0.00    -0.014 A 
BRANCH  32  33
ATOM     33  C   UNL     1       7.246  -7.369   0.465  1.00  0.00     0.031 A 
ATOM     34  C   UNL     1       6.477  -8.505  -0.159  1.00  0.00     0.074 A 
ATOM     35  C   UNL     1       8.558  -7.231   0.175  1.00  0.00     0.049 A 
ATOM     36  N   UNL     1       6.930  -9.564  -0.780  1.00  0.00    -0.248 NA
ATOM     37  C   UNL     1       5.009  -8.452  -0.064  1.00  0.00     0.031 C 
ATOM     38  C   UNL     1       9.427  -6.153   0.655  1.00  0.00     0.029 A 
ATOM     39  N   UNL     1       9.390  -7.992  -0.611  1.00  0.00    -0.354 N 
ATOM     40  C   UNL     1       5.816 -10.340  -1.078  1.00  0.00     0.074 A 
ATOM     41  C   UNL     1       4.659  -9.619  -0.591  1.00  0.00     0.031 C 
ATOM     42  C   UNL     1      10.640  -6.280   0.100  1.00  0.00     0.029 A 
ATOM     43  C   UNL     1      10.678  -7.514  -0.673  1.00  0.00     0.049 A 
ATOM     44  H   UNL     1       9.092  -8.802  -1.085  1.00  0.00     0.167 HD
ATOM     45  C   UNL     1       5.768 -11.547  -1.692  1.00  0.00     0.037 A 
ATOM     46  C   UNL     1      11.790  -8.032  -1.231  1.00  0.00     0.037 A 
ATOM     47  C   UNL     1       6.914 -12.223  -2.244  1.00  0.00     0.049 A 
ATOM     48  C   UNL     1      11.719  -9.380  -1.883  1.00  0.00     0.074 A 
ATOM     49  C   UNL     1       6.962 -13.441  -2.903  1.00  0.00     0.029 A 
ATOM     50  N   UNL     1       8.211 -11.732  -2.222  1.00  0.00    -0.354 N 
ATOM     51  N   UNL     1      10.675 -10.152  -2.061  1.00  0.00    -0.248 NA
ATOM     52  C   UNL     1      12.984  -9.948  -2.367  1.00  0.00     0.031 C 
ATOM     53  C   UNL     1       8.293 -13.698  -3.254  1.00  0.00     0.029 A 
ATOM     54  C   UNL     1       9.068 -12.627  -2.842  1.00  0.00     0.049 A 
ATOM     55  H   UNL     1       8.483 -10.874  -1.824  1.00  0.00     0.167 HD
ATOM     56  C   UNL     1      11.160 -11.310  -2.653  1.00  0.00     0.074 A 
ATOM     57  C   UNL     1      12.585 -11.121  -2.840  1.00  0.00     0.031 C 
ATOM     58  C   UNL     1      10.487 -12.436  -2.994  1.00  0.00     0.037 A 
BRANCH  45  59
ATOM     59  C   UNL     1       4.439 -12.245  -1.764  1.00  0.00     0.058 A 
ATOM     60  C   UNL     1       3.442 -11.866  -2.674  1.00  0.00     0.135 A 
ATOM     61  C   UNL     1       4.184 -13.351  -0.935  1.00  0.00     0.135 A 
ATOM     62  F   UNL     1       3.628 -10.806  -3.476  1.00  0.00    -0.206 F 
ATOM     63  C   UNL     1       2.231 -12.549  -2.751  1.00  0.00     0.059 A 
ATOM     64  C   UNL     1       2.989 -14.061  -1.008  1.00  0.00     0.059 A 
ATOM     65  F   UNL     1       5.104 -13.754  -0.045  1.00  0.00    -0.206 F 
ATOM     66  C   UNL     1       2.014 -13.645  -1.912  1.00  0.00     0.060 A 
BRANCH  66  67
ATOM     67  S   UNL     1       0.445 -14.533  -2.029  1.00  0.00     0.124 S 
ATOM     68  O   UNL     1      -0.456 -13.620  -1.332  1.00  0.00    -0.237 OA
ATOM     69  O   UNL     1       0.249 -14.638  -3.471  1.00  0.00    -0.237 OA
ATOM     70  O   UNL     1       0.716 -15.793  -1.344  1.00  0.00    -0.744 OA
ENDBRANCH  66  67
ENDBRANCH  45  59
BRANCH  46  71
ATOM     71  C   UNL     1      13.079  -7.301  -1.112  1.00  0.00     0.058 A 
ATOM     72  C   UNL     1      13.665  -6.683  -2.224  1.00  0.00     0.135 A 
ATOM     73  C   UNL     1      13.720  -7.163   0.130  1.00  0.00     0.135 A 
ATOM     74  F   UNL     1      13.097  -6.801  -3.434  1.00  0.00    -0.206 F 
ATOM     75  C   UNL     1      14.835  -5.938  -2.108  1.00  0.00     0.059 A 
ATOM     76  C   UNL     1      14.874  -6.402   0.276  1.00  0.00     0.059 A 
ATOM     77  F   UNL     1      13.193  -7.731   1.226  1.00  0.00    -0.206 F 
ATOM     78  C   UNL     1      15.426  -5.795  -0.851  1.00  0.00     0.060 A 
BRANCH  78  79
ATOM     79  S   UNL     1      16.885  -4.745  -0.680  1.00  0.00     0.124 S 
ATOM     80  O   UNL     1      17.948  -5.649  -1.103  1.00  0.00    -0.237 OA
ATOM     81  O   UNL     1      16.586  -3.642  -1.589  1.00  0.00    -0.237 OA
ATOM     82  O   UNL     1      16.876  -4.394   0.737  1.00  0.00    -0.744 OA
ENDBRANCH  78  79
ENDBRANCH  46  71
BRANCH  58  83
ATOM     83  C   UNL     1      11.294 -13.556  -3.583  1.00  0.00     0.058 A 
ATOM     84  C   UNL     1      12.091 -14.378  -2.772  1.00  0.00     0.135 A 
ATOM     85  C   UNL     1      11.254 -13.825  -4.959  1.00  0.00     0.135 A 
ATOM     86  F   UNL     1      12.169 -14.152  -1.451  1.00  0.00    -0.206 F 
ATOM     87  C   UNL     1      12.839 -15.419  -3.309  1.00  0.00     0.059 A 
ATOM     88  C   UNL     1      11.980 -14.873  -5.516  1.00  0.00     0.059 A 
ATOM     89  F   UNL     1      10.501 -13.069  -5.774  1.00  0.00    -0.206 F 
ATOM     90  C   UNL     1      12.779 -15.657  -4.684  1.00  0.00     0.060 A 
BRANCH  90  91
ATOM     91  S   UNL     1      13.741 -17.023  -5.370  1.00  0.00     0.124 S 
ATOM     92  O   UNL     1      15.085 -16.456  -5.386  1.00  0.00    -0.237 OA
ATOM     93  O   UNL     1      13.513 -18.088  -4.398  1.00  0.00    -0.237 OA
ATOM     94  O   UNL     1      13.133 -17.238  -6.679  1.00  0.00    -0.744 OA
ENDBRANCH  90  91
ENDBRANCH  58  83
ENDBRANCH  32  33
ENDBRANCH  25  27
ENDBRANCH  24  25
ENDBRANCH   1  24
TORSDOF 17
