REMARK SMILES C[N@@H+]1CC2(CC[NH+](C(=O)c3cc(-c4ccncc4)n[nH]3)CC2)C[C@H]1C(=O)OCCOC(=O)c1ccc(-c2c3nc(c(-c4c(F)cc(S(=O)(=O)[O-])cc4F)c4ccc([nH]4)c(-c4c(F)cc(S(=O)(=O)[O-])cc4F)c4nc(c(-c5c(F)cc(S(=O)(=O)[O-])cc5F)c5ccc2[nH]5)C=C4)C=C3)cc1
REMARK SMILES IDX 28 1 27 2 25 3 26 4 24 5 1 6 2 7 3 8 4 10 23 11 5 12 22 13
REMARK SMILES IDX 6 14 21 15 7 16 8 18 9 19 10 20 11 21 20 22 12 23 19 24
REMARK SMILES IDX 13 26 14 27 18 28 15 29 17 30 16 31 29 32 30 33 31 34 32 35
REMARK SMILES IDX 33 36 34 37 98 38 35 39 97 40 36 41 37 42 38 43 91 44 39 45
REMARK SMILES IDX 96 46 90 47 92 48 40 49 95 50 89 51 88 52 41 54 75 55 54 56
REMARK SMILES IDX 74 57 55 58 58 59 73 60 93 61 56 62 57 63 72 65 94 66 59 67
REMARK SMILES IDX 42 68 43 69 52 70 44 71 45 72 51 73 53 74 46 75 47 76 48 77
REMARK SMILES IDX 49 78 50 79 76 80 77 81 86 82 78 83 79 84 85 85 87 86 80 87
REMARK SMILES IDX 81 88 82 89 83 90 84 91 60 92 61 93 70 94 62 95 63 96 69 97
REMARK SMILES IDX 71 98 64 99 65 100 66 101 67 102 68 103
REMARK H PARENT 2 9 7 17 20 25 92 53 58 64
REMARK Flexibility Score: inf
ROOT
ATOM      1  C   UNL     1       0.143   2.054   5.181  1.00  0.00     0.274 C 
ENDROOT
BRANCH   1   2
ATOM      2  O   UNL     1       0.411   1.892   3.777  1.00  0.00    -0.458 OA
BRANCH   2   3
ATOM      3  C   UNL     1       1.707   1.660   3.432  1.00  0.00     0.365 C 
ATOM      4  O   UNL     1       2.648   1.704   4.220  1.00  0.00    -0.245 OA
BRANCH   3   5
ATOM      5  C   UNL     1       1.919   1.363   1.937  1.00  0.00     0.295 C 
ATOM      6  C   UNL     1       0.909   0.102   0.116  1.00  0.00     0.333 C 
ATOM      7  N   UNL     1       0.674   1.055   1.200  1.00  0.00    -0.325 N 
ATOM      8  C   UNL     1       0.166   2.337   0.714  1.00  0.00     0.270 C 
ATOM      9  H   UNL     1      -0.012   0.601   1.803  1.00  0.00     0.348 HD
ATOM     10  C   UNL     1       1.373   3.289   0.568  1.00  0.00     0.036 C 
ATOM     11  C   UNL     1       2.544   2.551   1.232  1.00  0.00     0.091 C 
ATOM     12  C   UNL     1       1.101   4.618   1.304  1.00  0.00     0.075 C 
ATOM     13  C   UNL     1       1.709   3.571  -0.917  1.00  0.00     0.075 C 
ATOM     14  C   UNL     1       0.033   5.424   0.580  1.00  0.00     0.271 C 
ATOM     15  C   UNL     1       0.682   4.476  -1.598  1.00  0.00     0.271 C 
ATOM     16  N   UNL     1       0.458   5.673  -0.797  1.00  0.00    -0.266 N 
ATOM     17  H   UNL     1       1.312   5.270  -0.519  1.00  0.00     0.357 HD
BRANCH  16  18
ATOM     18  C   UNL     1       0.587   6.929  -1.380  1.00  0.00     0.362 C 
ATOM     19  O   UNL     1       0.653   7.088  -2.596  1.00  0.00    -0.224 OA
BRANCH  18  20
ATOM     20  C   UNL     1       0.599   8.053  -0.488  1.00  0.00     0.163 A 
ATOM     21  C   UNL     1       1.375   8.344   0.615  1.00  0.00     0.068 A 
ATOM     22  N   UNL     1      -0.236   9.122  -0.627  1.00  0.00    -0.269 N 
ATOM     23  C   UNL     1       0.817   9.522   1.166  1.00  0.00     0.093 A 
ATOM     24  N   UNL     1      -0.193   9.978   0.410  1.00  0.00    -0.175 NA
ATOM     25  H   UNL     1      -0.817   9.254  -1.411  1.00  0.00     0.190 HD
BRANCH  23  26
ATOM     26  C   UNL     1       1.195  10.165   2.412  1.00  0.00     0.005 A 
ATOM     27  C   UNL     1       2.492  10.641   2.599  1.00  0.00     0.030 A 
ATOM     28  C   UNL     1       0.267  10.276   3.447  1.00  0.00     0.030 A 
ATOM     29  C   UNL     1       2.802  11.217   3.818  1.00  0.00     0.111 A 
ATOM     30  C   UNL     1       0.680  10.857   4.632  1.00  0.00     0.111 A 
ATOM     31  N   UNL     1       1.927  11.332   4.841  1.00  0.00    -0.265 NA
ENDBRANCH  23  26
ENDBRANCH  18  20
ENDBRANCH  16  18
ENDBRANCH   3   5
ENDBRANCH   2   3
ENDBRANCH   1   2
BRANCH   1  32
ATOM     32  C   UNL     1      -0.450   0.775   5.771  1.00  0.00     0.275 C 
BRANCH  32  33
ATOM     33  O   UNL     1       0.485  -0.314   5.672  1.00  0.00    -0.458 OA
BRANCH  33  34
ATOM     34  C   UNL     1       0.230  -1.200   4.681  1.00  0.00     0.338 C 
ATOM     35  O   UNL     1      -0.719  -1.211   3.918  1.00  0.00    -0.246 OA
BRANCH  34  36
ATOM     36  C   UNL     1       1.337  -2.160   4.588  1.00  0.00     0.060 A 
ATOM     37  C   UNL     1       2.364  -1.901   3.683  1.00  0.00     0.016 A 
ATOM     38  C   UNL     1       1.303  -3.363   5.286  1.00  0.00     0.016 A 
ATOM     39  C   UNL     1       3.345  -2.850   3.431  1.00  0.00     0.010 A 
ATOM     40  C   UNL     1       2.315  -4.305   5.068  1.00  0.00     0.010 A 
ATOM     41  C   UNL     1       3.330  -4.065   4.122  1.00  0.00    -0.014 A 
BRANCH  41  42
ATOM     42  C   UNL     1       4.349  -5.098   3.814  1.00  0.00     0.031 A 
ATOM     43  C   UNL     1       3.925  -6.396   3.185  1.00  0.00     0.074 A 
ATOM     44  C   UNL     1       5.648  -4.864   4.084  1.00  0.00     0.049 A 
ATOM     45  N   UNL     1       4.626  -7.478   2.971  1.00  0.00    -0.248 NA
ATOM     46  C   UNL     1       2.522  -6.491   2.746  1.00  0.00     0.031 C 
ATOM     47  C   UNL     1       6.184  -3.621   4.645  1.00  0.00     0.029 A 
ATOM     48  N   UNL     1       6.753  -5.663   3.933  1.00  0.00    -0.354 N 
ATOM     49  C   UNL     1       3.743  -8.398   2.416  1.00  0.00     0.074 A 
ATOM     50  C   UNL     1       2.453  -7.748   2.330  1.00  0.00     0.031 C 
ATOM     51  C   UNL     1       7.513  -3.742   4.790  1.00  0.00     0.029 A 
ATOM     52  C   UNL     1       7.912  -5.090   4.400  1.00  0.00     0.049 A 
ATOM     53  H   UNL     1       6.718  -6.561   3.529  1.00  0.00     0.167 HD
ATOM     54  C   UNL     1       3.992  -9.668   2.019  1.00  0.00     0.037 A 
ATOM     55  C   UNL     1       9.148  -5.607   4.542  1.00  0.00     0.037 A 
ATOM     56  C   UNL     1       5.292 -10.287   2.079  1.00  0.00     0.049 A 
ATOM     57  C   UNL     1       9.390  -7.033   4.130  1.00  0.00     0.074 A 
ATOM     58  C   UNL     1       5.658 -11.560   1.678  1.00  0.00     0.029 A 
ATOM     59  N   UNL     1       6.439  -9.677   2.567  1.00  0.00    -0.354 N 
ATOM     60  N   UNL     1       8.544  -7.898   3.622  1.00  0.00    -0.248 NA
ATOM     61  C   UNL     1      10.749  -7.557   4.315  1.00  0.00     0.031 C 
ATOM     62  C   UNL     1       7.015 -11.735   1.966  1.00  0.00     0.029 A 
ATOM     63  C   UNL     1       7.508 -10.554   2.498  1.00  0.00     0.049 A 
ATOM     64  H   UNL     1       6.485  -8.756   2.912  1.00  0.00     0.167 HD
ATOM     65  C   UNL     1       9.273  -9.062   3.409  1.00  0.00     0.074 A 
ATOM     66  C   UNL     1      10.632  -8.785   3.829  1.00  0.00     0.031 C 
ATOM     67  C   UNL     1       8.856 -10.254   2.914  1.00  0.00     0.037 A 
BRANCH  54  68
ATOM     68  C   UNL     1       2.835 -10.489   1.522  1.00  0.00     0.058 A 
ATOM     69  C   UNL     1       2.236 -10.258   0.274  1.00  0.00     0.135 A 
ATOM     70  C   UNL     1       2.345 -11.556   2.293  1.00  0.00     0.135 A 
ATOM     71  F   UNL     1       2.651  -9.240  -0.497  1.00  0.00    -0.206 F 
ATOM     72  C   UNL     1       1.180 -11.041  -0.183  1.00  0.00     0.059 A 
ATOM     73  C   UNL     1       1.307 -12.369   1.846  1.00  0.00     0.059 A 
ATOM     74  F   UNL     1       2.878 -11.820   3.497  1.00  0.00    -0.206 F 
ATOM     75  C   UNL     1       0.724 -12.096   0.610  1.00  0.00     0.060 A 
BRANCH  75  76
ATOM     76  S   UNL     1      -0.636 -13.113  -0.003  1.00  0.00     0.124 S 
ATOM     77  O   UNL     1      -1.769 -12.204   0.145  1.00  0.00    -0.237 OA
ATOM     78  O   UNL     1      -0.224 -13.393  -1.374  1.00  0.00    -0.237 OA
ATOM     79  O   UNL     1      -0.634 -14.263   0.896  1.00  0.00    -0.744 OA
ENDBRANCH  75  76
ENDBRANCH  54  68
BRANCH  55  80
ATOM     80  C   UNL     1      10.233  -4.784   5.139  1.00  0.00     0.058 A 
ATOM     81  C   UNL     1      11.323  -4.350   4.371  1.00  0.00     0.135 A 
ATOM     82  C   UNL     1      10.194  -4.403   6.491  1.00  0.00     0.135 A 
ATOM     83  F   UNL     1      11.411  -4.694   3.077  1.00  0.00    -0.206 F 
ATOM     84  C   UNL     1      12.343  -3.580   4.923  1.00  0.00     0.059 A 
ATOM     85  C   UNL     1      11.186  -3.610   7.058  1.00  0.00     0.059 A 
ATOM     86  F   UNL     1       9.166  -4.781   7.267  1.00  0.00    -0.206 F 
ATOM     87  C   UNL     1      12.264  -3.213   6.268  1.00  0.00     0.060 A 
BRANCH  87  88
ATOM     88  S   UNL     1      13.568  -2.176   6.963  1.00  0.00     0.124 S 
ATOM     89  O   UNL     1      14.666  -3.128   7.082  1.00  0.00    -0.237 OA
ATOM     90  O   UNL     1      13.722  -1.148   5.938  1.00  0.00    -0.237 OA
ATOM     91  O   UNL     1      12.993  -1.713   8.222  1.00  0.00    -0.744 OA
ENDBRANCH  87  88
ENDBRANCH  55  80
BRANCH  67  92
ATOM     92  C   UNL     1       9.889 -11.335   2.761  1.00  0.00     0.058 A 
ATOM     93  C   UNL     1      10.407 -12.022   3.869  1.00  0.00     0.135 A 
ATOM     94  C   UNL     1      10.327 -11.721   1.484  1.00  0.00     0.135 A 
ATOM     95  F   UNL     1      10.027 -11.686   5.112  1.00  0.00    -0.206 F 
ATOM     96  C   UNL     1      11.343 -13.040   3.718  1.00  0.00     0.059 A 
ATOM     97  C   UNL     1      11.240 -12.754   1.308  1.00  0.00     0.059 A 
ATOM     98  F   UNL     1       9.854 -11.101   0.391  1.00  0.00    -0.206 F 
ATOM     99  C   UNL     1      11.752 -13.400   2.432  1.00  0.00     0.060 A 
BRANCH  99 100
ATOM    100  S   UNL     1      12.940 -14.746   2.247  1.00  0.00     0.124 S 
ATOM    101  O   UNL     1      14.180 -14.103   2.670  1.00  0.00    -0.237 OA
ATOM    102  O   UNL     1      12.410 -15.760   3.153  1.00  0.00    -0.237 OA
ATOM    103  O   UNL     1      12.858 -15.079   0.828  1.00  0.00    -0.744 OA
ENDBRANCH  99 100
ENDBRANCH  67  92
ENDBRANCH  41  42
ENDBRANCH  34  36
ENDBRANCH  33  34
ENDBRANCH  32  33
ENDBRANCH   1  32
TORSDOF 17
