REMARK SMILES Cc1c(C(=O)NC(=S)Nc2ccccc2C(=O)OCCOC(=O)c2ccc(-c3c4nc(c(-c5c(F)cc(S(=O)(=O)[O-])cc5F)c5ccc([nH]5)c(-c5c(F)cc(S(=O)(=O)[O-])cc5F)c5nc(c(-c6c(F)cc(S(=O)(=O)[O-])cc6F)c6ccc3[nH]6)C=C5)C=C4)cc2)cccc1[N+](=O)[O-]
REMARK SMILES IDX 19 1 18 2 16 3 17 4 15 5 10 6 11 7 12 8 14 9 13 10 9 11 7 13
REMARK SMILES IDX 8 14 6 15 4 16 5 17 3 19 1 20 2 21 93 22 90 23 92 24 91 25
REMARK SMILES IDX 94 26 95 27 96 28 20 29 21 30 22 31 23 32 24 33 25 34 89 35
REMARK SMILES IDX 26 36 88 37 27 38 28 39 29 40 82 41 30 42 87 43 81 44 83 45
REMARK SMILES IDX 31 46 86 47 80 48 79 49 32 51 66 52 45 53 65 54 46 55 49 56
REMARK SMILES IDX 64 57 84 58 47 59 48 60 63 62 85 63 50 64 33 65 34 66 43 67
REMARK SMILES IDX 35 68 36 69 42 70 44 71 37 72 38 73 39 74 40 75 41 76 67 77
REMARK SMILES IDX 68 78 77 79 69 80 70 81 76 82 78 83 71 84 72 85 73 86 74 87
REMARK SMILES IDX 75 88 51 89 52 90 61 91 53 92 54 93 60 94 62 95 55 96 56 97
REMARK SMILES IDX 57 98 58 99 59 100
REMARK H PARENT 9 12 6 18 83 50 49 61
REMARK Flexibility Score: inf
ROOT
ATOM      1  C   UNL     1      -0.034  -4.229   2.349  1.00  0.00     0.275 C 
ENDROOT
BRANCH   1   2
ATOM      2  O   UNL     1       0.285  -3.099   1.435  1.00  0.00    -0.458 OA
BRANCH   2   3
ATOM      3  C   UNL     1       0.050  -1.857   1.976  1.00  0.00     0.340 C 
ATOM      4  O   UNL     1      -0.600  -1.847   3.017  1.00  0.00    -0.246 OA
BRANCH   3   5
ATOM      5  C   UNL     1       0.020  -0.549   1.158  1.00  0.00     0.083 A 
ATOM      6  C   UNL     1       1.105   0.640   0.341  1.00  0.00     0.055 A 
ATOM      7  C   UNL     1       0.559   1.702  -1.065  1.00  0.00     0.027 A 
ATOM      8  C   UNL     1      -1.086   1.196  -1.823  1.00  0.00     0.002 A 
ATOM      9  C   UNL     1      -1.512  -0.797   0.725  1.00  0.00     0.018 A 
ATOM     10  C   UNL     1      -2.070  -0.155  -0.664  1.00  0.00     0.001 A 
BRANCH   6  11
ATOM     11  N   UNL     1       2.404   0.174   0.010  1.00  0.00    -0.332 N 
ATOM     12  H   UNL     1       3.168   0.655   0.404  1.00  0.00     0.169 HD
BRANCH  11  13
ATOM     13  C   UNL     1       2.693  -0.908  -0.826  1.00  0.00     0.177 C 
ATOM     14  S   UNL     1       4.144  -0.767  -1.722  1.00  0.00    -0.040 S 
BRANCH  13  15
ATOM     15  N   UNL     1       1.722  -1.974  -1.108  1.00  0.00    -0.299 N 
ATOM     16  C   UNL     1       0.302  -2.353  -1.708  1.00  0.00     0.257 C 
ATOM     17  O   UNL     1       0.025  -3.526  -1.941  1.00  0.00    -0.269 OA
ATOM     18  H   UNL     1       2.124  -2.813  -0.786  1.00  0.00     0.172 HD
BRANCH  16  19
ATOM     19  C   UNL     1      -0.771  -1.231  -2.002  1.00  0.00     0.049 A 
ATOM     20  C   UNL     1       0.838   0.133  -2.640  1.00  0.00     0.053 C 
ATOM     21  C   UNL     1      -0.166  -0.167  -1.001  1.00  0.00     0.039 A 
ATOM     22  C   UNL     1      -1.150   1.332   0.015  1.00  0.00     0.273 A 
ATOM     23  C   UNL     1      -2.292  -0.725  -2.704  1.00  0.00     0.014 A 
ATOM     24  C   UNL     1      -2.774   1.759  -0.752  1.00  0.00     0.086 A 
ATOM     25  C   UNL     1      -3.263   0.731  -2.166  1.00  0.00     0.008 A 
BRANCH  22  26
ATOM     26  N   UNL     1      -0.703   2.651   0.780  1.00  0.00     0.063 N 
ATOM     27  O   UNL     1      -1.277   3.698   0.428  1.00  0.00    -0.258 OA
ATOM     28  O   UNL     1       0.182   2.613   1.643  1.00  0.00    -0.258 OA
ENDBRANCH  22  26
ENDBRANCH  16  19
ENDBRANCH  13  15
ENDBRANCH  11  13
ENDBRANCH   6  11
ENDBRANCH   3   5
ENDBRANCH   2   3
ENDBRANCH   1   2
BRANCH   1  29
ATOM     29  C   UNL     1       0.930  -5.456   2.334  1.00  0.00     0.275 C 
BRANCH  29  30
ATOM     30  O   UNL     1       2.335  -5.223   2.510  1.00  0.00    -0.458 OA
BRANCH  30  31
ATOM     31  C   UNL     1       2.747  -4.078   1.903  1.00  0.00     0.338 C 
ATOM     32  O   UNL     1       2.637  -3.918   0.698  1.00  0.00    -0.246 OA
BRANCH  31  33
ATOM     33  C   UNL     1       2.767  -3.033   2.993  1.00  0.00     0.060 A 
ATOM     34  C   UNL     1       2.664  -1.674   2.660  1.00  0.00     0.016 A 
ATOM     35  C   UNL     1       2.370  -3.456   4.256  1.00  0.00     0.016 A 
ATOM     36  C   UNL     1       2.108  -0.744   3.528  1.00  0.00     0.010 A 
ATOM     37  C   UNL     1       1.526  -2.647   4.963  1.00  0.00     0.010 A 
ATOM     38  C   UNL     1       1.504  -1.271   4.655  1.00  0.00    -0.014 A 
BRANCH  38  39
ATOM     39  C   UNL     1       1.250  -0.476   5.838  1.00  0.00     0.031 A 
ATOM     40  C   UNL     1      -0.172   0.059   5.940  1.00  0.00     0.074 A 
ATOM     41  C   UNL     1       2.378  -0.776   6.575  1.00  0.00     0.049 A 
ATOM     42  N   UNL     1      -0.607   1.059   6.627  1.00  0.00    -0.248 NA
ATOM     43  C   UNL     1      -1.331  -0.355   5.111  1.00  0.00     0.031 C 
ATOM     44  C   UNL     1       2.782  -0.908   7.963  1.00  0.00     0.029 A 
ATOM     45  N   UNL     1       3.644  -1.035   5.951  1.00  0.00    -0.354 N 
ATOM     46  C   UNL     1      -1.952   0.754   6.894  1.00  0.00     0.074 A 
ATOM     47  C   UNL     1      -2.424   0.109   5.726  1.00  0.00     0.031 C 
ATOM     48  C   UNL     1       4.121  -0.724   8.065  1.00  0.00     0.029 A 
ATOM     49  C   UNL     1       4.663  -0.515   6.731  1.00  0.00     0.049 A 
ATOM     50  H   UNL     1       3.769  -1.510   5.097  1.00  0.00     0.167 HD
ATOM     51  C   UNL     1      -2.355   0.655   8.194  1.00  0.00     0.037 A 
ATOM     52  C   UNL     1       5.222   0.614   6.210  1.00  0.00     0.037 A 
ATOM     53  C   UNL     1      -1.143   0.801   8.995  1.00  0.00     0.049 A 
ATOM     54  C   UNL     1       4.485   1.770   6.840  1.00  0.00     0.074 A 
ATOM     55  C   UNL     1      -0.305  -0.116   9.598  1.00  0.00     0.029 A 
ATOM     56  N   UNL     1      -0.395   1.953   8.814  1.00  0.00    -0.354 N 
ATOM     57  N   UNL     1       3.202   1.803   7.121  1.00  0.00    -0.248 NA
ATOM     58  C   UNL     1       5.259   2.780   7.542  1.00  0.00     0.031 C 
ATOM     59  C   UNL     1       0.953   0.536   9.784  1.00  0.00     0.029 A 
ATOM     60  C   UNL     1       0.935   1.757   9.122  1.00  0.00     0.049 A 
ATOM     61  H   UNL     1      -0.768   2.809   8.504  1.00  0.00     0.167 HD
ATOM     62  C   UNL     1       3.005   2.682   8.162  1.00  0.00     0.074 A 
ATOM     63  C   UNL     1       4.330   3.252   8.382  1.00  0.00     0.031 C 
ATOM     64  C   UNL     1       1.864   2.862   8.907  1.00  0.00     0.037 A 
BRANCH  51  65
ATOM     65  C   UNL     1      -3.668   0.172   8.791  1.00  0.00     0.058 A 
ATOM     66  C   UNL     1      -3.743   0.021  10.197  1.00  0.00     0.135 A 
ATOM     67  C   UNL     1      -4.882  -0.086   8.115  1.00  0.00     0.135 A 
ATOM     68  F   UNL     1      -2.688   0.271  10.986  1.00  0.00    -0.206 F 
ATOM     69  C   UNL     1      -4.895  -0.366  10.877  1.00  0.00     0.059 A 
ATOM     70  C   UNL     1      -6.064  -0.478   8.784  1.00  0.00     0.059 A 
ATOM     71  F   UNL     1      -4.988   0.057   6.786  1.00  0.00    -0.206 F 
ATOM     72  C   UNL     1      -6.058  -0.610  10.169  1.00  0.00     0.060 A 
BRANCH  72  73
ATOM     73  S   UNL     1      -7.530  -1.054  11.117  1.00  0.00     0.124 S 
ATOM     74  O   UNL     1      -7.112  -2.292  11.768  1.00  0.00    -0.237 OA
ATOM     75  O   UNL     1      -7.687   0.100  11.998  1.00  0.00    -0.237 OA
ATOM     76  O   UNL     1      -8.564  -1.204  10.097  1.00  0.00    -0.744 OA
ENDBRANCH  72  73
ENDBRANCH  51  65
BRANCH  52  77
ATOM     77  C   UNL     1       5.724   0.352   4.811  1.00  0.00     0.058 A 
ATOM     78  C   UNL     1       6.682  -0.690   4.722  1.00  0.00     0.135 A 
ATOM     79  C   UNL     1       5.086   0.694   3.613  1.00  0.00     0.135 A 
ATOM     80  F   UNL     1       7.393  -1.039   5.806  1.00  0.00    -0.206 F 
ATOM     81  C   UNL     1       6.813  -1.506   3.608  1.00  0.00     0.059 A 
ATOM     82  C   UNL     1       5.256  -0.088   2.445  1.00  0.00     0.059 A 
ATOM     83  F   UNL     1       4.187   1.690   3.582  1.00  0.00    -0.206 F 
ATOM     84  C   UNL     1       6.050  -1.244   2.490  1.00  0.00     0.060 A 
BRANCH  84  85
ATOM     85  S   UNL     1       5.939  -2.616   1.303  1.00  0.00     0.124 S 
ATOM     86  O   UNL     1       7.154  -2.460   0.519  1.00  0.00    -0.237 OA
ATOM     87  O   UNL     1       5.877  -3.788   2.175  1.00  0.00    -0.237 OA
ATOM     88  O   UNL     1       4.698  -2.333   0.619  1.00  0.00    -0.744 OA
ENDBRANCH  84  85
ENDBRANCH  52  77
BRANCH  64  89
ATOM     89  C   UNL     1       1.534   4.197   9.559  1.00  0.00     0.058 A 
ATOM     90  C   UNL     1       2.268   5.370   9.326  1.00  0.00     0.135 A 
ATOM     91  C   UNL     1       0.365   4.383  10.349  1.00  0.00     0.135 A 
ATOM     92  F   UNL     1       3.243   5.445   8.412  1.00  0.00    -0.206 F 
ATOM     93  C   UNL     1       2.001   6.559   9.983  1.00  0.00     0.059 A 
ATOM     94  C   UNL     1      -0.007   5.603  10.886  1.00  0.00     0.059 A 
ATOM     95  F   UNL     1      -0.500   3.402  10.634  1.00  0.00    -0.206 F 
ATOM     96  C   UNL     1       0.860   6.666  10.760  1.00  0.00     0.060 A 
BRANCH  96  97
ATOM     97  S   UNL     1       0.522   8.219  11.573  1.00  0.00     0.124 S 
ATOM     98  O   UNL     1       1.520   8.202  12.638  1.00  0.00    -0.237 OA
ATOM     99  O   UNL     1       0.754   9.181  10.501  1.00  0.00    -0.237 OA
ATOM    100  O   UNL     1      -0.865   8.085  12.004  1.00  0.00    -0.744 OA
ENDBRANCH  96  97
ENDBRANCH  64  89
ENDBRANCH  38  39
ENDBRANCH  31  33
ENDBRANCH  30  31
ENDBRANCH  29  30
ENDBRANCH   1  29
TORSDOF 19
