REMARK SMILES C[C@@H](CNC(=O)N(C)CC(C)(C)O)C(=O)OCCOC(=O)c1ccc(-c2c3nc(c(-c4c(F)cc(S(=O)(=O)[O-])cc4F)c4ccc([nH]4)c(-c4c(F)cc(S(=O)(=O)[O-])cc4F)c4nc(c(-c5c(F)cc(S(=O)(=O)[O-])cc5F)c5ccc2[nH]5)C=C4)C=C3)cc1
REMARK SMILES IDX 16 1 14 2 15 3 2 4 1 5 3 6 4 7 5 8 6 10 7 11 8 12 9 13 10 14
REMARK SMILES IDX 11 15 12 16 13 17 17 19 18 20 19 21 20 22 21 23 22 24 23 25
REMARK SMILES IDX 87 26 24 27 86 28 25 29 26 30 27 31 80 32 28 33 85 34 79 35
REMARK SMILES IDX 81 36 29 37 84 38 78 39 77 40 30 42 64 43 43 44 63 45 44 46
REMARK SMILES IDX 47 47 62 48 82 49 45 50 46 51 61 53 83 54 48 55 31 56 32 57
REMARK SMILES IDX 41 58 33 59 34 60 40 61 42 62 35 63 36 64 37 65 38 66 39 67
REMARK SMILES IDX 65 68 66 69 75 70 67 71 68 72 74 73 76 74 69 75 70 76 71 77
REMARK SMILES IDX 72 78 73 79 49 80 50 81 59 82 51 83 52 84 58 85 60 86 53 87
REMARK SMILES IDX 54 88 55 89 56 90 57 91
REMARK H PARENT 4 9 13 18 81 41 47 52
REMARK Flexibility Score: inf
ROOT
ATOM      1  O   UNL     1      -1.390   0.894  -0.554  1.00  0.00    -0.462 OA
ENDROOT
BRANCH   1   2
ATOM      2  C   UNL     1      -0.578   1.641   0.241  1.00  0.00     0.310 C 
ATOM      3  O   UNL     1      -0.969   2.458   1.066  1.00  0.00    -0.252 OA
BRANCH   2   4
ATOM      4  C   UNL     1       0.897   1.387  -0.028  1.00  0.00     0.115 C 
ATOM      5  C   UNL     1       1.179  -0.055  -0.452  1.00  0.00     0.022 C 
BRANCH   4   6
ATOM      6  C   UNL     1       1.465   2.396  -1.030  1.00  0.00     0.132 C 
BRANCH   6   7
ATOM      7  N   UNL     1       0.632   2.521  -2.208  1.00  0.00    -0.337 N 
ATOM      8  C   UNL     1      -0.362   3.331  -2.606  1.00  0.00     0.317 C 
ATOM      9  H   UNL     1       0.849   1.842  -2.887  1.00  0.00     0.165 HD
ATOM     10  O   UNL     1      -0.969   2.935  -3.608  1.00  0.00    -0.249 OA
BRANCH   8  11
ATOM     11  N   UNL     1      -0.665   4.519  -2.007  1.00  0.00    -0.325 N 
ATOM     12  C   UNL     1      -0.131   5.090  -0.776  1.00  0.00     0.148 C 
BRANCH  11  13
ATOM     13  C   UNL     1      -1.545   5.426  -2.762  1.00  0.00     0.155 C 
BRANCH  13  14
ATOM     14  C   UNL     1      -0.829   6.261  -3.864  1.00  0.00     0.077 C 
ATOM     15  C   UNL     1      -0.325   5.410  -5.035  1.00  0.00     0.043 C 
ATOM     16  C   UNL     1      -1.803   7.317  -4.396  1.00  0.00     0.043 C 
BRANCH  14  17
ATOM     17  O   UNL     1       0.278   6.972  -3.289  1.00  0.00    -0.389 OA
ATOM     18  H   UNL     1       0.922   6.338  -2.938  1.00  0.00     0.211 HD
ENDBRANCH  14  17
ENDBRANCH  13  14
ENDBRANCH  11  13
ENDBRANCH   8  11
ENDBRANCH   6   7
ENDBRANCH   4   6
ENDBRANCH   2   4
ENDBRANCH   1   2
BRANCH   1  19
ATOM     19  C   UNL     1      -2.803   1.139  -0.439  1.00  0.00     0.274 C 
BRANCH  19  20
ATOM     20  C   UNL     1      -3.485   0.118   0.476  1.00  0.00     0.275 C 
BRANCH  20  21
ATOM     21  O   UNL     1      -3.074   0.276   1.846  1.00  0.00    -0.458 OA
BRANCH  21  22
ATOM     22  C   UNL     1      -2.026  -0.490   2.222  1.00  0.00     0.338 C 
ATOM     23  O   UNL     1      -1.454  -1.343   1.554  1.00  0.00    -0.246 OA
BRANCH  22  24
ATOM     24  C   UNL     1      -1.541  -0.055   3.537  1.00  0.00     0.060 A 
ATOM     25  C   UNL     1      -0.284   0.552   3.604  1.00  0.00     0.016 A 
ATOM     26  C   UNL     1      -2.269  -0.311   4.699  1.00  0.00     0.016 A 
ATOM     27  C   UNL     1       0.256   0.913   4.831  1.00  0.00     0.010 A 
ATOM     28  C   UNL     1      -1.721   0.041   5.936  1.00  0.00     0.010 A 
ATOM     29  C   UNL     1      -0.452   0.643   6.007  1.00  0.00    -0.014 A 
BRANCH  29  30
ATOM     30  C   UNL     1       0.189   0.917   7.312  1.00  0.00     0.031 A 
ATOM     31  C   UNL     1       0.770  -0.222   8.098  1.00  0.00     0.074 A 
ATOM     32  C   UNL     1       0.286   2.181   7.760  1.00  0.00     0.049 A 
ATOM     33  N   UNL     1       1.308  -0.214   9.288  1.00  0.00    -0.248 NA
ATOM     34  C   UNL     1       0.743  -1.546   7.455  1.00  0.00     0.031 C 
ATOM     35  C   UNL     1      -0.191   3.368   7.048  1.00  0.00     0.029 A 
ATOM     36  N   UNL     1       0.818   2.678   8.922  1.00  0.00    -0.354 N 
ATOM     37  C   UNL     1       1.662  -1.532   9.551  1.00  0.00     0.074 A 
ATOM     38  C   UNL     1       1.270  -2.314   8.398  1.00  0.00     0.031 C 
ATOM     39  C   UNL     1       0.066   4.456   7.793  1.00  0.00     0.029 A 
ATOM     40  C   UNL     1       0.685   4.039   9.049  1.00  0.00     0.049 A 
ATOM     41  H   UNL     1       1.254   2.113   9.600  1.00  0.00     0.167 HD
ATOM     42  C   UNL     1       2.258  -2.038  10.655  1.00  0.00     0.037 A 
ATOM     43  C   UNL     1       1.001   4.851  10.075  1.00  0.00     0.037 A 
ATOM     44  C   UNL     1       2.655  -1.246  11.790  1.00  0.00     0.049 A 
ATOM     45  C   UNL     1       1.622   4.258  11.311  1.00  0.00     0.074 A 
ATOM     46  C   UNL     1       3.265  -1.661  12.960  1.00  0.00     0.029 A 
ATOM     47  N   UNL     1       2.484   0.127  11.893  1.00  0.00    -0.354 N 
ATOM     48  N   UNL     1       1.930   3.007  11.558  1.00  0.00    -0.248 NA
ATOM     49  C   UNL     1       1.934   5.184  12.408  1.00  0.00     0.031 C 
ATOM     50  C   UNL     1       3.434  -0.543  13.785  1.00  0.00     0.029 A 
ATOM     51  C   UNL     1       2.964   0.574  13.112  1.00  0.00     0.049 A 
ATOM     52  H   UNL     1       2.080   0.699  11.201  1.00  0.00     0.167 HD
ATOM     53  C   UNL     1       2.485   2.996  12.832  1.00  0.00     0.074 A 
ATOM     54  C   UNL     1       2.483   4.369  13.298  1.00  0.00     0.031 C 
ATOM     55  C   UNL     1       2.954   1.947  13.552  1.00  0.00     0.037 A 
BRANCH  42  56
ATOM     56  C   UNL     1       2.483  -3.523  10.701  1.00  0.00     0.058 A 
ATOM     57  C   UNL     1       3.489  -4.143   9.945  1.00  0.00     0.135 A 
ATOM     58  C   UNL     1       1.688  -4.334  11.526  1.00  0.00     0.135 A 
ATOM     59  F   UNL     1       4.263  -3.415   9.124  1.00  0.00    -0.206 F 
ATOM     60  C   UNL     1       3.686  -5.520   9.988  1.00  0.00     0.059 A 
ATOM     61  C   UNL     1       1.881  -5.710  11.602  1.00  0.00     0.059 A 
ATOM     62  F   UNL     1       0.708  -3.791  12.265  1.00  0.00    -0.206 F 
ATOM     63  C   UNL     1       2.873  -6.296  10.818  1.00  0.00     0.060 A 
BRANCH  63  64
ATOM     64  S   UNL     1       3.136  -8.081  10.864  1.00  0.00     0.124 S 
ATOM     65  O   UNL     1       2.537  -8.496   9.600  1.00  0.00    -0.237 OA
ATOM     66  O   UNL     1       4.590  -8.184  10.939  1.00  0.00    -0.237 OA
ATOM     67  O   UNL     1       2.420  -8.498  12.065  1.00  0.00    -0.744 OA
ENDBRANCH  63  64
ENDBRANCH  42  56
BRANCH  43  68
ATOM     68  C   UNL     1       0.710   6.305   9.985  1.00  0.00     0.058 A 
ATOM     69  C   UNL     1       1.741   7.245   9.852  1.00  0.00     0.135 A 
ATOM     70  C   UNL     1      -0.611   6.781  10.013  1.00  0.00     0.135 A 
ATOM     71  F   UNL     1       3.020   6.839   9.831  1.00  0.00    -0.206 F 
ATOM     72  C   UNL     1       1.476   8.608   9.757  1.00  0.00     0.059 A 
ATOM     73  C   UNL     1      -0.902   8.136   9.896  1.00  0.00     0.059 A 
ATOM     74  F   UNL     1      -1.634   5.920  10.129  1.00  0.00    -0.206 F 
ATOM     75  C   UNL     1       0.150   9.043   9.777  1.00  0.00     0.060 A 
BRANCH  75  76
ATOM     76  S   UNL     1      -0.190  10.808   9.594  1.00  0.00     0.124 S 
ATOM     77  O   UNL     1       0.137  11.309  10.924  1.00  0.00    -0.237 OA
ATOM     78  O   UNL     1       0.726  11.191   8.524  1.00  0.00    -0.237 OA
ATOM     79  O   UNL     1      -1.605  10.839   9.236  1.00  0.00    -0.744 OA
ENDBRANCH  75  76
ENDBRANCH  43  68
BRANCH  55  80
ATOM     80  C   UNL     1       3.526   2.248  14.908  1.00  0.00     0.058 A 
ATOM     81  C   UNL     1       2.701   2.538  16.005  1.00  0.00     0.135 A 
ATOM     82  C   UNL     1       4.913   2.201  15.120  1.00  0.00     0.135 A 
ATOM     83  F   UNL     1       1.369   2.601  15.851  1.00  0.00    -0.206 F 
ATOM     84  C   UNL     1       3.234   2.794  17.264  1.00  0.00     0.059 A 
ATOM     85  C   UNL     1       5.466   2.432  16.375  1.00  0.00     0.059 A 
ATOM     86  F   UNL     1       5.743   1.917  14.104  1.00  0.00    -0.206 F 
ATOM     87  C   UNL     1       4.618   2.740  17.439  1.00  0.00     0.060 A 
BRANCH  87  88
ATOM     88  S   UNL     1       5.299   3.046  19.082  1.00  0.00     0.124 S 
ATOM     89  O   UNL     1       5.220   4.500  19.167  1.00  0.00    -0.237 OA
ATOM     90  O   UNL     1       4.382   2.309  19.947  1.00  0.00    -0.237 OA
ATOM     91  O   UNL     1       6.648   2.493  18.997  1.00  0.00    -0.744 OA
ENDBRANCH  87  88
ENDBRANCH  55  80
ENDBRANCH  29  30
ENDBRANCH  22  24
ENDBRANCH  21  22
ENDBRANCH  20  21
ENDBRANCH  19  20
ENDBRANCH   1  19
TORSDOF 20
