REMARK SMILES C#CCNC(=O)N[C@@]1(C(=O)OCCOC(=O)c2ccc(-c3c4nc(c(-c5c(F)cc(S(=O)(=O)[O-])cc5F)c5ccc([nH]5)c(-c5c(F)cc(S(=O)(=O)[O-])cc5F)c5nc(c(-c6c(F)cc(S(=O)(=O)[O-])cc6F)c6ccc3[nH]6)C=C5)C=C4)cc2)CCc2ccccc21
REMARK SMILES IDX 12 1 11 2 9 3 10 4 8 5 83 6 90 7 84 8 85 9 89 10 86 11 88 12
REMARK SMILES IDX 87 13 7 14 4 15 5 16 6 18 3 20 2 21 1 22 13 23 14 24 15 25
REMARK SMILES IDX 16 26 17 27 18 28 82 29 19 30 81 31 20 32 21 33 22 34 75 35
REMARK SMILES IDX 23 36 80 37 74 38 76 39 24 40 79 41 73 42 72 43 25 45 59 46
REMARK SMILES IDX 38 47 58 48 39 49 42 50 57 51 77 52 40 53 41 54 56 56 78 57
REMARK SMILES IDX 43 58 26 59 27 60 36 61 28 62 29 63 35 64 37 65 30 66 31 67
REMARK SMILES IDX 32 68 33 69 34 70 60 71 61 72 70 73 62 74 63 75 69 76 71 77
REMARK SMILES IDX 64 78 65 79 66 80 67 81 68 82 44 83 45 84 54 85 46 86 47 87
REMARK SMILES IDX 53 88 55 89 48 90 49 91 50 92 51 93 52 94
REMARK H PARENT 4 17 7 19 76 44 42 55
REMARK Flexibility Score: inf
ROOT
ATOM      1  C   UNL     1      -5.115   1.292   2.609  1.00  0.00     0.274 C 
ENDROOT
BRANCH   1   2
ATOM      2  O   UNL     1      -4.722   1.367   1.218  1.00  0.00    -0.460 OA
BRANCH   2   3
ATOM      3  C   UNL     1      -3.941   2.431   0.874  1.00  0.00     0.336 C 
ATOM      4  O   UNL     1      -3.619   3.278   1.702  1.00  0.00    -0.249 OA
BRANCH   3   5
ATOM      5  C   UNL     1      -3.520   2.493  -0.641  1.00  0.00     0.165 C 
ATOM      6  C   UNL     1      -4.402   3.442  -1.502  1.00  0.00     0.050 C 
ATOM      7  C   UNL     1      -3.805   1.200  -1.433  1.00  0.00    -0.008 A 
ATOM      8  C   UNL     1      -4.289   2.970  -2.950  1.00  0.00     0.039 C 
ATOM      9  C   UNL     1      -4.256   1.503  -2.729  1.00  0.00    -0.042 A 
ATOM     10  C   UNL     1      -3.679  -0.132  -1.061  1.00  0.00     0.007 A 
ATOM     11  C   UNL     1      -4.597   0.527  -3.650  1.00  0.00     0.004 A 
ATOM     12  C   UNL     1      -4.061  -1.129  -1.969  1.00  0.00     0.000 A 
ATOM     13  C   UNL     1      -4.517  -0.802  -3.253  1.00  0.00     0.000 A 
BRANCH   5  14
ATOM     14  N   UNL     1      -2.093   2.842  -0.792  1.00  0.00    -0.318 N 
ATOM     15  N   UNL     1      -1.676   5.069  -0.035  1.00  0.00    -0.327 N 
ATOM     16  C   UNL     1      -1.312   3.910  -0.595  1.00  0.00     0.316 C 
ATOM     17  H   UNL     1      -0.909   5.596   0.284  1.00  0.00     0.166 HD
ATOM     18  O   UNL     1      -0.127   3.788  -0.917  1.00  0.00    -0.249 OA
ATOM     19  H   UNL     1      -1.573   2.078  -1.132  1.00  0.00     0.166 HD
BRANCH  15  20
ATOM     20  C   UNL     1      -2.938   5.718   0.204  1.00  0.00     0.207 C 
BRANCH  20  21
ATOM     21  C   UNL     1      -3.019   6.531   1.416  1.00  0.00    -0.085 C 
ATOM     22  C   UNL     1      -3.318   7.167   2.387  1.00  0.00     0.006 C 
ENDBRANCH  20  21
ENDBRANCH  15  20
ENDBRANCH   5  14
ENDBRANCH   3   5
ENDBRANCH   2   3
ENDBRANCH   1   2
BRANCH   1  23
ATOM     23  C   UNL     1      -4.206   0.383   3.443  1.00  0.00     0.275 C 
BRANCH  23  24
ATOM     24  O   UNL     1      -2.899   0.957   3.631  1.00  0.00    -0.458 OA
BRANCH  24  25
ATOM     25  C   UNL     1      -1.935   0.435   2.840  1.00  0.00     0.338 C 
ATOM     26  O   UNL     1      -2.066  -0.459   2.020  1.00  0.00    -0.246 OA
BRANCH  25  27
ATOM     27  C   UNL     1      -0.664   1.152   3.003  1.00  0.00     0.060 A 
ATOM     28  C   UNL     1      -0.459   2.269   2.208  1.00  0.00     0.016 A 
ATOM     29  C   UNL     1       0.396   0.606   3.724  1.00  0.00     0.016 A 
ATOM     30  C   UNL     1       0.820   2.778   2.030  1.00  0.00     0.010 A 
ATOM     31  C   UNL     1       1.668   1.192   3.629  1.00  0.00     0.010 A 
ATOM     32  C   UNL     1       1.904   2.262   2.747  1.00  0.00    -0.014 A 
BRANCH  32  33
ATOM     33  C   UNL     1       3.265   2.831   2.526  1.00  0.00     0.031 A 
ATOM     34  C   UNL     1       4.394   1.948   2.059  1.00  0.00     0.074 A 
ATOM     35  C   UNL     1       3.482   4.152   2.701  1.00  0.00     0.049 A 
ATOM     36  N   UNL     1       5.671   2.218   1.962  1.00  0.00    -0.248 NA
ATOM     37  C   UNL     1       4.044   0.575   1.660  1.00  0.00     0.031 C 
ATOM     38  C   UNL     1       2.462   5.136   3.076  1.00  0.00     0.029 A 
ATOM     39  N   UNL     1       4.627   4.902   2.580  1.00  0.00    -0.354 N 
ATOM     40  C   UNL     1       6.281   1.041   1.538  1.00  0.00     0.074 A 
ATOM     41  C   UNL     1       5.236   0.049   1.411  1.00  0.00     0.031 C 
ATOM     42  C   UNL     1       3.016   6.355   3.122  1.00  0.00     0.029 A 
ATOM     43  C   UNL     1       4.448   6.231   2.888  1.00  0.00     0.049 A 
ATOM     44  H   UNL     1       5.492   4.524   2.300  1.00  0.00     0.167 HD
ATOM     45  C   UNL     1       7.593   0.815   1.281  1.00  0.00     0.037 A 
ATOM     46  C   UNL     1       5.339   7.232   3.028  1.00  0.00     0.037 A 
ATOM     47  C   UNL     1       8.616   1.827   1.374  1.00  0.00     0.049 A 
ATOM     48  C   UNL     1       6.796   6.939   2.811  1.00  0.00     0.074 A 
ATOM     49  C   UNL     1       9.973   1.704   1.129  1.00  0.00     0.029 A 
ATOM     50  N   UNL     1       8.397   3.150   1.735  1.00  0.00    -0.354 N 
ATOM     51  N   UNL     1       7.367   5.810   2.461  1.00  0.00    -0.248 NA
ATOM     52  C   UNL     1       7.734   8.049   3.017  1.00  0.00     0.031 C 
ATOM     53  C   UNL     1      10.583   2.931   1.408  1.00  0.00     0.029 A 
ATOM     54  C   UNL     1       9.598   3.844   1.750  1.00  0.00     0.049 A 
ATOM     55  H   UNL     1       7.518   3.539   1.949  1.00  0.00     0.167 HD
ATOM     56  C   UNL     1       8.727   6.082   2.378  1.00  0.00     0.074 A 
ATOM     57  C   UNL     1       8.891   7.485   2.699  1.00  0.00     0.031 C 
ATOM     58  C   UNL     1       9.747   5.244   2.065  1.00  0.00     0.037 A 
BRANCH  45  59
ATOM     59  C   UNL     1       8.013  -0.589   0.926  1.00  0.00     0.058 A 
ATOM     60  C   UNL     1       7.673  -1.194  -0.294  1.00  0.00     0.135 A 
ATOM     61  C   UNL     1       8.815  -1.328   1.814  1.00  0.00     0.135 A 
ATOM     62  F   UNL     1       6.898  -0.546  -1.178  1.00  0.00    -0.206 F 
ATOM     63  C   UNL     1       8.087  -2.486  -0.609  1.00  0.00     0.059 A 
ATOM     64  C   UNL     1       9.269  -2.607   1.507  1.00  0.00     0.059 A 
ATOM     65  F   UNL     1       9.174  -0.803   2.997  1.00  0.00    -0.206 F 
ATOM     66  C   UNL     1       8.888  -3.184   0.298  1.00  0.00     0.060 A 
BRANCH  66  67
ATOM     67  S   UNL     1       9.426  -4.854  -0.130  1.00  0.00     0.124 S 
ATOM     68  O   UNL     1       8.171  -5.596  -0.050  1.00  0.00    -0.237 OA
ATOM     69  O   UNL     1       9.969  -4.672  -1.472  1.00  0.00    -0.237 OA
ATOM     70  O   UNL     1      10.407  -5.173   0.903  1.00  0.00    -0.744 OA
ENDBRANCH  66  67
ENDBRANCH  45  59
BRANCH  46  71
ATOM     71  C   UNL     1       4.878   8.585   3.449  1.00  0.00     0.058 A 
ATOM     72  C   UNL     1       4.986   9.692   2.594  1.00  0.00     0.135 A 
ATOM     73  C   UNL     1       4.307   8.796   4.716  1.00  0.00     0.135 A 
ATOM     74  F   UNL     1       5.535   9.550   1.378  1.00  0.00    -0.206 F 
ATOM     75  C   UNL     1       4.560  10.958   2.983  1.00  0.00     0.059 A 
ATOM     76  C   UNL     1       3.839  10.043   5.113  1.00  0.00     0.059 A 
ATOM     77  F   UNL     1       4.170   7.771   5.572  1.00  0.00    -0.206 F 
ATOM     78  C   UNL     1       3.980  11.122   4.243  1.00  0.00     0.060 A 
BRANCH  78  79
ATOM     79  S   UNL     1       3.388  12.760   4.719  1.00  0.00     0.124 S 
ATOM     80  O   UNL     1       4.640  13.488   4.891  1.00  0.00    -0.237 OA
ATOM     81  O   UNL     1       2.581  13.140   3.564  1.00  0.00    -0.237 OA
ATOM     82  O   UNL     1       2.635  12.504   5.943  1.00  0.00    -0.744 OA
ENDBRANCH  78  79
ENDBRANCH  46  71
BRANCH  58  83
ATOM     83  C   UNL     1      11.130   5.835   2.003  1.00  0.00     0.058 A 
ATOM     84  C   UNL     1      11.812   6.261   3.153  1.00  0.00     0.135 A 
ATOM     85  C   UNL     1      11.798   5.939   0.771  1.00  0.00     0.135 A 
ATOM     86  F   UNL     1      11.219   6.193   4.356  1.00  0.00    -0.206 F 
ATOM     87  C   UNL     1      13.093   6.799   3.081  1.00  0.00     0.059 A 
ATOM     88  C   UNL     1      13.093   6.439   0.680  1.00  0.00     0.059 A 
ATOM     89  F   UNL     1      11.197   5.538  -0.361  1.00  0.00    -0.206 F 
ATOM     90  C   UNL     1      13.727   6.880   1.840  1.00  0.00     0.060 A 
BRANCH  90  91
ATOM     91  S   UNL     1      15.400   7.552   1.766  1.00  0.00     0.124 S 
ATOM     92  O   UNL     1      15.162   8.966   2.041  1.00  0.00    -0.237 OA
ATOM     93  O   UNL     1      16.081   6.807   2.821  1.00  0.00    -0.237 OA
ATOM     94  O   UNL     1      15.834   7.242   0.407  1.00  0.00    -0.744 OA
ENDBRANCH  90  91
ENDBRANCH  58  83
ENDBRANCH  32  33
ENDBRANCH  25  27
ENDBRANCH  24  25
ENDBRANCH  23  24
ENDBRANCH   1  23
TORSDOF 17
