REMARK SMILES O=C(OCCOC(=O)c1ccc(-c2c3nc(c(-c4c(F)cc(S(=O)(=O)[O-])cc4F)c4ccc([nH]4)c(-c4c(F)cc(S(=O)(=O)[O-])cc4F)c4nc(c(-c5c(F)cc(S(=O)(=O)[O-])cc5F)c5ccc2[nH]5)C=C4)C=C3)cc1)c1ccc(/C=C/c2ccc3cccc(O)c3n2)cc1
REMARK SMILES IDX 4 1 3 2 2 3 1 4 75 5 76 6 93 7 77 8 92 9 78 10 79 11 80 12
REMARK SMILES IDX 81 13 82 14 91 15 83 16 90 17 84 18 88 19 85 20 87 21 86 22
REMARK SMILES IDX 89 23 5 25 6 26 7 27 8 28 9 29 10 30 74 31 11 32 73 33 12 34
REMARK SMILES IDX 13 35 14 36 67 37 15 38 72 39 66 40 68 41 16 42 71 43 65 44
REMARK SMILES IDX 64 45 17 47 51 48 30 49 50 50 31 51 34 52 49 53 69 54 32 55
REMARK SMILES IDX 33 56 48 58 70 59 35 60 18 61 19 62 28 63 20 64 21 65 27 66
REMARK SMILES IDX 29 67 22 68 23 69 24 70 25 71 26 72 52 73 53 74 62 75 54 76
REMARK SMILES IDX 55 77 61 78 63 79 56 80 57 81 58 82 59 83 60 84 36 85 37 86
REMARK SMILES IDX 46 87 38 88 39 89 45 90 47 91 40 92 41 93 42 94 43 95 44 96
REMARK H PARENT 89 24 68 46 34 57
REMARK Flexibility Score: inf
ROOT
ATOM      1  C   UNL     1       4.345  -0.758  -1.057  1.00  0.00     0.275 C 
ENDROOT
BRANCH   1   2
ATOM      2  O   UNL     1       3.188  -0.973  -0.236  1.00  0.00    -0.458 OA
BRANCH   2   3
ATOM      3  C   UNL     1       2.902  -0.518   1.006  1.00  0.00     0.338 C 
ATOM      4  O   UNL     1       1.965  -1.048   1.604  1.00  0.00    -0.246 OA
BRANCH   3   5
ATOM      5  C   UNL     1       3.574   0.658   1.665  1.00  0.00     0.060 A 
ATOM      6  C   UNL     1       4.740   1.314   1.257  1.00  0.00     0.016 A 
ATOM      7  C   UNL     1       2.917   1.185   2.786  1.00  0.00     0.016 A 
ATOM      8  C   UNL     1       5.155   2.523   1.839  1.00  0.00     0.009 A 
ATOM      9  C   UNL     1       3.362   2.360   3.401  1.00  0.00     0.009 A 
ATOM     10  C   UNL     1       4.442   3.086   2.890  1.00  0.00    -0.026 A 
BRANCH  10  11
ATOM     11  C   UNL     1       4.825   4.326   3.576  1.00  0.00     0.010 C 
ATOM     12  C   UNL     1       5.929   5.081   3.385  1.00  0.00     0.029 C 
BRANCH  12  13
ATOM     13  C   UNL     1       6.490   5.651   4.645  1.00  0.00     0.064 A 
ATOM     14  C   UNL     1       7.271   4.681   5.264  1.00  0.00     0.029 A 
ATOM     15  N   UNL     1       5.694   6.492   5.346  1.00  0.00    -0.245 NA
ATOM     16  C   UNL     1       6.788   4.185   6.463  1.00  0.00     0.013 A 
ATOM     17  C   UNL     1       5.386   6.124   6.615  1.00  0.00     0.113 A 
ATOM     18  C   UNL     1       5.776   4.874   7.130  1.00  0.00     0.004 A 
ATOM     19  C   UNL     1       4.652   6.946   7.464  1.00  0.00     0.141 A 
ATOM     20  C   UNL     1       5.187   4.360   8.291  1.00  0.00     0.010 A 
ATOM     21  C   UNL     1       4.191   6.506   8.703  1.00  0.00     0.048 A 
ATOM     22  C   UNL     1       4.390   5.180   9.077  1.00  0.00     0.005 A 
BRANCH  19  23
ATOM     23  O   UNL     1       4.382   8.241   7.097  1.00  0.00    -0.506 OA
ATOM     24  H   UNL     1       3.888   8.796   7.668  1.00  0.00     0.293 HD
ENDBRANCH  19  23
ENDBRANCH  12  13
ENDBRANCH  10  11
ENDBRANCH   3   5
ENDBRANCH   2   3
ENDBRANCH   1   2
BRANCH   1  25
ATOM     25  C   UNL     1       4.181   0.407  -2.042  1.00  0.00     0.275 C 
BRANCH  25  26
ATOM     26  O   UNL     1       3.736   1.622  -1.408  1.00  0.00    -0.458 OA
BRANCH  26  27
ATOM     27  C   UNL     1       2.388   1.828  -1.437  1.00  0.00     0.338 C 
ATOM     28  O   UNL     1       1.584   1.158  -2.049  1.00  0.00    -0.246 OA
BRANCH  27  29
ATOM     29  C   UNL     1       1.992   2.917  -0.498  1.00  0.00     0.060 A 
ATOM     30  C   UNL     1       0.757   2.789   0.147  1.00  0.00     0.016 A 
ATOM     31  C   UNL     1       2.785   4.040  -0.238  1.00  0.00     0.016 A 
ATOM     32  C   UNL     1       0.299   3.788   1.013  1.00  0.00     0.010 A 
ATOM     33  C   UNL     1       2.332   5.033   0.653  1.00  0.00     0.010 A 
ATOM     34  C   UNL     1       1.069   4.933   1.267  1.00  0.00    -0.014 A 
BRANCH  34  35
ATOM     35  C   UNL     1       0.491   6.040   2.094  1.00  0.00     0.031 A 
ATOM     36  C   UNL     1       0.059   7.326   1.435  1.00  0.00     0.074 A 
ATOM     37  C   UNL     1       0.256   5.884   3.414  1.00  0.00     0.049 A 
ATOM     38  N   UNL     1      -0.559   8.356   1.959  1.00  0.00    -0.248 NA
ATOM     39  C   UNL     1       0.347   7.470   0.000  1.00  0.00     0.031 C 
ATOM     40  C   UNL     1       0.591   4.697   4.193  1.00  0.00     0.029 A 
ATOM     41  N   UNL     1      -0.332   6.721   4.335  1.00  0.00    -0.354 N 
ATOM     42  C   UNL     1      -0.769   9.248   0.916  1.00  0.00     0.074 A 
ATOM     43  C   UNL     1      -0.146   8.672  -0.258  1.00  0.00     0.031 C 
ATOM     44  C   UNL     1       0.226   4.881   5.473  1.00  0.00     0.029 A 
ATOM     45  C   UNL     1      -0.393   6.197   5.608  1.00  0.00     0.049 A 
ATOM     46  H   UNL     1      -0.677   7.614   4.105  1.00  0.00     0.167 HD
ATOM     47  C   UNL     1      -1.447  10.422   0.919  1.00  0.00     0.037 A 
ATOM     48  C   UNL     1      -0.890   6.709   6.753  1.00  0.00     0.037 A 
ATOM     49  C   UNL     1      -2.061  11.017   2.080  1.00  0.00     0.049 A 
ATOM     50  C   UNL     1      -1.524   8.072   6.753  1.00  0.00     0.074 A 
ATOM     51  C   UNL     1      -2.783  12.197   2.158  1.00  0.00     0.029 A 
ATOM     52  N   UNL     1      -2.021  10.494   3.363  1.00  0.00    -0.354 N 
ATOM     53  N   UNL     1      -1.744   8.880   5.746  1.00  0.00    -0.248 NA
ATOM     54  C   UNL     1      -1.985   8.587   8.051  1.00  0.00     0.031 C 
ATOM     55  C   UNL     1      -3.134  12.415   3.495  1.00  0.00     0.029 A 
ATOM     56  C   UNL     1      -2.683  11.340   4.241  1.00  0.00     0.049 A 
ATOM     57  H   UNL     1      -1.587   9.647   3.614  1.00  0.00     0.167 HD
ATOM     58  C   UNL     1      -2.398   9.983   6.284  1.00  0.00     0.074 A 
ATOM     59  C   UNL     1      -2.550   9.732   7.701  1.00  0.00     0.031 C 
ATOM     60  C   UNL     1      -2.838  11.099   5.653  1.00  0.00     0.037 A 
BRANCH  47  61
ATOM     61  C   UNL     1      -1.583  11.147  -0.392  1.00  0.00     0.058 A 
ATOM     62  C   UNL     1      -2.422  10.664  -1.410  1.00  0.00     0.135 A 
ATOM     63  C   UNL     1      -0.930  12.371  -0.608  1.00  0.00     0.135 A 
ATOM     64  F   UNL     1      -3.058   9.491  -1.262  1.00  0.00    -0.206 F 
ATOM     65  C   UNL     1      -2.597  11.361  -2.600  1.00  0.00     0.059 A 
ATOM     66  C   UNL     1      -1.112  13.099  -1.780  1.00  0.00     0.059 A 
ATOM     67  F   UNL     1      -0.116  12.878   0.332  1.00  0.00    -0.206 F 
ATOM     68  C   UNL     1      -1.942  12.581  -2.773  1.00  0.00     0.060 A 
BRANCH  68  69
ATOM     69  S   UNL     1      -2.205  13.486  -4.312  1.00  0.00     0.124 S 
ATOM     70  O   UNL     1      -1.492  12.647  -5.270  1.00  0.00    -0.237 OA
ATOM     71  O   UNL     1      -3.660  13.484  -4.429  1.00  0.00    -0.237 OA
ATOM     72  O   UNL     1      -1.602  14.789  -4.050  1.00  0.00    -0.744 OA
ENDBRANCH  68  69
ENDBRANCH  47  61
BRANCH  48  73
ATOM     73  C   UNL     1      -0.739   5.977   8.040  1.00  0.00     0.058 A 
ATOM     74  C   UNL     1      -1.817   5.435   8.751  1.00  0.00     0.135 A 
ATOM     75  C   UNL     1       0.526   5.902   8.628  1.00  0.00     0.135 A 
ATOM     76  F   UNL     1      -3.059   5.520   8.251  1.00  0.00    -0.206 F 
ATOM     77  C   UNL     1      -1.643   4.846  10.004  1.00  0.00     0.059 A 
ATOM     78  C   UNL     1       0.731   5.313   9.868  1.00  0.00     0.059 A 
ATOM     79  F   UNL     1       1.574   6.423   7.981  1.00  0.00    -0.206 F 
ATOM     80  C   UNL     1      -0.360   4.790  10.554  1.00  0.00     0.060 A 
BRANCH  80  81
ATOM     81  S   UNL     1      -0.102   3.987  12.151  1.00  0.00     0.124 S 
ATOM     82  O   UNL     1      -0.567   5.012  13.077  1.00  0.00    -0.237 OA
ATOM     83  O   UNL     1      -0.939   2.797  12.039  1.00  0.00    -0.237 OA
ATOM     84  O   UNL     1       1.336   3.730  12.162  1.00  0.00    -0.744 OA
ENDBRANCH  80  81
ENDBRANCH  48  73
BRANCH  60  85
ATOM     85  C   UNL     1      -3.580  12.112   6.484  1.00  0.00     0.058 A 
ATOM     86  C   UNL     1      -2.938  12.891   7.460  1.00  0.00     0.135 A 
ATOM     87  C   UNL     1      -4.962  12.298   6.308  1.00  0.00     0.135 A 
ATOM     88  F   UNL     1      -1.621  12.750   7.678  1.00  0.00    -0.206 F 
ATOM     89  C   UNL     1      -3.645  13.782   8.263  1.00  0.00     0.059 A 
ATOM     90  C   UNL     1      -5.683  13.208   7.076  1.00  0.00     0.059 A 
ATOM     91  F   UNL     1      -5.628  11.589   5.383  1.00  0.00    -0.206 F 
ATOM     92  C   UNL     1      -5.019  13.929   8.067  1.00  0.00     0.060 A 
BRANCH  92  93
ATOM     93  S   UNL     1      -5.928  15.079   9.122  1.00  0.00     0.124 S 
ATOM     94  O   UNL     1      -5.967  14.351  10.386  1.00  0.00    -0.237 OA
ATOM     95  O   UNL     1      -5.077  16.265   9.099  1.00  0.00    -0.237 OA
ATOM     96  O   UNL     1      -7.212  15.223   8.441  1.00  0.00    -0.744 OA
ENDBRANCH  92  93
ENDBRANCH  60  85
ENDBRANCH  34  35
ENDBRANCH  27  29
ENDBRANCH  26  27
ENDBRANCH  25  26
ENDBRANCH   1  25
TORSDOF 17
