REMARK SMILES C[C@@H](CCC(=O)OCCOC(=O)c1ccc(-c2c3nc(c(-c4c(F)cc(S(=O)(=O)[O-])cc4F)c4ccc([nH]4)c(-c4c(F)cc(S(=O)(=O)[O-])cc4F)c4nc(c(-c5c(F)cc(S(=O)(=O)[O-])cc5F)c5ccc2[nH]5)C=C4)C=C3)cc1)NC(=O)Nc1ccc(Cl)c(Br)c1
REMARK SMILES IDX 8 1 7 2 5 3 6 4 4 5 3 6 2 7 1 8 79 9 80 10 81 12 82 13 83 15
REMARK SMILES IDX 84 16 90 17 85 18 88 19 86 20 89 21 87 22 9 23 10 24 11 25
REMARK SMILES IDX 12 26 13 27 14 28 78 29 15 30 77 31 16 32 17 33 18 34 71 35
REMARK SMILES IDX 19 36 76 37 70 38 72 39 20 40 75 41 69 42 68 43 21 45 55 46
REMARK SMILES IDX 34 47 54 48 35 49 38 50 53 51 73 52 36 53 37 54 52 56 74 57
REMARK SMILES IDX 39 58 22 59 23 60 32 61 24 62 25 63 31 64 33 65 26 66 27 67
REMARK SMILES IDX 28 68 29 69 30 70 56 71 57 72 66 73 58 74 59 75 65 76 67 77
REMARK SMILES IDX 60 78 61 79 62 80 63 81 64 82 40 83 41 84 50 85 42 86 43 87
REMARK SMILES IDX 49 88 51 89 44 90 45 91 46 92 47 93 48 94
REMARK H PARENT 79 11 82 14 72 44 38 55
REMARK Flexibility Score: inf
ROOT
ATOM      1  C   UNL     1      -3.221  -1.315   1.944  1.00  0.00     0.274 C 
ENDROOT
BRANCH   1   2
ATOM      2  O   UNL     1      -1.825  -1.040   1.696  1.00  0.00    -0.462 OA
BRANCH   2   3
ATOM      3  C   UNL     1      -0.958  -1.327   2.700  1.00  0.00     0.305 C 
ATOM      4  O   UNL     1      -1.288  -1.737   3.805  1.00  0.00    -0.252 OA
BRANCH   3   5
ATOM      5  C   UNL     1       0.475  -0.993   2.346  1.00  0.00     0.125 C 
BRANCH   5   6
ATOM      6  C   UNL     1       1.010  -1.520   1.011  1.00  0.00     0.036 C 
BRANCH   6   7
ATOM      7  C   UNL     1       0.624  -0.755  -0.269  1.00  0.00     0.081 C 
ATOM      8  C   UNL     1       0.722   0.762  -0.127  1.00  0.00     0.031 C 
BRANCH   7   9
ATOM      9  N   UNL     1      -0.705  -1.152  -0.722  1.00  0.00    -0.335 N 
ATOM     10  C   UNL     1      -1.238  -1.567  -1.885  1.00  0.00     0.319 C 
ATOM     11  H   UNL     1      -1.374  -1.105  -0.001  1.00  0.00     0.165 HD
ATOM     12  O   UNL     1      -2.466  -1.530  -2.002  1.00  0.00    -0.248 OA
ATOM     13  N   UNL     1      -0.490  -1.885  -2.962  1.00  0.00    -0.308 N 
ATOM     14  H   UNL     1      -0.958  -1.783  -3.822  1.00  0.00     0.171 HD
BRANCH  13  15
ATOM     15  C   UNL     1       0.827  -2.334  -3.074  1.00  0.00     0.044 A 
ATOM     16  C   UNL     1       1.563  -1.883  -4.170  1.00  0.00     0.028 A 
ATOM     17  C   UNL     1       1.419  -3.183  -2.136  1.00  0.00     0.043 A 
ATOM     18  C   UNL     1       2.928  -2.159  -4.249  1.00  0.00     0.024 A 
ATOM     19  C   UNL     1       2.786  -3.471  -2.220  1.00  0.00     0.038 A 
ATOM     20  C   UNL     1       3.548  -2.933  -3.264  1.00  0.00     0.055 A 
ATOM     21  Br  UNL     1       3.540  -4.548  -0.851  1.00  0.00    -0.049 Br
ATOM     22  Cl  UNL     1       5.257  -3.152  -3.390  1.00  0.00    -0.083 Cl
ENDBRANCH  13  15
ENDBRANCH   7   9
ENDBRANCH   6   7
ENDBRANCH   5   6
ENDBRANCH   3   5
ENDBRANCH   2   3
ENDBRANCH   1   2
BRANCH   1  23
ATOM     23  C   UNL     1      -3.642  -2.686   1.405  1.00  0.00     0.275 C 
BRANCH  23  24
ATOM     24  O   UNL     1      -3.093  -3.753   2.200  1.00  0.00    -0.458 OA
BRANCH  24  25
ATOM     25  C   UNL     1      -1.935  -4.281   1.737  1.00  0.00     0.338 C 
ATOM     26  O   UNL     1      -1.363  -4.000   0.698  1.00  0.00    -0.246 OA
BRANCH  25  27
ATOM     27  C   UNL     1      -1.340  -5.156   2.763  1.00  0.00     0.060 A 
ATOM     28  C   UNL     1      -0.010  -4.917   3.120  1.00  0.00     0.016 A 
ATOM     29  C   UNL     1      -2.049  -6.214   3.337  1.00  0.00     0.016 A 
ATOM     30  C   UNL     1       0.618  -5.734   4.053  1.00  0.00     0.010 A 
ATOM     31  C   UNL     1      -1.415  -7.037   4.275  1.00  0.00     0.010 A 
ATOM     32  C   UNL     1      -0.076  -6.804   4.633  1.00  0.00    -0.014 A 
BRANCH  32  33
ATOM     33  C   UNL     1       0.636  -7.680   5.593  1.00  0.00     0.031 A 
ATOM     34  C   UNL     1       1.149  -9.020   5.153  1.00  0.00     0.074 A 
ATOM     35  C   UNL     1       0.877  -7.232   6.840  1.00  0.00     0.049 A 
ATOM     36  N   UNL     1       1.835  -9.904   5.831  1.00  0.00    -0.248 NA
ATOM     37  C   UNL     1       0.851  -9.420   3.769  1.00  0.00     0.031 C 
ATOM     38  C   UNL     1       0.437  -5.941   7.371  1.00  0.00     0.029 A 
ATOM     39  N   UNL     1       1.560  -7.808   7.880  1.00  0.00    -0.354 N 
ATOM     40  C   UNL     1       2.061 -10.960   4.957  1.00  0.00     0.074 A 
ATOM     41  C   UNL     1       1.407 -10.623   3.710  1.00  0.00     0.031 C 
ATOM     42  C   UNL     1       0.868  -5.820   8.638  1.00  0.00     0.029 A 
ATOM     43  C   UNL     1       1.594  -7.031   9.013  1.00  0.00     0.049 A 
ATOM     44  H   UNL     1       1.987  -8.693   7.821  1.00  0.00     0.167 HD
ATOM     45  C   UNL     1       2.762 -12.100   5.172  1.00  0.00     0.037 A 
ATOM     46  C   UNL     1       2.142  -7.272  10.219  1.00  0.00     0.037 A 
ATOM     47  C   UNL     1       3.405 -12.433   6.418  1.00  0.00     0.049 A 
ATOM     48  C   UNL     1       2.895  -8.555  10.439  1.00  0.00     0.074 A 
ATOM     49  C   UNL     1       4.126 -13.570   6.740  1.00  0.00     0.029 A 
ATOM     50  N   UNL     1       3.405 -11.629   7.549  1.00  0.00    -0.354 N 
ATOM     51  N   UNL     1       3.104  -9.542   9.600  1.00  0.00    -0.248 NA
ATOM     52  C   UNL     1       3.494  -8.755  11.765  1.00  0.00     0.031 C 
ATOM     53  C   UNL     1       4.538 -13.466   8.075  1.00  0.00     0.029 A 
ATOM     54  C   UNL     1       4.106 -12.247   8.572  1.00  0.00     0.049 A 
ATOM     55  H   UNL     1       2.971 -10.748   7.615  1.00  0.00     0.167 HD
ATOM     56  C   UNL     1       3.865 -10.476  10.294  1.00  0.00     0.074 A 
ATOM     57  C   UNL     1       4.103  -9.922  11.612  1.00  0.00     0.031 C 
ATOM     58  C   UNL     1       4.322 -11.685   9.882  1.00  0.00     0.037 A 
BRANCH  45  59
ATOM     59  C   UNL     1       2.861 -13.076   4.034  1.00  0.00     0.058 A 
ATOM     60  C   UNL     1       3.684 -12.826   2.924  1.00  0.00     0.135 A 
ATOM     61  C   UNL     1       2.153 -14.287   4.064  1.00  0.00     0.135 A 
ATOM     62  F   UNL     1       4.369 -11.674   2.836  1.00  0.00    -0.206 F 
ATOM     63  C   UNL     1       3.785 -13.733   1.874  1.00  0.00     0.059 A 
ATOM     64  C   UNL     1       2.256 -15.220   3.036  1.00  0.00     0.059 A 
ATOM     65  F   UNL     1       1.350 -14.575   5.101  1.00  0.00    -0.206 F 
ATOM     66  C   UNL     1       3.066 -14.928   1.938  1.00  0.00     0.060 A 
BRANCH  66  67
ATOM     67  S   UNL     1       3.211 -16.100   0.572  1.00  0.00     0.124 S 
ATOM     68  O   UNL     1       2.413 -15.445  -0.459  1.00  0.00    -0.237 OA
ATOM     69  O   UNL     1       4.651 -16.129   0.336  1.00  0.00    -0.237 OA
ATOM     70  O   UNL     1       2.644 -17.329   1.118  1.00  0.00    -0.744 OA
ENDBRANCH  66  67
ENDBRANCH  45  59
BRANCH  46  71
ATOM     71  C   UNL     1       1.990  -6.278  11.314  1.00  0.00     0.058 A 
ATOM     72  C   UNL     1       3.078  -5.522  11.771  1.00  0.00     0.135 A 
ATOM     73  C   UNL     1       0.743  -6.066  11.924  1.00  0.00     0.135 A 
ATOM     74  F   UNL     1       4.292  -5.695  11.225  1.00  0.00    -0.206 F 
ATOM     75  C   UNL     1       2.942  -4.602  12.806  1.00  0.00     0.059 A 
ATOM     76  C   UNL     1       0.577  -5.135  12.943  1.00  0.00     0.059 A 
ATOM     77  F   UNL     1      -0.333  -6.756  11.514  1.00  0.00    -0.206 F 
ATOM     78  C   UNL     1       1.686  -4.415  13.386  1.00  0.00     0.060 A 
BRANCH  78  79
ATOM     79  S   UNL     1       1.504  -3.188  14.698  1.00  0.00     0.124 S 
ATOM     80  O   UNL     1       2.061  -3.899  15.843  1.00  0.00    -0.237 OA
ATOM     81  O   UNL     1       2.298  -2.072  14.192  1.00  0.00    -0.237 OA
ATOM     82  O   UNL     1       0.064  -2.953  14.738  1.00  0.00    -0.744 OA
ENDBRANCH  78  79
ENDBRANCH  46  71
BRANCH  58  83
ATOM     83  C   UNL     1       5.129 -12.479  10.871  1.00  0.00     0.058 A 
ATOM     84  C   UNL     1       4.526 -13.106  11.973  1.00  0.00     0.135 A 
ATOM     85  C   UNL     1       6.516 -12.619  10.714  1.00  0.00     0.135 A 
ATOM     86  F   UNL     1       3.202 -12.999  12.171  1.00  0.00    -0.206 F 
ATOM     87  C   UNL     1       5.277 -13.809  12.909  1.00  0.00     0.059 A 
ATOM     88  C   UNL     1       7.284 -13.339  11.624  1.00  0.00     0.059 A 
ATOM     89  F   UNL     1       7.140 -12.050   9.670  1.00  0.00    -0.206 F 
ATOM     90  C   UNL     1       6.658 -13.913  12.730  1.00  0.00     0.060 A 
BRANCH  90  91
ATOM     91  S   UNL     1       7.628 -14.822  13.952  1.00  0.00     0.124 S 
ATOM     92  O   UNL     1       7.725 -13.845  15.032  1.00  0.00    -0.237 OA
ATOM     93  O   UNL     1       6.787 -15.984  14.223  1.00  0.00    -0.237 OA
ATOM     94  O   UNL     1       8.874 -15.109  13.249  1.00  0.00    -0.744 OA
ENDBRANCH  90  91
ENDBRANCH  58  83
ENDBRANCH  32  33
ENDBRANCH  25  27
ENDBRANCH  24  25
ENDBRANCH  23  24
ENDBRANCH   1  23
TORSDOF 18
