REMARK SMILES CN(Cc1ccc(Cl)cc1Cl)S(=O)(=O)CCCC(=O)OCCOC(=O)c1ccc(-c2c3nc(c(-c4c(F)cc(S(=O)(=O)[O-])cc4F)c4ccc([nH]4)c(-c4c(F)cc(S(=O)(=O)[O-])cc4F)c4nc(c(-c5c(F)cc(S(=O)(=O)[O-])cc5F)c5ccc2[nH]5)C=C4)C=C3)cc1
REMARK SMILES IDX 20 1 18 2 19 3 17 4 16 5 15 6 12 7 13 8 14 9 2 10 1 11 3 12
REMARK SMILES IDX 4 13 5 14 10 15 6 16 9 17 11 18 7 19 8 20 21 21 22 22 23 23
REMARK SMILES IDX 24 24 25 25 26 26 27 27 91 28 28 29 90 30 29 31 30 32 31 33
REMARK SMILES IDX 84 34 32 35 89 36 83 37 85 38 33 39 88 40 82 41 81 42 34 44
REMARK SMILES IDX 68 45 47 46 67 47 48 48 51 49 66 50 86 51 49 52 50 53 65 55
REMARK SMILES IDX 87 56 52 57 35 58 36 59 45 60 37 61 38 62 44 63 46 64 39 65
REMARK SMILES IDX 40 66 41 67 42 68 43 69 69 70 70 71 79 72 71 73 72 74 78 75
REMARK SMILES IDX 80 76 73 77 74 78 75 79 76 80 77 81 53 82 54 83 63 84 55 85
REMARK SMILES IDX 56 86 62 87 64 88 57 89 58 90 59 91 60 92 61 93
REMARK H PARENT 85 43 51 54
REMARK Flexibility Score: inf
ROOT
ATOM      1  O   UNL     1      -1.511  -1.038   3.748  1.00  0.00    -0.462 OA
ENDROOT
BRANCH   1   2
ATOM      2  C   UNL     1      -0.766   0.095   3.664  1.00  0.00     0.305 C 
ATOM      3  O   UNL     1      -1.231   1.219   3.527  1.00  0.00    -0.252 OA
BRANCH   2   4
ATOM      4  C   UNL     1       0.731  -0.162   3.688  1.00  0.00     0.124 C 
BRANCH   4   5
ATOM      5  C   UNL     1       1.207  -1.597   3.903  1.00  0.00     0.029 C 
BRANCH   5   6
ATOM      6  C   UNL     1       0.949  -2.592   2.775  1.00  0.00     0.155 C 
BRANCH   6   7
ATOM      7  S   UNL     1       1.694  -2.186   1.194  1.00  0.00     0.214 S 
ATOM      8  O   UNL     1       1.484  -3.305   0.298  1.00  0.00    -0.212 OA
ATOM      9  O   UNL     1       3.037  -1.712   1.447  1.00  0.00    -0.212 OA
BRANCH   7  10
ATOM     10  N   UNL     1       0.793  -0.888   0.611  1.00  0.00    -0.201 NA
ATOM     11  C   UNL     1       1.432  -0.096  -0.458  1.00  0.00     0.124 C 
BRANCH  10  12
ATOM     12  C   UNL     1      -0.680  -0.944   0.507  1.00  0.00     0.138 C 
BRANCH  12  13
ATOM     13  C   UNL     1      -1.301  -1.782  -0.578  1.00  0.00    -0.014 A 
ATOM     14  C   UNL     1      -1.435  -3.167  -0.364  1.00  0.00     0.008 A 
ATOM     15  C   UNL     1      -1.806  -1.244  -1.771  1.00  0.00     0.047 A 
ATOM     16  C   UNL     1      -2.008  -3.995  -1.326  1.00  0.00     0.021 A 
ATOM     17  C   UNL     1      -2.396  -2.072  -2.731  1.00  0.00     0.041 A 
ATOM     18  Cl  UNL     1      -1.767   0.450  -2.107  1.00  0.00    -0.084 Cl
ATOM     19  C   UNL     1      -2.482  -3.443  -2.509  1.00  0.00     0.042 A 
ATOM     20  Cl  UNL     1      -3.189  -4.462  -3.700  1.00  0.00    -0.084 Cl
ENDBRANCH  12  13
ENDBRANCH  10  12
ENDBRANCH   7  10
ENDBRANCH   6   7
ENDBRANCH   5   6
ENDBRANCH   4   5
ENDBRANCH   2   4
ENDBRANCH   1   2
BRANCH   1  21
ATOM     21  C   UNL     1      -2.945  -0.895   3.623  1.00  0.00     0.274 C 
BRANCH  21  22
ATOM     22  C   UNL     1      -3.668  -1.372   4.884  1.00  0.00     0.275 C 
BRANCH  22  23
ATOM     23  O   UNL     1      -3.297  -0.566   6.011  1.00  0.00    -0.458 OA
BRANCH  23  24
ATOM     24  C   UNL     1      -2.197  -1.014   6.660  1.00  0.00     0.338 C 
ATOM     25  O   UNL     1      -1.595  -2.057   6.462  1.00  0.00    -0.246 OA
BRANCH  24  26
ATOM     26  C   UNL     1      -1.677   0.049   7.525  1.00  0.00     0.060 A 
ATOM     27  C   UNL     1      -0.423   0.566   7.200  1.00  0.00     0.016 A 
ATOM     28  C   UNL     1      -2.337   0.447   8.685  1.00  0.00     0.016 A 
ATOM     29  C   UNL     1       0.212   1.453   8.052  1.00  0.00     0.010 A 
ATOM     30  C   UNL     1      -1.697   1.338   9.550  1.00  0.00     0.010 A 
ATOM     31  C   UNL     1      -0.404   1.812   9.254  1.00  0.00    -0.014 A 
BRANCH  31  32
ATOM     32  C   UNL     1       0.394   2.537  10.266  1.00  0.00     0.031 A 
ATOM     33  C   UNL     1       0.899   1.780  11.462  1.00  0.00     0.074 A 
ATOM     34  C   UNL     1       0.726   3.826  10.073  1.00  0.00     0.049 A 
ATOM     35  N   UNL     1       1.549   2.217  12.507  1.00  0.00    -0.248 NA
ATOM     36  C   UNL     1       0.630   0.331  11.486  1.00  0.00     0.031 C 
ATOM     37  C   UNL     1       0.357   4.628   8.905  1.00  0.00     0.029 A 
ATOM     38  N   UNL     1       1.459   4.683  10.850  1.00  0.00    -0.354 N 
ATOM     39  C   UNL     1       1.729   1.111  13.330  1.00  0.00     0.074 A 
ATOM     40  C   UNL     1       1.111  -0.017  12.669  1.00  0.00     0.031 C 
ATOM     41  C   UNL     1       0.873   5.861   9.041  1.00  0.00     0.029 A 
ATOM     42  C   UNL     1       1.562   5.948  10.325  1.00  0.00     0.049 A 
ATOM     43  H   UNL     1       1.872   4.418  11.704  1.00  0.00     0.167 HD
ATOM     44  C   UNL     1       2.354   1.049  14.529  1.00  0.00     0.037 A 
ATOM     45  C   UNL     1       2.127   7.056  10.841  1.00  0.00     0.037 A 
ATOM     46  C   UNL     1       2.996   2.177  15.151  1.00  0.00     0.049 A 
ATOM     47  C   UNL     1       2.787   6.969  12.191  1.00  0.00     0.074 A 
ATOM     48  C   UNL     1       3.664   2.231  16.362  1.00  0.00     0.029 A 
ATOM     49  N   UNL     1       3.059   3.450  14.602  1.00  0.00    -0.354 N 
ATOM     50  N   UNL     1       2.915   5.928  12.981  1.00  0.00    -0.248 NA
ATOM     51  C   UNL     1       3.377   8.205  12.720  1.00  0.00     0.031 C 
ATOM     52  C   UNL     1       4.097   3.546  16.561  1.00  0.00     0.029 A 
ATOM     53  C   UNL     1       3.744   4.300  15.453  1.00  0.00     0.049 A 
ATOM     54  H   UNL     1       2.673   3.710  13.734  1.00  0.00     0.167 HD
ATOM     55  C   UNL     1       3.628   6.376  14.087  1.00  0.00     0.074 A 
ATOM     56  C   UNL     1       3.909   7.780  13.858  1.00  0.00     0.031 C 
ATOM     57  C   UNL     1       4.019   5.692  15.192  1.00  0.00     0.037 A 
BRANCH  44  58
ATOM     58  C   UNL     1       2.329  -0.266  15.260  1.00  0.00     0.058 A 
ATOM     59  C   UNL     1       3.077  -1.375  14.833  1.00  0.00     0.135 A 
ATOM     60  C   UNL     1       1.544  -0.413  16.415  1.00  0.00     0.135 A 
ATOM     61  F   UNL     1       3.826  -1.298  13.722  1.00  0.00    -0.206 F 
ATOM     62  C   UNL     1       3.023  -2.591  15.508  1.00  0.00     0.059 A 
ATOM     63  C   UNL     1       1.496  -1.612  17.121  1.00  0.00     0.059 A 
ATOM     64  F   UNL     1       0.803   0.612  16.864  1.00  0.00    -0.206 F 
ATOM     65  C   UNL     1       2.228  -2.701  16.650  1.00  0.00     0.060 A 
BRANCH  65  66
ATOM     66  S   UNL     1       2.162  -4.285  17.513  1.00  0.00     0.124 S 
ATOM     67  O   UNL     1       1.336  -5.076  16.606  1.00  0.00    -0.237 OA
ATOM     68  O   UNL     1       3.570  -4.664  17.580  1.00  0.00    -0.237 OA
ATOM     69  O   UNL     1       1.545  -3.950  18.792  1.00  0.00    -0.744 OA
ENDBRANCH  65  66
ENDBRANCH  44  58
BRANCH  45  70
ATOM     70  C   UNL     1       2.080   8.337  10.086  1.00  0.00     0.058 A 
ATOM     71  C   UNL     1       3.244   8.901   9.543  1.00  0.00     0.135 A 
ATOM     72  C   UNL     1       0.869   9.017   9.883  1.00  0.00     0.135 A 
ATOM     73  F   UNL     1       4.427   8.293   9.716  1.00  0.00    -0.206 F 
ATOM     74  C   UNL     1       3.213  10.101   8.839  1.00  0.00     0.059 A 
ATOM     75  C   UNL     1       0.808  10.204   9.160  1.00  0.00     0.059 A 
ATOM     76  F   UNL     1      -0.276   8.514  10.371  1.00  0.00    -0.206 F 
ATOM     77  C   UNL     1       1.988  10.744   8.651  1.00  0.00     0.060 A 
BRANCH  77  78
ATOM     78  S   UNL     1       1.950  12.277   7.697  1.00  0.00     0.124 S 
ATOM     79  O   UNL     1       2.530  13.224   8.641  1.00  0.00    -0.237 OA
ATOM     80  O   UNL     1       2.775  11.940   6.541  1.00  0.00    -0.237 OA
ATOM     81  O   UNL     1       0.530  12.459   7.411  1.00  0.00    -0.744 OA
ENDBRANCH  77  78
ENDBRANCH  45  70
BRANCH  57  82
ATOM     82  C   UNL     1       4.837   6.441  16.205  1.00  0.00     0.058 A 
ATOM     83  C   UNL     1       4.271   7.414  17.043  1.00  0.00     0.135 A 
ATOM     84  C   UNL     1       6.204   6.157  16.356  1.00  0.00     0.135 A 
ATOM     85  F   UNL     1       2.969   7.724  16.935  1.00  0.00    -0.206 F 
ATOM     86  C   UNL     1       5.040   8.107  17.971  1.00  0.00     0.059 A 
ATOM     87  C   UNL     1       6.986   6.818  17.297  1.00  0.00     0.059 A 
ATOM     88  F   UNL     1       6.790   5.224  15.589  1.00  0.00    -0.206 F 
ATOM     89  C   UNL     1       6.399   7.804  18.087  1.00  0.00     0.060 A 
BRANCH  89  90
ATOM     90  S   UNL     1       7.387   8.704  19.299  1.00  0.00     0.124 S 
ATOM     91  O   UNL     1       7.566   9.990  18.634  1.00  0.00    -0.237 OA
ATOM     92  O   UNL     1       6.517   8.712  20.471  1.00  0.00    -0.237 OA
ATOM     93  O   UNL     1       8.592   7.889  19.427  1.00  0.00    -0.744 OA
ENDBRANCH  89  90
ENDBRANCH  57  82
ENDBRANCH  31  32
ENDBRANCH  24  26
ENDBRANCH  23  24
ENDBRANCH  22  23
ENDBRANCH  21  22
ENDBRANCH   1  21
TORSDOF 20
