REMARK SMILES C[C@@H](C(=O)OCCOC(=O)c1ccc(-c2c3nc(c(-c4c(F)cc(S(=O)(=O)[O-])cc4F)c4ccc([nH]4)c(-c4c(F)cc(S(=O)(=O)[O-])cc4F)c4nc(c(-c5c(F)cc(S(=O)(=O)[O-])cc5F)c5ccc2[nH]5)C=C4)C=C3)cc1)c1ccc(C[C@H]2CCCC2=O)c(-c2ccc(OC(F)(F)F)cc2)c1
REMARK SMILES IDX 6 1 5 2 3 3 4 4 2 5 1 6 77 7 78 8 100 9 79 10 88 11 80 12
REMARK SMILES IDX 89 13 90 14 99 15 91 16 98 17 92 18 93 19 94 20 95 21 96 22
REMARK SMILES IDX 97 23 81 24 82 25 83 26 86 27 84 28 85 29 87 30 7 31 8 32
REMARK SMILES IDX 9 33 10 34 11 35 12 36 76 37 13 38 75 39 14 40 15 41 16 42
REMARK SMILES IDX 69 43 17 44 74 45 68 46 70 47 18 48 73 49 67 50 66 51 19 53
REMARK SMILES IDX 53 54 32 55 52 56 33 57 36 58 51 59 71 60 34 61 35 62 50 64
REMARK SMILES IDX 72 65 37 66 20 67 21 68 30 69 22 70 23 71 29 72 31 73 24 74
REMARK SMILES IDX 25 75 26 76 27 77 28 78 54 79 55 80 64 81 56 82 57 83 63 84
REMARK SMILES IDX 65 85 58 86 59 87 60 88 61 89 62 90 38 91 39 92 48 93 40 94
REMARK SMILES IDX 41 95 47 96 49 97 42 98 43 99 44 100 45 101 46 102
REMARK H PARENT 70 52 36 63
REMARK Flexibility Score: inf
ROOT
ATOM      1  C   UNL     1       2.055   2.066   3.123  1.00  0.00     0.274 C 
ENDROOT
BRANCH   1   2
ATOM      2  O   UNL     1       1.759   1.121   2.069  1.00  0.00    -0.462 OA
BRANCH   2   3
ATOM      3  C   UNL     1       1.210  -0.070   2.456  1.00  0.00     0.313 C 
ATOM      4  O   UNL     1       0.930  -0.349   3.618  1.00  0.00    -0.252 OA
BRANCH   3   5
ATOM      5  C   UNL     1       0.949  -1.038   1.275  1.00  0.00     0.126 C 
ATOM      6  C   UNL     1       1.622  -0.602  -0.032  1.00  0.00     0.025 C 
BRANCH   5   7
ATOM      7  C   UNL     1      -0.552  -1.220   1.122  1.00  0.00    -0.033 A 
ATOM      8  C   UNL     1      -1.286  -0.096   0.785  1.00  0.00     0.005 A 
ATOM      9  C   UNL     1      -1.253  -2.396   1.457  1.00  0.00     0.013 A 
ATOM     10  C   UNL     1      -2.641  -0.073   1.036  1.00  0.00     0.004 A 
ATOM     11  C   UNL     1      -2.659  -2.382   1.645  1.00  0.00    -0.015 A 
ATOM     12  C   UNL     1      -3.319  -1.147   1.595  1.00  0.00    -0.039 A 
BRANCH  11  13
ATOM     13  C   UNL     1      -3.441  -3.606   1.855  1.00  0.00    -0.018 A 
ATOM     14  C   UNL     1      -4.470  -3.938   0.951  1.00  0.00     0.012 A 
ATOM     15  C   UNL     1      -3.286  -4.391   2.998  1.00  0.00     0.012 A 
ATOM     16  C   UNL     1      -5.356  -4.980   1.219  1.00  0.00     0.047 A 
ATOM     17  C   UNL     1      -4.170  -5.443   3.263  1.00  0.00     0.047 A 
ATOM     18  C   UNL     1      -5.208  -5.742   2.376  1.00  0.00     0.129 A 
BRANCH  18  19
ATOM     19  O   UNL     1      -6.146  -6.721   2.534  1.00  0.00    -0.406 OA
BRANCH  19  20
ATOM     20  C   UNL     1      -5.853  -7.736   3.475  1.00  0.00     0.573 C 
ATOM     21  F   UNL     1      -4.633  -8.275   3.249  1.00  0.00    -0.132 F 
ATOM     22  F   UNL     1      -5.909  -7.267   4.739  1.00  0.00    -0.132 F 
ATOM     23  F   UNL     1      -6.768  -8.724   3.349  1.00  0.00    -0.132 F 
ENDBRANCH  19  20
ENDBRANCH  18  19
ENDBRANCH  11  13
BRANCH  12  24
ATOM     24  C   UNL     1      -4.699  -0.859   2.153  1.00  0.00     0.047 C 
BRANCH  24  25
ATOM     25  C   UNL     1      -4.769  -0.339   3.600  1.00  0.00     0.060 C 
ATOM     26  C   UNL     1      -4.776  -1.395   4.715  1.00  0.00     0.012 C 
ATOM     27  C   UNL     1      -3.701   0.625   4.088  1.00  0.00     0.136 C 
ATOM     28  C   UNL     1      -3.582  -1.106   5.623  1.00  0.00     0.009 C 
ATOM     29  C   UNL     1      -3.336   0.383   5.521  1.00  0.00     0.076 C 
ATOM     30  O   UNL     1      -3.244   1.570   3.459  1.00  0.00    -0.299 OA
ENDBRANCH  24  25
ENDBRANCH  12  24
ENDBRANCH   5   7
ENDBRANCH   3   5
ENDBRANCH   2   3
ENDBRANCH   1   2
BRANCH   1  31
ATOM     31  C   UNL     1       1.755   3.504   2.678  1.00  0.00     0.275 C 
BRANCH  31  32
ATOM     32  O   UNL     1       0.334   3.779   2.719  1.00  0.00    -0.458 OA
BRANCH  32  33
ATOM     33  C   UNL     1      -0.214   4.289   1.584  1.00  0.00     0.338 C 
ATOM     34  O   UNL     1       0.367   4.533   0.544  1.00  0.00    -0.246 OA
BRANCH  33  35
ATOM     35  C   UNL     1      -1.691   4.329   1.707  1.00  0.00     0.060 A 
ATOM     36  C   UNL     1      -2.379   3.361   0.996  1.00  0.00     0.016 A 
ATOM     37  C   UNL     1      -2.419   5.283   2.426  1.00  0.00     0.016 A 
ATOM     38  C   UNL     1      -3.762   3.244   1.127  1.00  0.00     0.010 A 
ATOM     39  C   UNL     1      -3.833   5.185   2.517  1.00  0.00     0.010 A 
ATOM     40  C   UNL     1      -4.516   4.120   1.913  1.00  0.00    -0.014 A 
BRANCH  40  41
ATOM     41  C   UNL     1      -5.991   3.844   1.964  1.00  0.00     0.031 A 
ATOM     42  C   UNL     1      -6.777   3.922   0.677  1.00  0.00     0.074 A 
ATOM     43  C   UNL     1      -6.584   3.290   3.048  1.00  0.00     0.049 A 
ATOM     44  N   UNL     1      -8.042   3.664   0.462  1.00  0.00    -0.248 NA
ATOM     45  C   UNL     1      -6.038   4.325  -0.533  1.00  0.00     0.031 C 
ATOM     46  C   UNL     1      -5.925   3.024   4.323  1.00  0.00     0.029 A 
ATOM     47  N   UNL     1      -7.852   2.769   3.230  1.00  0.00    -0.354 N 
ATOM     48  C   UNL     1      -8.261   3.955  -0.878  1.00  0.00     0.074 A 
ATOM     49  C   UNL     1      -6.980   4.279  -1.460  1.00  0.00     0.031 C 
ATOM     50  C   UNL     1      -6.747   2.302   5.108  1.00  0.00     0.029 A 
ATOM     51  C   UNL     1      -8.032   2.115   4.437  1.00  0.00     0.049 A 
ATOM     52  H   UNL     1      -8.567   2.855   2.558  1.00  0.00     0.167 HD
ATOM     53  C   UNL     1      -9.438   4.049  -1.539  1.00  0.00     0.037 A 
ATOM     54  C   UNL     1      -9.105   1.457   4.942  1.00  0.00     0.037 A 
ATOM     55  C   UNL     1     -10.714   3.774  -0.940  1.00  0.00     0.049 A 
ATOM     56  C   UNL     1     -10.412   1.542   4.179  1.00  0.00     0.074 A 
ATOM     57  C   UNL     1     -11.978   4.012  -1.447  1.00  0.00     0.029 A 
ATOM     58  N   UNL     1     -10.884   3.193   0.307  1.00  0.00    -0.354 N 
ATOM     59  N   UNL     1     -10.639   2.017   2.977  1.00  0.00    -0.248 NA
ATOM     60  C   UNL     1     -11.627   1.086   4.877  1.00  0.00     0.031 C 
ATOM     61  C   UNL     1     -12.915   3.608  -0.489  1.00  0.00     0.029 A 
ATOM     62  C   UNL     1     -12.232   3.063   0.588  1.00  0.00     0.049 A 
ATOM     63  H   UNL     1     -10.154   2.915   0.906  1.00  0.00     0.167 HD
ATOM     64  C   UNL     1     -12.020   1.973   2.803  1.00  0.00     0.074 A 
ATOM     65  C   UNL     1     -12.572   1.348   3.985  1.00  0.00     0.031 C 
ATOM     66  C   UNL     1     -12.768   2.452   1.778  1.00  0.00     0.037 A 
BRANCH  53  67
ATOM     67  C   UNL     1      -9.385   4.666  -2.906  1.00  0.00     0.058 A 
ATOM     68  C   UNL     1      -8.906   3.984  -4.033  1.00  0.00     0.135 A 
ATOM     69  C   UNL     1      -9.760   6.012  -3.061  1.00  0.00     0.135 A 
ATOM     70  F   UNL     1      -8.490   2.712  -3.928  1.00  0.00    -0.206 F 
ATOM     71  C   UNL     1      -8.773   4.625  -5.262  1.00  0.00     0.059 A 
ATOM     72  C   UNL     1      -9.662   6.663  -4.283  1.00  0.00     0.059 A 
ATOM     73  F   UNL     1     -10.203   6.716  -2.006  1.00  0.00    -0.206 F 
ATOM     74  C   UNL     1      -9.149   5.966  -5.374  1.00  0.00     0.060 A 
BRANCH  74  75
ATOM     75  S   UNL     1      -8.947   6.796  -6.964  1.00  0.00     0.124 S 
ATOM     76  O   UNL     1      -7.498   6.960  -7.026  1.00  0.00    -0.237 OA
ATOM     77  O   UNL     1      -9.516   5.827  -7.895  1.00  0.00    -0.237 OA
ATOM     78  O   UNL     1      -9.712   8.029  -6.804  1.00  0.00    -0.744 OA
ENDBRANCH  74  75
ENDBRANCH  53  67
BRANCH  54  79
ATOM     79  C   UNL     1      -9.065   0.741   6.264  1.00  0.00     0.058 A 
ATOM     80  C   UNL     1      -9.396  -0.625   6.371  1.00  0.00     0.135 A 
ATOM     81  C   UNL     1      -8.761   1.408   7.461  1.00  0.00     0.135 A 
ATOM     82  F   UNL     1      -9.738  -1.320   5.275  1.00  0.00    -0.206 F 
ATOM     83  C   UNL     1      -9.426  -1.291   7.599  1.00  0.00     0.059 A 
ATOM     84  C   UNL     1      -8.739   0.755   8.693  1.00  0.00     0.059 A 
ATOM     85  F   UNL     1      -8.472   2.718   7.448  1.00  0.00    -0.206 F 
ATOM     86  C   UNL     1      -9.085  -0.592   8.757  1.00  0.00     0.060 A 
BRANCH  86  87
ATOM     87  S   UNL     1      -9.042  -1.462  10.342  1.00  0.00     0.124 S 
ATOM     88  O   UNL     1     -10.454  -1.486  10.705  1.00  0.00    -0.237 OA
ATOM     89  O   UNL     1      -8.454  -2.748   9.978  1.00  0.00    -0.237 OA
ATOM     90  O   UNL     1      -8.191  -0.607  11.164  1.00  0.00    -0.744 OA
ENDBRANCH  86  87
ENDBRANCH  54  79
BRANCH  66  91
ATOM     91  C   UNL     1     -14.264   2.351   1.893  1.00  0.00     0.058 A 
ATOM     92  C   UNL     1     -14.988   3.176   2.768  1.00  0.00     0.135 A 
ATOM     93  C   UNL     1     -14.987   1.478   1.065  1.00  0.00     0.135 A 
ATOM     94  F   UNL     1     -14.346   4.031   3.579  1.00  0.00    -0.206 F 
ATOM     95  C   UNL     1     -16.377   3.125   2.833  1.00  0.00     0.059 A 
ATOM     96  C   UNL     1     -16.377   1.427   1.097  1.00  0.00     0.059 A 
ATOM     97  F   UNL     1     -14.343   0.678   0.201  1.00  0.00    -0.206 F 
ATOM     98  C   UNL     1     -17.063   2.248   1.991  1.00  0.00     0.060 A 
BRANCH  98  99
ATOM     99  S   UNL     1     -18.867   2.213   2.062  1.00  0.00     0.124 S 
ATOM    100  O   UNL     1     -19.099   1.528   3.329  1.00  0.00    -0.237 OA
ATOM    101  O   UNL     1     -19.209   3.631   2.036  1.00  0.00    -0.237 OA
ATOM    102  O   UNL     1     -19.240   1.462   0.866  1.00  0.00    -0.744 OA
ENDBRANCH  98  99
ENDBRANCH  66  91
ENDBRANCH  40  41
ENDBRANCH  33  35
ENDBRANCH  32  33
ENDBRANCH  31  32
ENDBRANCH   1  31
TORSDOF 20
