REMARK SMILES CS(=O)(=O)c1ccc(/C=C(/C(=O)OCCOC(=O)c2ccc(-c3c4nc(c(-c5c(F)cc(S(=O)(=O)[O-])cc5F)c5ccc([nH]5)c(-c5c(F)cc(S(=O)(=O)[O-])cc5F)c5nc(c(-c6c(F)cc(S(=O)(=O)[O-])cc6F)c6ccc3[nH]6)C=C5)C=C4)cc2)c2ccc(-c3ccc(S(C)(=O)=O)cc3)cc2)cc1
REMARK SMILES IDX 14 1 13 2 11 3 12 4 10 5 9 6 8 7 5 8 6 9 102 10 7 11 101 12
REMARK SMILES IDX 2 13 1 14 3 15 4 16 85 17 86 18 100 19 87 20 99 21 88 22
REMARK SMILES IDX 89 23 90 24 98 25 91 26 97 27 92 28 93 29 94 30 95 31 96 32
REMARK SMILES IDX 15 33 16 34 17 35 18 36 19 37 20 38 84 39 21 40 83 41 22 42
REMARK SMILES IDX 23 43 24 44 77 45 25 46 82 47 76 48 78 49 26 50 81 51 75 52
REMARK SMILES IDX 74 53 27 55 61 56 40 57 60 58 41 59 44 60 59 61 79 62 42 63
REMARK SMILES IDX 43 64 58 66 80 67 45 68 28 69 29 70 38 71 30 72 31 73 37 74
REMARK SMILES IDX 39 75 32 76 33 77 34 78 35 79 36 80 62 81 63 82 72 83 64 84
REMARK SMILES IDX 65 85 71 86 73 87 66 88 67 89 68 90 69 91 70 92 46 93 47 94
REMARK SMILES IDX 56 95 48 96 49 97 55 98 57 99 50 100 51 101 52 102 53 103
REMARK SMILES IDX 54 104
REMARK H PARENT 78 54 44 65
REMARK Flexibility Score: inf
ROOT
ATOM      1  C   UNL     1       3.973  -0.885 -10.291  1.00  0.00     0.275 C 
ENDROOT
BRANCH   1   2
ATOM      2  O   UNL     1       3.732  -1.001  -8.873  1.00  0.00    -0.458 OA
BRANCH   2   3
ATOM      3  C   UNL     1       2.845  -1.966  -8.517  1.00  0.00     0.338 C 
ATOM      4  O   UNL     1       2.204  -2.656  -9.297  1.00  0.00    -0.246 OA
BRANCH   3   5
ATOM      5  C   UNL     1       2.765  -2.145  -7.036  1.00  0.00     0.067 C 
ATOM      6  C   UNL     1       2.651  -1.059  -6.236  1.00  0.00     0.024 C 
BRANCH   6   7
ATOM      7  C   UNL     1       2.257  -1.029  -4.802  1.00  0.00    -0.025 A 
ATOM      8  C   UNL     1       1.079  -1.051  -2.248  1.00  0.00     0.067 A 
ATOM      9  C   UNL     1       1.896  -2.103  -2.635  1.00  0.00     0.021 A 
ATOM     10  C   UNL     1       0.903   0.052  -3.085  1.00  0.00     0.021 A 
ATOM     11  C   UNL     1       2.515  -2.058  -3.883  1.00  0.00     0.009 A 
ATOM     12  C   UNL     1       1.492   0.059  -4.355  1.00  0.00     0.009 A 
BRANCH   8  13
ATOM     13  S   UNL     1       0.224  -1.135  -0.699  1.00  0.00     0.175 S 
ATOM     14  C   UNL     1       1.017   0.118   0.268  1.00  0.00     0.163 C 
ATOM     15  O   UNL     1       0.520  -2.412  -0.085  1.00  0.00    -0.224 OA
ATOM     16  O   UNL     1      -1.147  -0.719  -0.943  1.00  0.00    -0.224 OA
ENDBRANCH   8  13
ENDBRANCH   6   7
BRANCH   5  17
ATOM     17  C   UNL     1       2.651  -3.521  -6.527  1.00  0.00    -0.011 A 
ATOM     18  C   UNL     1       3.808  -4.194  -6.116  1.00  0.00     0.009 A 
ATOM     19  C   UNL     1       1.411  -4.135  -6.355  1.00  0.00     0.009 A 
ATOM     20  C   UNL     1       3.720  -5.465  -5.534  1.00  0.00     0.009 A 
ATOM     21  C   UNL     1       1.334  -5.405  -5.772  1.00  0.00     0.009 A 
ATOM     22  C   UNL     1       2.484  -6.113  -5.365  1.00  0.00    -0.018 A 
BRANCH  22  23
ATOM     23  C   UNL     1       2.394  -7.490  -4.814  1.00  0.00    -0.018 A 
ATOM     24  C   UNL     1       3.367  -8.006  -3.934  1.00  0.00     0.010 A 
ATOM     25  C   UNL     1       1.325  -8.344  -5.156  1.00  0.00     0.010 A 
ATOM     26  C   UNL     1       3.263  -9.293  -3.396  1.00  0.00     0.021 A 
ATOM     27  C   UNL     1       1.201  -9.626  -4.614  1.00  0.00     0.021 A 
ATOM     28  C   UNL     1       2.166 -10.087  -3.725  1.00  0.00     0.067 A 
BRANCH  28  29
ATOM     29  S   UNL     1       1.977 -11.681  -2.967  1.00  0.00     0.175 S 
ATOM     30  C   UNL     1       3.478 -12.521  -3.354  1.00  0.00     0.163 C 
ATOM     31  O   UNL     1       1.924 -11.449  -1.534  1.00  0.00    -0.224 OA
ATOM     32  O   UNL     1       0.888 -12.359  -3.646  1.00  0.00    -0.224 OA
ENDBRANCH  28  29
ENDBRANCH  22  23
ENDBRANCH   5  17
ENDBRANCH   3   5
ENDBRANCH   2   3
ENDBRANCH   1   2
BRANCH   1  33
ATOM     33  C   UNL     1       5.296  -1.548 -10.677  1.00  0.00     0.275 C 
BRANCH  33  34
ATOM     34  O   UNL     1       5.220  -2.975 -10.504  1.00  0.00    -0.458 OA
BRANCH  34  35
ATOM     35  C   UNL     1       5.883  -3.463  -9.431  1.00  0.00     0.338 C 
ATOM     36  O   UNL     1       6.553  -2.832  -8.629  1.00  0.00    -0.246 OA
BRANCH  35  37
ATOM     37  C   UNL     1       5.653  -4.910  -9.289  1.00  0.00     0.060 A 
ATOM     38  C   UNL     1       4.371  -5.360  -9.014  1.00  0.00     0.016 A 
ATOM     39  C   UNL     1       6.733  -5.787  -9.178  1.00  0.00     0.016 A 
ATOM     40  C   UNL     1       4.199  -6.628  -8.458  1.00  0.00     0.010 A 
ATOM     41  C   UNL     1       6.523  -7.109  -8.750  1.00  0.00     0.010 A 
ATOM     42  C   UNL     1       5.260  -7.536  -8.305  1.00  0.00    -0.014 A 
BRANCH  42  43
ATOM     43  C   UNL     1       5.054  -8.871  -7.636  1.00  0.00     0.031 A 
ATOM     44  C   UNL     1       6.016  -9.381  -6.576  1.00  0.00     0.074 A 
ATOM     45  C   UNL     1       3.981  -9.642  -7.927  1.00  0.00     0.049 A 
ATOM     46  N   UNL     1       6.141 -10.589  -6.075  1.00  0.00    -0.248 NA
ATOM     47  C   UNL     1       6.974  -8.415  -6.015  1.00  0.00     0.031 C 
ATOM     48  C   UNL     1       2.908  -9.295  -8.860  1.00  0.00     0.029 A 
ATOM     49  N   UNL     1       3.605 -10.880  -7.454  1.00  0.00    -0.354 N 
ATOM     50  C   UNL     1       7.239 -10.546  -5.218  1.00  0.00     0.074 A 
ATOM     51  C   UNL     1       7.739  -9.188  -5.255  1.00  0.00     0.031 C 
ATOM     52  C   UNL     1       1.959 -10.238  -8.823  1.00  0.00     0.029 A 
ATOM     53  C   UNL     1       2.429 -11.342  -8.001  1.00  0.00     0.049 A 
ATOM     54  H   UNL     1       4.127 -11.386  -6.790  1.00  0.00     0.167 HD
ATOM     55  C   UNL     1       7.781 -11.544  -4.475  1.00  0.00     0.037 A 
ATOM     56  C   UNL     1       1.818 -12.541  -7.936  1.00  0.00     0.037 A 
ATOM     57  C   UNL     1       7.225 -12.874  -4.376  1.00  0.00     0.049 A 
ATOM     58  C   UNL     1       2.460 -13.655  -7.168  1.00  0.00     0.074 A 
ATOM     59  C   UNL     1       7.618 -13.905  -3.539  1.00  0.00     0.029 A 
ATOM     60  N   UNL     1       6.168 -13.361  -5.132  1.00  0.00    -0.354 N 
ATOM     61  N   UNL     1       3.615 -13.663  -6.547  1.00  0.00    -0.248 NA
ATOM     62  C   UNL     1       1.734 -14.929  -7.110  1.00  0.00     0.031 C 
ATOM     63  C   UNL     1       6.808 -15.016  -3.796  1.00  0.00     0.029 A 
ATOM     64  C   UNL     1       5.854 -14.653  -4.732  1.00  0.00     0.049 A 
ATOM     65  H   UNL     1       5.708 -12.863  -5.846  1.00  0.00     0.167 HD
ATOM     66  C   UNL     1       3.740 -14.933  -5.997  1.00  0.00     0.074 A 
ATOM     67  C   UNL     1       2.552 -15.670  -6.376  1.00  0.00     0.031 C 
ATOM     68  C   UNL     1       4.725 -15.420  -5.203  1.00  0.00     0.037 A 
BRANCH  55  69
ATOM     69  C   UNL     1       9.056 -11.267  -3.711  1.00  0.00     0.058 A 
ATOM     70  C   UNL     1       9.109 -10.409  -2.601  1.00  0.00     0.135 A 
ATOM     71  C   UNL     1      10.241 -11.939  -4.064  1.00  0.00     0.135 A 
ATOM     72  F   UNL     1       8.012  -9.739  -2.212  1.00  0.00    -0.206 F 
ATOM     73  C   UNL     1      10.293 -10.198  -1.895  1.00  0.00     0.059 A 
ATOM     74  C   UNL     1      11.427 -11.770  -3.354  1.00  0.00     0.059 A 
ATOM     75  F   UNL     1      10.252 -12.783  -5.108  1.00  0.00    -0.206 F 
ATOM     76  C   UNL     1      11.447 -10.882  -2.281  1.00  0.00     0.060 A 
BRANCH  76  77
ATOM     77  S   UNL     1      12.976 -10.595  -1.362  1.00  0.00     0.124 S 
ATOM     78  O   UNL     1      13.319  -9.241  -1.786  1.00  0.00    -0.237 OA
ATOM     79  O   UNL     1      12.538 -10.733   0.023  1.00  0.00    -0.237 OA
ATOM     80  O   UNL     1      13.867 -11.646  -1.843  1.00  0.00    -0.744 OA
ENDBRANCH  76  77
ENDBRANCH  55  69
BRANCH  56  81
ATOM     81  C   UNL     1       0.557 -12.758  -8.698  1.00  0.00     0.058 A 
ATOM     82  C   UNL     1      -0.672 -12.909  -8.042  1.00  0.00     0.135 A 
ATOM     83  C   UNL     1       0.553 -12.762 -10.103  1.00  0.00     0.135 A 
ATOM     84  F   UNL     1      -0.721 -12.917  -6.702  1.00  0.00    -0.206 F 
ATOM     85  C   UNL     1      -1.861 -13.063  -8.750  1.00  0.00     0.059 A 
ATOM     86  C   UNL     1      -0.625 -12.874 -10.832  1.00  0.00     0.059 A 
ATOM     87  F   UNL     1       1.701 -12.598 -10.779  1.00  0.00    -0.206 F 
ATOM     88  C   UNL     1      -1.827 -13.035 -10.146  1.00  0.00     0.060 A 
BRANCH  88  89
ATOM     89  S   UNL     1      -3.379 -13.166 -11.058  1.00  0.00     0.124 S 
ATOM     90  O   UNL     1      -3.696 -14.580 -10.896  1.00  0.00    -0.237 OA
ATOM     91  O   UNL     1      -4.238 -12.230 -10.340  1.00  0.00    -0.237 OA
ATOM     92  O   UNL     1      -3.009 -12.753 -12.409  1.00  0.00    -0.744 OA
ENDBRANCH  88  89
ENDBRANCH  56  81
BRANCH  68  93
ATOM     93  C   UNL     1       4.538 -16.817  -4.677  1.00  0.00     0.058 A 
ATOM     94  C   UNL     1       4.673 -17.943  -5.503  1.00  0.00     0.135 A 
ATOM     95  C   UNL     1       4.213 -17.029  -3.326  1.00  0.00     0.135 A 
ATOM     96  F   UNL     1       4.960 -17.794  -6.806  1.00  0.00    -0.206 F 
ATOM     97  C   UNL     1       4.473 -19.229  -5.013  1.00  0.00     0.059 A 
ATOM     98  C   UNL     1       4.039 -18.307  -2.808  1.00  0.00     0.059 A 
ATOM     99  F   UNL     1       4.070 -15.985  -2.494  1.00  0.00    -0.206 F 
ATOM    100  C   UNL     1       4.160 -19.401  -3.663  1.00  0.00     0.060 A 
BRANCH 100 101
ATOM    101  S   UNL     1       3.937 -21.079  -3.035  1.00  0.00     0.124 S 
ATOM    102  O   UNL     1       2.651 -21.444  -3.619  1.00  0.00    -0.237 OA
ATOM    103  O   UNL     1       5.101 -21.771  -3.581  1.00  0.00    -0.237 OA
ATOM    104  O   UNL     1       3.943 -20.903  -1.586  1.00  0.00    -0.744 OA
ENDBRANCH 100 101
ENDBRANCH  68  93
ENDBRANCH  42  43
ENDBRANCH  35  37
ENDBRANCH  34  35
ENDBRANCH  33  34
ENDBRANCH   1  33
TORSDOF 19
