REMARK SMILES Cn1cc(-c2cc(C(F)(F)F)c3c(C4CC4)nn(CC(=O)OCCOC(=O)c4ccc(-c5c6nc(c(-c7c(F)cc(S(=O)(=O)[O-])cc7F)c7ccc([nH]7)c(-c7c(F)cc(S(=O)(=O)[O-])cc7F)c7nc(c(-c8c(F)cc(S(=O)(=O)[O-])cc8F)c8ccc5[nH]8)C=C7)C=C6)cc4)c3n2)cn1
REMARK SMILES IDX 24 1 23 2 22 3 20 4 21 5 19 6 18 7 5 8 6 9 95 10 7 11 94 12
REMARK SMILES IDX 12 13 13 14 17 15 4 16 1 17 2 18 3 19 97 20 96 21 8 22 9 23
REMARK SMILES IDX 10 24 11 25 14 26 15 27 16 28 25 29 26 30 27 31 28 32 29 33
REMARK SMILES IDX 93 34 30 35 92 36 31 37 32 38 33 39 86 40 34 41 91 42 85 43
REMARK SMILES IDX 87 44 35 45 90 46 84 47 83 48 36 50 70 51 49 52 69 53 50 54
REMARK SMILES IDX 53 55 68 56 88 57 51 58 52 59 67 61 89 62 54 63 37 64 38 65
REMARK SMILES IDX 47 66 39 67 40 68 46 69 48 70 41 71 42 72 43 73 44 74 45 75
REMARK SMILES IDX 71 76 72 77 81 78 73 79 74 80 80 81 82 82 75 83 76 84 77 85
REMARK SMILES IDX 78 86 79 87 55 88 56 89 65 90 57 91 58 92 64 93 66 94 59 95
REMARK SMILES IDX 60 96 61 97 62 98 63 99
REMARK H PARENT 87 49 53 60
REMARK Flexibility Score: inf
ROOT
ATOM      1  C   UNL     1      -5.848  -2.123  -1.847  1.00  0.00     0.275 C 
ENDROOT
BRANCH   1   2
ATOM      2  C   UNL     1      -5.103  -1.567  -3.052  1.00  0.00     0.274 C 
BRANCH   2   3
ATOM      3  O   UNL     1      -3.691  -1.745  -2.849  1.00  0.00    -0.461 OA
BRANCH   3   4
ATOM      4  C   UNL     1      -2.992  -0.617  -2.588  1.00  0.00     0.327 C 
ATOM      5  O   UNL     1      -3.419   0.518  -2.806  1.00  0.00    -0.250 OA
BRANCH   4   6
ATOM      6  C   UNL     1      -1.600  -0.837  -2.111  1.00  0.00     0.269 C 
BRANCH   6   7
ATOM      7  N   UNL     1      -1.163  -2.111  -1.540  1.00  0.00    -0.236 N 
ATOM      8  C   UNL     1       2.101  -1.468  -0.593  1.00  0.00     0.077 A 
ATOM      9  C   UNL     1       2.513  -2.699  -0.101  1.00  0.00     0.043 A 
ATOM     10  N   UNL     1       1.141  -1.398  -1.543  1.00  0.00    -0.228 NA
ATOM     11  C   UNL     1       1.647  -3.810  -0.243  1.00  0.00     0.071 A 
ATOM     12  C   UNL     1       0.173  -2.301  -1.290  1.00  0.00     0.159 A 
ATOM     13  C   UNL     1       0.312  -3.448  -0.529  1.00  0.00     0.055 A 
ATOM     14  C   UNL     1      -1.027  -3.689  -0.108  1.00  0.00     0.076 A 
ATOM     15  N   UNL     1      -1.927  -2.960  -0.808  1.00  0.00    -0.174 NA
BRANCH   8  16
ATOM     16  C   UNL     1       1.911  -0.336   0.331  1.00  0.00     0.038 A 
ATOM     17  C   UNL     1      -1.109   0.865   1.693  1.00  0.00     0.173 C 
ATOM     18  N   UNL     1       0.297   0.737   1.373  1.00  0.00    -0.275 N 
ATOM     19  C   UNL     1       0.974  -0.453   1.351  1.00  0.00     0.118 A 
ATOM     20  N   UNL     1       0.942   1.715   0.706  1.00  0.00    -0.181 NA
ATOM     21  C   UNL     1       1.868   1.044   0.008  1.00  0.00     0.145 A 
ENDBRANCH   8  16
BRANCH  11  22
ATOM     22  C   UNL     1       2.204  -5.202  -0.366  1.00  0.00     0.417 C 
ATOM     23  F   UNL     1       1.814  -6.091   0.573  1.00  0.00    -0.166 F 
ATOM     24  F   UNL     1       1.869  -5.761  -1.567  1.00  0.00    -0.166 F 
ATOM     25  F   UNL     1       3.570  -5.222  -0.343  1.00  0.00    -0.166 F 
ENDBRANCH  11  22
BRANCH  14  26
ATOM     26  C   UNL     1      -1.509  -4.393   1.176  1.00  0.00     0.041 C 
ATOM     27  C   UNL     1      -0.699  -5.332   2.033  1.00  0.00     0.011 C 
ATOM     28  C   UNL     1      -0.896  -3.936   2.499  1.00  0.00     0.011 C 
ENDBRANCH  14  26
ENDBRANCH   6   7
ENDBRANCH   4   6
ENDBRANCH   3   4
ENDBRANCH   2   3
ENDBRANCH   1   2
BRANCH   1  29
ATOM     29  O   UNL     1      -6.163  -1.123  -0.862  1.00  0.00    -0.458 OA
BRANCH  29  30
ATOM     30  C   UNL     1      -5.178  -0.851   0.012  1.00  0.00     0.338 C 
ATOM     31  O   UNL     1      -4.023  -0.520  -0.250  1.00  0.00    -0.246 OA
BRANCH  30  32
ATOM     32  C   UNL     1      -5.588  -1.139   1.385  1.00  0.00     0.060 A 
ATOM     33  C   UNL     1      -4.649  -0.870   2.388  1.00  0.00     0.016 A 
ATOM     34  C   UNL     1      -6.774  -1.830   1.661  1.00  0.00     0.016 A 
ATOM     35  C   UNL     1      -4.836  -1.392   3.646  1.00  0.00     0.010 A 
ATOM     36  C   UNL     1      -6.968  -2.344   2.928  1.00  0.00     0.010 A 
ATOM     37  C   UNL     1      -5.974  -2.161   3.892  1.00  0.00    -0.014 A 
BRANCH  37  38
ATOM     38  C   UNL     1      -6.152  -2.647   5.247  1.00  0.00     0.031 A 
ATOM     39  C   UNL     1      -6.416  -1.571   6.241  1.00  0.00     0.074 A 
ATOM     40  C   UNL     1      -6.209  -3.960   5.532  1.00  0.00     0.049 A 
ATOM     41  N   UNL     1      -5.765  -1.282   7.320  1.00  0.00    -0.248 NA
ATOM     42  C   UNL     1      -7.478  -0.604   5.904  1.00  0.00     0.031 C 
ATOM     43  C   UNL     1      -6.263  -5.082   4.591  1.00  0.00     0.029 A 
ATOM     44  N   UNL     1      -6.373  -4.559   6.739  1.00  0.00    -0.354 N 
ATOM     45  C   UNL     1      -6.456  -0.219   7.900  1.00  0.00     0.074 A 
ATOM     46  C   UNL     1      -7.387   0.258   6.913  1.00  0.00     0.031 C 
ATOM     47  C   UNL     1      -6.692  -6.182   5.248  1.00  0.00     0.029 A 
ATOM     48  C   UNL     1      -6.832  -5.865   6.660  1.00  0.00     0.049 A 
ATOM     49  H   UNL     1      -6.184  -4.106   7.593  1.00  0.00     0.167 HD
ATOM     50  C   UNL     1      -6.381   0.061   9.228  1.00  0.00     0.037 A 
ATOM     51  C   UNL     1      -7.397  -6.572   7.670  1.00  0.00     0.037 A 
ATOM     52  C   UNL     1      -5.213  -0.515   9.834  1.00  0.00     0.049 A 
ATOM     53  C   UNL     1      -7.016  -5.904   8.945  1.00  0.00     0.074 A 
ATOM     54  C   UNL     1      -3.853  -0.367   9.646  1.00  0.00     0.029 A 
ATOM     55  N   UNL     1      -5.366  -1.662  10.573  1.00  0.00    -0.354 N 
ATOM     56  N   UNL     1      -5.799  -5.848   9.414  1.00  0.00    -0.248 NA
ATOM     57  C   UNL     1      -7.939  -4.925   9.501  1.00  0.00     0.031 C 
ATOM     58  C   UNL     1      -3.304  -1.663   9.867  1.00  0.00     0.029 A 
ATOM     59  C   UNL     1      -4.355  -2.515  10.208  1.00  0.00     0.049 A 
ATOM     60  H   UNL     1      -6.069  -1.839  11.240  1.00  0.00     0.167 HD
ATOM     61  C   UNL     1      -5.699  -4.597  10.008  1.00  0.00     0.074 A 
ATOM     62  C   UNL     1      -7.072  -4.117  10.116  1.00  0.00     0.031 C 
ATOM     63  C   UNL     1      -4.499  -3.951  10.107  1.00  0.00     0.037 A 
BRANCH  50  64
ATOM     64  C   UNL     1      -7.552   0.575  10.026  1.00  0.00     0.058 A 
ATOM     65  C   UNL     1      -7.352   1.068  11.330  1.00  0.00     0.135 A 
ATOM     66  C   UNL     1      -8.898   0.347   9.657  1.00  0.00     0.135 A 
ATOM     67  F   UNL     1      -6.113   1.299  11.790  1.00  0.00    -0.206 F 
ATOM     68  C   UNL     1      -8.409   1.263  12.220  1.00  0.00     0.059 A 
ATOM     69  C   UNL     1      -9.969   0.592  10.506  1.00  0.00     0.059 A 
ATOM     70  F   UNL     1      -9.232  -0.221   8.491  1.00  0.00    -0.206 F 
ATOM     71  C   UNL     1      -9.713   1.005  11.802  1.00  0.00     0.060 A 
BRANCH  71  72
ATOM     72  S   UNL     1     -11.067   1.128  12.982  1.00  0.00     0.124 S 
ATOM     73  O   UNL     1     -10.793  -0.011  13.852  1.00  0.00    -0.237 OA
ATOM     74  O   UNL     1     -10.844   2.447  13.564  1.00  0.00    -0.237 OA
ATOM     75  O   UNL     1     -12.255   1.011  12.143  1.00  0.00    -0.744 OA
ENDBRANCH  71  72
ENDBRANCH  50  64
BRANCH  51  76
ATOM     76  C   UNL     1      -8.533  -7.528   7.574  1.00  0.00     0.058 A 
ATOM     77  C   UNL     1      -8.876  -8.350   8.662  1.00  0.00     0.135 A 
ATOM     78  C   UNL     1      -9.472  -7.468   6.523  1.00  0.00     0.135 A 
ATOM     79  F   UNL     1      -8.054  -8.448   9.718  1.00  0.00    -0.206 F 
ATOM     80  C   UNL     1     -10.097  -9.030   8.727  1.00  0.00     0.059 A 
ATOM     81  C   UNL     1     -10.685  -8.151   6.557  1.00  0.00     0.059 A 
ATOM     82  F   UNL     1      -9.286  -6.664   5.466  1.00  0.00    -0.206 F 
ATOM     83  C   UNL     1     -11.005  -8.907   7.676  1.00  0.00     0.060 A 
BRANCH  83  84
ATOM     84  S   UNL     1     -12.650  -9.639   7.831  1.00  0.00     0.124 S 
ATOM     85  O   UNL     1     -12.348 -11.066   7.820  1.00  0.00    -0.237 OA
ATOM     86  O   UNL     1     -13.108  -9.091   9.103  1.00  0.00    -0.237 OA
ATOM     87  O   UNL     1     -13.355  -9.141   6.652  1.00  0.00    -0.744 OA
ENDBRANCH  83  84
ENDBRANCH  51  76
BRANCH  63  88
ATOM     88  C   UNL     1      -3.242  -4.734   9.831  1.00  0.00     0.058 A 
ATOM     89  C   UNL     1      -2.911  -5.269   8.574  1.00  0.00     0.135 A 
ATOM     90  C   UNL     1      -2.259  -4.792  10.831  1.00  0.00     0.135 A 
ATOM     91  F   UNL     1      -3.749  -5.159   7.535  1.00  0.00    -0.206 F 
ATOM     92  C   UNL     1      -1.672  -5.864   8.331  1.00  0.00     0.059 A 
ATOM     93  C   UNL     1      -1.005  -5.352  10.602  1.00  0.00     0.059 A 
ATOM     94  F   UNL     1      -2.491  -4.242  12.034  1.00  0.00    -0.206 F 
ATOM     95  C   UNL     1      -0.721  -5.894   9.350  1.00  0.00     0.060 A 
BRANCH  95  96
ATOM     96  S   UNL     1       0.918  -6.564   8.994  1.00  0.00     0.124 S 
ATOM     97  O   UNL     1       0.646  -7.992   8.872  1.00  0.00    -0.237 OA
ATOM     98  O   UNL     1       1.276  -5.880   7.755  1.00  0.00    -0.237 OA
ATOM     99  O   UNL     1       1.707  -6.176  10.160  1.00  0.00    -0.744 OA
ENDBRANCH  95  96
ENDBRANCH  63  88
ENDBRANCH  37  38
ENDBRANCH  30  32
ENDBRANCH  29  30
ENDBRANCH   1  29
TORSDOF 18
