REMARK SMILES COC[C@H](C)CNC(=O)N[C@@H]1CCCCC[C@@H]1C(=O)OCCOC(=O)c1ccc(-c2c3nc(c(-c4c(F)cc(S(=O)(=O)[O-])cc4F)c4ccc([nH]4)c(-c4c(F)cc(S(=O)(=O)[O-])cc4F)c4nc(c(-c5c(F)cc(S(=O)(=O)[O-])cc5F)c5ccc2[nH]5)C=C4)C=C3)cc1
REMARK SMILES IDX 20 1 18 2 19 3 17 4 11 5 10 6 7 7 8 8 9 10 6 12 4 13 5 14
REMARK SMILES IDX 3 15 2 16 1 17 12 18 13 19 14 20 16 22 15 23 21 25 22 26
REMARK SMILES IDX 23 27 24 28 25 29 26 30 27 31 91 32 28 33 90 34 29 35 30 36
REMARK SMILES IDX 31 37 84 38 32 39 89 40 83 41 85 42 33 43 88 44 82 45 81 46
REMARK SMILES IDX 34 48 68 49 47 50 67 51 48 52 51 53 66 54 86 55 49 56 50 57
REMARK SMILES IDX 65 59 87 60 52 61 35 62 36 63 45 64 37 65 38 66 44 67 46 68
REMARK SMILES IDX 39 69 40 70 41 71 42 72 43 73 69 74 70 75 79 76 71 77 72 78
REMARK SMILES IDX 78 79 80 80 73 81 74 82 75 83 76 84 77 85 53 86 54 87 63 88
REMARK SMILES IDX 55 89 56 90 62 91 64 92 57 93 58 94 59 95 60 96 61 97
REMARK H PARENT 7 9 10 11 85 47 51 58
REMARK Flexibility Score: 100.00
ROOT
ATOM      1  O   UNL     1       2.387   5.775  -5.764  1.00  0.00    -0.462 OA
ENDROOT
BRANCH   1   2
ATOM      2  C   UNL     1       1.129   6.305  -5.671  1.00  0.00     0.311 C 
ATOM      3  O   UNL     1       0.498   6.749  -6.621  1.00  0.00    -0.252 OA
BRANCH   2   4
ATOM      4  C   UNL     1       0.688   6.425  -4.215  1.00  0.00     0.121 C 
BRANCH   4   5
ATOM      5  C   UNL     1       0.182   5.124  -3.533  1.00  0.00     0.098 C 
BRANCH   5   6
ATOM      6  N   UNL     1       0.531   3.902  -4.250  1.00  0.00    -0.335 N 
ATOM      7  N   UNL     1       0.739   1.644  -4.207  1.00  0.00    -0.338 N 
ATOM      8  C   UNL     1      -0.126   2.703  -4.215  1.00  0.00     0.315 C 
ATOM      9  H   UNL     1       0.718   0.975  -4.929  1.00  0.00     0.165 HD
ATOM     10  O   UNL     1      -1.326   2.516  -4.133  1.00  0.00    -0.249 OA
ATOM     11  H   UNL     1       1.329   3.945  -4.824  1.00  0.00     0.165 HD
BRANCH   7  12
ATOM     12  C   UNL     1       1.690   1.523  -3.116  1.00  0.00     0.123 C 
BRANCH  12  13
ATOM     13  C   UNL     1       0.954   0.962  -1.883  1.00  0.00     0.031 C 
ATOM     14  C   UNL     1       1.435  -0.456  -1.583  1.00  0.00     0.012 C 
BRANCH  13  15
ATOM     15  C   UNL     1       1.095   1.892  -0.670  1.00  0.00     0.164 C 
BRANCH  15  16
ATOM     16  O   UNL     1       0.232   1.523   0.408  1.00  0.00    -0.384 OA
ATOM     17  C   UNL     1      -1.132   1.877   0.182  1.00  0.00     0.194 C 
ENDBRANCH  15  16
ENDBRANCH  13  15
ENDBRANCH  12  13
ENDBRANCH   7  12
ENDBRANCH   5   6
BRANCH   5  18
ATOM     18  C   UNL     1      -1.246   5.162  -2.951  1.00  0.00     0.026 C 
BRANCH  18  19
ATOM     19  C   UNL     1      -1.362   6.037  -1.700  1.00  0.00     0.002 C 
BRANCH  19  20
ATOM     20  C   UNL     1      -1.587   7.512  -1.975  1.00  0.00     0.000 CG0
ATOM     21  G   UNL     1      -0.457   8.190  -2.732  1.00  0.00     0.000 G0
ENDBRANCH  19  20
ENDBRANCH  18  19
ENDBRANCH   5  18
ENDBRANCH   4   5
BRANCH   4  22
ATOM     22  C   UNL     1      -0.253   7.644  -4.138  1.00  0.00     0.017 C 
BRANCH  22  23
ATOM     23  C   UNL     1      -0.457   8.190  -2.732  1.00  0.00     0.001 CG0
ATOM     24  G   UNL     1      -1.587   7.512  -1.975  1.00  0.00     0.000 G0
ENDBRANCH  22  23
ENDBRANCH   4  22
ENDBRANCH   2   4
ENDBRANCH   1   2
BRANCH   1  25
ATOM     25  C   UNL     1       3.024   5.961  -7.046  1.00  0.00     0.274 C 
BRANCH  25  26
ATOM     26  C   UNL     1       2.948   4.719  -7.927  1.00  0.00     0.275 C 
BRANCH  26  27
ATOM     27  O   UNL     1       1.583   4.309  -8.100  1.00  0.00    -0.458 OA
BRANCH  27  28
ATOM     28  C   UNL     1       1.277   3.113  -7.551  1.00  0.00     0.338 C 
ATOM     29  O   UNL     1       2.064   2.337  -7.020  1.00  0.00    -0.246 OA
BRANCH  28  30
ATOM     30  C   UNL     1      -0.169   2.840  -7.616  1.00  0.00     0.060 A 
ATOM     31  C   UNL     1      -1.076   3.749  -7.078  1.00  0.00     0.016 A 
ATOM     32  C   UNL     1      -0.599   1.568  -7.999  1.00  0.00     0.016 A 
ATOM     33  C   UNL     1      -2.380   3.340  -6.803  1.00  0.00     0.010 A 
ATOM     34  C   UNL     1      -1.938   1.202  -7.824  1.00  0.00     0.010 A 
ATOM     35  C   UNL     1      -2.838   2.071  -7.187  1.00  0.00    -0.014 A 
BRANCH  35  36
ATOM     36  C   UNL     1      -4.255   1.671  -6.952  1.00  0.00     0.031 A 
ATOM     37  C   UNL     1      -4.604   0.422  -6.180  1.00  0.00     0.074 A 
ATOM     38  C   UNL     1      -5.244   2.435  -7.459  1.00  0.00     0.049 A 
ATOM     39  N   UNL     1      -5.754  -0.200  -6.091  1.00  0.00    -0.248 NA
ATOM     40  C   UNL     1      -3.522  -0.218  -5.416  1.00  0.00     0.031 C 
ATOM     41  C   UNL     1      -5.054   3.700  -8.172  1.00  0.00     0.029 A 
ATOM     42  N   UNL     1      -6.605   2.259  -7.460  1.00  0.00    -0.354 N 
ATOM     43  C   UNL     1      -5.529  -1.322  -5.299  1.00  0.00     0.074 A 
ATOM     44  C   UNL     1      -4.126  -1.300  -4.936  1.00  0.00     0.031 C 
ATOM     45  C   UNL     1      -6.248   4.201  -8.513  1.00  0.00     0.029 A 
ATOM     46  C   UNL     1      -7.278   3.237  -8.153  1.00  0.00     0.049 A 
ATOM     47  H   UNL     1      -7.055   1.508  -7.009  1.00  0.00     0.167 HD
ATOM     48  C   UNL     1      -6.414  -2.277  -4.916  1.00  0.00     0.037 A 
ATOM     49  C   UNL     1      -8.567   3.326  -8.530  1.00  0.00     0.037 A 
ATOM     50  C   UNL     1      -7.818  -2.260  -5.256  1.00  0.00     0.049 A 
ATOM     51  C   UNL     1      -9.508   2.217  -8.174  1.00  0.00     0.074 A 
ATOM     52  C   UNL     1      -8.799  -3.177  -4.915  1.00  0.00     0.029 A 
ATOM     53  N   UNL     1      -8.445  -1.273  -6.004  1.00  0.00    -0.354 N 
ATOM     54  N   UNL     1      -9.267   1.124  -7.492  1.00  0.00    -0.248 NA
ATOM     55  C   UNL     1     -10.888   2.342  -8.655  1.00  0.00     0.031 C 
ATOM     56  C   UNL     1     -10.005  -2.771  -5.497  1.00  0.00     0.029 A 
ATOM     57  C   UNL     1      -9.791  -1.571  -6.155  1.00  0.00     0.049 A 
ATOM     58  H   UNL     1      -7.999  -0.477  -6.373  1.00  0.00     0.167 HD
ATOM     59  C   UNL     1     -10.471   0.433  -7.449  1.00  0.00     0.074 A 
ATOM     60  C   UNL     1     -11.441   1.242  -8.162  1.00  0.00     0.031 C 
ATOM     61  C   UNL     1     -10.746  -0.762  -6.872  1.00  0.00     0.037 A 
BRANCH  48  62
ATOM     62  C   UNL     1      -5.903  -3.450  -4.116  1.00  0.00     0.058 A 
ATOM     63  C   UNL     1      -5.541  -3.335  -2.765  1.00  0.00     0.135 A 
ATOM     64  C   UNL     1      -5.855  -4.731  -4.693  1.00  0.00     0.135 A 
ATOM     65  F   UNL     1      -5.560  -2.138  -2.159  1.00  0.00    -0.206 F 
ATOM     66  C   UNL     1      -5.133  -4.442  -2.022  1.00  0.00     0.059 A 
ATOM     67  C   UNL     1      -5.475  -5.855  -3.963  1.00  0.00     0.059 A 
ATOM     68  F   UNL     1      -6.197  -4.905  -5.980  1.00  0.00    -0.206 F 
ATOM     69  C   UNL     1      -5.105  -5.699  -2.629  1.00  0.00     0.060 A 
BRANCH  69  70
ATOM     70  S   UNL     1      -4.589  -7.127  -1.650  1.00  0.00     0.124 S 
ATOM     71  O   UNL     1      -3.155  -6.887  -1.516  1.00  0.00    -0.237 OA
ATOM     72  O   UNL     1      -5.373  -6.971  -0.429  1.00  0.00    -0.237 OA
ATOM     73  O   UNL     1      -4.957  -8.266  -2.486  1.00  0.00    -0.744 OA
ENDBRANCH  69  70
ENDBRANCH  48  62
BRANCH  49  74
ATOM     74  C   UNL     1      -9.006   4.490  -9.343  1.00  0.00     0.058 A 
ATOM     75  C   UNL     1      -9.845   5.472  -8.802  1.00  0.00     0.135 A 
ATOM     76  C   UNL     1      -8.538   4.676 -10.655  1.00  0.00     0.135 A 
ATOM     77  F   UNL     1     -10.326   5.333  -7.557  1.00  0.00    -0.206 F 
ATOM     78  C   UNL     1     -10.202   6.603  -9.530  1.00  0.00     0.059 A 
ATOM     79  C   UNL     1      -8.854   5.813 -11.390  1.00  0.00     0.059 A 
ATOM     80  F   UNL     1      -7.718   3.771 -11.213  1.00  0.00    -0.206 F 
ATOM     81  C   UNL     1      -9.692   6.769 -10.819  1.00  0.00     0.060 A 
BRANCH  81  82
ATOM     82  S   UNL     1     -10.094   8.278 -11.724  1.00  0.00     0.124 S 
ATOM     83  O   UNL     1     -11.480   8.031 -12.105  1.00  0.00    -0.237 OA
ATOM     84  O   UNL     1      -9.884   9.309 -10.713  1.00  0.00    -0.237 OA
ATOM     85  O   UNL     1      -9.129   8.281 -12.819  1.00  0.00    -0.744 OA
ENDBRANCH  81  82
ENDBRANCH  49  74
BRANCH  61  86
ATOM     86  C   UNL     1     -12.164  -1.250  -6.963  1.00  0.00     0.058 A 
ATOM     87  C   UNL     1     -12.700  -1.739  -8.165  1.00  0.00     0.135 A 
ATOM     88  C   UNL     1     -12.992  -1.243  -5.830  1.00  0.00     0.135 A 
ATOM     89  F   UNL     1     -11.954  -1.754  -9.281  1.00  0.00    -0.206 F 
ATOM     90  C   UNL     1     -14.017  -2.178  -8.246  1.00  0.00     0.059 A 
ATOM     91  C   UNL     1     -14.304  -1.703  -5.882  1.00  0.00     0.059 A 
ATOM     92  F   UNL     1     -12.527  -0.790  -4.655  1.00  0.00    -0.206 F 
ATOM     93  C   UNL     1     -14.812  -2.156  -7.099  1.00  0.00     0.060 A 
BRANCH  93  94
ATOM     94  S   UNL     1     -16.514  -2.746  -7.213  1.00  0.00     0.124 S 
ATOM     95  O   UNL     1     -17.158  -1.650  -7.929  1.00  0.00    -0.237 OA
ATOM     96  O   UNL     1     -16.364  -3.990  -7.961  1.00  0.00    -0.237 OA
ATOM     97  O   UNL     1     -16.914  -2.904  -5.818  1.00  0.00    -0.744 OA
ENDBRANCH  93  94
ENDBRANCH  61  86
ENDBRANCH  35  36
ENDBRANCH  28  30
ENDBRANCH  27  28
ENDBRANCH  26  27
ENDBRANCH  25  26
ENDBRANCH   1  25
TORSDOF 19
