REMARK SMILES O=C(NC[C@@H]1CC[C@H](C(=O)OCCOC(=O)c2ccc(-c3c4nc(c(-c5c(F)cc(S(=O)(=O)[O-])cc5F)c5ccc([nH]5)c(-c5c(F)cc(S(=O)(=O)[O-])cc5F)c5nc(c(-c6c(F)cc(S(=O)(=O)[O-])cc6F)c6ccc3[nH]6)C=C5)C=C4)cc2)O1)Nc1ncccn1
REMARK SMILES IDX 12 1 11 2 9 3 10 4 8 5 5 6 6 7 83 8 7 9 4 10 3 11 1 12 2 13
REMARK SMILES IDX 84 14 85 17 86 18 90 19 87 20 89 21 88 22 13 23 14 24 15 25
REMARK SMILES IDX 16 26 17 27 18 28 82 29 19 30 81 31 20 32 21 33 22 34 75 35
REMARK SMILES IDX 23 36 80 37 74 38 76 39 24 40 79 41 73 42 72 43 25 45 59 46
REMARK SMILES IDX 38 47 58 48 39 49 42 50 57 51 77 52 40 53 41 54 56 56 78 57
REMARK SMILES IDX 43 58 26 59 27 60 36 61 28 62 29 63 35 64 37 65 30 66 31 67
REMARK SMILES IDX 32 68 33 69 34 70 60 71 61 72 70 73 62 74 63 75 69 76 71 77
REMARK SMILES IDX 64 78 65 79 66 80 67 81 68 82 44 83 45 84 54 85 46 86 47 87
REMARK SMILES IDX 53 88 55 89 48 90 49 91 50 92 51 93 52 94
REMARK H PARENT 3 15 84 16 76 44 42 55
REMARK Flexibility Score: inf
ROOT
ATOM      1  C   UNL     1       0.639   3.974  -0.599  1.00  0.00     0.274 C 
ENDROOT
BRANCH   1   2
ATOM      2  O   UNL     1       2.062   3.790  -0.751  1.00  0.00    -0.460 OA
BRANCH   2   3
ATOM      3  C   UNL     1       2.469   3.242  -1.932  1.00  0.00     0.335 C 
ATOM      4  O   UNL     1       1.713   2.861  -2.818  1.00  0.00    -0.249 OA
BRANCH   3   5
ATOM      5  C   UNL     1       4.003   3.165  -2.051  1.00  0.00     0.228 C 
ATOM      6  C   UNL     1       5.187   1.999  -0.416  1.00  0.00     0.138 C 
ATOM      7  C   UNL     1       5.050   3.440   0.053  1.00  0.00     0.037 C 
ATOM      8  O   UNL     1       4.519   1.884  -1.681  1.00  0.00    -0.361 OA
ATOM      9  C   UNL     1       4.774   4.184  -1.230  1.00  0.00     0.047 C 
BRANCH   6  10
ATOM     10  C   UNL     1       4.623   0.957   0.559  1.00  0.00     0.149 C 
BRANCH  10  11
ATOM     11  N   UNL     1       3.164   0.995   0.632  1.00  0.00    -0.335 N 
ATOM     12  O   UNL     1       1.075   0.366   0.245  1.00  0.00    -0.248 OA
ATOM     13  C   UNL     1       2.250   0.023   0.335  1.00  0.00     0.321 C 
ATOM     14  N   UNL     1       2.740  -1.236   0.236  1.00  0.00    -0.276 N 
ATOM     15  H   UNL     1       2.783   1.848   0.941  1.00  0.00     0.165 HD
ATOM     16  H   UNL     1       3.673  -1.369   0.520  1.00  0.00     0.175 HD
BRANCH  14  17
ATOM     17  C   UNL     1       2.066  -2.355  -0.221  1.00  0.00     0.230 A 
ATOM     18  N   UNL     1       2.715  -3.510   0.014  1.00  0.00    -0.221 NA
ATOM     19  N   UNL     1       0.901  -2.266  -0.870  1.00  0.00    -0.221 NA
ATOM     20  C   UNL     1       2.122  -4.635  -0.430  1.00  0.00     0.117 A 
ATOM     21  C   UNL     1       0.363  -3.414  -1.318  1.00  0.00     0.117 A 
ATOM     22  C   UNL     1       0.932  -4.647  -1.115  1.00  0.00     0.040 A 
ENDBRANCH  14  17
ENDBRANCH  10  11
ENDBRANCH   6  10
ENDBRANCH   3   5
ENDBRANCH   2   3
ENDBRANCH   1   2
BRANCH   1  23
ATOM     23  C   UNL     1       0.215   5.407  -0.944  1.00  0.00     0.275 C 
BRANCH  23  24
ATOM     24  O   UNL     1       0.320   5.676  -2.355  1.00  0.00    -0.458 OA
BRANCH  24  25
ATOM     25  C   UNL     1       1.481   6.247  -2.751  1.00  0.00     0.338 C 
ATOM     26  O   UNL     1       2.413   6.593  -2.046  1.00  0.00    -0.246 OA
BRANCH  25  27
ATOM     27  C   UNL     1       1.543   6.270  -4.220  1.00  0.00     0.060 A 
ATOM     28  C   UNL     1       2.439   5.404  -4.850  1.00  0.00     0.016 A 
ATOM     29  C   UNL     1       0.797   7.183  -4.965  1.00  0.00     0.016 A 
ATOM     30  C   UNL     1       2.600   5.441  -6.229  1.00  0.00     0.010 A 
ATOM     31  C   UNL     1       0.955   7.217  -6.355  1.00  0.00     0.010 A 
ATOM     32  C   UNL     1       1.862   6.352  -6.992  1.00  0.00    -0.014 A 
BRANCH  32  33
ATOM     33  C   UNL     1       2.076   6.416  -8.456  1.00  0.00     0.031 A 
ATOM     34  C   UNL     1       2.833   7.569  -9.047  1.00  0.00     0.074 A 
ATOM     35  C   UNL     1       1.615   5.425  -9.242  1.00  0.00     0.049 A 
ATOM     36  N   UNL     1       3.039   7.864 -10.304  1.00  0.00    -0.248 NA
ATOM     37  C   UNL     1       3.439   8.515  -8.098  1.00  0.00     0.031 C 
ATOM     38  C   UNL     1       0.918   4.228  -8.768  1.00  0.00     0.029 A 
ATOM     39  N   UNL     1       1.661   5.269 -10.603  1.00  0.00    -0.354 N 
ATOM     40  C   UNL     1       3.774   9.043 -10.300  1.00  0.00     0.074 A 
ATOM     41  C   UNL     1       3.974   9.413  -8.915  1.00  0.00     0.031 C 
ATOM     42  C   UNL     1       0.598   3.462  -9.823  1.00  0.00     0.029 A 
ATOM     43  C   UNL     1       1.021   4.136 -11.047  1.00  0.00     0.049 A 
ATOM     44  H   UNL     1       2.108   5.907 -11.205  1.00  0.00     0.167 HD
ATOM     45  C   UNL     1       4.235   9.749 -11.359  1.00  0.00     0.037 A 
ATOM     46  C   UNL     1       0.775   3.709 -12.300  1.00  0.00     0.037 A 
ATOM     47  C   UNL     1       4.044   9.360 -12.732  1.00  0.00     0.049 A 
ATOM     48  C   UNL     1       1.252   4.538 -13.460  1.00  0.00     0.074 A 
ATOM     49  C   UNL     1       4.473  10.005 -13.878  1.00  0.00     0.029 A 
ATOM     50  N   UNL     1       3.369   8.219 -13.143  1.00  0.00    -0.354 N 
ATOM     51  N   UNL     1       1.922   5.666 -13.445  1.00  0.00    -0.248 NA
ATOM     52  C   UNL     1       0.932   4.045 -14.807  1.00  0.00     0.031 C 
ATOM     53  C   UNL     1       4.030   9.270 -14.984  1.00  0.00     0.029 A 
ATOM     54  C   UNL     1       3.357   8.149 -14.526  1.00  0.00     0.049 A 
ATOM     55  H   UNL     1       2.960   7.557 -12.540  1.00  0.00     0.167 HD
ATOM     56  C   UNL     1       2.116   6.011 -14.777  1.00  0.00     0.074 A 
ATOM     57  C   UNL     1       1.503   4.966 -15.572  1.00  0.00     0.031 C 
ATOM     58  C   UNL     1       2.744   7.095 -15.296  1.00  0.00     0.037 A 
BRANCH  45  59
ATOM     59  C   UNL     1       4.959  11.034 -11.072  1.00  0.00     0.058 A 
ATOM     60  C   UNL     1       6.271  11.049 -10.576  1.00  0.00     0.135 A 
ATOM     61  C   UNL     1       4.334  12.268 -11.315  1.00  0.00     0.135 A 
ATOM     62  F   UNL     1       6.906   9.897 -10.309  1.00  0.00    -0.206 F 
ATOM     63  C   UNL     1       6.932  12.244 -10.309  1.00  0.00     0.059 A 
ATOM     64  C   UNL     1       4.984  13.475 -11.074  1.00  0.00     0.059 A 
ATOM     65  F   UNL     1       3.078  12.308 -11.786  1.00  0.00    -0.206 F 
ATOM     66  C   UNL     1       6.278  13.453 -10.557  1.00  0.00     0.060 A 
BRANCH  66  67
ATOM     67  S   UNL     1       7.142  14.997 -10.200  1.00  0.00     0.124 S 
ATOM     68  O   UNL     1       7.045  15.054  -8.744  1.00  0.00    -0.237 OA
ATOM     69  O   UNL     1       8.476  14.743 -10.735  1.00  0.00    -0.237 OA
ATOM     70  O   UNL     1       6.362  15.998 -10.921  1.00  0.00    -0.744 OA
ENDBRANCH  66  67
ENDBRANCH  45  59
BRANCH  46  71
ATOM     71  C   UNL     1       0.011   2.453 -12.515  1.00  0.00     0.058 A 
ATOM     72  C   UNL     1       0.638   1.297 -12.999  1.00  0.00     0.135 A 
ATOM     73  C   UNL     1      -1.360   2.380 -12.219  1.00  0.00     0.135 A 
ATOM     74  F   UNL     1       1.944   1.322 -13.306  1.00  0.00    -0.206 F 
ATOM     75  C   UNL     1      -0.066   0.112 -13.188  1.00  0.00     0.059 A 
ATOM     76  C   UNL     1      -2.080   1.201 -12.378  1.00  0.00     0.059 A 
ATOM     77  F   UNL     1      -2.004   3.458 -11.745  1.00  0.00    -0.206 F 
ATOM     78  C   UNL     1      -1.426   0.073 -12.872  1.00  0.00     0.060 A 
BRANCH  78  79
ATOM     79  S   UNL     1      -2.322  -1.483 -13.067  1.00  0.00     0.124 S 
ATOM     80  O   UNL     1      -2.524  -1.525 -14.510  1.00  0.00    -0.237 OA
ATOM     81  O   UNL     1      -1.377  -2.456 -12.526  1.00  0.00    -0.237 OA
ATOM     82  O   UNL     1      -3.525  -1.279 -12.265  1.00  0.00    -0.744 OA
ENDBRANCH  78  79
ENDBRANCH  46  71
BRANCH  58  83
ATOM     83  C   UNL     1       2.821   7.194 -16.792  1.00  0.00     0.058 A 
ATOM     84  C   UNL     1       1.715   7.590 -17.558  1.00  0.00     0.135 A 
ATOM     85  C   UNL     1       4.032   6.948 -17.458  1.00  0.00     0.135 A 
ATOM     86  F   UNL     1       0.534   7.829 -16.966  1.00  0.00    -0.206 F 
ATOM     87  C   UNL     1       1.802   7.727 -18.939  1.00  0.00     0.059 A 
ATOM     88  C   UNL     1       4.147   7.098 -18.836  1.00  0.00     0.059 A 
ATOM     89  F   UNL     1       5.121   6.574 -16.767  1.00  0.00    -0.206 F 
ATOM     90  C   UNL     1       3.024   7.480 -19.569  1.00  0.00     0.060 A 
BRANCH  90  91
ATOM     91  S   UNL     1       3.140   7.704 -21.357  1.00  0.00     0.124 S 
ATOM     92  O   UNL     1       2.496   6.490 -21.848  1.00  0.00    -0.237 OA
ATOM     93  O   UNL     1       2.400   8.944 -21.568  1.00  0.00    -0.237 OA
ATOM     94  O   UNL     1       4.578   7.793 -21.594  1.00  0.00    -0.744 OA
ENDBRANCH  90  91
ENDBRANCH  58  83
ENDBRANCH  32  33
ENDBRANCH  25  27
ENDBRANCH  24  25
ENDBRANCH  23  24
ENDBRANCH   1  23
TORSDOF 17
