REMARK SMILES C[C@]1(C(=O)OCCOC(=O)c2ccc(-c3c4nc(c(-c5c(F)cc(S(=O)(=O)[O-])cc5F)c5ccc([nH]5)c(-c5c(F)cc(S(=O)(=O)[O-])cc5F)c5nc(c(-c6c(F)cc(S(=O)(=O)[O-])cc6F)c6ccc3[nH]6)C=C5)C=C4)cc2)COC[C@@H]1NC(=O)[C@H]1C=C[C@@H]([NH3+])C1
REMARK SMILES IDX 6 1 5 2 3 3 4 4 2 5 1 6 77 7 80 8 78 9 79 10 81 11 82 12
REMARK SMILES IDX 83 14 84 15 85 16 89 17 86 18 87 19 88 20 7 24 8 25 9 26
REMARK SMILES IDX 10 27 11 28 12 29 76 30 13 31 75 32 14 33 15 34 16 35 69 36
REMARK SMILES IDX 17 37 74 38 68 39 70 40 18 41 73 42 67 43 66 44 19 46 53 47
REMARK SMILES IDX 32 48 52 49 33 50 36 51 51 52 71 53 34 54 35 55 50 57 72 58
REMARK SMILES IDX 37 59 20 60 21 61 30 62 22 63 23 64 29 65 31 66 24 67 25 68
REMARK SMILES IDX 26 69 27 70 28 71 54 72 55 73 64 74 56 75 57 76 63 77 65 78
REMARK SMILES IDX 58 79 59 80 60 81 61 82 62 83 38 84 39 85 48 86 40 87 41 88
REMARK SMILES IDX 47 89 49 90 42 91 43 92 44 93 45 94 46 95
REMARK H PARENT 81 13 88 21 88 22 88 23 70 45 36 56
REMARK Flexibility Score: inf
ROOT
ATOM      1  C   UNL     1       3.429   1.263  -0.467  1.00  0.00     0.274 C 
ENDROOT
BRANCH   1   2
ATOM      2  O   UNL     1       2.449   0.242  -0.726  1.00  0.00    -0.462 OA
BRANCH   2   3
ATOM      3  C   UNL     1       1.835  -0.360   0.335  1.00  0.00     0.316 C 
ATOM      4  O   UNL     1       2.062  -0.090   1.506  1.00  0.00    -0.251 OA
BRANCH   3   5
ATOM      5  C   UNL     1       0.933  -1.507  -0.133  1.00  0.00     0.111 C 
ATOM      6  C   UNL     1       0.477  -1.210  -1.569  1.00  0.00     0.028 C 
ATOM      7  C   UNL     1       1.823  -2.747   0.009  1.00  0.00     0.181 C 
ATOM      8  C   UNL     1      -0.224  -1.774   0.846  1.00  0.00     0.127 C 
ATOM      9  O   UNL     1       1.212  -3.684   0.905  1.00  0.00    -0.378 OA
ATOM     10  C   UNL     1       0.121  -3.062   1.583  1.00  0.00     0.186 C 
BRANCH   8  11
ATOM     11  N   UNL     1      -1.618  -1.681   0.346  1.00  0.00    -0.349 N 
ATOM     12  C   UNL     1      -2.512  -2.324  -0.433  1.00  0.00     0.227 C 
ATOM     13  H   UNL     1      -2.035  -0.867   0.710  1.00  0.00     0.163 HD
ATOM     14  O   UNL     1      -3.609  -1.742  -0.502  1.00  0.00    -0.274 OA
BRANCH  12  15
ATOM     15  C   UNL     1      -2.351  -3.623  -1.238  1.00  0.00     0.107 C 
ATOM     16  C   UNL     1      -2.513  -3.313  -2.707  1.00  0.00    -0.012 C 
ATOM     17  C   UNL     1      -1.064  -4.429  -1.220  1.00  0.00     0.087 C 
ATOM     18  C   UNL     1      -1.632  -3.967  -3.472  1.00  0.00     0.033 C 
ATOM     19  C   UNL     1      -0.750  -4.851  -2.663  1.00  0.00     0.205 C 
BRANCH  19  20
ATOM     20  N   UNL     1       0.652  -4.648  -2.994  1.00  0.00    -0.352 N 
ATOM     21  H   UNL     1       0.897  -3.668  -2.852  1.00  0.00     0.345 HD
ATOM     22  H   UNL     1       0.811  -4.900  -3.970  1.00  0.00     0.345 HD
ATOM     23  H   UNL     1       1.232  -5.234  -2.393  1.00  0.00     0.345 HD
ENDBRANCH  19  20
ENDBRANCH  12  15
ENDBRANCH   8  11
ENDBRANCH   3   5
ENDBRANCH   2   3
ENDBRANCH   1   2
BRANCH   1  24
ATOM     24  C   UNL     1       2.818   2.666  -0.452  1.00  0.00     0.275 C 
BRANCH  24  25
ATOM     25  O   UNL     1       2.077   2.897   0.758  1.00  0.00    -0.458 OA
BRANCH  25  26
ATOM     26  C   UNL     1       0.759   2.594   0.692  1.00  0.00     0.338 C 
ATOM     27  O   UNL     1       0.148   2.254  -0.312  1.00  0.00    -0.246 OA
BRANCH  26  28
ATOM     28  C   UNL     1       0.172   2.536   2.049  1.00  0.00     0.060 A 
ATOM     29  C   UNL     1      -0.859   1.612   2.253  1.00  0.00     0.016 A 
ATOM     30  C   UNL     1       0.611   3.335   3.107  1.00  0.00     0.016 A 
ATOM     31  C   UNL     1      -1.429   1.448   3.512  1.00  0.00     0.010 A 
ATOM     32  C   UNL     1       0.011   3.202   4.365  1.00  0.00     0.010 A 
ATOM     33  C   UNL     1      -1.013   2.260   4.571  1.00  0.00    -0.014 A 
BRANCH  33  34
ATOM     34  C   UNL     1      -1.773   2.228   5.841  1.00  0.00     0.031 A 
ATOM     35  C   UNL     1      -2.871   3.232   6.042  1.00  0.00     0.074 A 
ATOM     36  C   UNL     1      -1.528   1.289   6.773  1.00  0.00     0.049 A 
ATOM     37  N   UNL     1      -3.653   3.412   7.072  1.00  0.00    -0.248 NA
ATOM     38  C   UNL     1      -3.123   4.155   4.922  1.00  0.00     0.031 C 
ATOM     39  C   UNL     1      -0.532   0.224   6.660  1.00  0.00     0.029 A 
ATOM     40  N   UNL     1      -2.103   1.082   8.002  1.00  0.00    -0.354 N 
ATOM     41  C   UNL     1      -4.488   4.469   6.731  1.00  0.00     0.074 A 
ATOM     42  C   UNL     1      -4.099   4.907   5.407  1.00  0.00     0.031 C 
ATOM     43  C   UNL     1      -0.559  -0.518   7.781  1.00  0.00     0.029 A 
ATOM     44  C   UNL     1      -1.548   0.038   8.704  1.00  0.00     0.049 A 
ATOM     45  H   UNL     1      -2.844   1.630   8.349  1.00  0.00     0.167 HD
ATOM     46  C   UNL     1      -5.490   5.022   7.454  1.00  0.00     0.037 A 
ATOM     47  C   UNL     1      -1.795  -0.398   9.955  1.00  0.00     0.037 A 
ATOM     48  C   UNL     1      -5.860   4.589   8.776  1.00  0.00     0.049 A 
ATOM     49  C   UNL     1      -2.861   0.287  10.775  1.00  0.00     0.074 A 
ATOM     50  C   UNL     1      -6.850   5.092   9.601  1.00  0.00     0.029 A 
ATOM     51  N   UNL     1      -5.249   3.554   9.471  1.00  0.00    -0.354 N 
ATOM     52  N   UNL     1      -3.642   1.290  10.445  1.00  0.00    -0.248 NA
ATOM     53  C   UNL     1      -3.084  -0.221  12.135  1.00  0.00     0.031 C 
ATOM     54  C   UNL     1      -6.802   4.398  10.815  1.00  0.00     0.029 A 
ATOM     55  C   UNL     1      -5.827   3.417  10.723  1.00  0.00     0.049 A 
ATOM     56  H   UNL     1      -4.513   2.999   9.126  1.00  0.00     0.167 HD
ATOM     57  C   UNL     1      -4.473   1.505  11.541  1.00  0.00     0.074 A 
ATOM     58  C   UNL     1      -4.103   0.524  12.540  1.00  0.00     0.031 C 
ATOM     59  C   UNL     1      -5.456   2.426  11.704  1.00  0.00     0.037 A 
BRANCH  46  60
ATOM     60  C   UNL     1      -6.223   6.184   6.844  1.00  0.00     0.058 A 
ATOM     61  C   UNL     1      -7.089   6.026   5.750  1.00  0.00     0.135 A 
ATOM     62  C   UNL     1      -6.064   7.476   7.371  1.00  0.00     0.135 A 
ATOM     63  F   UNL     1      -7.260   4.817   5.191  1.00  0.00    -0.206 F 
ATOM     64  C   UNL     1      -7.749   7.112   5.182  1.00  0.00     0.059 A 
ATOM     65  C   UNL     1      -6.737   8.571   6.838  1.00  0.00     0.059 A 
ATOM     66  F   UNL     1      -5.244   7.686   8.412  1.00  0.00    -0.206 F 
ATOM     67  C   UNL     1      -7.565   8.381   5.733  1.00  0.00     0.060 A 
BRANCH  67  68
ATOM     68  S   UNL     1      -8.424   9.780   4.984  1.00  0.00     0.124 S 
ATOM     69  O   UNL     1      -7.694   9.932   3.729  1.00  0.00    -0.237 OA
ATOM     70  O   UNL     1      -9.790   9.280   4.865  1.00  0.00    -0.237 OA
ATOM     71  O   UNL     1      -8.235  10.856   5.952  1.00  0.00    -0.744 OA
ENDBRANCH  67  68
ENDBRANCH  46  60
BRANCH  47  72
ATOM     72  C   UNL     1      -1.014  -1.532  10.522  1.00  0.00     0.058 A 
ATOM     73  C   UNL     1      -1.619  -2.764  10.812  1.00  0.00     0.135 A 
ATOM     74  C   UNL     1       0.356  -1.399  10.803  1.00  0.00     0.135 A 
ATOM     75  F   UNL     1      -2.929  -2.939  10.576  1.00  0.00    -0.206 F 
ATOM     76  C   UNL     1      -0.903  -3.816  11.376  1.00  0.00     0.059 A 
ATOM     77  C   UNL     1       1.100  -2.446  11.339  1.00  0.00     0.059 A 
ATOM     78  F   UNL     1       0.988  -0.244  10.541  1.00  0.00    -0.206 F 
ATOM     79  C   UNL     1       0.459  -3.648  11.633  1.00  0.00     0.060 A 
BRANCH  79  80
ATOM     80  S   UNL     1       1.388  -5.033  12.326  1.00  0.00     0.124 S 
ATOM     81  O   UNL     1       0.877  -5.077  13.691  1.00  0.00    -0.237 OA
ATOM     82  O   UNL     1       0.986  -6.135  11.457  1.00  0.00    -0.237 OA
ATOM     83  O   UNL     1       2.778  -4.609  12.186  1.00  0.00    -0.744 OA
ENDBRANCH  79  80
ENDBRANCH  47  72
BRANCH  59  84
ATOM     84  C   UNL     1      -6.248   2.382  12.985  1.00  0.00     0.058 A 
ATOM     85  C   UNL     1      -5.695   2.758  14.219  1.00  0.00     0.135 A 
ATOM     86  C   UNL     1      -7.598   1.994  12.966  1.00  0.00     0.135 A 
ATOM     87  F   UNL     1      -4.409   3.136  14.297  1.00  0.00    -0.206 F 
ATOM     88  C   UNL     1      -6.442   2.716  15.393  1.00  0.00     0.059 A 
ATOM     89  C   UNL     1      -8.373   1.976  14.122  1.00  0.00     0.059 A 
ATOM     90  F   UNL     1      -8.184   1.638  11.811  1.00  0.00    -0.206 F 
ATOM     91  C   UNL     1      -7.780   2.323  15.334  1.00  0.00     0.060 A 
BRANCH  91  92
ATOM     92  S   UNL     1      -8.742   2.285  16.862  1.00  0.00     0.124 S 
ATOM     93  O   UNL     1      -8.194   1.107  17.526  1.00  0.00    -0.237 OA
ATOM     94  O   UNL     1      -8.409   3.569  17.472  1.00  0.00    -0.237 OA
ATOM     95  O   UNL     1     -10.119   2.159  16.395  1.00  0.00    -0.744 OA
ENDBRANCH  91  92
ENDBRANCH  59  84
ENDBRANCH  33  34
ENDBRANCH  26  28
ENDBRANCH  25  26
ENDBRANCH  24  25
ENDBRANCH   1  24
TORSDOF 17
