REMARK SMILES O=C(Cc1ccc(=O)n(C(F)F)c1)OCCOC(=O)c1ccc(-c2c3nc(c(-c4c(F)cc(S(=O)(=O)[O-])cc4F)c4ccc([nH]4)c(-c4c(F)cc(S(=O)(=O)[O-])cc4F)c4nc(c(-c5c(F)cc(S(=O)(=O)[O-])cc5F)c5ccc2[nH]5)C=C4)C=C3)cc1
REMARK SMILES IDX 16 1 15 2 14 3 2 4 1 5 3 6 4 7 5 8 13 9 6 10 9 11 7 12 8 13
REMARK SMILES IDX 10 14 11 15 12 16 17 17 18 18 19 19 20 20 21 21 85 22 22 23
REMARK SMILES IDX 84 24 23 25 24 26 25 27 78 28 26 29 83 30 77 31 79 32 27 33
REMARK SMILES IDX 82 34 76 35 75 36 28 38 62 39 41 40 61 41 42 42 45 43 60 44
REMARK SMILES IDX 80 45 43 46 44 47 59 49 81 50 46 51 29 52 30 53 39 54 31 55
REMARK SMILES IDX 32 56 38 57 40 58 33 59 34 60 35 61 36 62 37 63 63 64 64 65
REMARK SMILES IDX 73 66 65 67 66 68 72 69 74 70 67 71 68 72 69 73 70 74 71 75
REMARK SMILES IDX 47 76 48 77 57 78 49 79 50 80 56 81 58 82 51 83 52 84 53 85
REMARK SMILES IDX 54 86 55 87
REMARK H PARENT 79 37 45 48
REMARK Flexibility Score: inf
ROOT
ATOM      1  C   UNL     1       4.248   2.282   0.318  1.00  0.00     0.275 C 
ENDROOT
BRANCH   1   2
ATOM      2  C   UNL     1       4.163   1.123  -0.676  1.00  0.00     0.274 C 
BRANCH   2   3
ATOM      3  O   UNL     1       2.845   0.543  -0.738  1.00  0.00    -0.462 OA
BRANCH   3   4
ATOM      4  C   UNL     1       2.534  -0.695  -0.279  1.00  0.00     0.310 C 
ATOM      5  O   UNL     1       1.568  -1.298  -0.744  1.00  0.00    -0.252 OA
BRANCH   4   6
ATOM      6  C   UNL     1       3.332  -1.269   0.881  1.00  0.00     0.159 C 
BRANCH   6   7
ATOM      7  C   UNL     1       4.085  -2.519   0.525  1.00  0.00    -0.020 A 
ATOM      8  C   UNL     1       5.455  -2.388   0.076  1.00  0.00     0.011 A 
ATOM      9  C   UNL     1       3.579  -3.753   0.695  1.00  0.00     0.099 A 
ATOM     10  C   UNL     1       6.168  -3.460  -0.282  1.00  0.00     0.072 A 
ATOM     11  N   UNL     1       4.316  -4.884   0.380  1.00  0.00    -0.258 N 
ATOM     12  C   UNL     1       5.575  -4.820  -0.196  1.00  0.00     0.254 A 
ATOM     13  O   UNL     1       6.240  -5.762  -0.614  1.00  0.00    -0.269 OA
BRANCH  11  14
ATOM     14  C   UNL     1       3.757  -6.200   0.575  1.00  0.00     0.451 C 
ATOM     15  F   UNL     1       3.426  -6.747  -0.620  1.00  0.00    -0.185 F 
ATOM     16  F   UNL     1       4.649  -7.019   1.181  1.00  0.00    -0.185 F 
ENDBRANCH  11  14
ENDBRANCH   6   7
ENDBRANCH   4   6
ENDBRANCH   3   4
ENDBRANCH   2   3
ENDBRANCH   1   2
BRANCH   1  17
ATOM     17  O   UNL     1       3.974   1.824   1.652  1.00  0.00    -0.458 OA
BRANCH  17  18
ATOM     18  C   UNL     1       2.686   1.960   2.061  1.00  0.00     0.338 C 
ATOM     19  O   UNL     1       1.798   2.546   1.467  1.00  0.00    -0.246 OA
BRANCH  18  20
ATOM     20  C   UNL     1       2.460   1.110   3.255  1.00  0.00     0.060 A 
ATOM     21  C   UNL     1       3.473   0.852   4.184  1.00  0.00     0.016 A 
ATOM     22  C   UNL     1       1.200   0.518   3.413  1.00  0.00     0.016 A 
ATOM     23  C   UNL     1       3.218   0.014   5.273  1.00  0.00     0.010 A 
ATOM     24  C   UNL     1       0.944  -0.314   4.507  1.00  0.00     0.010 A 
ATOM     25  C   UNL     1       1.948  -0.563   5.452  1.00  0.00    -0.014 A 
BRANCH  25  26
ATOM     26  C   UNL     1       1.644  -1.294   6.708  1.00  0.00     0.031 A 
ATOM     27  C   UNL     1       1.578  -2.790   6.765  1.00  0.00     0.074 A 
ATOM     28  C   UNL     1       1.427  -0.572   7.824  1.00  0.00     0.049 A 
ATOM     29  N   UNL     1       1.460  -3.563   7.815  1.00  0.00    -0.248 NA
ATOM     30  C   UNL     1       1.648  -3.513   5.488  1.00  0.00     0.031 C 
ATOM     31  C   UNL     1       1.418   0.891   7.884  1.00  0.00     0.029 A 
ATOM     32  N   UNL     1       1.184  -0.964   9.115  1.00  0.00    -0.354 N 
ATOM     33  C   UNL     1       1.466  -4.865   7.335  1.00  0.00     0.074 A 
ATOM     34  C   UNL     1       1.550  -4.775   5.890  1.00  0.00     0.031 C 
ATOM     35  C   UNL     1       1.215   1.274   9.154  1.00  0.00     0.029 A 
ATOM     36  C   UNL     1       1.061   0.087   9.992  1.00  0.00     0.049 A 
ATOM     37  H   UNL     1       1.106  -1.906   9.387  1.00  0.00     0.167 HD
ATOM     38  C   UNL     1       1.423  -6.024   8.037  1.00  0.00     0.037 A 
ATOM     39  C   UNL     1       0.861   0.100  11.323  1.00  0.00     0.037 A 
ATOM     40  C   UNL     1       1.316  -6.105   9.473  1.00  0.00     0.049 A 
ATOM     41  C   UNL     1       0.775  -1.196  12.075  1.00  0.00     0.074 A 
ATOM     42  C   UNL     1       1.336  -7.236  10.274  1.00  0.00     0.029 A 
ATOM     43  N   UNL     1       1.140  -5.023  10.323  1.00  0.00    -0.354 N 
ATOM     44  N   UNL     1       0.894  -2.420  11.618  1.00  0.00    -0.248 NA
ATOM     45  C   UNL     1       0.531  -1.113  13.522  1.00  0.00     0.031 C 
ATOM     46  C   UNL     1       1.118  -6.842  11.598  1.00  0.00     0.029 A 
ATOM     47  C   UNL     1       1.010  -5.461  11.632  1.00  0.00     0.049 A 
ATOM     48  H   UNL     1       1.113  -4.081  10.039  1.00  0.00     0.167 HD
ATOM     49  C   UNL     1       0.754  -3.252  12.723  1.00  0.00     0.074 A 
ATOM     50  C   UNL     1       0.553  -2.393  13.872  1.00  0.00     0.031 C 
ATOM     51  C   UNL     1       0.792  -4.606  12.774  1.00  0.00     0.037 A 
BRANCH  38  52
ATOM     52  C   UNL     1       1.503  -7.313   7.268  1.00  0.00     0.058 A 
ATOM     53  C   UNL     1       2.703  -7.734   6.674  1.00  0.00     0.135 A 
ATOM     54  C   UNL     1       0.393  -8.169   7.182  1.00  0.00     0.135 A 
ATOM     55  F   UNL     1       3.792  -6.949   6.720  1.00  0.00    -0.206 F 
ATOM     56  C   UNL     1       2.795  -8.948   6.002  1.00  0.00     0.059 A 
ATOM     57  C   UNL     1       0.469  -9.399   6.534  1.00  0.00     0.059 A 
ATOM     58  F   UNL     1      -0.777  -7.817   7.736  1.00  0.00    -0.206 F 
ATOM     59  C   UNL     1       1.671  -9.773   5.936  1.00  0.00     0.060 A 
BRANCH  59  60
ATOM     60  S   UNL     1       1.806 -11.341   5.052  1.00  0.00     0.124 S 
ATOM     61  O   UNL     1       1.874 -10.883   3.668  1.00  0.00    -0.237 OA
ATOM     62  O   UNL     1       3.037 -11.902   5.598  1.00  0.00    -0.237 OA
ATOM     63  O   UNL     1       0.581 -12.045   5.419  1.00  0.00    -0.744 OA
ENDBRANCH  59  60
ENDBRANCH  38  52
BRANCH  39  64
ATOM     64  C   UNL     1       0.781   1.404  12.026  1.00  0.00     0.058 A 
ATOM     65  C   UNL     1       1.851   1.862  12.807  1.00  0.00     0.135 A 
ATOM     66  C   UNL     1      -0.330   2.248  11.868  1.00  0.00     0.135 A 
ATOM     67  F   UNL     1       2.931   1.087  12.987  1.00  0.00    -0.206 F 
ATOM     68  C   UNL     1       1.827   3.118  13.403  1.00  0.00     0.059 A 
ATOM     69  C   UNL     1      -0.367   3.515  12.437  1.00  0.00     0.059 A 
ATOM     70  F   UNL     1      -1.369   1.856  11.114  1.00  0.00    -0.206 F 
ATOM     71  C   UNL     1       0.718   3.942  13.202  1.00  0.00     0.060 A 
BRANCH  71  72
ATOM     72  S   UNL     1       0.743   5.605  13.903  1.00  0.00     0.124 S 
ATOM     73  O   UNL     1       0.594   5.327  15.327  1.00  0.00    -0.237 OA
ATOM     74  O   UNL     1       2.052   6.093  13.481  1.00  0.00    -0.237 OA
ATOM     75  O   UNL     1      -0.397   6.257  13.264  1.00  0.00    -0.744 OA
ENDBRANCH  71  72
ENDBRANCH  39  64
BRANCH  51  76
ATOM     76  C   UNL     1       0.601  -5.262  14.114  1.00  0.00     0.058 A 
ATOM     77  C   UNL     1      -0.665  -5.338  14.715  1.00  0.00     0.135 A 
ATOM     78  C   UNL     1       1.674  -5.894  14.763  1.00  0.00     0.135 A 
ATOM     79  F   UNL     1      -1.722  -4.740  14.142  1.00  0.00    -0.206 F 
ATOM     80  C   UNL     1      -0.861  -6.017  15.913  1.00  0.00     0.059 A 
ATOM     81  C   UNL     1       1.496  -6.599  15.950  1.00  0.00     0.059 A 
ATOM     82  F   UNL     1       2.905  -5.855  14.228  1.00  0.00    -0.206 F 
ATOM     83  C   UNL     1       0.225  -6.653  16.519  1.00  0.00     0.060 A 
BRANCH  83  84
ATOM     84  S   UNL     1      -0.061  -7.587  18.038  1.00  0.00     0.124 S 
ATOM     85  O   UNL     1      -0.299  -6.518  19.003  1.00  0.00    -0.237 OA
ATOM     86  O   UNL     1      -1.224  -8.397  17.691  1.00  0.00    -0.237 OA
ATOM     87  O   UNL     1       1.182  -8.331  18.220  1.00  0.00    -0.744 OA
ENDBRANCH  83  84
ENDBRANCH  51  76
ENDBRANCH  25  26
ENDBRANCH  18  20
ENDBRANCH  17  18
ENDBRANCH   1  17
TORSDOF 16
