REMARK SMILES CCn1cc(S(=O)(=O)N2CCC(CCc3ccc(C(=O)OCCOC(=O)c4ccc(-c5c6nc(c(-c7c(F)cc(S(=O)(=O)[O-])cc7F)c7ccc([nH]7)c(-c7c(F)cc(S(=O)(=O)[O-])cc7F)c7nc(c(-c8c(F)cc(S(=O)(=O)[O-])cc8F)c8ccc5[nH]8)C=C7)C=C6)cc4)cc3)CC2)cn1
REMARK SMILES IDX 21 1 19 2 20 3 18 4 15 5 16 6 94 7 17 8 93 9 14 10 13 11
REMARK SMILES IDX 12 12 9 13 10 14 96 15 11 16 95 17 6 18 7 19 8 20 5 21 3 22
REMARK SMILES IDX 4 23 98 24 97 25 2 26 1 27 22 28 23 29 24 30 25 31 26 32
REMARK SMILES IDX 27 33 28 34 92 35 29 36 91 37 30 38 31 39 32 40 85 41 33 42
REMARK SMILES IDX 90 43 84 44 86 45 34 46 89 47 83 48 82 49 35 51 69 52 48 53
REMARK SMILES IDX 68 54 49 55 52 56 67 57 87 58 50 59 51 60 66 62 88 63 53 64
REMARK SMILES IDX 36 65 37 66 46 67 38 68 39 69 45 70 47 71 40 72 41 73 42 74
REMARK SMILES IDX 43 75 44 76 70 77 71 78 80 79 72 80 73 81 79 82 81 83 74 84
REMARK SMILES IDX 75 85 76 86 77 87 78 88 54 89 55 90 64 91 56 92 57 93 63 94
REMARK SMILES IDX 65 95 58 96 59 97 60 98 61 99 62 100
REMARK H PARENT 86 50 52 61
REMARK Flexibility Score: inf
ROOT
ATOM      1  O   UNL     1       1.039   0.992  -3.898  1.00  0.00    -0.458 OA
ENDROOT
BRANCH   1   2
ATOM      2  C   UNL     1       0.217   1.972  -4.357  1.00  0.00     0.338 C 
ATOM      3  O   UNL     1      -0.435   1.944  -5.389  1.00  0.00    -0.246 OA
BRANCH   2   4
ATOM      4  C   UNL     1       0.143   3.092  -3.388  1.00  0.00     0.060 A 
ATOM      5  C   UNL     1      -0.026   5.325  -1.694  1.00  0.00    -0.048 A 
ATOM      6  C   UNL     1      -1.092   5.000  -2.542  1.00  0.00     0.004 A 
ATOM      7  C   UNL     1       1.103   4.492  -1.669  1.00  0.00     0.004 A 
ATOM      8  C   UNL     1      -1.004   3.895  -3.391  1.00  0.00     0.016 A 
ATOM      9  C   UNL     1       1.185   3.374  -2.502  1.00  0.00     0.016 A 
BRANCH   5  10
ATOM     10  C   UNL     1      -0.095   6.563  -0.832  1.00  0.00     0.036 C 
BRANCH  10  11
ATOM     11  C   UNL     1      -0.903   6.396   0.461  1.00  0.00     0.008 C 
BRANCH  11  12
ATOM     12  C   UNL     1      -0.365   5.328   1.429  1.00  0.00    -0.008 C 
ATOM     13  N   UNL     1       0.666   4.149   3.886  1.00  0.00    -0.198 NA
ATOM     14  C   UNL     1       1.573   4.476   2.759  1.00  0.00     0.103 C 
ATOM     15  C   UNL     1      -0.793   4.086   3.587  1.00  0.00     0.103 C 
ATOM     16  C   UNL     1       1.052   5.629   1.919  1.00  0.00     0.020 C 
ATOM     17  C   UNL     1      -1.258   5.213   2.669  1.00  0.00     0.020 C 
BRANCH  13  18
ATOM     18  S   UNL     1       1.237   2.847   4.857  1.00  0.00     0.246 S 
ATOM     19  O   UNL     1       0.303   2.629   5.941  1.00  0.00    -0.207 OA
ATOM     20  O   UNL     1       2.649   3.047   5.095  1.00  0.00    -0.207 OA
BRANCH  18  21
ATOM     21  C   UNL     1       1.183   1.389   3.954  1.00  0.00     0.120 A 
ATOM     22  N   UNL     1       0.912  -0.146   2.418  1.00  0.00    -0.272 N 
ATOM     23  C   UNL     1       0.698   1.175   2.684  1.00  0.00     0.130 A 
ATOM     24  N   UNL     1       1.524  -0.797   3.428  1.00  0.00    -0.180 NA
ATOM     25  C   UNL     1       1.659   0.140   4.376  1.00  0.00     0.156 A 
BRANCH  22  26
ATOM     26  C   UNL     1       0.530  -0.844   1.204  1.00  0.00     0.141 C 
ATOM     27  C   UNL     1       1.032  -0.156  -0.057  1.00  0.00     0.029 C 
ENDBRANCH  22  26
ENDBRANCH  18  21
ENDBRANCH  13  18
ENDBRANCH  11  12
ENDBRANCH  10  11
ENDBRANCH   5  10
ENDBRANCH   2   4
ENDBRANCH   1   2
BRANCH   1  28
ATOM     28  C   UNL     1       0.985  -0.243  -4.630  1.00  0.00     0.275 C 
BRANCH  28  29
ATOM     29  C   UNL     1      -0.084  -1.174  -4.077  1.00  0.00     0.275 C 
BRANCH  29  30
ATOM     30  O   UNL     1      -1.399  -0.672  -4.304  1.00  0.00    -0.458 OA
BRANCH  30  31
ATOM     31  C   UNL     1      -1.936   0.004  -3.262  1.00  0.00     0.338 C 
ATOM     32  O   UNL     1      -1.341   0.564  -2.356  1.00  0.00    -0.246 OA
BRANCH  31  33
ATOM     33  C   UNL     1      -3.377  -0.260  -3.220  1.00  0.00     0.060 A 
ATOM     34  C   UNL     1      -4.148   0.476  -2.315  1.00  0.00     0.016 A 
ATOM     35  C   UNL     1      -3.874  -1.406  -3.856  1.00  0.00     0.016 A 
ATOM     36  C   UNL     1      -5.380  -0.022  -1.944  1.00  0.00     0.010 A 
ATOM     37  C   UNL     1      -5.092  -1.911  -3.470  1.00  0.00     0.010 A 
ATOM     38  C   UNL     1      -5.806  -1.246  -2.476  1.00  0.00    -0.014 A 
BRANCH  38  39
ATOM     39  C   UNL     1      -7.120  -1.740  -2.117  1.00  0.00     0.031 A 
ATOM     40  C   UNL     1      -8.202  -0.905  -2.693  1.00  0.00     0.074 A 
ATOM     41  C   UNL     1      -7.306  -2.916  -1.485  1.00  0.00     0.049 A 
ATOM     42  N   UNL     1      -9.055  -0.177  -2.054  1.00  0.00    -0.248 NA
ATOM     43  C   UNL     1      -8.204  -0.682  -4.152  1.00  0.00     0.031 C 
ATOM     44  C   UNL     1      -6.293  -3.909  -1.121  1.00  0.00     0.029 A 
ATOM     45  N   UNL     1      -8.466  -3.531  -1.131  1.00  0.00    -0.354 N 
ATOM     46  C   UNL     1      -9.873   0.375  -3.034  1.00  0.00     0.074 A 
ATOM     47  C   UNL     1      -9.168   0.230  -4.278  1.00  0.00     0.031 C 
ATOM     48  C   UNL     1      -6.901  -5.080  -0.827  1.00  0.00     0.029 A 
ATOM     49  C   UNL     1      -8.341  -4.894  -0.877  1.00  0.00     0.049 A 
ATOM     50  H   UNL     1      -9.323  -3.052  -1.060  1.00  0.00     0.167 HD
ATOM     51  C   UNL     1     -11.186   0.619  -2.780  1.00  0.00     0.037 A 
ATOM     52  C   UNL     1      -9.355  -5.801  -0.803  1.00  0.00     0.037 A 
ATOM     53  C   UNL     1     -11.434   0.677  -1.360  1.00  0.00     0.049 A 
ATOM     54  C   UNL     1     -10.604  -5.029  -0.546  1.00  0.00     0.074 A 
ATOM     55  C   UNL     1     -10.907   1.422  -0.321  1.00  0.00     0.029 A 
ATOM     56  N   UNL     1     -12.053  -0.400  -0.772  1.00  0.00    -0.354 N 
ATOM     57  N   UNL     1     -10.834  -4.383   0.566  1.00  0.00    -0.248 NA
ATOM     58  C   UNL     1     -11.362  -4.566  -1.700  1.00  0.00     0.031 C 
ATOM     59  C   UNL     1     -10.806   0.512   0.771  1.00  0.00     0.029 A 
ATOM     60  C   UNL     1     -11.357  -0.705   0.369  1.00  0.00     0.049 A 
ATOM     61  H   UNL     1     -12.852  -0.868  -1.109  1.00  0.00     0.167 HD
ATOM     62  C   UNL     1     -11.399  -3.180   0.165  1.00  0.00     0.074 A 
ATOM     63  C   UNL     1     -11.769  -3.381  -1.236  1.00  0.00     0.031 C 
ATOM     64  C   UNL     1     -11.242  -2.042   0.905  1.00  0.00     0.037 A 
BRANCH  51  65
ATOM     65  C   UNL     1     -12.288   0.377  -3.787  1.00  0.00     0.058 A 
ATOM     66  C   UNL     1     -13.604   0.758  -3.458  1.00  0.00     0.135 A 
ATOM     67  C   UNL     1     -12.164  -0.465  -4.917  1.00  0.00     0.135 A 
ATOM     68  F   UNL     1     -13.842   1.551  -2.401  1.00  0.00    -0.206 F 
ATOM     69  C   UNL     1     -14.716   0.269  -4.143  1.00  0.00     0.059 A 
ATOM     70  C   UNL     1     -13.254  -0.917  -5.647  1.00  0.00     0.059 A 
ATOM     71  F   UNL     1     -10.995  -0.975  -5.317  1.00  0.00    -0.206 F 
ATOM     72  C   UNL     1     -14.528  -0.581  -5.228  1.00  0.00     0.060 A 
BRANCH  72  73
ATOM     73  S   UNL     1     -15.958  -1.288  -6.059  1.00  0.00     0.124 S 
ATOM     74  O   UNL     1     -16.470  -2.191  -5.035  1.00  0.00    -0.237 OA
ATOM     75  O   UNL     1     -16.763  -0.101  -6.329  1.00  0.00    -0.237 OA
ATOM     76  O   UNL     1     -15.379  -1.928  -7.237  1.00  0.00    -0.744 OA
ENDBRANCH  72  73
ENDBRANCH  51  65
BRANCH  52  77
ATOM     77  C   UNL     1      -9.365  -7.210  -1.299  1.00  0.00     0.058 A 
ATOM     78  C   UNL     1     -10.450  -8.072  -1.042  1.00  0.00     0.135 A 
ATOM     79  C   UNL     1      -8.444  -7.665  -2.265  1.00  0.00     0.135 A 
ATOM     80  F   UNL     1     -11.392  -7.724  -0.151  1.00  0.00    -0.206 F 
ATOM     81  C   UNL     1     -10.638  -9.275  -1.739  1.00  0.00     0.059 A 
ATOM     82  C   UNL     1      -8.602  -8.863  -2.961  1.00  0.00     0.059 A 
ATOM     83  F   UNL     1      -7.399  -6.913  -2.641  1.00  0.00    -0.206 F 
ATOM     84  C   UNL     1      -9.717  -9.651  -2.716  1.00  0.00     0.060 A 
BRANCH  84  85
ATOM     85  S   UNL     1     -10.042 -11.094  -3.758  1.00  0.00     0.124 S 
ATOM     86  O   UNL     1      -9.850 -12.195  -2.821  1.00  0.00    -0.237 OA
ATOM     87  O   UNL     1     -11.414 -10.859  -4.194  1.00  0.00    -0.237 OA
ATOM     88  O   UNL     1      -9.033 -10.987  -4.809  1.00  0.00    -0.744 OA
ENDBRANCH  84  85
ENDBRANCH  52  77
BRANCH  64  89
ATOM     89  C   UNL     1     -10.709  -2.159   2.309  1.00  0.00     0.058 A 
ATOM     90  C   UNL     1      -9.432  -2.644   2.648  1.00  0.00     0.135 A 
ATOM     91  C   UNL     1     -11.472  -1.594   3.342  1.00  0.00     0.135 A 
ATOM     92  F   UNL     1      -8.593  -3.097   1.706  1.00  0.00    -0.206 F 
ATOM     93  C   UNL     1      -8.958  -2.609   3.961  1.00  0.00     0.059 A 
ATOM     94  C   UNL     1     -11.007  -1.517   4.650  1.00  0.00     0.059 A 
ATOM     95  F   UNL     1     -12.673  -1.054   3.073  1.00  0.00    -0.206 F 
ATOM     96  C   UNL     1      -9.754  -2.041   4.956  1.00  0.00     0.060 A 
BRANCH  96  97
ATOM     97  S   UNL     1      -9.118  -1.933   6.642  1.00  0.00     0.124 S 
ATOM     98  O   UNL     1      -9.139  -3.328   7.067  1.00  0.00    -0.237 OA
ATOM     99  O   UNL     1      -7.794  -1.349   6.444  1.00  0.00    -0.237 OA
ATOM    100  O   UNL     1     -10.079  -1.061   7.314  1.00  0.00    -0.744 OA
ENDBRANCH  96  97
ENDBRANCH  64  89
ENDBRANCH  38  39
ENDBRANCH  31  33
ENDBRANCH  30  31
ENDBRANCH  29  30
ENDBRANCH  28  29
ENDBRANCH   1  28
TORSDOF 20
