REMARK SMILES O=C(Cc1ccc(NC(=O)C2CCCC2)cc1)OCCOC(=O)c1ccc(-c2c3nc(c(-c4c(F)cc(S(=O)(=O)[O-])cc4F)c4ccc([nH]4)c(-c4c(F)cc(S(=O)(=O)[O-])cc4F)c4nc(c(-c5c(F)cc(S(=O)(=O)[O-])cc5F)c5ccc2[nH]5)C=C4)C=C3)cc1
REMARK SMILES IDX 19 1 18 2 2 3 1 4 3 5 4 6 5 7 17 8 6 9 16 10 7 11 8 12 9 13
REMARK SMILES IDX 10 15 11 16 12 17 15 18 13 19 14 20 20 21 21 22 22 23 23 24
REMARK SMILES IDX 24 25 25 26 89 27 26 28 88 29 27 30 28 31 29 32 82 33 30 34
REMARK SMILES IDX 87 35 81 36 83 37 31 38 86 39 80 40 79 41 32 43 66 44 45 45
REMARK SMILES IDX 65 46 46 47 49 48 64 49 84 50 47 51 48 52 63 54 85 55 50 56
REMARK SMILES IDX 33 57 34 58 43 59 35 60 36 61 42 62 44 63 37 64 38 65 39 66
REMARK SMILES IDX 40 67 41 68 67 69 68 70 77 71 69 72 70 73 76 74 78 75 71 76
REMARK SMILES IDX 72 77 73 78 74 79 75 80 51 81 52 82 61 83 53 84 54 85 60 86
REMARK SMILES IDX 62 87 55 88 56 89 57 90 58 91 59 92
REMARK H PARENT 8 14 83 42 49 53
REMARK Flexibility Score: inf
ROOT
ATOM      1  C   UNL     1       4.536  -0.152  -0.737  1.00  0.00     0.274 C 
ENDROOT
BRANCH   1   2
ATOM      2  O   UNL     1       3.163  -0.567  -0.574  1.00  0.00    -0.462 OA
BRANCH   2   3
ATOM      3  C   UNL     1       2.345  -0.241   0.455  1.00  0.00     0.310 C 
ATOM      4  O   UNL     1       1.199  -0.689   0.484  1.00  0.00    -0.252 OA
BRANCH   3   5
ATOM      5  C   UNL     1       2.860   0.644   1.572  1.00  0.00     0.158 C 
BRANCH   5   6
ATOM      6  C   UNL     1       3.578  -0.088   2.670  1.00  0.00    -0.037 A 
ATOM      7  C   UNL     1       3.029  -1.242   3.231  1.00  0.00     0.006 A 
ATOM      8  C   UNL     1       4.792   0.401   3.171  1.00  0.00     0.006 A 
ATOM      9  C   UNL     1       3.761  -1.979   4.157  1.00  0.00     0.026 A 
ATOM     10  C   UNL     1       5.524  -0.343   4.097  1.00  0.00     0.026 A 
ATOM     11  C   UNL     1       5.053  -1.590   4.505  1.00  0.00     0.041 A 
BRANCH  11  12
ATOM     12  N   UNL     1       5.939  -2.424   5.200  1.00  0.00    -0.326 N 
ATOM     13  C   UNL     1       6.143  -3.776   5.063  1.00  0.00     0.227 C 
ATOM     14  H   UNL     1       6.493  -1.980   5.882  1.00  0.00     0.169 HD
ATOM     15  O   UNL     1       6.976  -4.318   5.793  1.00  0.00    -0.274 OA
BRANCH  13  16
ATOM     16  C   UNL     1       5.412  -4.556   3.973  1.00  0.00     0.079 C 
ATOM     17  C   UNL     1       5.766  -4.115   2.550  1.00  0.00     0.013 C 
ATOM     18  C   UNL     1       5.771  -6.042   3.912  1.00  0.00     0.013 C 
ATOM     19  C   UNL     1       5.179  -5.222   1.687  1.00  0.00     0.001 C 
ATOM     20  C   UNL     1       5.281  -6.490   2.533  1.00  0.00     0.001 C 
ENDBRANCH  13  16
ENDBRANCH  11  12
ENDBRANCH   5   6
ENDBRANCH   3   5
ENDBRANCH   2   3
ENDBRANCH   1   2
BRANCH   1  21
ATOM     21  C   UNL     1       4.644   1.033  -1.700  1.00  0.00     0.275 C 
BRANCH  21  22
ATOM     22  O   UNL     1       4.141   2.219  -1.061  1.00  0.00    -0.458 OA
BRANCH  22  23
ATOM     23  C   UNL     1       2.862   2.558  -1.367  1.00  0.00     0.338 C 
ATOM     24  O   UNL     1       2.176   2.078  -2.252  1.00  0.00    -0.246 OA
BRANCH  23  25
ATOM     25  C   UNL     1       2.340   3.443  -0.297  1.00  0.00     0.060 A 
ATOM     26  C   UNL     1       1.010   3.266   0.103  1.00  0.00     0.016 A 
ATOM     27  C   UNL     1       3.157   4.364   0.371  1.00  0.00     0.016 A 
ATOM     28  C   UNL     1       0.490   4.023   1.153  1.00  0.00     0.010 A 
ATOM     29  C   UNL     1       2.633   5.123   1.423  1.00  0.00     0.010 A 
ATOM     30  C   UNL     1       1.290   4.973   1.803  1.00  0.00    -0.014 A 
BRANCH  30  31
ATOM     31  C   UNL     1       0.664   5.909   2.769  1.00  0.00     0.031 A 
ATOM     32  C   UNL     1       0.202   7.251   2.272  1.00  0.00     0.074 A 
ATOM     33  C   UNL     1       0.467   5.561   4.054  1.00  0.00     0.049 A 
ATOM     34  N   UNL     1      -0.453   8.189   2.905  1.00  0.00    -0.248 NA
ATOM     35  C   UNL     1       0.521   7.578   0.872  1.00  0.00     0.031 C 
ATOM     36  C   UNL     1       0.878   4.298   4.666  1.00  0.00     0.029 A 
ATOM     37  N   UNL     1      -0.135   6.250   5.078  1.00  0.00    -0.354 N 
ATOM     38  C   UNL     1      -0.656   9.200   1.974  1.00  0.00     0.074 A 
ATOM     39  C   UNL     1      -0.001   8.789   0.752  1.00  0.00     0.031 C 
ATOM     40  C   UNL     1       0.523   4.307   5.964  1.00  0.00     0.029 A 
ATOM     41  C   UNL     1      -0.142   5.572   6.273  1.00  0.00     0.049 A 
ATOM     42  H   UNL     1      -0.526   7.147   4.966  1.00  0.00     0.167 HD
ATOM     43  C   UNL     1      -1.350  10.354   2.113  1.00  0.00     0.037 A 
ATOM     44  C   UNL     1      -0.632   5.932   7.476  1.00  0.00     0.037 A 
ATOM     45  C   UNL     1      -1.981  10.780   3.334  1.00  0.00     0.049 A 
ATOM     46  C   UNL     1      -1.359   7.247   7.621  1.00  0.00     0.074 A 
ATOM     47  C   UNL     1      -2.705  11.936   3.571  1.00  0.00     0.029 A 
ATOM     48  N   UNL     1      -1.956  10.073   4.526  1.00  0.00    -0.354 N 
ATOM     49  N   UNL     1      -1.595   8.166   6.715  1.00  0.00    -0.248 NA
ATOM     50  C   UNL     1      -1.904   7.562   8.950  1.00  0.00     0.031 C 
ATOM     51  C   UNL     1      -3.086  11.944   4.918  1.00  0.00     0.029 A 
ATOM     52  C   UNL     1      -2.637  10.774   5.507  1.00  0.00     0.049 A 
ATOM     53  H   UNL     1      -1.518   9.200   4.655  1.00  0.00     0.167 HD
ATOM     54  C   UNL     1      -2.335   9.155   7.358  1.00  0.00     0.074 A 
ATOM     55  C   UNL     1      -2.523   8.712   8.724  1.00  0.00     0.031 C 
ATOM     56  C   UNL     1      -2.815  10.323   6.864  1.00  0.00     0.037 A 
BRANCH  43  57
ATOM     57  C   UNL     1      -1.466  11.232   0.902  1.00  0.00     0.058 A 
ATOM     58  C   UNL     1      -2.297  10.880  -0.174  1.00  0.00     0.135 A 
ATOM     59  C   UNL     1      -0.765  12.445   0.822  1.00  0.00     0.135 A 
ATOM     60  F   UNL     1      -2.971   9.718  -0.155  1.00  0.00    -0.206 F 
ATOM     61  C   UNL     1      -2.414  11.690  -1.298  1.00  0.00     0.059 A 
ATOM     62  C   UNL     1      -0.884  13.282  -0.283  1.00  0.00     0.059 A 
ATOM     63  F   UNL     1       0.048  12.823   1.820  1.00  0.00    -0.206 F 
ATOM     64  C   UNL     1      -1.702  12.890  -1.343  1.00  0.00     0.060 A 
BRANCH  64  65
ATOM     65  S   UNL     1      -1.870  13.935  -2.805  1.00  0.00     0.124 S 
ATOM     66  O   UNL     1      -1.093  13.186  -3.788  1.00  0.00    -0.237 OA
ATOM     67  O   UNL     1      -3.314  13.948  -3.016  1.00  0.00    -0.237 OA
ATOM     68  O   UNL     1      -1.290  15.206  -2.382  1.00  0.00    -0.744 OA
ENDBRANCH  64  65
ENDBRANCH  43  57
BRANCH  44  69
ATOM     69  C   UNL     1      -0.463   5.037   8.652  1.00  0.00     0.058 A 
ATOM     70  C   UNL     1      -1.554   4.367   9.224  1.00  0.00     0.135 A 
ATOM     71  C   UNL     1       0.796   4.866   9.250  1.00  0.00     0.135 A 
ATOM     72  F   UNL     1      -2.779   4.509   8.696  1.00  0.00    -0.206 F 
ATOM     73  C   UNL     1      -1.411   3.582  10.364  1.00  0.00     0.059 A 
ATOM     74  C   UNL     1       0.968   4.067  10.376  1.00  0.00     0.059 A 
ATOM     75  F   UNL     1       1.874   5.477   8.734  1.00  0.00    -0.206 F 
ATOM     76  C   UNL     1      -0.145   3.441  10.935  1.00  0.00     0.060 A 
BRANCH  76  77
ATOM     77  S   UNL     1       0.039   2.402  12.401  1.00  0.00     0.124 S 
ATOM     78  O   UNL     1      -0.504   3.266  13.442  1.00  0.00    -0.237 OA
ATOM     79  O   UNL     1      -0.765   1.234  12.055  1.00  0.00    -0.237 OA
ATOM     80  O   UNL     1       1.479   2.166  12.462  1.00  0.00    -0.744 OA
ENDBRANCH  76  77
ENDBRANCH  44  69
BRANCH  56  81
ATOM     81  C   UNL     1      -3.607  11.196   7.800  1.00  0.00     0.058 A 
ATOM     82  C   UNL     1      -2.992  11.906   8.844  1.00  0.00     0.135 A 
ATOM     83  C   UNL     1      -4.994  11.342   7.638  1.00  0.00     0.135 A 
ATOM     84  F   UNL     1      -1.669  11.801   9.043  1.00  0.00    -0.206 F 
ATOM     85  C   UNL     1      -3.730  12.699   9.717  1.00  0.00     0.059 A 
ATOM     86  C   UNL     1      -5.748  12.151   8.483  1.00  0.00     0.059 A 
ATOM     87  F   UNL     1      -5.631  10.698   6.646  1.00  0.00    -0.206 F 
ATOM     88  C   UNL     1      -5.109  12.811   9.532  1.00  0.00     0.060 A 
BRANCH  88  89
ATOM     89  S   UNL     1      -6.058  13.844  10.669  1.00  0.00     0.124 S 
ATOM     90  O   UNL     1      -6.148  12.981  11.843  1.00  0.00    -0.237 OA
ATOM     91  O   UNL     1      -5.207  15.021  10.812  1.00  0.00    -0.237 OA
ATOM     92  O   UNL     1      -7.312  14.068   9.957  1.00  0.00    -0.744 OA
ENDBRANCH  88  89
ENDBRANCH  56  81
ENDBRANCH  30  31
ENDBRANCH  23  25
ENDBRANCH  22  23
ENDBRANCH  21  22
ENDBRANCH   1  21
TORSDOF 17
