REMARK SMILES C[C@H](CC[NH2+]Cc1cc(C(=O)OCCOC(=O)c2ccc(-c3c4nc(c(-c5c(F)cc(S(=O)(=O)[O-])cc5F)c5ccc([nH]5)c(-c5c(F)cc(S(=O)(=O)[O-])cc5F)c5nc(c(-c6c(F)cc(S(=O)(=O)[O-])cc6F)c6ccc3[nH]6)C=C5)C=C4)cc2)cs1)c1ccccc1
REMARK SMILES IDX 12 1 10 2 11 3 9 4 7 5 8 6 85 7 84 8 6 9 5 10 4 13 3 14 2 15
REMARK SMILES IDX 1 16 86 17 87 18 91 19 88 20 90 21 89 22 13 23 14 24 15 25
REMARK SMILES IDX 16 26 17 27 18 28 19 29 83 30 20 31 82 32 21 33 22 34 23 35
REMARK SMILES IDX 76 36 24 37 81 38 75 39 77 40 25 41 80 42 74 43 73 44 26 46
REMARK SMILES IDX 60 47 39 48 59 49 40 50 43 51 58 52 78 53 41 54 42 55 57 57
REMARK SMILES IDX 79 58 44 59 27 60 28 61 37 62 29 63 30 64 36 65 38 66 31 67
REMARK SMILES IDX 32 68 33 69 34 70 35 71 61 72 62 73 71 74 63 75 64 76 70 77
REMARK SMILES IDX 72 78 65 79 66 80 67 81 68 82 69 83 45 84 46 85 55 86 47 87
REMARK SMILES IDX 48 88 54 89 56 90 49 91 50 92 51 93 52 94 53 95
REMARK H PARENT 5 11 5 12 77 45 43 56
REMARK Flexibility Score: inf
ROOT
ATOM      1  O   UNL     1       1.074  -5.546   4.672  1.00  0.00    -0.458 OA
ENDROOT
BRANCH   1   2
ATOM      2  C   UNL     1       0.531  -4.293   4.712  1.00  0.00     0.339 C 
ATOM      3  O   UNL     1      -0.606  -4.053   5.097  1.00  0.00    -0.246 OA
BRANCH   2   4
ATOM      4  C   UNL     1       1.470  -3.237   4.329  1.00  0.00     0.071 A 
ATOM      5  C   UNL     1       3.148  -2.059   3.187  1.00  0.00     0.059 A 
ATOM      6  C   UNL     1       2.578  -3.305   3.410  1.00  0.00     0.037 A 
ATOM      7  S   UNL     1       2.655  -0.950   4.405  1.00  0.00    -0.142 S 
ATOM      8  C   UNL     1       1.328  -1.939   4.793  1.00  0.00     0.081 A 
BRANCH   5   9
ATOM      9  C   UNL     1       4.056  -1.567   2.094  1.00  0.00     0.308 C 
BRANCH   9  10
ATOM     10  N   UNL     1       3.350  -1.190   0.852  1.00  0.00    -0.342 N 
ATOM     11  H   UNL     1       4.023  -0.739   0.231  1.00  0.00     0.346 HD
ATOM     12  H   UNL     1       2.961  -2.053   0.473  1.00  0.00     0.346 HD
BRANCH  10  13
ATOM     13  C   UNL     1       2.216  -0.276   1.031  1.00  0.00     0.261 C 
BRANCH  13  14
ATOM     14  C   UNL     1       1.171  -0.311  -0.105  1.00  0.00     0.069 C 
BRANCH  14  15
ATOM     15  C   UNL     1       0.255  -1.581  -0.249  1.00  0.00     0.021 C 
ATOM     16  C   UNL     1       0.540  -2.678   0.793  1.00  0.00     0.013 C 
BRANCH  15  17
ATOM     17  C   UNL     1      -1.272  -1.375  -0.291  1.00  0.00    -0.045 A 
ATOM     18  C   UNL     1      -1.923  -0.151  -0.097  1.00  0.00     0.004 A 
ATOM     19  C   UNL     1      -2.092  -2.510  -0.489  1.00  0.00     0.004 A 
ATOM     20  C   UNL     1      -3.323  -0.080  -0.028  1.00  0.00     0.000 A 
ATOM     21  C   UNL     1      -3.483  -2.447  -0.386  1.00  0.00     0.000 A 
ATOM     22  C   UNL     1      -4.099  -1.229  -0.146  1.00  0.00     0.000 A 
ENDBRANCH  15  17
ENDBRANCH  14  15
ENDBRANCH  13  14
ENDBRANCH  10  13
ENDBRANCH   9  10
ENDBRANCH   5   9
ENDBRANCH   2   4
ENDBRANCH   1   2
BRANCH   1  23
ATOM     23  C   UNL     1       0.270  -6.588   5.266  1.00  0.00     0.275 C 
BRANCH  23  24
ATOM     24  C   UNL     1       0.718  -6.900   6.698  1.00  0.00     0.275 C 
BRANCH  24  25
ATOM     25  O   UNL     1       0.376  -5.830   7.600  1.00  0.00    -0.458 OA
BRANCH  25  26
ATOM     26  C   UNL     1       1.399  -5.008   7.930  1.00  0.00     0.338 C 
ATOM     27  O   UNL     1       2.557  -5.090   7.556  1.00  0.00    -0.246 OA
BRANCH  26  28
ATOM     28  C   UNL     1       0.906  -3.883   8.738  1.00  0.00     0.060 A 
ATOM     29  C   UNL     1       0.456  -2.758   8.059  1.00  0.00     0.016 A 
ATOM     30  C   UNL     1       1.043  -3.849  10.121  1.00  0.00     0.016 A 
ATOM     31  C   UNL     1       0.250  -1.558   8.724  1.00  0.00     0.010 A 
ATOM     32  C   UNL     1       0.726  -2.668  10.811  1.00  0.00     0.010 A 
ATOM     33  C   UNL     1       0.363  -1.497  10.116  1.00  0.00    -0.014 A 
BRANCH  33  34
ATOM     34  C   UNL     1       0.128  -0.205  10.823  1.00  0.00     0.031 A 
ATOM     35  C   UNL     1       1.214   0.406  11.671  1.00  0.00     0.074 A 
ATOM     36  C   UNL     1      -1.052   0.435  10.689  1.00  0.00     0.049 A 
ATOM     37  N   UNL     1       1.156   1.438  12.474  1.00  0.00    -0.248 NA
ATOM     38  C   UNL     1       2.536  -0.237  11.619  1.00  0.00     0.031 C 
ATOM     39  C   UNL     1      -2.173  -0.018   9.859  1.00  0.00     0.029 A 
ATOM     40  N   UNL     1      -1.510   1.605  11.245  1.00  0.00    -0.354 N 
ATOM     41  C   UNL     1       2.413   1.537  13.060  1.00  0.00     0.074 A 
ATOM     42  C   UNL     1       3.209   0.449  12.531  1.00  0.00     0.031 C 
ATOM     43  C   UNL     1      -3.171   0.873   9.938  1.00  0.00     0.029 A 
ATOM     44  C   UNL     1      -2.805   1.911  10.894  1.00  0.00     0.049 A 
ATOM     45  H   UNL     1      -0.964   2.169  11.838  1.00  0.00     0.167 HD
ATOM     46  C   UNL     1       2.861   2.451  13.956  1.00  0.00     0.037 A 
ATOM     47  C   UNL     1      -3.628   2.887  11.325  1.00  0.00     0.037 A 
ATOM     48  C   UNL     1       2.069   3.553  14.445  1.00  0.00     0.049 A 
ATOM     49  C   UNL     1      -3.129   3.860  12.355  1.00  0.00     0.074 A 
ATOM     50  C   UNL     1       2.436   4.547  15.334  1.00  0.00     0.029 A 
ATOM     51  N   UNL     1       0.753   3.808  14.085  1.00  0.00    -0.354 N 
ATOM     52  N   UNL     1      -1.947   3.924  12.922  1.00  0.00    -0.248 NA
ATOM     53  C   UNL     1      -4.074   4.885  12.813  1.00  0.00     0.031 C 
ATOM     54  C   UNL     1       1.326   5.369  15.556  1.00  0.00     0.029 A 
ATOM     55  C   UNL     1       0.285   4.927  14.755  1.00  0.00     0.049 A 
ATOM     56  H   UNL     1       0.228   3.272  13.447  1.00  0.00     0.167 HD
ATOM     57  C   UNL     1      -2.000   5.009  13.789  1.00  0.00     0.074 A 
ATOM     58  C   UNL     1      -3.326   5.580  13.659  1.00  0.00     0.031 C 
ATOM     59  C   UNL     1      -1.038   5.487  14.616  1.00  0.00     0.037 A 
BRANCH  46  60
ATOM     60  C   UNL     1       4.255   2.273  14.502  1.00  0.00     0.058 A 
ATOM     61  C   UNL     1       5.401   2.466  13.715  1.00  0.00     0.135 A 
ATOM     62  C   UNL     1       4.443   1.918  15.849  1.00  0.00     0.135 A 
ATOM     63  F   UNL     1       5.284   2.794  12.418  1.00  0.00    -0.206 F 
ATOM     64  C   UNL     1       6.680   2.274  14.231  1.00  0.00     0.059 A 
ATOM     65  C   UNL     1       5.713   1.752  16.394  1.00  0.00     0.059 A 
ATOM     66  F   UNL     1       3.385   1.723  16.651  1.00  0.00    -0.206 F 
ATOM     67  C   UNL     1       6.826   1.913  15.572  1.00  0.00     0.060 A 
BRANCH  67  68
ATOM     68  S   UNL     1       8.490   1.651  16.221  1.00  0.00     0.124 S 
ATOM     69  O   UNL     1       8.858   0.392  15.580  1.00  0.00    -0.237 OA
ATOM     70  O   UNL     1       9.201   2.834  15.748  1.00  0.00    -0.237 OA
ATOM     71  O   UNL     1       8.286   1.581  17.665  1.00  0.00    -0.744 OA
ENDBRANCH  67  68
ENDBRANCH  46  60
BRANCH  47  72
ATOM     72  C   UNL     1      -5.021   2.958  10.805  1.00  0.00     0.058 A 
ATOM     73  C   UNL     1      -5.433   4.009   9.973  1.00  0.00     0.135 A 
ATOM     74  C   UNL     1      -5.959   1.955  11.100  1.00  0.00     0.135 A 
ATOM     75  F   UNL     1      -4.580   5.000   9.671  1.00  0.00    -0.206 F 
ATOM     76  C   UNL     1      -6.723   4.065   9.453  1.00  0.00     0.059 A 
ATOM     77  C   UNL     1      -7.244   1.971  10.567  1.00  0.00     0.059 A 
ATOM     78  F   UNL     1      -5.614   0.920  11.883  1.00  0.00    -0.206 F 
ATOM     79  C   UNL     1      -7.618   3.035   9.748  1.00  0.00     0.060 A 
BRANCH  79  80
ATOM     80  S   UNL     1      -9.266   3.081   9.011  1.00  0.00     0.124 S 
ATOM     81  O   UNL     1      -9.890   4.170   9.753  1.00  0.00    -0.237 OA
ATOM     82  O   UNL     1      -8.966   3.353   7.609  1.00  0.00    -0.237 OA
ATOM     83  O   UNL     1      -9.794   1.748   9.283  1.00  0.00    -0.744 OA
ENDBRANCH  79  80
ENDBRANCH  47  72
BRANCH  59  84
ATOM     84  C   UNL     1      -1.368   6.715  15.421  1.00  0.00     0.058 A 
ATOM     85  C   UNL     1      -2.260   6.675  16.503  1.00  0.00     0.135 A 
ATOM     86  C   UNL     1      -0.745   7.940  15.131  1.00  0.00     0.135 A 
ATOM     87  F   UNL     1      -2.890   5.532  16.818  1.00  0.00    -0.206 F 
ATOM     88  C   UNL     1      -2.542   7.811  17.255  1.00  0.00     0.059 A 
ATOM     89  C   UNL     1      -0.988   9.081  15.888  1.00  0.00     0.059 A 
ATOM     90  F   UNL     1       0.124   8.033  14.111  1.00  0.00    -0.206 F 
ATOM     91  C   UNL     1      -1.898   9.010  16.941  1.00  0.00     0.060 A 
BRANCH  91  92
ATOM     92  S   UNL     1      -2.248  10.469  17.945  1.00  0.00     0.124 S 
ATOM     93  O   UNL     1      -3.599  10.807  17.512  1.00  0.00    -0.237 OA
ATOM     94  O   UNL     1      -2.129   9.947  19.304  1.00  0.00    -0.237 OA
ATOM     95  O   UNL     1      -1.207  11.412  17.549  1.00  0.00    -0.744 OA
ENDBRANCH  91  92
ENDBRANCH  59  84
ENDBRANCH  33  34
ENDBRANCH  26  28
ENDBRANCH  25  26
ENDBRANCH  24  25
ENDBRANCH  23  24
ENDBRANCH   1  23
TORSDOF 20
