REMARK SMILES C[C@@]1(C(=O)OCCOC(=O)c2ccc(-c3c4nc(c(-c5c(F)cc(S(=O)(=O)[O-])cc5F)c5ccc([nH]5)c(-c5c(F)cc(S(=O)(=O)[O-])cc5F)c5nc(c(-c6c(F)cc(S(=O)(=O)[O-])cc6F)c6ccc3[nH]6)C=C5)C=C4)cc2)[C@@H]2C=C[C@@]3(CN(c4ccccc4)C(=O)[C@H]13)O2
REMARK SMILES IDX 7 1 6 2 5 3 3 4 4 5 2 6 1 7 77 8 91 9 78 10 92 11 80 12
REMARK SMILES IDX 89 13 79 14 81 15 82 16 90 17 83 18 84 19 88 20 85 21 87 22
REMARK SMILES IDX 86 23 8 24 9 25 10 26 11 27 12 28 76 29 13 30 75 31 14 32
REMARK SMILES IDX 15 33 16 34 69 35 17 36 74 37 68 38 70 39 18 40 73 41 67 42
REMARK SMILES IDX 66 43 19 45 53 46 32 47 52 48 33 49 36 50 51 51 71 52 34 53
REMARK SMILES IDX 35 54 50 56 72 57 37 58 20 59 21 60 30 61 22 62 23 63 29 64
REMARK SMILES IDX 31 65 24 66 25 67 26 68 27 69 28 70 54 71 55 72 64 73 56 74
REMARK SMILES IDX 57 75 63 76 65 77 58 78 59 79 60 80 61 81 62 82 38 83 39 84
REMARK SMILES IDX 48 85 40 86 41 87 47 88 49 89 42 90 43 91 44 92 45 93 46 94
REMARK H PARENT 70 44 36 55
REMARK Flexibility Score: inf
ROOT
ATOM      1  C   UNL     1       3.381   1.749  -3.941  1.00  0.00     0.275 C 
ENDROOT
BRANCH   1   2
ATOM      2  C   UNL     1       2.743   0.427  -4.359  1.00  0.00     0.274 C 
BRANCH   2   3
ATOM      3  O   UNL     1       1.465   0.274  -3.708  1.00  0.00    -0.462 OA
BRANCH   3   4
ATOM      4  C   UNL     1       1.409  -0.537  -2.630  1.00  0.00     0.315 C 
ATOM      5  O   UNL     1       2.319  -1.280  -2.278  1.00  0.00    -0.251 OA
BRANCH   4   6
ATOM      6  C   UNL     1       0.081  -0.472  -1.899  1.00  0.00     0.110 C 
ATOM      7  C   UNL     1       0.344  -0.415  -0.378  1.00  0.00     0.028 C 
ATOM      8  C   UNL     1      -0.762  -1.747  -2.191  1.00  0.00     0.160 C 
ATOM      9  C   UNL     1      -0.941   0.623  -2.253  1.00  0.00     0.137 C 
ATOM     10  C   UNL     1      -0.931  -1.941  -3.668  1.00  0.00     0.004 C 
ATOM     11  O   UNL     1      -2.127  -1.261  -1.865  1.00  0.00    -0.360 OA
ATOM     12  C   UNL     1      -2.111  -0.195  -2.816  1.00  0.00     0.118 C 
ATOM     13  C   UNL     1      -0.983   1.774  -3.230  1.00  0.00     0.234 C 
ATOM     14  C   UNL     1      -1.747  -0.961  -4.067  1.00  0.00     0.009 C 
ATOM     15  C   UNL     1      -3.173   0.871  -2.937  1.00  0.00     0.166 C 
ATOM     16  N   UNL     1      -2.375   1.972  -3.478  1.00  0.00    -0.309 N 
ATOM     17  O   UNL     1      -0.046   2.466  -3.577  1.00  0.00    -0.274 OA
BRANCH  16  18
ATOM     18  C   UNL     1      -2.946   3.073  -4.146  1.00  0.00     0.044 A 
ATOM     19  C   UNL     1      -4.241   3.498  -3.820  1.00  0.00     0.026 A 
ATOM     20  C   UNL     1      -2.240   3.768  -5.132  1.00  0.00     0.026 A 
ATOM     21  C   UNL     1      -4.804   4.612  -4.448  1.00  0.00     0.002 A 
ATOM     22  C   UNL     1      -2.819   4.856  -5.790  1.00  0.00     0.002 A 
ATOM     23  C   UNL     1      -4.097   5.285  -5.440  1.00  0.00     0.000 A 
ENDBRANCH  16  18
ENDBRANCH   4   6
ENDBRANCH   3   4
ENDBRANCH   2   3
ENDBRANCH   1   2
BRANCH   1  24
ATOM     24  O   UNL     1       3.742   1.665  -2.551  1.00  0.00    -0.458 OA
BRANCH  24  25
ATOM     25  C   UNL     1       3.374   2.718  -1.787  1.00  0.00     0.338 C 
ATOM     26  O   UNL     1       2.837   3.749  -2.147  1.00  0.00    -0.246 OA
BRANCH  25  27
ATOM     27  C   UNL     1       3.755   2.466  -0.386  1.00  0.00     0.060 A 
ATOM     28  C   UNL     1       3.359   1.296   0.258  1.00  0.00     0.016 A 
ATOM     29  C   UNL     1       4.412   3.470   0.323  1.00  0.00     0.016 A 
ATOM     30  C   UNL     1       3.509   1.180   1.639  1.00  0.00     0.010 A 
ATOM     31  C   UNL     1       4.665   3.301   1.686  1.00  0.00     0.010 A 
ATOM     32  C   UNL     1       4.176   2.175   2.370  1.00  0.00    -0.014 A 
BRANCH  32  33
ATOM     33  C   UNL     1       4.344   2.062   3.846  1.00  0.00     0.031 A 
ATOM     34  C   UNL     1       3.811   3.142   4.755  1.00  0.00     0.074 A 
ATOM     35  C   UNL     1       4.981   0.999   4.377  1.00  0.00     0.049 A 
ATOM     36  N   UNL     1       4.033   3.333   6.031  1.00  0.00    -0.248 NA
ATOM     37  C   UNL     1       2.926   4.148   4.146  1.00  0.00     0.031 C 
ATOM     38  C   UNL     1       5.520  -0.132   3.620  1.00  0.00     0.029 A 
ATOM     39  N   UNL     1       5.280   0.694   5.682  1.00  0.00    -0.354 N 
ATOM     40  C   UNL     1       3.375   4.513   6.360  1.00  0.00     0.074 A 
ATOM     41  C   UNL     1       2.734   4.989   5.153  1.00  0.00     0.031 C 
ATOM     42  C   UNL     1       6.042  -1.027   4.473  1.00  0.00     0.029 A 
ATOM     43  C   UNL     1       5.957  -0.494   5.827  1.00  0.00     0.049 A 
ATOM     44  H   UNL     1       5.034   1.270   6.441  1.00  0.00     0.167 HD
ATOM     45  C   UNL     1       3.320   5.144   7.558  1.00  0.00     0.037 A 
ATOM     46  C   UNL     1       6.489  -1.075   6.920  1.00  0.00     0.037 A 
ATOM     47  C   UNL     1       3.910   4.632   8.769  1.00  0.00     0.049 A 
ATOM     48  C   UNL     1       6.401  -0.368   8.240  1.00  0.00     0.074 A 
ATOM     49  C   UNL     1       3.910   5.194  10.034  1.00  0.00     0.029 A 
ATOM     50  N   UNL     1       4.585   3.425   8.868  1.00  0.00    -0.354 N 
ATOM     51  N   UNL     1       5.845   0.787   8.517  1.00  0.00    -0.248 NA
ATOM     52  C   UNL     1       7.033  -1.028   9.390  1.00  0.00     0.031 C 
ATOM     53  C   UNL     1       4.601   4.332  10.896  1.00  0.00     0.029 A 
ATOM     54  C   UNL     1       5.005   3.222  10.172  1.00  0.00     0.049 A 
ATOM     55  H   UNL     1       4.742   2.803   8.121  1.00  0.00     0.167 HD
ATOM     56  C   UNL     1       6.068   0.998   9.872  1.00  0.00     0.074 A 
ATOM     57  C   UNL     1       6.785  -0.162  10.364  1.00  0.00     0.031 C 
ATOM     58  C   UNL     1       5.721   2.062  10.637  1.00  0.00     0.037 A 
BRANCH  45  59
ATOM     59  C   UNL     1       2.627   6.478   7.613  1.00  0.00     0.058 A 
ATOM     60  C   UNL     1       1.229   6.593   7.591  1.00  0.00     0.135 A 
ATOM     61  C   UNL     1       3.380   7.660   7.718  1.00  0.00     0.135 A 
ATOM     62  F   UNL     1       0.463   5.497   7.475  1.00  0.00    -0.206 F 
ATOM     63  C   UNL     1       0.601   7.835   7.648  1.00  0.00     0.059 A 
ATOM     64  C   UNL     1       2.773   8.910   7.796  1.00  0.00     0.059 A 
ATOM     65  F   UNL     1       4.721   7.606   7.743  1.00  0.00    -0.206 F 
ATOM     66  C   UNL     1       1.382   8.988   7.745  1.00  0.00     0.060 A 
BRANCH  66  67
ATOM     67  S   UNL     1       0.560  10.595   7.818  1.00  0.00     0.124 S 
ATOM     68  O   UNL     1       0.213  10.807   6.416  1.00  0.00    -0.237 OA
ATOM     69  O   UNL     1      -0.562  10.336   8.715  1.00  0.00    -0.237 OA
ATOM     70  O   UNL     1       1.592  11.479   8.351  1.00  0.00    -0.744 OA
ENDBRANCH  66  67
ENDBRANCH  45  59
BRANCH  46  71
ATOM     71  C   UNL     1       7.186  -2.380   6.789  1.00  0.00     0.058 A 
ATOM     72  C   UNL     1       6.602  -3.560   7.270  1.00  0.00     0.135 A 
ATOM     73  C   UNL     1       8.422  -2.480   6.131  1.00  0.00     0.135 A 
ATOM     74  F   UNL     1       5.426  -3.511   7.914  1.00  0.00    -0.206 F 
ATOM     75  C   UNL     1       7.214  -4.797   7.098  1.00  0.00     0.059 A 
ATOM     76  C   UNL     1       9.043  -3.708   5.927  1.00  0.00     0.059 A 
ATOM     77  F   UNL     1       9.015  -1.380   5.641  1.00  0.00    -0.206 F 
ATOM     78  C   UNL     1       8.432  -4.861   6.418  1.00  0.00     0.060 A 
BRANCH  78  79
ATOM     79  S   UNL     1       9.182  -6.476   6.114  1.00  0.00     0.124 S 
ATOM     80  O   UNL     1       9.839  -6.739   7.389  1.00  0.00    -0.237 OA
ATOM     81  O   UNL     1       8.021  -7.309   5.811  1.00  0.00    -0.237 OA
ATOM     82  O   UNL     1      10.069  -6.222   4.984  1.00  0.00    -0.744 OA
ENDBRANCH  78  79
ENDBRANCH  46  71
BRANCH  58  83
ATOM     83  C   UNL     1       6.108   2.010  12.085  1.00  0.00     0.058 A 
ATOM     84  C   UNL     1       7.422   2.276  12.497  1.00  0.00     0.135 A 
ATOM     85  C   UNL     1       5.152   1.717  13.069  1.00  0.00     0.135 A 
ATOM     86  F   UNL     1       8.372   2.553  11.590  1.00  0.00    -0.206 F 
ATOM     87  C   UNL     1       7.782   2.234  13.840  1.00  0.00     0.059 A 
ATOM     88  C   UNL     1       5.486   1.686  14.419  1.00  0.00     0.059 A 
ATOM     89  F   UNL     1       3.881   1.461  12.722  1.00  0.00    -0.206 F 
ATOM     90  C   UNL     1       6.807   1.934  14.793  1.00  0.00     0.060 A 
BRANCH  90  91
ATOM     91  S   UNL     1       7.276   1.899  16.536  1.00  0.00     0.124 S 
ATOM     92  O   UNL     1       7.910   0.590  16.643  1.00  0.00    -0.237 OA
ATOM     93  O   UNL     1       8.171   3.048  16.647  1.00  0.00    -0.237 OA
ATOM     94  O   UNL     1       6.000   2.039  17.231  1.00  0.00    -0.744 OA
ENDBRANCH  90  91
ENDBRANCH  58  83
ENDBRANCH  32  33
ENDBRANCH  25  27
ENDBRANCH  24  25
ENDBRANCH   1  24
TORSDOF 15
