REMARK SMILES CC(C)C[C@H](NC(=O)[C@H](Cc1ccccc1)NC(=O)CNC(=O)C[NH3+])C(=O)OCCOC(=O)c1ccc(-c2c3nc(c(-c4c(F)cc(S(=O)(=O)[O-])cc4F)c4ccc([nH]4)c(-c4c(F)cc(S(=O)(=O)[O-])cc4F)c4nc(c(-c5c(F)cc(S(=O)(=O)[O-])cc5F)c5ccc2[nH]5)C=C4)C=C3)cc1
REMARK SMILES IDX 26 1 27 2 5 3 4 4 2 5 1 6 3 7 6 8 7 9 8 11 9 12 17 13 18 14
REMARK SMILES IDX 19 16 20 17 21 18 22 19 23 21 24 22 25 23 10 27 11 28 12 29
REMARK SMILES IDX 16 30 13 31 15 32 14 33 28 34 29 35 30 36 31 37 32 38 33 39
REMARK SMILES IDX 34 40 35 41 99 42 36 43 98 44 37 45 38 46 39 47 92 48 40 49
REMARK SMILES IDX 97 50 91 51 93 52 41 53 96 54 90 55 89 56 42 58 76 59 55 60
REMARK SMILES IDX 75 61 56 62 59 63 74 64 94 65 57 66 58 67 73 69 95 70 60 71
REMARK SMILES IDX 43 72 44 73 53 74 45 75 46 76 52 77 54 78 47 79 48 80 49 81
REMARK SMILES IDX 50 82 51 83 77 84 78 85 87 86 79 87 80 88 86 89 88 90 81 91
REMARK SMILES IDX 82 92 83 93 84 94 85 95 61 96 62 97 71 98 63 99 64 100
REMARK SMILES IDX 70 101 72 102 65 103 66 104 67 105 68 106 69 107
REMARK H PARENT 6 10 17 15 21 20 25 24 25 25 25 26 93 57 59 68
REMARK Flexibility Score: inf
ROOT
ATOM      1  C   UNL     1       1.392   6.114  -0.070  1.00  0.00     0.328 C 
ATOM      2  O   UNL     1       1.487   6.653   1.026  1.00  0.00    -0.250 OA
ENDROOT
BRANCH   1   3
ATOM      3  C   UNL     1       1.353   4.593  -0.250  1.00  0.00     0.192 C 
BRANCH   3   4
ATOM      4  C   UNL     1       2.772   4.041  -0.363  1.00  0.00     0.040 C 
BRANCH   4   5
ATOM      5  C   UNL     1       4.046   4.782   0.095  1.00  0.00    -0.015 C 
ATOM      6  C   UNL     1       4.053   5.256   1.545  1.00  0.00     0.007 C 
ATOM      7  C   UNL     1       5.231   3.817  -0.100  1.00  0.00     0.007 C 
ENDBRANCH   4   5
ENDBRANCH   3   4
BRANCH   3   8
ATOM      8  N   UNL     1       0.447   4.234  -1.383  1.00  0.00    -0.341 N 
ATOM      9  C   UNL     1      -0.118   3.064  -1.816  1.00  0.00     0.243 C 
ATOM     10  H   UNL     1       0.202   5.008  -1.940  1.00  0.00     0.164 HD
ATOM     11  O   UNL     1      -1.265   3.176  -2.272  1.00  0.00    -0.273 OA
BRANCH   9  12
ATOM     12  C   UNL     1       0.665   1.741  -2.075  1.00  0.00     0.175 C 
BRANCH  12  13
ATOM     13  N   UNL     1       1.886   1.480  -1.325  1.00  0.00    -0.342 N 
ATOM     14  C   UNL     1       3.157   1.343  -1.816  1.00  0.00     0.240 C 
ATOM     15  H   UNL     1       1.786   1.391  -0.350  1.00  0.00     0.164 HD
ATOM     16  O   UNL     1       4.008   0.767  -1.137  1.00  0.00    -0.273 OA
BRANCH  14  17
ATOM     17  C   UNL     1       3.487   1.885  -3.206  1.00  0.00     0.216 C 
BRANCH  17  18
ATOM     18  N   UNL     1       3.154   0.920  -4.234  1.00  0.00    -0.342 N 
ATOM     19  C   UNL     1       2.628   1.177  -5.467  1.00  0.00     0.275 C 
ATOM     20  H   UNL     1       3.326  -0.026  -4.019  1.00  0.00     0.164 HD
ATOM     21  O   UNL     1       2.339   0.233  -6.203  1.00  0.00    -0.268 OA
BRANCH  19  22
ATOM     22  C   UNL     1       2.418   2.631  -5.908  1.00  0.00     0.360 C 
BRANCH  22  23
ATOM     23  N   UNL     1       1.261   3.226  -5.229  1.00  0.00    -0.350 N 
ATOM     24  H   UNL     1       0.420   2.699  -5.466  1.00  0.00     0.344 HD
ATOM     25  H   UNL     1       1.152   4.195  -5.530  1.00  0.00     0.344 HD
ATOM     26  H   UNL     1       1.407   3.198  -4.220  1.00  0.00     0.344 HD
ENDBRANCH  22  23
ENDBRANCH  19  22
ENDBRANCH  17  18
ENDBRANCH  14  17
ENDBRANCH  12  13
BRANCH  12  27
ATOM     27  C   UNL     1      -0.260   0.470  -2.162  1.00  0.00     0.070 C 
BRANCH  27  28
ATOM     28  C   UNL     1       0.067  -0.646  -1.183  1.00  0.00    -0.045 A 
ATOM     29  C   UNL     1      -0.786  -0.939  -0.115  1.00  0.00     0.004 A 
ATOM     30  C   UNL     1       1.289  -1.334  -1.275  1.00  0.00     0.004 A 
ATOM     31  C   UNL     1      -0.369  -1.806   0.898  1.00  0.00     0.000 A 
ATOM     32  C   UNL     1       1.731  -2.147  -0.233  1.00  0.00     0.000 A 
ATOM     33  C   UNL     1       0.905  -2.371   0.863  1.00  0.00     0.000 A 
ENDBRANCH  27  28
ENDBRANCH  12  27
ENDBRANCH   9  12
ENDBRANCH   3   8
ENDBRANCH   1   3
BRANCH   1  34
ATOM     34  O   UNL     1       1.420   6.787  -1.256  1.00  0.00    -0.461 OA
BRANCH  34  35
ATOM     35  C   UNL     1       1.626   8.208  -1.143  1.00  0.00     0.274 C 
BRANCH  35  36
ATOM     36  C   UNL     1       0.323   9.011  -1.028  1.00  0.00     0.275 C 
BRANCH  36  37
ATOM     37  O   UNL     1      -0.408   8.737   0.182  1.00  0.00    -0.458 OA
BRANCH  37  38
ATOM     38  C   UNL     1      -1.226   7.656   0.112  1.00  0.00     0.338 C 
ATOM     39  O   UNL     1      -1.421   6.966  -0.877  1.00  0.00    -0.246 OA
BRANCH  38  40
ATOM     40  C   UNL     1      -1.705   7.271   1.456  1.00  0.00     0.060 A 
ATOM     41  C   UNL     1      -1.687   5.905   1.767  1.00  0.00     0.016 A 
ATOM     42  C   UNL     1      -2.199   8.195   2.380  1.00  0.00     0.016 A 
ATOM     43  C   UNL     1      -2.169   5.455   2.991  1.00  0.00     0.010 A 
ATOM     44  C   UNL     1      -2.701   7.739   3.607  1.00  0.00     0.010 A 
ATOM     45  C   UNL     1      -2.704   6.365   3.910  1.00  0.00    -0.014 A 
BRANCH  45  46
ATOM     46  C   UNL     1      -3.370   5.840   5.128  1.00  0.00     0.031 A 
ATOM     47  C   UNL     1      -4.872   5.776   5.172  1.00  0.00     0.074 A 
ATOM     48  C   UNL     1      -2.639   5.351   6.147  1.00  0.00     0.049 A 
ATOM     49  N   UNL     1      -5.656   5.372   6.137  1.00  0.00    -0.248 NA
ATOM     50  C   UNL     1      -5.584   6.221   3.963  1.00  0.00     0.031 C 
ATOM     51  C   UNL     1      -1.177   5.308   6.194  1.00  0.00     0.029 A 
ATOM     52  N   UNL     1      -3.029   4.788   7.337  1.00  0.00    -0.354 N 
ATOM     53  C   UNL     1      -6.953   5.516   5.656  1.00  0.00     0.074 A 
ATOM     54  C   UNL     1      -6.851   6.074   4.325  1.00  0.00     0.031 C 
ATOM     55  C   UNL     1      -0.793   4.753   7.356  1.00  0.00     0.029 A 
ATOM     56  C   UNL     1      -1.978   4.434   8.149  1.00  0.00     0.049 A 
ATOM     57  H   UNL     1      -3.972   4.651   7.585  1.00  0.00     0.167 HD
ATOM     58  C   UNL     1      -8.121   5.201   6.266  1.00  0.00     0.037 A 
ATOM     59  C   UNL     1      -1.974   3.933   9.400  1.00  0.00     0.037 A 
ATOM     60  C   UNL     1      -8.215   4.645   7.591  1.00  0.00     0.049 A 
ATOM     61  C   UNL     1      -3.288   3.650  10.082  1.00  0.00     0.074 A 
ATOM     62  C   UNL     1      -9.352   4.318   8.309  1.00  0.00     0.029 A 
ATOM     63  N   UNL     1      -7.130   4.327   8.395  1.00  0.00    -0.354 N 
ATOM     64  N   UNL     1      -4.508   3.815   9.625  1.00  0.00    -0.248 NA
ATOM     65  C   UNL     1      -3.227   3.110  11.447  1.00  0.00     0.031 C 
ATOM     66  C   UNL     1      -8.955   3.834   9.561  1.00  0.00     0.029 A 
ATOM     67  C   UNL     1      -7.570   3.816   9.605  1.00  0.00     0.049 A 
ATOM     68  H   UNL     1      -6.186   4.448   8.143  1.00  0.00     0.167 HD
ATOM     69  C   UNL     1      -5.356   3.381  10.639  1.00  0.00     0.074 A 
ATOM     70  C   UNL     1      -4.511   2.928  11.724  1.00  0.00     0.031 C 
ATOM     71  C   UNL     1      -6.712   3.363  10.671  1.00  0.00     0.037 A 
BRANCH  58  72
ATOM     72  C   UNL     1      -9.392   5.471   5.509  1.00  0.00     0.058 A 
ATOM     73  C   UNL     1      -9.778   4.684   4.412  1.00  0.00     0.135 A 
ATOM     74  C   UNL     1     -10.247   6.514   5.901  1.00  0.00     0.135 A 
ATOM     75  F   UNL     1      -8.987   3.688   3.983  1.00  0.00    -0.206 F 
ATOM     76  C   UNL     1     -10.957   4.936   3.716  1.00  0.00     0.059 A 
ATOM     77  C   UNL     1     -11.443   6.767   5.235  1.00  0.00     0.059 A 
ATOM     78  F   UNL     1      -9.924   7.299   6.940  1.00  0.00    -0.206 F 
ATOM     79  C   UNL     1     -11.782   5.981   4.135  1.00  0.00     0.060 A 
BRANCH  79  80
ATOM     80  S   UNL     1     -13.309   6.293   3.224  1.00  0.00     0.124 S 
ATOM     81  O   UNL     1     -12.798   6.887   1.993  1.00  0.00    -0.237 OA
ATOM     82  O   UNL     1     -13.875   4.954   3.094  1.00  0.00    -0.237 OA
ATOM     83  O   UNL     1     -14.048   7.200   4.097  1.00  0.00    -0.744 OA
ENDBRANCH  79  80
ENDBRANCH  58  72
BRANCH  59  84
ATOM     84  C   UNL     1      -0.686   3.697  10.107  1.00  0.00     0.058 A 
ATOM     85  C   UNL     1      -0.247   2.403  10.420  1.00  0.00     0.135 A 
ATOM     86  C   UNL     1       0.125   4.774  10.504  1.00  0.00     0.135 A 
ATOM     87  F   UNL     1      -0.990   1.341  10.073  1.00  0.00    -0.206 F 
ATOM     88  C   UNL     1       0.936   2.182  11.120  1.00  0.00     0.059 A 
ATOM     89  C   UNL     1       1.325   4.578  11.179  1.00  0.00     0.059 A 
ATOM     90  F   UNL     1      -0.243   6.033  10.220  1.00  0.00    -0.206 F 
ATOM     91  C   UNL     1       1.715   3.278  11.496  1.00  0.00     0.060 A 
BRANCH  91  92
ATOM     92  S   UNL     1       3.263   2.986  12.379  1.00  0.00     0.124 S 
ATOM     93  O   UNL     1       2.781   2.653  13.714  1.00  0.00    -0.237 OA
ATOM     94  O   UNL     1       3.849   1.886  11.618  1.00  0.00    -0.237 OA
ATOM     95  O   UNL     1       3.962   4.262  12.258  1.00  0.00    -0.744 OA
ENDBRANCH  91  92
ENDBRANCH  59  84
BRANCH  71  96
ATOM     96  C   UNL     1      -7.363   2.803  11.907  1.00  0.00     0.058 A 
ATOM     97  C   UNL     1      -7.366   3.504  13.122  1.00  0.00     0.135 A 
ATOM     98  C   UNL     1      -8.016   1.560  11.865  1.00  0.00     0.135 A 
ATOM     99  F   UNL     1      -6.753   4.694  13.217  1.00  0.00    -0.206 F 
ATOM    100  C   UNL     1      -7.965   2.978  14.263  1.00  0.00     0.059 A 
ATOM    101  C   UNL     1      -8.645   1.028  12.986  1.00  0.00     0.059 A 
ATOM    102  F   UNL     1      -8.054   0.854  10.724  1.00  0.00    -0.206 F 
ATOM    103  C   UNL     1      -8.600   1.737  14.185  1.00  0.00     0.060 A 
BRANCH 103 104
ATOM    104  S   UNL     1      -9.383   1.069  15.668  1.00  0.00     0.124 S 
ATOM    105  O   UNL     1      -8.226   0.621  16.435  1.00  0.00    -0.237 OA
ATOM    106  O   UNL     1     -10.087   2.231  16.202  1.00  0.00    -0.237 OA
ATOM    107  O   UNL     1     -10.242   0.009  15.149  1.00  0.00    -0.744 OA
ENDBRANCH 103 104
ENDBRANCH  71  96
ENDBRANCH  45  46
ENDBRANCH  38  40
ENDBRANCH  37  38
ENDBRANCH  36  37
ENDBRANCH  35  36
ENDBRANCH  34  35
ENDBRANCH   1  34
TORSDOF 25
