REMARK SMILES C[C@]([NH3+])(Cc1ccc(I)cc1)C(=O)OCCOC(=O)c1ccc(-c2c3nc(c(-c4c(F)cc(S(=O)(=O)[O-])cc4F)c4ccc([nH]4)c(-c4c(F)cc(S(=O)(=O)[O-])cc4F)c4nc(c(-c5c(F)cc(S(=O)(=O)[O-])cc5F)c5ccc2[nH]5)C=C4)C=C3)cc1
REMARK SMILES IDX 16 1 15 2 14 3 12 4 13 5 2 6 1 7 4 8 5 9 6 10 11 11 7 12
REMARK SMILES IDX 10 13 8 14 9 15 3 16 17 20 18 21 19 22 20 23 21 24 85 25
REMARK SMILES IDX 22 26 84 27 23 28 24 29 25 30 78 31 26 32 83 33 77 34 79 35
REMARK SMILES IDX 27 36 82 37 76 38 75 39 28 41 62 42 41 43 61 44 42 45 45 46
REMARK SMILES IDX 60 47 80 48 43 49 44 50 59 52 81 53 46 54 29 55 30 56 39 57
REMARK SMILES IDX 31 58 32 59 38 60 40 61 33 62 34 63 35 64 36 65 37 66 63 67
REMARK SMILES IDX 64 68 73 69 65 70 66 71 72 72 74 73 67 74 68 75 69 76 70 77
REMARK SMILES IDX 71 78 47 79 48 80 57 81 49 82 50 83 56 84 58 85 51 86 52 87
REMARK SMILES IDX 53 88 54 89 55 90
REMARK H PARENT 3 17 3 18 3 19 79 40 45 51
REMARK Flexibility Score: inf
ROOT
ATOM      1  C   UNL     1       1.251  -4.993  -0.745  1.00  0.00     0.275 C 
ENDROOT
BRANCH   1   2
ATOM      2  C   UNL     1       1.255  -4.704   0.753  1.00  0.00     0.274 C 
BRANCH   2   3
ATOM      3  O   UNL     1       0.440  -3.557   1.067  1.00  0.00    -0.457 OA
BRANCH   3   4
ATOM      4  C   UNL     1       1.108  -2.369   1.089  1.00  0.00     0.368 C 
ATOM      5  O   UNL     1       2.322  -2.255   0.927  1.00  0.00    -0.245 OA
BRANCH   4   6
ATOM      6  C   UNL     1       0.221  -1.172   1.506  1.00  0.00     0.194 C 
ATOM      7  C   UNL     1       0.453  -1.013   3.021  1.00  0.00     0.092 C 
BRANCH   6   8
ATOM      8  C   UNL     1      -1.297  -1.357   1.248  1.00  0.00     0.116 C 
BRANCH   8   9
ATOM      9  C   UNL     1      -1.786  -1.429  -0.185  1.00  0.00    -0.041 A 
ATOM     10  C   UNL     1      -1.743  -0.305  -1.024  1.00  0.00     0.005 A 
ATOM     11  C   UNL     1      -2.367  -2.606  -0.678  1.00  0.00     0.005 A 
ATOM     12  C   UNL     1      -2.236  -0.362  -2.330  1.00  0.00     0.015 A 
ATOM     13  C   UNL     1      -2.870  -2.664  -1.981  1.00  0.00     0.015 A 
ATOM     14  C   UNL     1      -2.794  -1.545  -2.807  1.00  0.00     0.013 A 
ATOM     15  I   UNL     1      -3.506  -1.639  -4.755  1.00  0.00    -0.044 I 
ENDBRANCH   8   9
ENDBRANCH   6   8
BRANCH   6  16
ATOM     16  N   UNL     1       0.744   0.061   0.857  1.00  0.00    -0.343 N 
ATOM     17  H   UNL     1       0.610  -0.004  -0.152  1.00  0.00     0.345 HD
ATOM     18  H   UNL     1       1.739   0.157   1.061  1.00  0.00     0.345 HD
ATOM     19  H   UNL     1       0.243   0.873   1.216  1.00  0.00     0.345 HD
ENDBRANCH   6  16
ENDBRANCH   4   6
ENDBRANCH   3   4
ENDBRANCH   2   3
ENDBRANCH   1   2
BRANCH   1  20
ATOM     20  O   UNL     1       1.694  -3.833  -1.464  1.00  0.00    -0.458 OA
BRANCH  20  21
ATOM     21  C   UNL     1       0.925  -3.478  -2.519  1.00  0.00     0.338 C 
ATOM     22  O   UNL     1      -0.037  -4.088  -2.954  1.00  0.00    -0.246 OA
BRANCH  21  23
ATOM     23  C   UNL     1       1.486  -2.278  -3.171  1.00  0.00     0.060 A 
ATOM     24  C   UNL     1       1.922  -1.163  -2.447  1.00  0.00     0.016 A 
ATOM     25  C   UNL     1       1.537  -2.270  -4.564  1.00  0.00     0.016 A 
ATOM     26  C   UNL     1       2.384  -0.026  -3.119  1.00  0.00     0.010 A 
ATOM     27  C   UNL     1       2.043  -1.158  -5.232  1.00  0.00     0.010 A 
ATOM     28  C   UNL     1       2.456  -0.021  -4.518  1.00  0.00    -0.014 A 
BRANCH  28  29
ATOM     29  C   UNL     1       2.944   1.149  -5.289  1.00  0.00     0.031 A 
ATOM     30  C   UNL     1       2.000   1.865  -6.212  1.00  0.00     0.074 A 
ATOM     31  C   UNL     1       4.247   1.487  -5.251  1.00  0.00     0.049 A 
ATOM     32  N   UNL     1       2.264   2.681  -7.198  1.00  0.00    -0.248 NA
ATOM     33  C   UNL     1       0.564   1.612  -6.005  1.00  0.00     0.031 C 
ATOM     34  C   UNL     1       5.251   0.893  -4.368  1.00  0.00     0.029 A 
ATOM     35  N   UNL     1       4.958   2.384  -6.010  1.00  0.00    -0.354 N 
ATOM     36  C   UNL     1       1.035   3.003  -7.761  1.00  0.00     0.074 A 
ATOM     37  C   UNL     1       0.022   2.302  -7.000  1.00  0.00     0.031 C 
ATOM     38  C   UNL     1       6.452   1.422  -4.651  1.00  0.00     0.029 A 
ATOM     39  C   UNL     1       6.313   2.337  -5.780  1.00  0.00     0.049 A 
ATOM     40  H   UNL     1       4.539   3.000  -6.654  1.00  0.00     0.167 HD
ATOM     41  C   UNL     1       0.783   3.802  -8.825  1.00  0.00     0.037 A 
ATOM     42  C   UNL     1       7.334   2.916  -6.442  1.00  0.00     0.037 A 
ATOM     43  C   UNL     1       1.804   4.504  -9.560  1.00  0.00     0.049 A 
ATOM     44  C   UNL     1       7.039   3.766  -7.645  1.00  0.00     0.074 A 
ATOM     45  C   UNL     1       1.660   5.342 -10.652  1.00  0.00     0.029 A 
ATOM     46  N   UNL     1       3.161   4.451  -9.273  1.00  0.00    -0.354 N 
ATOM     47  N   UNL     1       5.879   4.037  -8.194  1.00  0.00    -0.248 NA
ATOM     48  C   UNL     1       8.187   4.376  -8.330  1.00  0.00     0.031 C 
ATOM     49  C   UNL     1       2.932   5.775 -11.040  1.00  0.00     0.029 A 
ATOM     50  C   UNL     1       3.865   5.236 -10.169  1.00  0.00     0.049 A 
ATOM     51  H   UNL     1       3.563   3.932  -8.539  1.00  0.00     0.167 HD
ATOM     52  C   UNL     1       6.154   4.865  -9.276  1.00  0.00     0.074 A 
ATOM     53  C   UNL     1       7.591   5.052  -9.304  1.00  0.00     0.031 C 
ATOM     54  C   UNL     1       5.295   5.422 -10.164  1.00  0.00     0.037 A 
BRANCH  41  55
ATOM     55  C   UNL     1      -0.642   3.935  -9.279  1.00  0.00     0.058 A 
ATOM     56  C   UNL     1      -1.575   4.709  -8.572  1.00  0.00     0.135 A 
ATOM     57  C   UNL     1      -1.073   3.310 -10.461  1.00  0.00     0.135 A 
ATOM     58  F   UNL     1      -1.220   5.315  -7.427  1.00  0.00    -0.206 F 
ATOM     59  C   UNL     1      -2.889   4.843  -9.009  1.00  0.00     0.059 A 
ATOM     60  C   UNL     1      -2.377   3.446 -10.928  1.00  0.00     0.059 A 
ATOM     61  F   UNL     1      -0.221   2.558 -11.176  1.00  0.00    -0.206 F 
ATOM     62  C   UNL     1      -3.282   4.205 -10.188  1.00  0.00     0.060 A 
BRANCH  62  63
ATOM     63  S   UNL     1      -4.988   4.393 -10.750  1.00  0.00     0.124 S 
ATOM     64  O   UNL     1      -5.694   3.491  -9.845  1.00  0.00    -0.237 OA
ATOM     65  O   UNL     1      -5.234   5.817 -10.542  1.00  0.00    -0.237 OA
ATOM     66  O   UNL     1      -4.934   3.968 -12.145  1.00  0.00    -0.744 OA
ENDBRANCH  62  63
ENDBRANCH  41  55
BRANCH  42  67
ATOM     67  C   UNL     1       8.730   2.670  -5.996  1.00  0.00     0.058 A 
ATOM     68  C   UNL     1       9.462   3.669  -5.340  1.00  0.00     0.135 A 
ATOM     69  C   UNL     1       9.341   1.418  -6.171  1.00  0.00     0.135 A 
ATOM     70  F   UNL     1       8.924   4.884  -5.159  1.00  0.00    -0.206 F 
ATOM     71  C   UNL     1      10.751   3.437  -4.870  1.00  0.00     0.059 A 
ATOM     72  C   UNL     1      10.620   1.155  -5.691  1.00  0.00     0.059 A 
ATOM     73  F   UNL     1       8.677   0.425  -6.783  1.00  0.00    -0.206 F 
ATOM     74  C   UNL     1      11.319   2.174  -5.045  1.00  0.00     0.060 A 
BRANCH  74  75
ATOM     75  S   UNL     1      12.961   1.855  -4.361  1.00  0.00     0.124 S 
ATOM     76  O   UNL     1      13.819   2.503  -5.346  1.00  0.00    -0.237 OA
ATOM     77  O   UNL     1      12.885   2.504  -3.055  1.00  0.00    -0.237 OA
ATOM     78  O   UNL     1      13.029   0.397  -4.322  1.00  0.00    -0.744 OA
ENDBRANCH  74  75
ENDBRANCH  42  67
BRANCH  54  79
ATOM     79  C   UNL     1       5.872   6.324 -11.213  1.00  0.00     0.058 A 
ATOM     80  C   UNL     1       6.488   5.812 -12.364  1.00  0.00     0.135 A 
ATOM     81  C   UNL     1       5.728   7.716 -11.103  1.00  0.00     0.135 A 
ATOM     82  F   UNL     1       6.656   4.489 -12.509  1.00  0.00    -0.206 F 
ATOM     83  C   UNL     1       6.942   6.653 -13.375  1.00  0.00     0.059 A 
ATOM     84  C   UNL     1       6.160   8.574 -12.109  1.00  0.00     0.059 A 
ATOM     85  F   UNL     1       5.140   8.251 -10.021  1.00  0.00    -0.206 F 
ATOM     86  C   UNL     1       6.768   8.032 -13.241  1.00  0.00     0.060 A 
BRANCH  86  87
ATOM     87  S   UNL     1       7.298   9.111 -14.589  1.00  0.00     0.124 S 
ATOM     88  O   UNL     1       8.742   9.146 -14.387  1.00  0.00    -0.237 OA
ATOM     89  O   UNL     1       6.840   8.386 -15.771  1.00  0.00    -0.237 OA
ATOM     90  O   UNL     1       6.595  10.361 -14.318  1.00  0.00    -0.744 OA
ENDBRANCH  86  87
ENDBRANCH  54  79
ENDBRANCH  28  29
ENDBRANCH  21  23
ENDBRANCH  20  21
ENDBRANCH   1  20
TORSDOF 17
