REMARK SMILES O=C(OCCOC(=O)c1cc(-c2ccc(N3C(=O)[C@@H]4CC=CC[C@H]4C3=O)cc2)nc2c(Cl)cccc12)c1ccc(-c2c3nc(c(-c4c(F)cc(S(=O)(=O)[O-])cc4F)c4ccc([nH]4)c(-c4c(F)cc(S(=O)(=O)[O-])cc4F)c4nc(c(-c5c(F)cc(S(=O)(=O)[O-])cc5F)c5ccc2[nH]5)C=C4)C=C3)cc1
REMARK SMILES IDX 4 1 3 2 2 3 1 4 37 5 38 6 102 7 39 8 101 9 40 10 41 11 42 12
REMARK SMILES IDX 95 13 43 14 100 15 94 16 96 17 44 18 99 19 93 20 92 21 45 23
REMARK SMILES IDX 79 24 58 25 78 26 59 27 62 28 77 29 97 30 60 31 61 32 76 34
REMARK SMILES IDX 98 35 63 36 46 37 47 38 56 39 48 40 49 41 55 42 57 43 50 44
REMARK SMILES IDX 51 45 52 46 53 47 54 48 80 49 81 50 90 51 82 52 83 53 89 54
REMARK SMILES IDX 91 55 84 56 85 57 86 58 87 59 88 60 64 61 65 62 74 63 66 64
REMARK SMILES IDX 67 65 73 66 75 67 68 68 69 69 70 70 71 71 72 72 5 73 6 74
REMARK SMILES IDX 7 75 8 76 9 77 10 78 36 79 11 80 30 81 35 82 29 83 31 84
REMARK SMILES IDX 34 85 32 86 33 87 12 88 13 89 28 90 14 91 27 92 15 93 16 94
REMARK SMILES IDX 17 95 25 96 18 97 19 98 24 99 26 100 20 101 23 102 21 103
REMARK SMILES IDX 22 104
REMARK H PARENT 96 22 62 33
REMARK Flexibility Score: inf
ROOT
ATOM      1  C   UNL     1       4.301   0.222   1.546  1.00  0.00     0.275 C 
ENDROOT
BRANCH   1   2
ATOM      2  O   UNL     1       3.381   1.062   0.836  1.00  0.00    -0.458 OA
BRANCH   2   3
ATOM      3  C   UNL     1       3.253   1.276  -0.492  1.00  0.00     0.338 C 
ATOM      4  O   UNL     1       2.417   2.103  -0.857  1.00  0.00    -0.246 OA
BRANCH   3   5
ATOM      5  C   UNL     1       3.965   0.490  -1.561  1.00  0.00     0.060 A 
ATOM      6  C   UNL     1       5.111  -0.300  -1.435  1.00  0.00     0.016 A 
ATOM      7  C   UNL     1       3.365   0.535  -2.827  1.00  0.00     0.016 A 
ATOM      8  C   UNL     1       5.591  -1.072  -2.504  1.00  0.00     0.010 A 
ATOM      9  C   UNL     1       3.803  -0.269  -3.884  1.00  0.00     0.010 A 
ATOM     10  C   UNL     1       4.935  -1.072  -3.734  1.00  0.00    -0.014 A 
BRANCH  10  11
ATOM     11  C   UNL     1       5.514  -1.753  -4.918  1.00  0.00     0.031 A 
ATOM     12  C   UNL     1       6.076  -0.896  -6.017  1.00  0.00     0.074 A 
ATOM     13  C   UNL     1       5.554  -3.096  -5.020  1.00  0.00     0.049 A 
ATOM     14  N   UNL     1       6.598  -1.258  -7.156  1.00  0.00    -0.248 NA
ATOM     15  C   UNL     1       6.077   0.560  -5.790  1.00  0.00     0.031 C 
ATOM     16  C   UNL     1       5.144  -4.037  -3.982  1.00  0.00     0.029 A 
ATOM     17  N   UNL     1       5.943  -3.908  -6.059  1.00  0.00    -0.354 N 
ATOM     18  C   UNL     1       7.016  -0.083  -7.764  1.00  0.00     0.074 A 
ATOM     19  C   UNL     1       6.615   1.011  -6.911  1.00  0.00     0.031 C 
ATOM     20  C   UNL     1       5.234  -5.290  -4.459  1.00  0.00     0.029 A 
ATOM     21  C   UNL     1       5.681  -5.242  -5.841  1.00  0.00     0.049 A 
ATOM     22  H   UNL     1       6.368  -3.568  -6.880  1.00  0.00     0.167 HD
ATOM     23  C   UNL     1       7.718   0.064  -8.909  1.00  0.00     0.037 A 
ATOM     24  C   UNL     1       5.765  -6.302  -6.669  1.00  0.00     0.037 A 
ATOM     25  C   UNL     1       8.110  -1.035  -9.746  1.00  0.00     0.049 A 
ATOM     26  C   UNL     1       6.371  -6.097  -8.022  1.00  0.00     0.074 A 
ATOM     27  C   UNL     1       8.870  -1.008 -10.899  1.00  0.00     0.029 A 
ATOM     28  N   UNL     1       7.748  -2.357  -9.530  1.00  0.00    -0.354 N 
ATOM     29  N   UNL     1       6.827  -4.988  -8.551  1.00  0.00    -0.248 NA
ATOM     30  C   UNL     1       6.532  -7.287  -8.867  1.00  0.00     0.031 C 
ATOM     31  C   UNL     1       8.915  -2.308 -11.416  1.00  0.00     0.029 A 
ATOM     32  C   UNL     1       8.229  -3.151 -10.555  1.00  0.00     0.049 A 
ATOM     33  H   UNL     1       7.226  -2.682  -8.760  1.00  0.00     0.167 HD
ATOM     34  C   UNL     1       7.378  -5.351  -9.769  1.00  0.00     0.074 A 
ATOM     35  C   UNL     1       7.183  -6.782  -9.907  1.00  0.00     0.031 C 
ATOM     36  C   UNL     1       8.017  -4.572 -10.675  1.00  0.00     0.037 A 
BRANCH  23  37
ATOM     37  C   UNL     1       8.092   1.460  -9.307  1.00  0.00     0.058 A 
ATOM     38  C   UNL     1       9.065   2.191  -8.604  1.00  0.00     0.135 A 
ATOM     39  C   UNL     1       7.470   2.078 -10.402  1.00  0.00     0.135 A 
ATOM     40  F   UNL     1       9.669   1.658  -7.530  1.00  0.00    -0.206 F 
ATOM     41  C   UNL     1       9.391   3.495  -8.961  1.00  0.00     0.059 A 
ATOM     42  C   UNL     1       7.798   3.372 -10.791  1.00  0.00     0.059 A 
ATOM     43  F   UNL     1       6.524   1.427 -11.096  1.00  0.00    -0.206 F 
ATOM     44  C   UNL     1       8.752   4.076 -10.057  1.00  0.00     0.060 A 
BRANCH  44  45
ATOM     45  S   UNL     1       9.196   5.765 -10.514  1.00  0.00     0.124 S 
ATOM     46  O   UNL     1       8.590   6.530  -9.429  1.00  0.00    -0.237 OA
ATOM     47  O   UNL     1      10.655   5.713 -10.513  1.00  0.00    -0.237 OA
ATOM     48  O   UNL     1       8.578   5.937 -11.825  1.00  0.00    -0.744 OA
ENDBRANCH  44  45
ENDBRANCH  23  37
BRANCH  24  49
ATOM     49  C   UNL     1       5.250  -7.636  -6.261  1.00  0.00     0.058 A 
ATOM     50  C   UNL     1       6.099  -8.658  -5.820  1.00  0.00     0.135 A 
ATOM     51  C   UNL     1       3.877  -7.915  -6.337  1.00  0.00     0.135 A 
ATOM     52  F   UNL     1       7.423  -8.451  -5.762  1.00  0.00    -0.206 F 
ATOM     53  C   UNL     1       5.604  -9.909  -5.458  1.00  0.00     0.059 A 
ATOM     54  C   UNL     1       3.354  -9.148  -5.956  1.00  0.00     0.059 A 
ATOM     55  F   UNL     1       3.035  -6.985  -6.807  1.00  0.00    -0.206 F 
ATOM     56  C   UNL     1       4.228 -10.144  -5.523  1.00  0.00     0.060 A 
BRANCH  56  57
ATOM     57  S   UNL     1       3.590 -11.750  -4.993  1.00  0.00     0.124 S 
ATOM     58  O   UNL     1       3.895 -12.585  -6.148  1.00  0.00    -0.237 OA
ATOM     59  O   UNL     1       4.377 -12.012  -3.791  1.00  0.00    -0.237 OA
ATOM     60  O   UNL     1       2.175 -11.485  -4.755  1.00  0.00    -0.744 OA
ENDBRANCH  56  57
ENDBRANCH  24  49
BRANCH  36  61
ATOM     61  C   UNL     1       8.582  -5.256 -11.881  1.00  0.00     0.058 A 
ATOM     62  C   UNL     1       7.760  -5.708 -12.922  1.00  0.00     0.135 A 
ATOM     63  C   UNL     1       9.972  -5.399 -12.021  1.00  0.00     0.135 A 
ATOM     64  F   UNL     1       6.425  -5.607 -12.822  1.00  0.00    -0.206 F 
ATOM     65  C   UNL     1       8.298  -6.287 -14.064  1.00  0.00     0.059 A 
ATOM     66  C   UNL     1      10.532  -5.948 -13.167  1.00  0.00     0.059 A 
ATOM     67  F   UNL     1      10.798  -4.979 -11.049  1.00  0.00    -0.206 F 
ATOM     68  C   UNL     1       9.685  -6.394 -14.181  1.00  0.00     0.060 A 
BRANCH  68  69
ATOM     69  S   UNL     1      10.371  -7.085 -15.698  1.00  0.00     0.124 S 
ATOM     70  O   UNL     1      10.062  -8.502 -15.542  1.00  0.00    -0.237 OA
ATOM     71  O   UNL     1       9.617  -6.380 -16.730  1.00  0.00    -0.237 OA
ATOM     72  O   UNL     1      11.788  -6.739 -15.620  1.00  0.00    -0.744 OA
ENDBRANCH  68  69
ENDBRANCH  36  61
ENDBRANCH  10  11
ENDBRANCH   3   5
ENDBRANCH   2   3
ENDBRANCH   1   2
BRANCH   1  73
ATOM     73  C   UNL     1       3.862  -1.241   1.643  1.00  0.00     0.275 C 
BRANCH  73  74
ATOM     74  O   UNL     1       3.404  -1.786   0.394  1.00  0.00    -0.458 OA
BRANCH  74  75
ATOM     75  C   UNL     1       2.057  -1.812   0.218  1.00  0.00     0.339 C 
ATOM     76  O   UNL     1       1.217  -1.425   1.011  1.00  0.00    -0.246 OA
BRANCH  75  77
ATOM     77  C   UNL     1       1.714  -2.299  -1.139  1.00  0.00     0.071 A 
ATOM     78  C   UNL     1       0.911  -1.451  -1.917  1.00  0.00     0.045 A 
ATOM     79  C   UNL     1       2.081  -3.588  -1.595  1.00  0.00     0.016 A 
ATOM     80  C   UNL     1       0.508  -1.890  -3.163  1.00  0.00     0.072 A 
ATOM     81  C   UNL     1       1.550  -3.976  -2.841  1.00  0.00     0.090 A 
ATOM     82  C   UNL     1       2.902  -4.505  -0.881  1.00  0.00     0.011 A 
ATOM     83  N   UNL     1       0.801  -3.134  -3.587  1.00  0.00    -0.246 NA
ATOM     84  C   UNL     1       1.795  -5.280  -3.288  1.00  0.00     0.067 A 
ATOM     85  C   UNL     1       3.166  -5.781  -1.375  1.00  0.00     0.002 A 
ATOM     86  Cl  UNL     1       1.080  -5.846  -4.761  1.00  0.00    -0.082 Cl
ATOM     87  C   UNL     1       2.587  -6.179  -2.570  1.00  0.00     0.023 A 
BRANCH  80  88
ATOM     88  C   UNL     1      -0.292  -1.097  -4.111  1.00  0.00     0.000 A 
ATOM     89  C   UNL     1       0.124   0.149  -4.602  1.00  0.00     0.012 A 
ATOM     90  C   UNL     1      -1.494  -1.604  -4.617  1.00  0.00     0.012 A 
ATOM     91  C   UNL     1      -0.627   0.871  -5.540  1.00  0.00     0.027 A 
ATOM     92  C   UNL     1      -2.280  -0.862  -5.508  1.00  0.00     0.027 A 
ATOM     93  C   UNL     1      -1.863   0.393  -5.970  1.00  0.00     0.052 A 
BRANCH  93  94
ATOM     94  N   UNL     1      -2.698   1.175  -6.799  1.00  0.00    -0.250 N 
ATOM     95  C   UNL     1      -2.268   2.074  -7.769  1.00  0.00     0.238 C 
ATOM     96  C   UNL     1      -4.077   1.230  -6.645  1.00  0.00     0.238 C 
ATOM     97  O   UNL     1      -1.141   2.439  -8.059  1.00  0.00    -0.274 OA
ATOM     98  C   UNL     1      -3.512   2.481  -8.515  1.00  0.00     0.096 C 
ATOM     99  C   UNL     1      -4.508   2.467  -7.374  1.00  0.00     0.096 C 
ATOM    100  O   UNL     1      -4.822   0.551  -5.956  1.00  0.00    -0.274 OA
ATOM    101  C   UNL     1      -3.550   3.813  -9.239  1.00  0.00     0.041 C 
ATOM    102  C   UNL     1      -5.933   2.546  -7.874  1.00  0.00     0.041 C 
ATOM    103  C   UNL     1      -4.985   4.225  -9.495  1.00  0.00    -0.030 C 
ATOM    104  C   UNL     1      -6.048   3.643  -8.906  1.00  0.00    -0.030 C 
ENDBRANCH  93  94
ENDBRANCH  80  88
ENDBRANCH  75  77
ENDBRANCH  74  75
ENDBRANCH  73  74
ENDBRANCH   1  73
TORSDOF 16
