REMARK SMILES COC(=O)[C@]1(C)C[C@H](C(=O)OCCOC(=O)c2ccc(-c3c4nc(c(-c5c(F)cc(S(=O)(=O)[O-])cc5F)c5ccc([nH]5)c(-c5c(F)cc(S(=O)(=O)[O-])cc5F)c5nc(c(-c6c(F)cc(S(=O)(=O)[O-])cc6F)c6ccc3[nH]6)C=C5)C=C4)cc2)[C@H](c2ccccc2F)[N@H+]1C
REMARK SMILES IDX 13 1 12 2 11 3 9 4 10 5 8 6 5 7 7 8 91 9 6 10 83 11 92 12
REMARK SMILES IDX 3 14 4 15 2 16 1 17 84 18 85 19 89 20 86 21 88 22 90 23
REMARK SMILES IDX 87 24 14 25 15 26 16 27 17 28 18 29 82 30 19 31 81 32 20 33
REMARK SMILES IDX 21 34 22 35 75 36 23 37 80 38 74 39 76 40 24 41 79 42 73 43
REMARK SMILES IDX 72 44 25 46 59 47 38 48 58 49 39 50 42 51 57 52 77 53 40 54
REMARK SMILES IDX 41 55 56 57 78 58 43 59 26 60 27 61 36 62 28 63 29 64 35 65
REMARK SMILES IDX 37 66 30 67 31 68 32 69 33 70 34 71 60 72 61 73 70 74 62 75
REMARK SMILES IDX 63 76 69 77 71 78 64 79 65 80 66 81 67 82 68 83 44 84 45 85
REMARK SMILES IDX 54 86 46 87 47 88 53 89 55 90 48 91 49 92 50 93 51 94 52 95
REMARK H PARENT 91 13 76 45 42 56
REMARK Flexibility Score: inf
ROOT
ATOM      1  C   UNL     1      -1.926  -0.721   8.278  1.00  0.00     0.275 C 
ENDROOT
BRANCH   1   2
ATOM      2  C   UNL     1      -2.302   0.541   7.493  1.00  0.00     0.274 C 
BRANCH   2   3
ATOM      3  O   UNL     1      -1.355   0.832   6.449  1.00  0.00    -0.462 OA
BRANCH   3   4
ATOM      4  C   UNL     1      -0.316   1.627   6.796  1.00  0.00     0.315 C 
ATOM      5  O   UNL     1      -0.163   2.119   7.909  1.00  0.00    -0.252 OA
BRANCH   4   6
ATOM      6  C   UNL     1       0.666   1.871   5.662  1.00  0.00     0.169 C 
ATOM      7  C   UNL     1       0.016   0.840   3.545  1.00  0.00     0.194 C 
ATOM      8  C   UNL     1       0.918   0.661   4.778  1.00  0.00     0.103 C 
ATOM      9  N   UNL     1      -0.352   2.277   3.574  1.00  0.00    -0.316 N 
ATOM     10  C   UNL     1       0.775   0.335   2.307  1.00  0.00     0.092 C 
ATOM     11  C   UNL     1       0.265   2.988   4.693  1.00  0.00     0.233 C 
ATOM     12  C   UNL     1      -0.511   2.995   2.327  1.00  0.00     0.334 C 
ATOM     13  H   UNL     1      -1.351   2.254   3.780  1.00  0.00     0.349 HD
BRANCH   7  14
ATOM     14  C   UNL     1      -1.265  -0.034   3.660  1.00  0.00     0.367 C 
ATOM     15  O   UNL     1      -1.308  -1.151   4.166  1.00  0.00    -0.245 OA
BRANCH  14  16
ATOM     16  O   UNL     1      -2.334   0.568   3.060  1.00  0.00    -0.464 OA
ATOM     17  C   UNL     1      -3.587  -0.073   3.274  1.00  0.00     0.282 C 
ENDBRANCH  14  16
ENDBRANCH   7  14
BRANCH  11  18
ATOM     18  C   UNL     1      -0.544   4.073   5.390  1.00  0.00     0.046 A 
ATOM     19  C   UNL     1       0.076   4.777   6.446  1.00  0.00     0.013 A 
ATOM     20  C   UNL     1      -1.901   4.332   5.159  1.00  0.00     0.132 A 
ATOM     21  C   UNL     1      -0.654   5.627   7.282  1.00  0.00     0.001 A 
ATOM     22  C   UNL     1      -2.624   5.208   5.971  1.00  0.00     0.040 A 
ATOM     23  F   UNL     1      -2.574   3.719   4.176  1.00  0.00    -0.206 F 
ATOM     24  C   UNL     1      -2.008   5.837   7.048  1.00  0.00     0.003 A 
ENDBRANCH  11  18
ENDBRANCH   4   6
ENDBRANCH   3   4
ENDBRANCH   2   3
ENDBRANCH   1   2
BRANCH   1  25
ATOM     25  O   UNL     1      -0.812  -0.492   9.163  1.00  0.00    -0.458 OA
BRANCH  25  26
ATOM     26  C   UNL     1       0.404  -0.808   8.654  1.00  0.00     0.338 C 
ATOM     27  O   UNL     1       0.634  -1.348   7.586  1.00  0.00    -0.246 OA
BRANCH  26  28
ATOM     28  C   UNL     1       1.473  -0.249   9.502  1.00  0.00     0.060 A 
ATOM     29  C   UNL     1       2.445   0.542   8.878  1.00  0.00     0.016 A 
ATOM     30  C   UNL     1       1.561  -0.533  10.864  1.00  0.00     0.016 A 
ATOM     31  C   UNL     1       3.504   1.064   9.611  1.00  0.00     0.010 A 
ATOM     32  C   UNL     1       2.639  -0.029  11.598  1.00  0.00     0.010 A 
ATOM     33  C   UNL     1       3.619   0.763  10.972  1.00  0.00    -0.014 A 
BRANCH  33  34
ATOM     34  C   UNL     1       4.825   1.200  11.711  1.00  0.00     0.031 A 
ATOM     35  C   UNL     1       5.937   0.216  11.938  1.00  0.00     0.074 A 
ATOM     36  C   UNL     1       4.937   2.471  12.136  1.00  0.00     0.049 A 
ATOM     37  N   UNL     1       7.045   0.362  12.616  1.00  0.00    -0.248 NA
ATOM     38  C   UNL     1       5.779  -1.108  11.315  1.00  0.00     0.031 C 
ATOM     39  C   UNL     1       3.946   3.524  11.914  1.00  0.00     0.029 A 
ATOM     40  N   UNL     1       5.933   3.090  12.847  1.00  0.00    -0.354 N 
ATOM     41  C   UNL     1       7.710  -0.853  12.515  1.00  0.00     0.074 A 
ATOM     42  C   UNL     1       6.876  -1.730  11.722  1.00  0.00     0.031 C 
ATOM     43  C   UNL     1       4.380   4.659  12.489  1.00  0.00     0.029 A 
ATOM     44  C   UNL     1       5.657   4.401  13.152  1.00  0.00     0.049 A 
ATOM     45  H   UNL     1       6.766   2.638  13.114  1.00  0.00     0.167 HD
ATOM     46  C   UNL     1       8.909  -1.203  13.039  1.00  0.00     0.037 A 
ATOM     47  C   UNL     1       6.345   5.282  13.905  1.00  0.00     0.037 A 
ATOM     48  C   UNL     1       9.730  -0.320  13.826  1.00  0.00     0.049 A 
ATOM     49  C   UNL     1       7.644   4.849  14.533  1.00  0.00     0.074 A 
ATOM     50  C   UNL     1      10.957  -0.578  14.412  1.00  0.00     0.029 A 
ATOM     51  N   UNL     1       9.405   0.992  14.140  1.00  0.00    -0.354 N 
ATOM     52  N   UNL     1       8.256   3.692  14.446  1.00  0.00    -0.248 NA
ATOM     53  C   UNL     1       8.343   5.839  15.364  1.00  0.00     0.031 C 
ATOM     54  C   UNL     1      11.357   0.568  15.110  1.00  0.00     0.029 A 
ATOM     55  C   UNL     1      10.399   1.553  14.924  1.00  0.00     0.049 A 
ATOM     56  H   UNL     1       8.587   1.456  13.848  1.00  0.00     0.167 HD
ATOM     57  C   UNL     1       9.422   3.820  15.193  1.00  0.00     0.074 A 
ATOM     58  C   UNL     1       9.434   5.172  15.715  1.00  0.00     0.031 C 
ATOM     59  C   UNL     1      10.394   2.904  15.427  1.00  0.00     0.037 A 
BRANCH  46  60
ATOM     60  C   UNL     1       9.382  -2.610  12.806  1.00  0.00     0.058 A 
ATOM     61  C   UNL     1       9.850  -3.035  11.553  1.00  0.00     0.135 A 
ATOM     62  C   UNL     1       9.381  -3.542  13.856  1.00  0.00     0.135 A 
ATOM     63  F   UNL     1       9.853  -2.190  10.509  1.00  0.00    -0.206 F 
ATOM     64  C   UNL     1      10.275  -4.343  11.342  1.00  0.00     0.059 A 
ATOM     65  C   UNL     1       9.824  -4.848  13.674  1.00  0.00     0.059 A 
ATOM     66  F   UNL     1       8.940  -3.188  15.073  1.00  0.00    -0.206 F 
ATOM     67  C   UNL     1      10.255  -5.244  12.408  1.00  0.00     0.060 A 
BRANCH  67  68
ATOM     68  S   UNL     1      10.806  -6.939  12.121  1.00  0.00     0.124 S 
ATOM     69  O   UNL     1       9.677  -7.489  11.377  1.00  0.00    -0.237 OA
ATOM     70  O   UNL     1      12.034  -6.745  11.356  1.00  0.00    -0.237 OA
ATOM     71  O   UNL     1      10.988  -7.470  13.468  1.00  0.00    -0.744 OA
ENDBRANCH  67  68
ENDBRANCH  46  60
BRANCH  47  72
ATOM     72  C   UNL     1       5.806   6.649  14.128  1.00  0.00     0.058 A 
ATOM     73  C   UNL     1       6.420   7.774  13.560  1.00  0.00     0.135 A 
ATOM     74  C   UNL     1       4.659   6.857  14.911  1.00  0.00     0.135 A 
ATOM     75  F   UNL     1       7.526   7.628  12.813  1.00  0.00    -0.206 F 
ATOM     76  C   UNL     1       5.925   9.058  13.768  1.00  0.00     0.059 A 
ATOM     77  C   UNL     1       4.131   8.128  15.113  1.00  0.00     0.059 A 
ATOM     78  F   UNL     1       4.028   5.813  15.471  1.00  0.00    -0.206 F 
ATOM     79  C   UNL     1       4.777   9.224  14.544  1.00  0.00     0.060 A 
BRANCH  79  80
ATOM     80  S   UNL     1       4.109  10.888  14.764  1.00  0.00     0.124 S 
ATOM     81  O   UNL     1       5.047  11.456  15.725  1.00  0.00    -0.237 OA
ATOM     82  O   UNL     1       4.176  11.428  13.409  1.00  0.00    -0.237 OA
ATOM     83  O   UNL     1       2.760  10.643  15.265  1.00  0.00    -0.744 OA
ENDBRANCH  79  80
ENDBRANCH  47  72
BRANCH  59  84
ATOM     84  C   UNL     1      11.569   3.342  16.255  1.00  0.00     0.058 A 
ATOM     85  C   UNL     1      11.471   3.503  17.646  1.00  0.00     0.135 A 
ATOM     86  C   UNL     1      12.821   3.554  15.655  1.00  0.00     0.135 A 
ATOM     87  F   UNL     1      10.295   3.318  18.266  1.00  0.00    -0.206 F 
ATOM     88  C   UNL     1      12.570   3.879  18.412  1.00  0.00     0.059 A 
ATOM     89  C   UNL     1      13.938   3.908  16.404  1.00  0.00     0.059 A 
ATOM     90  F   UNL     1      12.969   3.403  14.329  1.00  0.00    -0.206 F 
ATOM     91  C   UNL     1      13.800   4.079  17.781  1.00  0.00     0.060 A 
BRANCH  91  92
ATOM     92  S   UNL     1      15.227   4.536  18.788  1.00  0.00     0.124 S 
ATOM     93  O   UNL     1      14.958   5.945  19.056  1.00  0.00    -0.237 OA
ATOM     94  O   UNL     1      15.105   3.638  19.933  1.00  0.00    -0.237 OA
ATOM     95  O   UNL     1      16.362   4.269  17.909  1.00  0.00    -0.744 OA
ENDBRANCH  91  92
ENDBRANCH  59  84
ENDBRANCH  33  34
ENDBRANCH  26  28
ENDBRANCH  25  26
ENDBRANCH   1  25
TORSDOF 17
