REMARK SMILES O=C(OCCOC(=O)[C@@H]1CCCC[C@H]1C(=O)Nc1cnn(Cc2ccc(Cl)c(Cl)c2)c1)c1ccc(-c2c3nc(c(-c4c(F)cc(S(=O)(=O)[O-])cc4F)c4ccc([nH]4)c(-c4c(F)cc(S(=O)(=O)[O-])cc4F)c4nc(c(-c5c(F)cc(S(=O)(=O)[O-])cc5F)c5ccc2[nH]5)C=C4)C=C3)cc1
REMARK SMILES IDX 5 1 4 2 3 3 2 4 1 5 32 6 33 7 97 8 34 9 96 10 35 11 36 12
REMARK SMILES IDX 37 13 90 14 38 15 95 16 89 17 91 18 39 19 94 20 88 21 87 22
REMARK SMILES IDX 40 24 74 25 53 26 73 27 54 28 57 29 72 30 92 31 55 32 56 33
REMARK SMILES IDX 71 35 93 36 58 37 41 38 42 39 51 40 43 41 44 42 50 43 52 44
REMARK SMILES IDX 45 45 46 46 47 47 48 48 49 49 75 50 76 51 85 52 77 53 78 54
REMARK SMILES IDX 84 55 86 56 79 57 80 58 81 59 82 60 83 61 59 62 60 63 69 64
REMARK SMILES IDX 61 65 62 66 68 67 70 68 63 69 64 70 65 71 66 72 67 73 6 74
REMARK SMILES IDX 7 75 8 76 9 77 10 78 14 79 11 80 13 81 12 82 15 83 16 84
REMARK SMILES IDX 17 85 18 87 19 88 31 89 20 90 21 91 22 92 23 93 24 94 30 95
REMARK SMILES IDX 25 96 28 97 26 98 29 99 27 100
REMARK H PARENT 91 23 57 34 17 86
REMARK Flexibility Score: inf
ROOT
ATOM      1  C   UNL     1       4.159  -1.095   0.927  1.00  0.00     0.274 C 
ENDROOT
BRANCH   1   2
ATOM      2  C   UNL     1       4.647   0.352   0.983  1.00  0.00     0.275 C 
BRANCH   2   3
ATOM      3  O   UNL     1       3.671   1.403   0.825  1.00  0.00    -0.458 OA
BRANCH   3   4
ATOM      4  C   UNL     1       2.464   1.113   0.284  1.00  0.00     0.338 C 
ATOM      5  O   UNL     1       1.615   0.407   0.779  1.00  0.00    -0.246 OA
BRANCH   4   6
ATOM      6  C   UNL     1       2.313   1.825  -1.009  1.00  0.00     0.060 A 
ATOM      7  C   UNL     1       3.433   2.232  -1.742  1.00  0.00     0.016 A 
ATOM      8  C   UNL     1       1.027   2.031  -1.521  1.00  0.00     0.016 A 
ATOM      9  C   UNL     1       3.265   2.882  -2.957  1.00  0.00     0.010 A 
ATOM     10  C   UNL     1       0.862   2.670  -2.750  1.00  0.00     0.010 A 
ATOM     11  C   UNL     1       1.980   3.122  -3.457  1.00  0.00    -0.014 A 
BRANCH  11  12
ATOM     12  C   UNL     1       1.886   3.811  -4.747  1.00  0.00     0.031 A 
ATOM     13  C   UNL     1       2.551   3.161  -5.919  1.00  0.00     0.074 A 
ATOM     14  C   UNL     1       1.146   4.911  -4.983  1.00  0.00     0.049 A 
ATOM     15  N   UNL     1       3.524   3.600  -6.654  1.00  0.00    -0.248 NA
ATOM     16  C   UNL     1       2.067   1.829  -6.301  1.00  0.00     0.031 C 
ATOM     17  C   UNL     1       0.144   5.547  -4.127  1.00  0.00     0.029 A 
ATOM     18  N   UNL     1       1.089   5.646  -6.130  1.00  0.00    -0.354 N 
ATOM     19  C   UNL     1       3.668   2.685  -7.699  1.00  0.00     0.074 A 
ATOM     20  C   UNL     1       2.813   1.577  -7.376  1.00  0.00     0.031 C 
ATOM     21  C   UNL     1      -0.564   6.434  -4.862  1.00  0.00     0.029 A 
ATOM     22  C   UNL     1       0.026   6.532  -6.187  1.00  0.00     0.049 A 
ATOM     23  H   UNL     1       1.747   5.555  -6.856  1.00  0.00     0.167 HD
ATOM     24  C   UNL     1       4.361   2.946  -8.844  1.00  0.00     0.037 A 
ATOM     25  C   UNL     1      -0.371   7.247  -7.267  1.00  0.00     0.037 A 
ATOM     26  C   UNL     1       5.255   4.060  -8.690  1.00  0.00     0.049 A 
ATOM     27  C   UNL     1       0.769   7.317  -8.216  1.00  0.00     0.074 A 
ATOM     28  C   UNL     1       6.287   4.366  -7.822  1.00  0.00     0.029 A 
ATOM     29  N   UNL     1       4.958   5.243  -9.321  1.00  0.00    -0.354 N 
ATOM     30  N   UNL     1       1.865   7.995  -8.010  1.00  0.00    -0.248 NA
ATOM     31  C   UNL     1       0.846   6.315  -9.268  1.00  0.00     0.031 C 
ATOM     32  C   UNL     1       6.162   5.768  -7.589  1.00  0.00     0.029 A 
ATOM     33  C   UNL     1       5.088   6.212  -8.360  1.00  0.00     0.049 A 
ATOM     34  H   UNL     1       4.705   5.369 -10.264  1.00  0.00     0.167 HD
ATOM     35  C   UNL     1       2.866   7.255  -8.619  1.00  0.00     0.074 A 
ATOM     36  C   UNL     1       2.165   6.290  -9.461  1.00  0.00     0.031 C 
ATOM     37  C   UNL     1       4.163   7.308  -8.193  1.00  0.00     0.037 A 
BRANCH  24  38
ATOM     38  C   UNL     1       4.032   2.366 -10.204  1.00  0.00     0.058 A 
ATOM     39  C   UNL     1       4.936   2.538 -11.275  1.00  0.00     0.135 A 
ATOM     40  C   UNL     1       2.747   1.902 -10.565  1.00  0.00     0.135 A 
ATOM     41  F   UNL     1       6.187   2.972 -11.052  1.00  0.00    -0.206 F 
ATOM     42  C   UNL     1       4.566   2.351 -12.607  1.00  0.00     0.059 A 
ATOM     43  C   UNL     1       2.374   1.655 -11.883  1.00  0.00     0.059 A 
ATOM     44  F   UNL     1       1.765   1.761  -9.665  1.00  0.00    -0.206 F 
ATOM     45  C   UNL     1       3.272   1.934 -12.901  1.00  0.00     0.060 A 
BRANCH  45  46
ATOM     46  S   UNL     1       2.743   1.836 -14.622  1.00  0.00     0.124 S 
ATOM     47  O   UNL     1       2.564   3.246 -14.946  1.00  0.00    -0.237 OA
ATOM     48  O   UNL     1       3.878   1.173 -15.255  1.00  0.00    -0.237 OA
ATOM     49  O   UNL     1       1.522   1.040 -14.548  1.00  0.00    -0.744 OA
ENDBRANCH  45  46
ENDBRANCH  24  38
BRANCH  25  50
ATOM     50  C   UNL     1      -1.745   7.655  -7.646  1.00  0.00     0.058 A 
ATOM     51  C   UNL     1      -1.966   8.640  -8.624  1.00  0.00     0.135 A 
ATOM     52  C   UNL     1      -2.870   6.901  -7.255  1.00  0.00     0.135 A 
ATOM     53  F   UNL     1      -0.946   9.385  -9.076  1.00  0.00    -0.206 F 
ATOM     54  C   UNL     1      -3.219   8.838  -9.210  1.00  0.00     0.059 A 
ATOM     55  C   UNL     1      -4.132   7.091  -7.812  1.00  0.00     0.059 A 
ATOM     56  F   UNL     1      -2.755   5.888  -6.382  1.00  0.00    -0.206 F 
ATOM     57  C   UNL     1      -4.294   8.046  -8.809  1.00  0.00     0.060 A 
BRANCH  57  58
ATOM     58  S   UNL     1      -5.870   8.181  -9.683  1.00  0.00     0.124 S 
ATOM     59  O   UNL     1      -6.349   9.484  -9.236  1.00  0.00    -0.237 OA
ATOM     60  O   UNL     1      -5.456   8.097 -11.079  1.00  0.00    -0.237 OA
ATOM     61  O   UNL     1      -6.629   7.034  -9.191  1.00  0.00    -0.744 OA
ENDBRANCH  57  58
ENDBRANCH  25  50
BRANCH  37  62
ATOM     62  C   UNL     1       4.584   8.402  -7.251  1.00  0.00     0.058 A 
ATOM     63  C   UNL     1       4.041   8.591  -5.968  1.00  0.00     0.135 A 
ATOM     64  C   UNL     1       5.710   9.173  -7.590  1.00  0.00     0.135 A 
ATOM     65  F   UNL     1       3.042   7.816  -5.520  1.00  0.00    -0.206 F 
ATOM     66  C   UNL     1       4.566   9.530  -5.080  1.00  0.00     0.059 A 
ATOM     67  C   UNL     1       6.271  10.090  -6.706  1.00  0.00     0.059 A 
ATOM     68  F   UNL     1       6.317   8.993  -8.775  1.00  0.00    -0.206 F 
ATOM     69  C   UNL     1       5.686  10.272  -5.456  1.00  0.00     0.060 A 
BRANCH  69  70
ATOM     70  S   UNL     1       6.433  11.403  -4.262  1.00  0.00     0.124 S 
ATOM     71  O   UNL     1       5.516  12.537  -4.301  1.00  0.00    -0.237 OA
ATOM     72  O   UNL     1       6.423  10.621  -3.029  1.00  0.00    -0.237 OA
ATOM     73  O   UNL     1       7.761  11.654  -4.816  1.00  0.00    -0.744 OA
ENDBRANCH  69  70
ENDBRANCH  37  62
ENDBRANCH  11  12
ENDBRANCH   4   6
ENDBRANCH   3   4
ENDBRANCH   2   3
ENDBRANCH   1   2
BRANCH   1  74
ATOM     74  O   UNL     1       3.686  -1.383  -0.399  1.00  0.00    -0.462 OA
BRANCH  74  75
ATOM     75  C   UNL     1       2.621  -2.232  -0.470  1.00  0.00     0.309 C 
ATOM     76  O   UNL     1       2.123  -2.836   0.469  1.00  0.00    -0.252 OA
BRANCH  75  77
ATOM     77  C   UNL     1       2.156  -2.340  -1.910  1.00  0.00     0.111 C 
ATOM     78  C   UNL     1       0.741  -1.779  -2.057  1.00  0.00     0.016 C 
ATOM     79  C   UNL     1       2.252  -3.794  -2.373  1.00  0.00     0.093 C 
ATOM     80  C   UNL     1       0.242  -1.943  -3.488  1.00  0.00     0.001 C 
ATOM     81  C   UNL     1       1.558  -4.081  -3.717  1.00  0.00     0.014 C 
ATOM     82  C   UNL     1       0.191  -3.418  -3.858  1.00  0.00     0.001 C 
BRANCH  79  83
ATOM     83  C   UNL     1       3.684  -4.348  -2.296  1.00  0.00     0.228 C 
ATOM     84  O   UNL     1       3.999  -5.092  -1.360  1.00  0.00    -0.274 OA
ATOM     85  N   UNL     1       4.630  -4.132  -3.256  1.00  0.00    -0.323 N 
ATOM     86  H   UNL     1       5.457  -4.655  -3.154  1.00  0.00     0.170 HD
BRANCH  85  87
ATOM     87  C   UNL     1       4.600  -3.293  -4.342  1.00  0.00     0.079 A 
ATOM     88  C   UNL     1       4.432  -1.899  -4.451  1.00  0.00     0.161 A 
ATOM     89  C   UNL     1       4.801  -3.718  -5.635  1.00  0.00     0.135 A 
ATOM     90  N   UNL     1       4.396  -1.493  -5.721  1.00  0.00    -0.179 NA
ATOM     91  N   UNL     1       4.516  -2.636  -6.426  1.00  0.00    -0.266 N 
BRANCH  91  92
ATOM     92  C   UNL     1       4.370  -2.624  -7.878  1.00  0.00     0.179 C 
BRANCH  92  93
ATOM     93  C   UNL     1       2.929  -2.648  -8.355  1.00  0.00    -0.025 A 
ATOM     94  C   UNL     1       1.920  -1.883  -7.751  1.00  0.00     0.007 A 
ATOM     95  C   UNL     1       2.606  -3.347  -9.530  1.00  0.00     0.027 A 
ATOM     96  C   UNL     1       0.649  -1.774  -8.324  1.00  0.00     0.022 A 
ATOM     97  C   UNL     1       1.323  -3.266 -10.093  1.00  0.00     0.060 A 
ATOM     98  C   UNL     1       0.348  -2.461  -9.499  1.00  0.00     0.059 A 
ATOM     99  Cl  UNL     1       1.018  -4.191 -11.521  1.00  0.00    -0.083 Cl
ATOM    100  Cl  UNL     1      -1.237  -2.276 -10.159  1.00  0.00    -0.083 Cl
ENDBRANCH  92  93
ENDBRANCH  91  92
ENDBRANCH  85  87
ENDBRANCH  79  83
ENDBRANCH  75  77
ENDBRANCH  74  75
ENDBRANCH   1  74
TORSDOF 18
