REMARK SMILES O=C(OCCOC(=O)[C@@H]1[C@@H](C(=O)Nc2nc(-c3ccc(F)cc3)cs2)[C@H]2C=C[C@@H]1O2)c1ccc(-c2c3nc(c(-c4c(F)cc(S(=O)(=O)[O-])cc4F)c4ccc([nH]4)c(-c4c(F)cc(S(=O)(=O)[O-])cc4F)c4nc(c(-c5c(F)cc(S(=O)(=O)[O-])cc5F)c5ccc2[nH]5)C=C4)C=C3)cc1
REMARK SMILES IDX 4 1 3 2 2 3 1 4 31 5 32 6 96 7 33 8 95 9 34 10 35 11 36 12
REMARK SMILES IDX 89 13 37 14 94 15 88 16 90 17 38 18 93 19 87 20 86 21 39 23
REMARK SMILES IDX 73 24 52 25 72 26 53 27 56 28 71 29 91 30 54 31 55 32 70 34
REMARK SMILES IDX 92 35 57 36 40 37 41 38 50 39 42 40 43 41 49 42 51 43 44 44
REMARK SMILES IDX 45 45 46 46 47 47 48 48 74 49 75 50 84 51 76 52 77 53 83 54
REMARK SMILES IDX 85 55 78 56 79 57 80 58 81 59 82 60 58 61 59 62 68 63 60 64
REMARK SMILES IDX 61 65 67 66 69 67 62 68 63 69 64 70 65 71 66 72 5 73 6 74
REMARK SMILES IDX 7 75 8 76 9 77 10 78 29 79 26 80 28 81 30 82 27 83 11 84
REMARK SMILES IDX 12 85 13 86 14 88 15 89 25 90 16 91 24 92 17 93 18 94 23 95
REMARK SMILES IDX 19 96 22 97 20 98 21 99
REMARK H PARENT 90 22 56 33 13 87
REMARK Flexibility Score: inf
ROOT
ATOM      1  C   UNL     1       3.951  -1.088   0.786  1.00  0.00     0.275 C 
ENDROOT
BRANCH   1   2
ATOM      2  O   UNL     1       3.183  -0.109   1.506  1.00  0.00    -0.458 OA
BRANCH   2   3
ATOM      3  C   UNL     1       2.799   1.136   1.141  1.00  0.00     0.338 C 
ATOM      4  O   UNL     1       1.753   1.562   1.633  1.00  0.00    -0.246 OA
BRANCH   3   5
ATOM      5  C   UNL     1       3.573   2.057   0.228  1.00  0.00     0.060 A 
ATOM      6  C   UNL     1       4.809   1.828  -0.383  1.00  0.00     0.016 A 
ATOM      7  C   UNL     1       2.969   3.297  -0.046  1.00  0.00     0.016 A 
ATOM      8  C   UNL     1       5.329   2.720  -1.356  1.00  0.00     0.010 A 
ATOM      9  C   UNL     1       3.482   4.182  -1.010  1.00  0.00     0.010 A 
ATOM     10  C   UNL     1       4.632   3.866  -1.747  1.00  0.00    -0.014 A 
BRANCH  10  11
ATOM     11  C   UNL     1       5.205   4.885  -2.690  1.00  0.00     0.031 A 
ATOM     12  C   UNL     1       5.868   6.037  -2.025  1.00  0.00     0.074 A 
ATOM     13  C   UNL     1       5.074   4.911  -4.038  1.00  0.00     0.049 A 
ATOM     14  N   UNL     1       6.232   7.174  -2.539  1.00  0.00    -0.248 NA
ATOM     15  C   UNL     1       6.048   5.924  -0.568  1.00  0.00     0.031 C 
ATOM     16  C   UNL     1       4.370   3.918  -4.808  1.00  0.00     0.029 A 
ATOM     17  N   UNL     1       5.480   5.790  -5.021  1.00  0.00    -0.354 N 
ATOM     18  C   UNL     1       6.621   7.937  -1.457  1.00  0.00     0.074 A 
ATOM     19  C   UNL     1       6.377   7.163  -0.262  1.00  0.00     0.031 C 
ATOM     20  C   UNL     1       4.415   4.165  -6.121  1.00  0.00     0.029 A 
ATOM     21  C   UNL     1       5.114   5.419  -6.309  1.00  0.00     0.049 A 
ATOM     22  H   UNL     1       5.987   6.611  -4.826  1.00  0.00     0.167 HD
ATOM     23  C   UNL     1       7.164   9.170  -1.465  1.00  0.00     0.037 A 
ATOM     24  C   UNL     1       5.280   6.020  -7.508  1.00  0.00     0.037 A 
ATOM     25  C   UNL     1       7.414   9.912  -2.663  1.00  0.00     0.049 A 
ATOM     26  C   UNL     1       5.914   7.377  -7.504  1.00  0.00     0.074 A 
ATOM     27  C   UNL     1       7.997  11.155  -2.790  1.00  0.00     0.029 A 
ATOM     28  N   UNL     1       7.095   9.475  -3.943  1.00  0.00    -0.354 N 
ATOM     29  N   UNL     1       6.318   8.071  -6.467  1.00  0.00    -0.248 NA
ATOM     30  C   UNL     1       6.093   8.052  -8.795  1.00  0.00     0.031 C 
ATOM     31  C   UNL     1       8.005  11.485  -4.147  1.00  0.00     0.029 A 
ATOM     32  C   UNL     1       7.476  10.425  -4.871  1.00  0.00     0.049 A 
ATOM     33  H   UNL     1       6.662   8.617  -4.157  1.00  0.00     0.167 HD
ATOM     34  C   UNL     1       6.812   9.259  -6.976  1.00  0.00     0.074 A 
ATOM     35  C   UNL     1       6.665   9.190  -8.418  1.00  0.00     0.031 C 
ATOM     36  C   UNL     1       7.338  10.310  -6.304  1.00  0.00     0.037 A 
BRANCH  23  37
ATOM     37  C   UNL     1       7.496   9.740  -0.123  1.00  0.00     0.058 A 
ATOM     38  C   UNL     1       6.737  10.791   0.407  1.00  0.00     0.135 A 
ATOM     39  C   UNL     1       8.490   9.162   0.687  1.00  0.00     0.135 A 
ATOM     40  F   UNL     1       5.760  11.356  -0.319  1.00  0.00    -0.206 F 
ATOM     41  C   UNL     1       6.940  11.242   1.704  1.00  0.00     0.059 A 
ATOM     42  C   UNL     1       8.681   9.569   2.000  1.00  0.00     0.059 A 
ATOM     43  F   UNL     1       9.204   8.116   0.240  1.00  0.00    -0.206 F 
ATOM     44  C   UNL     1       7.905  10.615   2.497  1.00  0.00     0.060 A 
BRANCH  44  45
ATOM     45  S   UNL     1       8.086  11.140   4.212  1.00  0.00     0.124 S 
ATOM     46  O   UNL     1       8.742  12.433   4.055  1.00  0.00    -0.237 OA
ATOM     47  O   UNL     1       6.701  11.176   4.671  1.00  0.00    -0.237 OA
ATOM     48  O   UNL     1       8.905  10.084   4.802  1.00  0.00    -0.744 OA
ENDBRANCH  44  45
ENDBRANCH  23  37
BRANCH  24  49
ATOM     49  C   UNL     1       4.870   5.341  -8.779  1.00  0.00     0.058 A 
ATOM     50  C   UNL     1       3.524   5.105  -9.106  1.00  0.00     0.135 A 
ATOM     51  C   UNL     1       5.838   4.842  -9.668  1.00  0.00     0.135 A 
ATOM     52  F   UNL     1       2.549   5.557  -8.302  1.00  0.00    -0.206 F 
ATOM     53  C   UNL     1       3.156   4.359 -10.227  1.00  0.00     0.059 A 
ATOM     54  C   UNL     1       5.495   4.113 -10.808  1.00  0.00     0.059 A 
ATOM     55  F   UNL     1       7.140   5.053  -9.423  1.00  0.00    -0.206 F 
ATOM     56  C   UNL     1       4.151   3.853 -11.065  1.00  0.00     0.060 A 
BRANCH  56  57
ATOM     57  S   UNL     1       3.662   2.820 -12.469  1.00  0.00     0.124 S 
ATOM     58  O   UNL     1       3.121   1.645 -11.795  1.00  0.00    -0.237 OA
ATOM     59  O   UNL     1       2.689   3.668 -13.150  1.00  0.00    -0.237 OA
ATOM     60  O   UNL     1       4.916   2.607 -13.186  1.00  0.00    -0.744 OA
ENDBRANCH  56  57
ENDBRANCH  24  49
BRANCH  36  61
ATOM     61  C   UNL     1       7.850  11.462  -7.109  1.00  0.00     0.058 A 
ATOM     62  C   UNL     1       9.233  11.689  -7.183  1.00  0.00     0.135 A 
ATOM     63  C   UNL     1       6.983  12.424  -7.643  1.00  0.00     0.135 A 
ATOM     64  F   UNL     1      10.095  10.791  -6.681  1.00  0.00    -0.206 F 
ATOM     65  C   UNL     1       9.739  12.869  -7.706  1.00  0.00     0.059 A 
ATOM     66  C   UNL     1       7.470  13.601  -8.198  1.00  0.00     0.059 A 
ATOM     67  F   UNL     1       5.654  12.232  -7.607  1.00  0.00    -0.206 F 
ATOM     68  C   UNL     1       8.847  13.826  -8.193  1.00  0.00     0.060 A 
BRANCH  68  69
ATOM     69  S   UNL     1       9.523  15.387  -8.790  1.00  0.00     0.124 S 
ATOM     70  O   UNL     1      10.014  15.990  -7.556  1.00  0.00    -0.237 OA
ATOM     71  O   UNL     1      10.546  14.937  -9.729  1.00  0.00    -0.237 OA
ATOM     72  O   UNL     1       8.370  16.046  -9.397  1.00  0.00    -0.744 OA
ENDBRANCH  68  69
ENDBRANCH  36  61
ENDBRANCH  10  11
ENDBRANCH   3   5
ENDBRANCH   2   3
ENDBRANCH   1   2
BRANCH   1  73
ATOM     73  C   UNL     1       3.247  -1.674  -0.429  1.00  0.00     0.274 C 
BRANCH  73  74
ATOM     74  O   UNL     1       2.845  -0.658  -1.341  1.00  0.00    -0.462 OA
BRANCH  74  75
ATOM     75  C   UNL     1       1.586  -0.740  -1.839  1.00  0.00     0.312 C 
ATOM     76  O   UNL     1       0.741  -1.543  -1.482  1.00  0.00    -0.252 OA
BRANCH  75  77
ATOM     77  C   UNL     1       1.363   0.229  -2.966  1.00  0.00     0.147 C 
ATOM     78  C   UNL     1       2.563   1.170  -3.250  1.00  0.00     0.129 C 
ATOM     79  C   UNL     1       0.236   1.201  -2.564  1.00  0.00     0.157 C 
ATOM     80  C   UNL     1       1.811   2.527  -3.216  1.00  0.00     0.155 C 
ATOM     81  C   UNL     1      -0.292   1.910  -3.774  1.00  0.00     0.004 C 
ATOM     82  O   UNL     1       1.009   2.294  -2.020  1.00  0.00    -0.365 OA
ATOM     83  C   UNL     1       0.698   2.703  -4.197  1.00  0.00     0.004 C 
BRANCH  78  84
ATOM     84  C   UNL     1       3.318   0.828  -4.534  1.00  0.00     0.233 C 
ATOM     85  O   UNL     1       2.709   0.662  -5.592  1.00  0.00    -0.274 OA
ATOM     86  N   UNL     1       4.688   0.939  -4.590  1.00  0.00    -0.302 N 
ATOM     87  H   UNL     1       5.041   1.470  -5.340  1.00  0.00     0.172 HD
BRANCH  86  88
ATOM     88  C   UNL     1       5.625   0.411  -3.748  1.00  0.00     0.189 A 
ATOM     89  N   UNL     1       5.488  -0.480  -2.803  1.00  0.00    -0.220 NA
ATOM     90  S   UNL     1       7.236   0.896  -4.094  1.00  0.00    -0.105 S 
ATOM     91  C   UNL     1       6.750  -0.877  -2.361  1.00  0.00     0.084 A 
ATOM     92  C   UNL     1       7.817  -0.164  -2.866  1.00  0.00     0.097 A 
BRANCH  91  93
ATOM     93  C   UNL     1       6.861  -2.019  -1.474  1.00  0.00     0.001 A 
ATOM     94  C   UNL     1       6.330  -3.240  -1.919  1.00  0.00     0.013 A 
ATOM     95  C   UNL     1       7.296  -1.890  -0.150  1.00  0.00     0.013 A 
ATOM     96  C   UNL     1       6.128  -4.288  -1.023  1.00  0.00     0.040 A 
ATOM     97  C   UNL     1       7.086  -2.943   0.748  1.00  0.00     0.040 A 
ATOM     98  C   UNL     1       6.478  -4.117   0.309  1.00  0.00     0.123 A 
ATOM     99  F   UNL     1       6.186  -5.080   1.193  1.00  0.00    -0.207 F 
ENDBRANCH  91  93
ENDBRANCH  86  88
ENDBRANCH  78  84
ENDBRANCH  75  77
ENDBRANCH  74  75
ENDBRANCH  73  74
ENDBRANCH   1  73
TORSDOF 17
