REMARK SMILES O=C(Cn1c2ccccc2c(=O)c2cc(F)ccc21)OCCOC(=O)c1ccc(-c2c3nc(c(-c4c(F)cc(S(=O)(=O)[O-])cc4F)c4ccc([nH]4)c(-c4c(F)cc(S(=O)(=O)[O-])cc4F)c4nc(c(-c5c(F)cc(S(=O)(=O)[O-])cc5F)c5ccc2[nH]5)C=C4)C=C3)cc1
REMARK SMILES IDX 22 1 21 2 20 3 2 4 1 5 3 6 4 7 5 8 19 9 6 10 10 11 13 12
REMARK SMILES IDX 18 13 7 14 9 15 11 16 14 17 17 18 8 19 12 20 15 21 16 22
REMARK SMILES IDX 23 23 24 24 25 25 26 26 27 27 91 28 28 29 90 30 29 31 30 32
REMARK SMILES IDX 31 33 84 34 32 35 89 36 83 37 85 38 33 39 88 40 82 41 81 42
REMARK SMILES IDX 34 44 68 45 47 46 67 47 48 48 51 49 66 50 86 51 49 52 50 53
REMARK SMILES IDX 65 55 87 56 52 57 35 58 36 59 45 60 37 61 38 62 44 63 46 64
REMARK SMILES IDX 39 65 40 66 41 67 42 68 43 69 69 70 70 71 79 72 71 73 72 74
REMARK SMILES IDX 78 75 80 76 73 77 74 78 75 79 76 80 77 81 53 82 54 83 63 84
REMARK SMILES IDX 55 85 56 86 62 87 64 88 57 89 58 90 59 91 60 92 61 93
REMARK H PARENT 85 43 51 54
REMARK Flexibility Score: inf
ROOT
ATOM      1  C   UNL     1       4.398   0.656   2.328  1.00  0.00     0.275 C 
ENDROOT
BRANCH   1   2
ATOM      2  C   UNL     1       4.362   0.976   0.834  1.00  0.00     0.274 C 
BRANCH   2   3
ATOM      3  O   UNL     1       2.996   1.120   0.382  1.00  0.00    -0.461 OA
BRANCH   3   4
ATOM      4  C   UNL     1       2.320   0.230  -0.388  1.00  0.00     0.326 C 
ATOM      5  O   UNL     1       1.189   0.512  -0.787  1.00  0.00    -0.250 OA
BRANCH   4   6
ATOM      6  C   UNL     1       2.963  -1.092  -0.730  1.00  0.00     0.245 C 
BRANCH   6   7
ATOM      7  N   UNL     1       3.864  -1.256  -1.909  1.00  0.00    -0.329 N 
ATOM      8  C   UNL     1       4.410  -0.200  -2.667  1.00  0.00     0.053 A 
ATOM      9  C   UNL     1       4.309  -2.617  -2.084  1.00  0.00     0.053 A 
ATOM     10  C   UNL     1       4.005   1.142  -2.618  1.00  0.00     0.027 A 
ATOM     11  C   UNL     1       5.466  -0.458  -3.566  1.00  0.00     0.046 A 
ATOM     12  C   UNL     1       5.229  -2.934  -3.102  1.00  0.00     0.049 A 
ATOM     13  C   UNL     1       3.896  -3.696  -1.274  1.00  0.00     0.030 A 
ATOM     14  C   UNL     1       4.713   2.174  -3.255  1.00  0.00     0.002 A 
ATOM     15  C   UNL     1       6.181   0.565  -4.216  1.00  0.00     0.014 A 
ATOM     16  C   UNL     1       5.849  -1.847  -3.870  1.00  0.00     0.197 A 
ATOM     17  C   UNL     1       5.648  -4.248  -3.361  1.00  0.00     0.053 A 
ATOM     18  C   UNL     1       4.361  -5.003  -1.488  1.00  0.00     0.041 A 
ATOM     19  C   UNL     1       5.825   1.890  -4.028  1.00  0.00     0.001 A 
ATOM     20  O   UNL     1       6.694  -2.087  -4.727  1.00  0.00    -0.288 OA
ATOM     21  C   UNL     1       5.207  -5.271  -2.547  1.00  0.00     0.124 A 
ATOM     22  F   UNL     1       5.629  -6.523  -2.757  1.00  0.00    -0.207 F 
ENDBRANCH   6   7
ENDBRANCH   4   6
ENDBRANCH   3   4
ENDBRANCH   2   3
ENDBRANCH   1   2
BRANCH   1  23
ATOM     23  O   UNL     1       3.993  -0.708   2.534  1.00  0.00    -0.458 OA
BRANCH  23  24
ATOM     24  C   UNL     1       2.680  -0.908   2.811  1.00  0.00     0.338 C 
ATOM     25  O   UNL     1       1.844  -0.049   3.027  1.00  0.00    -0.246 OA
BRANCH  24  26
ATOM     26  C   UNL     1       2.363  -2.337   2.574  1.00  0.00     0.060 A 
ATOM     27  C   UNL     1       3.316  -3.341   2.776  1.00  0.00     0.016 A 
ATOM     28  C   UNL     1       1.095  -2.663   2.074  1.00  0.00     0.016 A 
ATOM     29  C   UNL     1       2.993  -4.668   2.492  1.00  0.00     0.010 A 
ATOM     30  C   UNL     1       0.770  -3.995   1.800  1.00  0.00     0.010 A 
ATOM     31  C   UNL     1       1.713  -5.008   2.020  1.00  0.00    -0.014 A 
BRANCH  31  32
ATOM     32  C   UNL     1       1.328  -6.437   1.948  1.00  0.00     0.031 A 
ATOM     33  C   UNL     1       1.306  -7.201   0.662  1.00  0.00     0.074 A 
ATOM     34  C   UNL     1       1.039  -7.063   3.104  1.00  0.00     0.049 A 
ATOM     35  N   UNL     1       1.282  -8.497   0.487  1.00  0.00    -0.248 NA
ATOM     36  C   UNL     1       1.340  -6.426  -0.584  1.00  0.00     0.031 C 
ATOM     37  C   UNL     1       0.992  -6.417   4.418  1.00  0.00     0.029 A 
ATOM     38  N   UNL     1       0.739  -8.373   3.362  1.00  0.00    -0.354 N 
ATOM     39  C   UNL     1       1.403  -8.698  -0.881  1.00  0.00     0.074 A 
ATOM     40  C   UNL     1       1.433  -7.388  -1.497  1.00  0.00     0.031 C 
ATOM     41  C   UNL     1       0.689  -7.337   5.346  1.00  0.00     0.029 A 
ATOM     42  C   UNL     1       0.511  -8.630   4.691  1.00  0.00     0.049 A 
ATOM     43  H   UNL     1       0.691  -9.064   2.663  1.00  0.00     0.167 HD
ATOM     44  C   UNL     1       1.498  -9.870  -1.551  1.00  0.00     0.037 A 
ATOM     45  C   UNL     1       0.197  -9.780   5.316  1.00  0.00     0.037 A 
ATOM     46  C   UNL     1       1.322 -11.165  -0.944  1.00  0.00     0.049 A 
ATOM     47  C   UNL     1       0.122 -11.050   4.520  1.00  0.00     0.074 A 
ATOM     48  C   UNL     1       1.394 -12.414  -1.538  1.00  0.00     0.029 A 
ATOM     49  N   UNL     1       0.974 -11.376   0.383  1.00  0.00    -0.354 N 
ATOM     50  N   UNL     1       0.388 -11.240   3.250  1.00  0.00    -0.248 NA
ATOM     51  C   UNL     1      -0.289 -12.261   5.240  1.00  0.00     0.031 C 
ATOM     52  C   UNL     1       1.016 -13.372  -0.589  1.00  0.00     0.029 A 
ATOM     53  C   UNL     1       0.762 -12.726   0.610  1.00  0.00     0.049 A 
ATOM     54  H   UNL     1       0.889 -10.670   1.063  1.00  0.00     0.167 HD
ATOM     55  C   UNL     1       0.194 -12.597   3.021  1.00  0.00     0.074 A 
ATOM     56  C   UNL     1      -0.203 -13.180   4.287  1.00  0.00     0.031 C 
ATOM     57  C   UNL     1       0.340 -13.294   1.867  1.00  0.00     0.037 A 
BRANCH  44  58
ATOM     58  C   UNL     1       1.806  -9.814  -3.019  1.00  0.00     0.058 A 
ATOM     59  C   UNL     1       3.112  -9.552  -3.466  1.00  0.00     0.135 A 
ATOM     60  C   UNL     1       0.828 -10.105  -3.981  1.00  0.00     0.135 A 
ATOM     61  F   UNL     1       4.082  -9.263  -2.584  1.00  0.00    -0.206 F 
ATOM     62  C   UNL     1       3.437  -9.581  -4.819  1.00  0.00     0.059 A 
ATOM     63  C   UNL     1       1.133 -10.153  -5.338  1.00  0.00     0.059 A 
ATOM     64  F   UNL     1      -0.435 -10.357  -3.603  1.00  0.00    -0.206 F 
ATOM     65  C   UNL     1       2.440  -9.887  -5.748  1.00  0.00     0.060 A 
BRANCH  65  66
ATOM     66  S   UNL     1       2.884  -9.950  -7.498  1.00  0.00     0.124 S 
ATOM     67  O   UNL     1       3.153  -8.543  -7.782  1.00  0.00    -0.237 OA
ATOM     68  O   UNL     1       4.048 -10.830  -7.492  1.00  0.00    -0.237 OA
ATOM     69  O   UNL     1       1.690 -10.498  -8.133  1.00  0.00    -0.744 OA
ENDBRANCH  65  66
ENDBRANCH  44  58
BRANCH  45  70
ATOM     70  C   UNL     1      -0.056  -9.763   6.777  1.00  0.00     0.058 A 
ATOM     71  C   UNL     1       0.863 -10.318   7.677  1.00  0.00     0.135 A 
ATOM     72  C   UNL     1      -1.199  -9.138   7.302  1.00  0.00     0.135 A 
ATOM     73  F   UNL     1       1.967 -10.926   7.220  1.00  0.00    -0.206 F 
ATOM     74  C   UNL     1       0.659 -10.253   9.051  1.00  0.00     0.059 A 
ATOM     75  C   UNL     1      -1.413  -9.042   8.671  1.00  0.00     0.059 A 
ATOM     76  F   UNL     1      -2.097  -8.578   6.477  1.00  0.00    -0.206 F 
ATOM     77  C   UNL     1      -0.479  -9.606   9.538  1.00  0.00     0.060 A 
BRANCH  77  78
ATOM     78  S   UNL     1      -0.695  -9.463  11.325  1.00  0.00     0.124 S 
ATOM     79  O   UNL     1      -1.032 -10.834  11.690  1.00  0.00    -0.237 OA
ATOM     80  O   UNL     1       0.619  -8.992  11.754  1.00  0.00    -0.237 OA
ATOM     81  O   UNL     1      -1.775  -8.490  11.456  1.00  0.00    -0.744 OA
ENDBRANCH  77  78
ENDBRANCH  45  70
BRANCH  57  82
ATOM     82  C   UNL     1       0.054 -14.769   1.912  1.00  0.00     0.058 A 
ATOM     83  C   UNL     1      -1.260 -15.256   2.002  1.00  0.00     0.135 A 
ATOM     84  C   UNL     1       1.095 -15.705   1.811  1.00  0.00     0.135 A 
ATOM     85  F   UNL     1      -2.290 -14.403   2.112  1.00  0.00    -0.206 F 
ATOM     86  C   UNL     1      -1.530 -16.620   2.006  1.00  0.00     0.059 A 
ATOM     87  C   UNL     1       0.846 -17.074   1.787  1.00  0.00     0.059 A 
ATOM     88  F   UNL     1       2.369 -15.292   1.716  1.00  0.00    -0.206 F 
ATOM     89  C   UNL     1      -0.470 -17.522   1.894  1.00  0.00     0.060 A 
BRANCH  89  90
ATOM     90  S   UNL     1      -0.839 -19.289   1.860  1.00  0.00     0.124 S 
ATOM     91  O   UNL     1      -1.193 -19.543   3.252  1.00  0.00    -0.237 OA
ATOM     92  O   UNL     1      -1.940 -19.359   0.903  1.00  0.00    -0.237 OA
ATOM     93  O   UNL     1       0.413 -19.890   1.411  1.00  0.00    -0.744 OA
ENDBRANCH  89  90
ENDBRANCH  57  82
ENDBRANCH  31  32
ENDBRANCH  24  26
ENDBRANCH  23  24
ENDBRANCH   1  23
TORSDOF 15
