REMARK SMILES C[C@H]1[C@@H](C(=O)OCCOC(=O)c2ccc(-c3c4nc(c(-c5c(F)cc(S(=O)(=O)[O-])cc5F)c5ccc([nH]5)c(-c5c(F)cc(S(=O)(=O)[O-])cc5F)c5nc(c(-c6c(F)cc(S(=O)(=O)[O-])cc6F)c6ccc3[nH]6)C=C5)C=C4)cc2)CCN1S(=O)(=O)Cc1cccc(C#N)c1
REMARK SMILES IDX 7 1 6 2 4 3 5 4 3 5 1 6 2 7 80 8 78 9 79 10 81 11 82 12
REMARK SMILES IDX 83 13 84 14 85 15 86 16 92 17 87 18 89 19 88 20 90 21 91 22
REMARK SMILES IDX 8 23 9 24 10 25 11 26 12 27 13 28 77 29 14 30 76 31 15 32
REMARK SMILES IDX 16 33 17 34 70 35 18 36 75 37 69 38 71 39 19 40 74 41 68 42
REMARK SMILES IDX 67 43 20 45 54 46 33 47 53 48 34 49 37 50 52 51 72 52 35 53
REMARK SMILES IDX 36 54 51 56 73 57 38 58 21 59 22 60 31 61 23 62 24 63 30 64
REMARK SMILES IDX 32 65 25 66 26 67 27 68 28 69 29 70 55 71 56 72 65 73 57 74
REMARK SMILES IDX 58 75 64 76 66 77 59 78 60 79 61 80 62 81 63 82 39 83 40 84
REMARK SMILES IDX 49 85 41 86 42 87 48 88 50 89 43 90 44 91 45 92 46 93 47 94
REMARK H PARENT 71 44 37 55
REMARK Flexibility Score: inf
ROOT
ATOM      1  C   UNL     1       1.908   2.695  -2.611  1.00  0.00     0.274 C 
ENDROOT
BRANCH   1   2
ATOM      2  O   UNL     1       1.521   1.762  -1.580  1.00  0.00    -0.462 OA
BRANCH   2   3
ATOM      3  C   UNL     1       0.732   2.175  -0.566  1.00  0.00     0.310 C 
ATOM      4  O   UNL     1       0.332   3.327  -0.446  1.00  0.00    -0.252 OA
BRANCH   3   5
ATOM      5  C   UNL     1       0.329   1.069   0.408  1.00  0.00     0.118 C 
ATOM      6  C   UNL     1       2.205  -0.516  -0.500  1.00  0.00     0.027 C 
ATOM      7  C   UNL     1       1.220  -0.172   0.613  1.00  0.00     0.084 C 
ATOM      8  N   UNL     1       0.275  -1.340   0.742  1.00  0.00    -0.198 NA
ATOM      9  C   UNL     1      -1.073   0.516   0.158  1.00  0.00     0.034 C 
ATOM     10  C   UNL     1      -0.905  -0.969  -0.084  1.00  0.00     0.103 C 
BRANCH   8  11
ATOM     11  S   UNL     1      -0.134  -1.875   2.305  1.00  0.00     0.218 S 
ATOM     12  O   UNL     1      -0.473  -0.698   3.080  1.00  0.00    -0.212 OA
ATOM     13  O   UNL     1      -1.089  -2.957   2.170  1.00  0.00    -0.212 OA
BRANCH  11  14
ATOM     14  C   UNL     1       1.394  -2.546   2.979  1.00  0.00     0.189 C 
BRANCH  14  15
ATOM     15  C   UNL     1       2.009  -3.584   2.077  1.00  0.00    -0.030 A 
ATOM     16  C   UNL     1       1.440  -4.856   1.934  1.00  0.00     0.005 A 
ATOM     17  C   UNL     1       3.178  -3.290   1.360  1.00  0.00     0.024 A 
ATOM     18  C   UNL     1       1.998  -5.793   1.061  1.00  0.00     0.002 A 
ATOM     19  C   UNL     1       3.711  -4.207   0.445  1.00  0.00     0.052 A 
ATOM     20  C   UNL     1       3.123  -5.464   0.304  1.00  0.00     0.019 A 
BRANCH  19  21
ATOM     21  C   UNL     1       4.830  -3.831  -0.373  1.00  0.00     0.099 C 
ATOM     22  N   UNL     1       5.725  -3.508  -1.032  1.00  0.00    -0.192 NA
ENDBRANCH  19  21
ENDBRANCH  14  15
ENDBRANCH  11  14
ENDBRANCH   8  11
ENDBRANCH   3   5
ENDBRANCH   2   3
ENDBRANCH   1   2
BRANCH   1  23
ATOM     23  C   UNL     1       1.247   2.305  -3.932  1.00  0.00     0.275 C 
BRANCH  23  24
ATOM     24  O   UNL     1      -0.152   2.629  -3.890  1.00  0.00    -0.458 OA
BRANCH  24  25
ATOM     25  C   UNL     1      -0.944   1.622  -3.466  1.00  0.00     0.338 C 
ATOM     26  O   UNL     1      -0.616   0.478  -3.197  1.00  0.00    -0.246 OA
BRANCH  25  27
ATOM     27  C   UNL     1      -2.307   2.114  -3.260  1.00  0.00     0.060 A 
ATOM     28  C   UNL     1      -2.634   2.686  -2.031  1.00  0.00     0.016 A 
ATOM     29  C   UNL     1      -3.293   1.815  -4.194  1.00  0.00     0.016 A 
ATOM     30  C   UNL     1      -3.965   2.829  -1.671  1.00  0.00     0.010 A 
ATOM     31  C   UNL     1      -4.620   2.105  -3.885  1.00  0.00     0.010 A 
ATOM     32  C   UNL     1      -4.971   2.587  -2.610  1.00  0.00    -0.014 A 
BRANCH  32  33
ATOM     33  C   UNL     1      -6.391   2.878  -2.293  1.00  0.00     0.031 A 
ATOM     34  C   UNL     1      -7.429   1.805  -2.452  1.00  0.00     0.074 A 
ATOM     35  C   UNL     1      -6.742   4.132  -1.943  1.00  0.00     0.049 A 
ATOM     36  N   UNL     1      -8.727   1.920  -2.535  1.00  0.00    -0.248 NA
ATOM     37  C   UNL     1      -6.939   0.419  -2.555  1.00  0.00     0.031 C 
ATOM     38  C   UNL     1      -5.813   5.241  -1.702  1.00  0.00     0.029 A 
ATOM     39  N   UNL     1      -7.978   4.696  -1.759  1.00  0.00    -0.354 N 
ATOM     40  C   UNL     1      -9.208   0.634  -2.756  1.00  0.00     0.074 A 
ATOM     41  C   UNL     1      -8.061  -0.246  -2.798  1.00  0.00     0.031 C 
ATOM     42  C   UNL     1      -6.507   6.346  -1.403  1.00  0.00     0.029 A 
ATOM     43  C   UNL     1      -7.926   6.054  -1.542  1.00  0.00     0.049 A 
ATOM     44  H   UNL     1      -8.817   4.183  -1.781  1.00  0.00     0.167 HD
ATOM     45  C   UNL     1     -10.494   0.242  -2.918  1.00  0.00     0.037 A 
ATOM     46  C   UNL     1      -8.901   6.980  -1.533  1.00  0.00     0.037 A 
ATOM     47  C   UNL     1     -11.613   1.147  -2.843  1.00  0.00     0.049 A 
ATOM     48  C   UNL     1     -10.311   6.534  -1.784  1.00  0.00     0.074 A 
ATOM     49  C   UNL     1     -12.960   0.862  -2.973  1.00  0.00     0.029 A 
ATOM     50  N   UNL     1     -11.512   2.513  -2.615  1.00  0.00    -0.354 N 
ATOM     51  N   UNL     1     -10.757   5.325  -2.030  1.00  0.00    -0.248 NA
ATOM     52  C   UNL     1     -11.350   7.570  -1.769  1.00  0.00     0.031 C 
ATOM     53  C   UNL     1     -13.669   2.063  -2.881  1.00  0.00     0.029 A 
ATOM     54  C   UNL     1     -12.771   3.088  -2.622  1.00  0.00     0.049 A 
ATOM     55  H   UNL     1     -10.670   3.001  -2.470  1.00  0.00     0.167 HD
ATOM     56  C   UNL     1     -12.134   5.448  -2.158  1.00  0.00     0.074 A 
ATOM     57  C   UNL     1     -12.446   6.850  -1.970  1.00  0.00     0.031 C 
ATOM     58  C   UNL     1     -13.056   4.485  -2.401  1.00  0.00     0.037 A 
BRANCH  45  59
ATOM     59  C   UNL     1     -10.762  -1.206  -3.233  1.00  0.00     0.058 A 
ATOM     60  C   UNL     1     -10.568  -2.228  -2.291  1.00  0.00     0.135 A 
ATOM     61  C   UNL     1     -11.268  -1.572  -4.493  1.00  0.00     0.135 A 
ATOM     62  F   UNL     1     -10.074  -1.942  -1.076  1.00  0.00    -0.206 F 
ATOM     63  C   UNL     1     -10.841  -3.559  -2.593  1.00  0.00     0.059 A 
ATOM     64  C   UNL     1     -11.578  -2.892  -4.806  1.00  0.00     0.059 A 
ATOM     65  F   UNL     1     -11.473  -0.638  -5.436  1.00  0.00    -0.206 F 
ATOM     66  C   UNL     1     -11.347  -3.882  -3.853  1.00  0.00     0.060 A 
BRANCH  66  67
ATOM     67  S   UNL     1     -11.702  -5.612  -4.226  1.00  0.00     0.124 S 
ATOM     68  O   UNL     1     -10.357  -6.173  -4.317  1.00  0.00    -0.237 OA
ATOM     69  O   UNL     1     -12.483  -6.027  -3.065  1.00  0.00    -0.237 OA
ATOM     70  O   UNL     1     -12.439  -5.547  -5.484  1.00  0.00    -0.744 OA
ENDBRANCH  66  67
ENDBRANCH  45  59
BRANCH  46  71
ATOM     71  C   UNL     1      -8.559   8.411  -1.321  1.00  0.00     0.058 A 
ATOM     72  C   UNL     1      -8.939   9.074  -0.147  1.00  0.00     0.135 A 
ATOM     73  C   UNL     1      -7.808   9.133  -2.265  1.00  0.00     0.135 A 
ATOM     74  F   UNL     1      -9.658   8.428   0.784  1.00  0.00    -0.206 F 
ATOM     75  C   UNL     1      -8.602  10.404   0.081  1.00  0.00     0.059 A 
ATOM     76  C   UNL     1      -7.430  10.454  -2.046  1.00  0.00     0.059 A 
ATOM     77  F   UNL     1      -7.398   8.540  -3.397  1.00  0.00    -0.206 F 
ATOM     78  C   UNL     1      -7.843  11.084  -0.874  1.00  0.00     0.060 A 
BRANCH  78  79
ATOM     79  S   UNL     1      -7.378  12.798  -0.546  1.00  0.00     0.124 S 
ATOM     80  O   UNL     1      -8.659  13.480  -0.688  1.00  0.00    -0.237 OA
ATOM     81  O   UNL     1      -6.845  12.715   0.810  1.00  0.00    -0.237 OA
ATOM     82  O   UNL     1      -6.392  13.083  -1.584  1.00  0.00    -0.744 OA
ENDBRANCH  78  79
ENDBRANCH  46  71
BRANCH  58  83
ATOM     83  C   UNL     1     -14.501   4.893  -2.402  1.00  0.00     0.058 A 
ATOM     84  C   UNL     1     -15.073   5.601  -3.469  1.00  0.00     0.135 A 
ATOM     85  C   UNL     1     -15.345   4.470  -1.361  1.00  0.00     0.135 A 
ATOM     86  F   UNL     1     -14.305   6.040  -4.479  1.00  0.00    -0.206 F 
ATOM     87  C   UNL     1     -16.436   5.872  -3.506  1.00  0.00     0.059 A 
ATOM     88  C   UNL     1     -16.714   4.704  -1.393  1.00  0.00     0.059 A 
ATOM     89  F   UNL     1     -14.843   3.787  -0.320  1.00  0.00    -0.206 F 
ATOM     90  C   UNL     1     -17.250   5.405  -2.471  1.00  0.00     0.060 A 
BRANCH  90  91
ATOM     91  S   UNL     1     -19.030   5.680  -2.583  1.00  0.00     0.124 S 
ATOM     92  O   UNL     1     -19.122   7.117  -2.347  1.00  0.00    -0.237 OA
ATOM     93  O   UNL     1     -19.327   5.240  -3.942  1.00  0.00    -0.237 OA
ATOM     94  O   UNL     1     -19.573   4.835  -1.524  1.00  0.00    -0.744 OA
ENDBRANCH  90  91
ENDBRANCH  58  83
ENDBRANCH  32  33
ENDBRANCH  25  27
ENDBRANCH  24  25
ENDBRANCH  23  24
ENDBRANCH   1  23
TORSDOF 18
