REMARK SMILES Cc1ccc(C(N)=O)c(NCc2ccc(C(=O)OCCOC(=O)c3ccc(-c4c5nc(c(-c6c(F)cc(S(=O)(=O)[O-])cc6F)c6ccc([nH]6)c(-c6c(F)cc(S(=O)(=O)[O-])cc6F)c6nc(c(-c7c(F)cc(S(=O)(=O)[O-])cc7F)c7ccc4[nH]7)C=C6)C=C5)cc3)o2)n1
REMARK SMILES IDX 19 1 18 2 16 3 17 4 15 5 12 6 13 7 90 8 14 9 11 10 10 11
REMARK SMILES IDX 9 13 1 14 2 15 3 16 91 17 4 18 5 19 6 20 7 21 8 22 20 25
REMARK SMILES IDX 21 26 22 27 23 28 24 29 25 30 89 31 26 32 88 33 27 34 28 35
REMARK SMILES IDX 29 36 82 37 30 38 87 39 81 40 83 41 31 42 86 43 80 44 79 45
REMARK SMILES IDX 32 47 66 48 45 49 65 50 46 51 49 52 64 53 84 54 47 55 48 56
REMARK SMILES IDX 63 58 85 59 50 60 33 61 34 62 43 63 35 64 36 65 42 66 44 67
REMARK SMILES IDX 37 68 38 69 39 70 40 71 41 72 67 73 68 74 77 75 69 76 70 77
REMARK SMILES IDX 76 78 78 79 71 80 72 81 73 82 74 83 75 84 51 85 52 86 61 87
REMARK SMILES IDX 53 88 54 89 60 90 62 91 55 92 56 93 57 94 58 95 59 96
REMARK H PARENT 10 12 7 23 7 24 83 46 49 57
REMARK Flexibility Score: inf
ROOT
ATOM      1  C   UNL     1      -0.973   9.134  -4.760  1.00  0.00     0.275 C 
ENDROOT
BRANCH   1   2
ATOM      2  O   UNL     1      -1.075   7.726  -4.479  1.00  0.00    -0.456 OA
BRANCH   2   3
ATOM      3  C   UNL     1      -0.278   7.271  -3.463  1.00  0.00     0.374 C 
ATOM      4  O   UNL     1       0.568   7.948  -2.899  1.00  0.00    -0.242 OA
BRANCH   3   5
ATOM      5  C   UNL     1      -0.656   5.923  -3.099  1.00  0.00     0.211 A 
ATOM      6  C   UNL     1      -0.843   4.266  -1.647  1.00  0.00     0.124 A 
ATOM      7  C   UNL     1      -1.541   3.879  -2.772  1.00  0.00     0.048 A 
ATOM      8  O   UNL     1      -0.248   5.470  -1.872  1.00  0.00    -0.452 OA
ATOM      9  C   UNL     1      -1.434   4.950  -3.698  1.00  0.00     0.058 A 
BRANCH   6  10
ATOM     10  C   UNL     1      -0.664   3.706  -0.273  1.00  0.00     0.190 C 
BRANCH  10  11
ATOM     11  N   UNL     1      -1.527   2.574   0.047  1.00  0.00    -0.362 N 
ATOM     12  H   UNL     1      -2.462   2.723   0.318  1.00  0.00     0.162 HD
BRANCH  11  13
ATOM     13  C   UNL     1      -1.016   1.283  -0.036  1.00  0.00     0.139 A 
ATOM     14  C   UNL     1       2.394  -0.111  -0.102  1.00  0.00     0.067 C 
ATOM     15  C   UNL     1       0.896  -0.071  -0.096  1.00  0.00     0.040 A 
ATOM     16  C   UNL     1       0.144  -1.231  -0.025  1.00  0.00     0.024 A 
ATOM     17  N   UNL     1       0.330   1.157  -0.123  1.00  0.00    -0.236 NA
ATOM     18  C   UNL     1      -1.240  -1.115   0.015  1.00  0.00     0.019 A 
ATOM     19  C   UNL     1      -1.843   0.151   0.006  1.00  0.00     0.081 A 
BRANCH  19  20
ATOM     20  C   UNL     1      -3.332   0.185   0.028  1.00  0.00     0.252 C 
ATOM     21  N   UNL     1      -3.960   1.350  -0.308  1.00  0.00    -0.365 N 
ATOM     22  O   UNL     1      -3.991  -0.813   0.302  1.00  0.00    -0.269 OA
ATOM     23  H   UNL     1      -3.430   2.150  -0.527  1.00  0.00     0.159 HD
ATOM     24  H   UNL     1      -4.944   1.390  -0.330  1.00  0.00     0.159 HD
ENDBRANCH  19  20
ENDBRANCH  11  13
ENDBRANCH  10  11
ENDBRANCH   6  10
ENDBRANCH   3   5
ENDBRANCH   2   3
ENDBRANCH   1   2
BRANCH   1  25
ATOM     25  C   UNL     1      -2.079   9.935  -4.061  1.00  0.00     0.275 C 
BRANCH  25  26
ATOM     26  O   UNL     1      -1.888  10.005  -2.635  1.00  0.00    -0.458 OA
BRANCH  26  27
ATOM     27  C   UNL     1      -2.520   9.044  -1.918  1.00  0.00     0.338 C 
ATOM     28  O   UNL     1      -3.230   8.155  -2.360  1.00  0.00    -0.246 OA
BRANCH  27  29
ATOM     29  C   UNL     1      -2.123   9.125  -0.500  1.00  0.00     0.060 A 
ATOM     30  C   UNL     1      -1.553   7.989   0.077  1.00  0.00     0.016 A 
ATOM     31  C   UNL     1      -2.364  10.261   0.274  1.00  0.00     0.016 A 
ATOM     32  C   UNL     1      -1.216   7.977   1.427  1.00  0.00     0.010 A 
ATOM     33  C   UNL     1      -2.030  10.248   1.636  1.00  0.00     0.010 A 
ATOM     34  C   UNL     1      -1.462   9.103   2.222  1.00  0.00    -0.014 A 
BRANCH  34  35
ATOM     35  C   UNL     1      -1.157   9.047   3.673  1.00  0.00     0.031 A 
ATOM     36  C   UNL     1      -2.272   8.890   4.668  1.00  0.00     0.074 A 
ATOM     37  C   UNL     1       0.122   9.091   4.090  1.00  0.00     0.049 A 
ATOM     38  N   UNL     1      -2.214   8.843   5.973  1.00  0.00    -0.248 NA
ATOM     39  C   UNL     1      -3.632   8.765   4.121  1.00  0.00     0.031 C 
ATOM     40  C   UNL     1       1.291   9.200   3.216  1.00  0.00     0.029 A 
ATOM     41  N   UNL     1       0.653   9.044   5.355  1.00  0.00    -0.354 N 
ATOM     42  C   UNL     1      -3.526   8.698   6.408  1.00  0.00     0.074 A 
ATOM     43  C   UNL     1      -4.361   8.682   5.225  1.00  0.00     0.031 C 
ATOM     44  C   UNL     1       2.402   9.210   3.971  1.00  0.00     0.029 A 
ATOM     45  C   UNL     1       2.024   9.146   5.380  1.00  0.00     0.049 A 
ATOM     46  H   UNL     1       0.105   8.948   6.167  1.00  0.00     0.167 HD
ATOM     47  C   UNL     1      -3.989   8.584   7.676  1.00  0.00     0.037 A 
ATOM     48  C   UNL     1       2.876   9.204   6.422  1.00  0.00     0.037 A 
ATOM     49  C   UNL     1      -3.151   8.592   8.848  1.00  0.00     0.049 A 
ATOM     50  C   UNL     1       2.333   9.126   7.823  1.00  0.00     0.074 A 
ATOM     51  C   UNL     1      -3.527   8.472  10.175  1.00  0.00     0.029 A 
ATOM     52  N   UNL     1      -1.771   8.729   8.835  1.00  0.00    -0.354 N 
ATOM     53  N   UNL     1       1.089   8.987   8.217  1.00  0.00    -0.248 NA
ATOM     54  C   UNL     1       3.306   9.215   8.921  1.00  0.00     0.031 C 
ATOM     55  C   UNL     1      -2.377   8.575  10.967  1.00  0.00     0.029 A 
ATOM     56  C   UNL     1      -1.281   8.716  10.131  1.00  0.00     0.049 A 
ATOM     57  H   UNL     1      -1.220   8.822   8.024  1.00  0.00     0.167 HD
ATOM     58  C   UNL     1       1.133   8.954   9.607  1.00  0.00     0.074 A 
ATOM     59  C   UNL     1       2.526   9.074   9.984  1.00  0.00     0.031 C 
ATOM     60  C   UNL     1       0.111   8.835  10.490  1.00  0.00     0.037 A 
BRANCH  47  61
ATOM     61  C   UNL     1      -5.475   8.469   7.863  1.00  0.00     0.058 A 
ATOM     62  C   UNL     1      -6.170   7.289   7.554  1.00  0.00     0.135 A 
ATOM     63  C   UNL     1      -6.211   9.545   8.384  1.00  0.00     0.135 A 
ATOM     64  F   UNL     1      -5.518   6.236   7.037  1.00  0.00    -0.206 F 
ATOM     65  C   UNL     1      -7.547   7.189   7.731  1.00  0.00     0.059 A 
ATOM     66  C   UNL     1      -7.585   9.460   8.591  1.00  0.00     0.059 A 
ATOM     67  F   UNL     1      -5.595  10.697   8.695  1.00  0.00    -0.206 F 
ATOM     68  C   UNL     1      -8.246   8.283   8.246  1.00  0.00     0.060 A 
BRANCH  68  69
ATOM     69  S   UNL     1     -10.033   8.143   8.463  1.00  0.00     0.124 S 
ATOM     70  O   UNL     1     -10.501   8.249   7.084  1.00  0.00    -0.237 OA
ATOM     71  O   UNL     1     -10.174   6.828   9.080  1.00  0.00    -0.237 OA
ATOM     72  O   UNL     1     -10.360   9.275   9.325  1.00  0.00    -0.744 OA
ENDBRANCH  68  69
ENDBRANCH  47  61
BRANCH  48  73
ATOM     73  C   UNL     1       4.334   9.361   6.177  1.00  0.00     0.058 A 
ATOM     74  C   UNL     1       5.230   8.311   6.426  1.00  0.00     0.135 A 
ATOM     75  C   UNL     1       4.858  10.564   5.677  1.00  0.00     0.135 A 
ATOM     76  F   UNL     1       4.778   7.146   6.914  1.00  0.00    -0.206 F 
ATOM     77  C   UNL     1       6.595   8.450   6.197  1.00  0.00     0.059 A 
ATOM     78  C   UNL     1       6.216  10.719   5.418  1.00  0.00     0.059 A 
ATOM     79  F   UNL     1       4.041  11.595   5.414  1.00  0.00    -0.206 F 
ATOM     80  C   UNL     1       7.079   9.658   5.691  1.00  0.00     0.060 A 
BRANCH  80  81
ATOM     81  S   UNL     1       8.845   9.813   5.347  1.00  0.00     0.124 S 
ATOM     82  O   UNL     1       9.391   9.980   6.689  1.00  0.00    -0.237 OA
ATOM     83  O   UNL     1       9.145   8.546   4.689  1.00  0.00    -0.237 OA
ATOM     84  O   UNL     1       8.915  10.990   4.485  1.00  0.00    -0.744 OA
ENDBRANCH  80  81
ENDBRANCH  48  73
BRANCH  60  85
ATOM     85  C   UNL     1       0.462   8.803  11.951  1.00  0.00     0.058 A 
ATOM     86  C   UNL     1       0.840   9.965  12.642  1.00  0.00     0.135 A 
ATOM     87  C   UNL     1       0.372   7.606  12.679  1.00  0.00     0.135 A 
ATOM     88  F   UNL     1       0.947  11.133  11.990  1.00  0.00    -0.206 F 
ATOM     89  C   UNL     1       1.136   9.937  14.001  1.00  0.00     0.059 A 
ATOM     90  C   UNL     1       0.641   7.559  14.043  1.00  0.00     0.059 A 
ATOM     91  F   UNL     1       0.005   6.468  12.067  1.00  0.00    -0.206 F 
ATOM     92  C   UNL     1       1.034   8.729  14.694  1.00  0.00     0.060 A 
BRANCH  92  93
ATOM     93  S   UNL     1       1.387   8.710  16.464  1.00  0.00     0.124 S 
ATOM     94  O   UNL     1       2.845   8.762  16.473  1.00  0.00    -0.237 OA
ATOM     95  O   UNL     1       0.707   9.913  16.934  1.00  0.00    -0.237 OA
ATOM     96  O   UNL     1       0.800   7.451  16.913  1.00  0.00    -0.744 OA
ENDBRANCH  92  93
ENDBRANCH  60  85
ENDBRANCH  34  35
ENDBRANCH  27  29
ENDBRANCH  26  27
ENDBRANCH  25  26
ENDBRANCH   1  25
TORSDOF 18
