REMARK SMILES [NH3+][C@@H](Cc1cn(-c2nc(Cl)nc(N3CCOCC3)n2)c2ccccc12)C(=O)OCCOC(=O)c1ccc(-c2c3nc(c(-c4c(F)cc(S(=O)(=O)[O-])cc4F)c4ccc([nH]4)c(-c4c(F)cc(S(=O)(=O)[O-])cc4F)c4nc(c(-c5c(F)cc(S(=O)(=O)[O-])cc5F)c5ccc2[nH]5)C=C4)C=C3)cc1
REMARK SMILES IDX 29 1 28 2 26 3 27 4 2 5 1 6 3 10 4 11 5 12 25 13 6 14 20 15
REMARK SMILES IDX 24 16 21 17 23 18 22 19 7 20 8 21 19 22 9 23 12 24 10 25
REMARK SMILES IDX 11 26 13 27 14 28 18 29 15 30 17 31 16 32 30 33 31 34 32 35
REMARK SMILES IDX 33 36 34 37 35 38 99 39 36 40 98 41 37 42 38 43 39 44 92 45
REMARK SMILES IDX 40 46 97 47 91 48 93 49 41 50 96 51 90 52 89 53 42 55 76 56
REMARK SMILES IDX 55 57 75 58 56 59 59 60 74 61 94 62 57 63 58 64 73 66 95 67
REMARK SMILES IDX 60 68 43 69 44 70 53 71 45 72 46 73 52 74 54 75 47 76 48 77
REMARK SMILES IDX 49 78 50 79 51 80 77 81 78 82 87 83 79 84 80 85 86 86 88 87
REMARK SMILES IDX 81 88 82 89 83 90 84 91 85 92 61 93 62 94 71 95 63 96 64 97
REMARK SMILES IDX 70 98 72 99 65 100 66 101 67 102 68 103 69 104
REMARK H PARENT 1 7 1 8 1 9 93 54 59 65
REMARK Flexibility Score: inf
ROOT
ATOM      1  C   UNL     1      -3.029  -0.317  -0.524  1.00  0.00     0.274 C 
ENDROOT
BRANCH   1   2
ATOM      2  O   UNL     1      -1.605  -0.500  -0.389  1.00  0.00    -0.458 OA
BRANCH   2   3
ATOM      3  C   UNL     1      -0.838   0.190  -1.279  1.00  0.00     0.365 C 
ATOM      4  O   UNL     1      -1.297   0.926  -2.146  1.00  0.00    -0.245 OA
BRANCH   3   5
ATOM      5  C   UNL     1       0.666  -0.100  -1.150  1.00  0.00     0.296 C 
BRANCH   5   6
ATOM      6  N   UNL     1       1.033  -0.838   0.083  1.00  0.00    -0.346 N 
ATOM      7  H   UNL     1       2.041  -0.993   0.099  1.00  0.00     0.345 HD
ATOM      8  H   UNL     1       0.551  -1.737   0.099  1.00  0.00     0.345 HD
ATOM      9  H   UNL     1       0.761  -0.292   0.900  1.00  0.00     0.345 HD
ENDBRANCH   5   6
BRANCH   5  10
ATOM     10  C   UNL     1       1.164  -0.727  -2.448  1.00  0.00     0.115 C 
BRANCH  10  11
ATOM     11  C   UNL     1       0.601  -2.063  -2.693  1.00  0.00    -0.015 A 
ATOM     12  C   UNL     1       1.202  -3.225  -2.302  1.00  0.00     0.099 A 
ATOM     13  C   UNL     1      -0.670  -2.393  -3.255  1.00  0.00     0.004 A 
ATOM     14  N   UNL     1       0.361  -4.261  -2.609  1.00  0.00    -0.285 N 
ATOM     15  C   UNL     1      -0.838  -3.768  -3.087  1.00  0.00     0.056 A 
ATOM     16  C   UNL     1      -1.728  -1.639  -3.804  1.00  0.00     0.010 A 
ATOM     17  C   UNL     1      -2.077  -4.389  -3.309  1.00  0.00     0.027 A 
ATOM     18  C   UNL     1      -2.971  -2.242  -4.005  1.00  0.00     0.001 A 
ATOM     19  C   UNL     1      -3.147  -3.593  -3.731  1.00  0.00     0.002 A 
BRANCH  14  20
ATOM     20  C   UNL     1       0.731  -5.600  -2.389  1.00  0.00     0.240 A 
ATOM     21  N   UNL     1       0.533  -6.485  -3.351  1.00  0.00    -0.181 NA
ATOM     22  N   UNL     1       1.444  -5.808  -1.284  1.00  0.00    -0.176 NA
ATOM     23  C   UNL     1       1.275  -7.567  -3.172  1.00  0.00     0.228 A 
ATOM     24  C   UNL     1       2.062  -6.967  -1.182  1.00  0.00     0.231 A 
ATOM     25  Cl  UNL     1       1.233  -8.704  -4.447  1.00  0.00    -0.041 Cl
ATOM     26  N   UNL     1       2.065  -7.872  -2.144  1.00  0.00    -0.182 NA
BRANCH  24  27
ATOM     27  N   UNL     1       2.741  -7.160  -0.019  1.00  0.00    -0.336 N 
ATOM     28  C   UNL     1       2.001  -7.090   1.236  1.00  0.00     0.148 C 
ATOM     29  C   UNL     1       4.036  -7.808   0.008  1.00  0.00     0.148 C 
ATOM     30  C   UNL     1       2.913  -6.548   2.344  1.00  0.00     0.181 C 
ATOM     31  C   UNL     1       4.853  -7.182   1.153  1.00  0.00     0.181 C 
ATOM     32  O   UNL     1       4.154  -7.275   2.411  1.00  0.00    -0.378 OA
ENDBRANCH  24  27
ENDBRANCH  14  20
ENDBRANCH  10  11
ENDBRANCH   5  10
ENDBRANCH   3   5
ENDBRANCH   2   3
ENDBRANCH   1   2
BRANCH   1  33
ATOM     33  C   UNL     1      -3.555   0.626   0.561  1.00  0.00     0.275 C 
BRANCH  33  34
ATOM     34  O   UNL     1      -3.118   1.966   0.283  1.00  0.00    -0.458 OA
BRANCH  34  35
ATOM     35  C   UNL     1      -2.055   2.416   0.996  1.00  0.00     0.338 C 
ATOM     36  O   UNL     1      -1.723   2.054   2.116  1.00  0.00    -0.246 OA
BRANCH  35  37
ATOM     37  C   UNL     1      -1.182   3.163   0.055  1.00  0.00     0.060 A 
ATOM     38  C   UNL     1      -1.702   3.784  -1.089  1.00  0.00     0.016 A 
ATOM     39  C   UNL     1       0.193   2.957   0.174  1.00  0.00     0.016 A 
ATOM     40  C   UNL     1      -0.876   4.001  -2.195  1.00  0.00     0.010 A 
ATOM     41  C   UNL     1       1.010   3.182  -0.933  1.00  0.00     0.010 A 
ATOM     42  C   UNL     1       0.463   3.600  -2.155  1.00  0.00    -0.014 A 
BRANCH  42  43
ATOM     43  C   UNL     1       1.361   3.852  -3.290  1.00  0.00     0.031 A 
ATOM     44  C   UNL     1       1.914   5.215  -3.231  1.00  0.00     0.074 A 
ATOM     45  C   UNL     1       1.753   3.044  -4.303  1.00  0.00     0.049 A 
ATOM     46  N   UNL     1       1.524   6.187  -3.984  1.00  0.00    -0.248 NA
ATOM     47  C   UNL     1       2.800   5.604  -2.131  1.00  0.00     0.031 C 
ATOM     48  C   UNL     1       1.337   1.694  -4.626  1.00  0.00     0.029 A 
ATOM     49  N   UNL     1       2.683   3.286  -5.282  1.00  0.00    -0.354 N 
ATOM     50  C   UNL     1       2.256   7.285  -3.578  1.00  0.00     0.074 A 
ATOM     51  C   UNL     1       2.872   6.921  -2.328  1.00  0.00     0.031 C 
ATOM     52  C   UNL     1       2.193   1.120  -5.510  1.00  0.00     0.029 A 
ATOM     53  C   UNL     1       3.099   2.155  -5.992  1.00  0.00     0.049 A 
ATOM     54  H   UNL     1       3.031   4.187  -5.471  1.00  0.00     0.167 HD
ATOM     55  C   UNL     1       2.464   8.331  -4.417  1.00  0.00     0.037 A 
ATOM     56  C   UNL     1       3.875   2.074  -7.110  1.00  0.00     0.037 A 
ATOM     57  C   UNL     1       1.566   8.296  -5.546  1.00  0.00     0.049 A 
ATOM     58  C   UNL     1       3.761   3.390  -7.783  1.00  0.00     0.074 A 
ATOM     59  C   UNL     1       0.194   8.375  -5.695  1.00  0.00     0.029 A 
ATOM     60  N   UNL     1       2.037   7.776  -6.727  1.00  0.00    -0.354 N 
ATOM     61  N   UNL     1       2.678   3.790  -8.388  1.00  0.00    -0.248 NA
ATOM     62  C   UNL     1       4.682   4.440  -7.378  1.00  0.00     0.031 C 
ATOM     63  C   UNL     1      -0.124   7.485  -6.762  1.00  0.00     0.029 A 
ATOM     64  C   UNL     1       1.070   6.946  -7.241  1.00  0.00     0.049 A 
ATOM     65  H   UNL     1       2.914   7.965  -7.134  1.00  0.00     0.167 HD
ATOM     66  C   UNL     1       2.563   5.129  -8.047  1.00  0.00     0.074 A 
ATOM     67  C   UNL     1       3.864   5.490  -7.485  1.00  0.00     0.031 C 
ATOM     68  C   UNL     1       1.347   5.747  -8.005  1.00  0.00     0.037 A 
BRANCH  55  69
ATOM     69  C   UNL     1       3.691   9.191  -4.366  1.00  0.00     0.058 A 
ATOM     70  C   UNL     1       3.720  10.395  -5.092  1.00  0.00     0.135 A 
ATOM     71  C   UNL     1       4.928   8.762  -3.831  1.00  0.00     0.135 A 
ATOM     72  F   UNL     1       2.603  10.880  -5.658  1.00  0.00    -0.206 F 
ATOM     73  C   UNL     1       4.904  11.095  -5.316  1.00  0.00     0.059 A 
ATOM     74  C   UNL     1       6.106   9.476  -3.989  1.00  0.00     0.059 A 
ATOM     75  F   UNL     1       5.072   7.581  -3.217  1.00  0.00    -0.206 F 
ATOM     76  C   UNL     1       6.092  10.620  -4.767  1.00  0.00     0.060 A 
BRANCH  76  77
ATOM     77  S   UNL     1       7.635  11.464  -5.144  1.00  0.00     0.124 S 
ATOM     78  O   UNL     1       7.761  11.212  -6.575  1.00  0.00    -0.237 OA
ATOM     79  O   UNL     1       7.327  12.837  -4.758  1.00  0.00    -0.237 OA
ATOM     80  O   UNL     1       8.608  10.783  -4.295  1.00  0.00    -0.744 OA
ENDBRANCH  76  77
ENDBRANCH  55  69
BRANCH  56  81
ATOM     81  C   UNL     1       5.069   1.194  -7.326  1.00  0.00     0.058 A 
ATOM     82  C   UNL     1       5.764   1.202  -8.555  1.00  0.00     0.135 A 
ATOM     83  C   UNL     1       5.713   0.534  -6.263  1.00  0.00     0.135 A 
ATOM     84  F   UNL     1       5.229   1.805  -9.628  1.00  0.00    -0.206 F 
ATOM     85  C   UNL     1       7.048   0.659  -8.701  1.00  0.00     0.059 A 
ATOM     86  C   UNL     1       6.995  -0.015  -6.385  1.00  0.00     0.059 A 
ATOM     87  F   UNL     1       5.144   0.476  -5.049  1.00  0.00    -0.206 F 
ATOM     88  C   UNL     1       7.670   0.075  -7.599  1.00  0.00     0.060 A 
BRANCH  88  89
ATOM     89  S   UNL     1       9.396  -0.462  -7.733  1.00  0.00     0.124 S 
ATOM     90  O   UNL     1       9.296  -1.581  -8.665  1.00  0.00    -0.237 OA
ATOM     91  O   UNL     1      10.053   0.735  -8.245  1.00  0.00    -0.237 OA
ATOM     92  O   UNL     1       9.746  -0.823  -6.362  1.00  0.00    -0.744 OA
ENDBRANCH  88  89
ENDBRANCH  56  81
BRANCH  68  93
ATOM     93  C   UNL     1       0.163   5.032  -8.614  1.00  0.00     0.058 A 
ATOM     94  C   UNL     1      -0.378   3.826  -8.133  1.00  0.00     0.135 A 
ATOM     95  C   UNL     1      -0.544   5.680  -9.639  1.00  0.00     0.135 A 
ATOM     96  F   UNL     1       0.184   3.183  -7.100  1.00  0.00    -0.206 F 
ATOM     97  C   UNL     1      -1.552   3.278  -8.662  1.00  0.00     0.059 A 
ATOM     98  C   UNL     1      -1.730   5.169 -10.161  1.00  0.00     0.059 A 
ATOM     99  F   UNL     1      -0.109   6.859 -10.112  1.00  0.00    -0.206 F 
ATOM    100  C   UNL     1      -2.225   3.962  -9.673  1.00  0.00     0.060 A 
BRANCH 100 101
ATOM    101  S   UNL     1      -3.786   3.299 -10.300  1.00  0.00     0.124 S 
ATOM    102  O   UNL     1      -3.352   2.092 -10.996  1.00  0.00    -0.237 OA
ATOM    103  O   UNL     1      -4.552   3.082  -9.076  1.00  0.00    -0.237 OA
ATOM    104  O   UNL     1      -4.292   4.366 -11.159  1.00  0.00    -0.744 OA
ENDBRANCH 100 101
ENDBRANCH  68  93
ENDBRANCH  42  43
ENDBRANCH  35  37
ENDBRANCH  34  35
ENDBRANCH  33  34
ENDBRANCH   1  33
TORSDOF 19
