REMARK SMILES O=C(Cc1ccc(NC(=O)c2ccc(N3C(=O)c4ccccc4C3=O)cc2)cc1)OCCOC(=O)c1ccc(-c2c3nc(c(-c4c(F)cc(S(=O)(=O)[O-])cc4F)c4ccc([nH]4)c(-c4c(F)cc(S(=O)(=O)[O-])cc4F)c4nc(c(-c5c(F)cc(S(=O)(=O)[O-])cc5F)c5ccc2[nH]5)C=C4)C=C3)cc1
REMARK SMILES IDX 31 1 30 2 2 3 1 4 3 5 4 6 5 7 29 8 6 9 28 10 7 11 8 12 9 13
REMARK SMILES IDX 10 15 11 16 12 17 27 18 13 19 26 20 14 21 15 22 16 23 24 24
REMARK SMILES IDX 17 25 18 26 23 27 25 28 19 29 22 30 20 31 21 32 32 33 33 34
REMARK SMILES IDX 34 35 35 36 36 37 37 38 101 39 38 40 100 41 39 42 40 43
REMARK SMILES IDX 41 44 94 45 42 46 99 47 93 48 95 49 43 50 98 51 92 52 91 53
REMARK SMILES IDX 44 55 78 56 57 57 77 58 58 59 61 60 76 61 96 62 59 63 60 64
REMARK SMILES IDX 75 66 97 67 62 68 45 69 46 70 55 71 47 72 48 73 54 74 56 75
REMARK SMILES IDX 49 76 50 77 51 78 52 79 53 80 79 81 80 82 89 83 81 84 82 85
REMARK SMILES IDX 88 86 90 87 83 88 84 89 85 90 86 91 87 92 63 93 64 94 73 95
REMARK SMILES IDX 65 96 66 97 72 98 74 99 67 100 68 101 69 102 70 103 71 104
REMARK H PARENT 8 14 95 54 61 65
REMARK Flexibility Score: inf
ROOT
ATOM      1  C   UNL     1       4.468  -0.125  -0.981  1.00  0.00     0.274 C 
ENDROOT
BRANCH   1   2
ATOM      2  O   UNL     1       3.082  -0.486  -0.812  1.00  0.00    -0.462 OA
BRANCH   2   3
ATOM      3  C   UNL     1       2.318  -0.183   0.264  1.00  0.00     0.310 C 
ATOM      4  O   UNL     1       1.143  -0.546   0.294  1.00  0.00    -0.252 OA
BRANCH   3   5
ATOM      5  C   UNL     1       2.930   0.575   1.428  1.00  0.00     0.158 C 
BRANCH   5   6
ATOM      6  C   UNL     1       3.610  -0.275   2.459  1.00  0.00    -0.037 A 
ATOM      7  C   UNL     1       3.038  -1.478   2.857  1.00  0.00     0.006 A 
ATOM      8  C   UNL     1       4.781   0.168   3.094  1.00  0.00     0.006 A 
ATOM      9  C   UNL     1       3.695  -2.278   3.778  1.00  0.00     0.026 A 
ATOM     10  C   UNL     1       5.454  -0.659   3.998  1.00  0.00     0.026 A 
ATOM     11  C   UNL     1       4.956  -1.933   4.265  1.00  0.00     0.041 A 
BRANCH  11  12
ATOM     12  N   UNL     1       5.759  -2.848   4.975  1.00  0.00    -0.322 N 
ATOM     13  C   UNL     1       5.779  -4.231   4.863  1.00  0.00     0.255 C 
ATOM     14  H   UNL     1       6.381  -2.458   5.631  1.00  0.00     0.170 HD
ATOM     15  O   UNL     1       6.416  -4.935   5.640  1.00  0.00    -0.269 OA
BRANCH  13  16
ATOM     16  C   UNL     1       5.111  -4.863   3.697  1.00  0.00     0.040 A 
ATOM     17  C   UNL     1       3.995  -5.678   3.885  1.00  0.00     0.016 A 
ATOM     18  C   UNL     1       5.492  -4.492   2.408  1.00  0.00     0.016 A 
ATOM     19  C   UNL     1       3.193  -6.019   2.781  1.00  0.00     0.028 A 
ATOM     20  C   UNL     1       4.690  -4.845   1.318  1.00  0.00     0.028 A 
ATOM     21  C   UNL     1       3.506  -5.587   1.478  1.00  0.00     0.052 A 
BRANCH  21  22
ATOM     22  N   UNL     1       2.656  -5.856   0.357  1.00  0.00    -0.242 N 
ATOM     23  C   UNL     1       2.995  -5.610  -0.959  1.00  0.00     0.266 C 
ATOM     24  C   UNL     1       1.385  -6.400   0.424  1.00  0.00     0.266 C 
ATOM     25  O   UNL     1       4.007  -5.168  -1.479  1.00  0.00    -0.268 OA
ATOM     26  C   UNL     1       1.877  -6.039  -1.785  1.00  0.00     0.053 A 
ATOM     27  C   UNL     1       0.889  -6.507  -0.950  1.00  0.00     0.053 A 
ATOM     28  O   UNL     1       0.706  -6.770   1.364  1.00  0.00    -0.268 OA
ATOM     29  C   UNL     1       1.750  -6.051  -3.162  1.00  0.00     0.015 A 
ATOM     30  C   UNL     1      -0.304  -6.997  -1.449  1.00  0.00     0.015 A 
ATOM     31  C   UNL     1       0.561  -6.554  -3.692  1.00  0.00     0.001 A 
ATOM     32  C   UNL     1      -0.462  -7.018  -2.841  1.00  0.00     0.001 A 
ENDBRANCH  21  22
ENDBRANCH  13  16
ENDBRANCH  11  12
ENDBRANCH   5   6
ENDBRANCH   3   5
ENDBRANCH   2   3
ENDBRANCH   1   2
BRANCH   1  33
ATOM     33  C   UNL     1       4.620   1.178  -1.775  1.00  0.00     0.275 C 
BRANCH  33  34
ATOM     34  O   UNL     1       4.123   2.299  -1.019  1.00  0.00    -0.458 OA
BRANCH  34  35
ATOM     35  C   UNL     1       2.835   2.656  -1.269  1.00  0.00     0.338 C 
ATOM     36  O   UNL     1       2.132   2.234  -2.170  1.00  0.00    -0.246 OA
BRANCH  35  37
ATOM     37  C   UNL     1       2.326   3.461  -0.129  1.00  0.00     0.060 A 
ATOM     38  C   UNL     1       1.027   3.200   0.326  1.00  0.00     0.016 A 
ATOM     39  C   UNL     1       3.124   4.395   0.541  1.00  0.00     0.016 A 
ATOM     40  C   UNL     1       0.517   3.889   1.430  1.00  0.00     0.010 A 
ATOM     41  C   UNL     1       2.607   5.090   1.644  1.00  0.00     0.010 A 
ATOM     42  C   UNL     1       1.290   4.862   2.079  1.00  0.00    -0.014 A 
BRANCH  42  43
ATOM     43  C   UNL     1       0.649   5.739   3.095  1.00  0.00     0.031 A 
ATOM     44  C   UNL     1       0.181   7.109   2.676  1.00  0.00     0.074 A 
ATOM     45  C   UNL     1       0.422   5.313   4.353  1.00  0.00     0.049 A 
ATOM     46  N   UNL     1      -0.480   8.007   3.360  1.00  0.00    -0.248 NA
ATOM     47  C   UNL     1       0.502   7.519   1.299  1.00  0.00     0.031 C 
ATOM     48  C   UNL     1       0.820   4.014   4.893  1.00  0.00     0.029 A 
ATOM     49  N   UNL     1      -0.209   5.934   5.405  1.00  0.00    -0.354 N 
ATOM     50  C   UNL     1      -0.681   9.073   2.491  1.00  0.00     0.074 A 
ATOM     51  C   UNL     1      -0.013   8.738   1.252  1.00  0.00     0.031 C 
ATOM     52  C   UNL     1       0.427   3.937   6.178  1.00  0.00     0.029 A 
ATOM     53  C   UNL     1      -0.242   5.181   6.556  1.00  0.00     0.049 A 
ATOM     54  H   UNL     1      -0.600   6.835   5.341  1.00  0.00     0.167 HD
ATOM     55  C   UNL     1      -1.380  10.215   2.692  1.00  0.00     0.037 A 
ATOM     56  C   UNL     1      -0.752   5.463   7.773  1.00  0.00     0.037 A 
ATOM     57  C   UNL     1      -2.029  10.563   3.930  1.00  0.00     0.049 A 
ATOM     58  C   UNL     1      -1.476   6.771   7.993  1.00  0.00     0.074 A 
ATOM     59  C   UNL     1      -2.761  11.700   4.227  1.00  0.00     0.029 A 
ATOM     60  N   UNL     1      -2.018   9.787   5.079  1.00  0.00    -0.354 N 
ATOM     61  N   UNL     1      -1.701   7.746   7.144  1.00  0.00    -0.248 NA
ATOM     62  C   UNL     1      -2.032   7.007   9.333  1.00  0.00     0.031 C 
ATOM     63  C   UNL     1      -3.147  11.636   5.570  1.00  0.00     0.029 A 
ATOM     64  C   UNL     1      -2.709  10.431   6.094  1.00  0.00     0.049 A 
ATOM     65  H   UNL     1      -1.582   8.908   5.163  1.00  0.00     0.167 HD
ATOM     66  C   UNL     1      -2.445   8.696   7.841  1.00  0.00     0.074 A 
ATOM     67  C   UNL     1      -2.654   8.166   9.171  1.00  0.00     0.031 C 
ATOM     68  C   UNL     1      -2.910   9.900   7.419  1.00  0.00     0.037 A 
BRANCH  55  69
ATOM     69  C   UNL     1      -1.482  11.177   1.540  1.00  0.00     0.058 A 
ATOM     70  C   UNL     1      -2.252  10.880   0.403  1.00  0.00     0.135 A 
ATOM     71  C   UNL     1      -0.840  12.425   1.587  1.00  0.00     0.135 A 
ATOM     72  F   UNL     1      -2.870   9.693   0.295  1.00  0.00    -0.206 F 
ATOM     73  C   UNL     1      -2.366  11.778  -0.653  1.00  0.00     0.059 A 
ATOM     74  C   UNL     1      -0.965  13.350   0.555  1.00  0.00     0.059 A 
ATOM     75  F   UNL     1      -0.087  12.758   2.647  1.00  0.00    -0.206 F 
ATOM     76  C   UNL     1      -1.722  13.013  -0.566  1.00  0.00     0.060 A 
BRANCH  76  77
ATOM     77  S   UNL     1      -1.898  14.172  -1.938  1.00  0.00     0.124 S 
ATOM     78  O   UNL     1      -1.114  13.513  -2.979  1.00  0.00    -0.237 OA
ATOM     79  O   UNL     1      -3.342  14.189  -2.147  1.00  0.00    -0.237 OA
ATOM     80  O   UNL     1      -1.327  15.409  -1.414  1.00  0.00    -0.744 OA
ENDBRANCH  76  77
ENDBRANCH  55  69
BRANCH  56  81
ATOM     81  C   UNL     1      -0.595   4.495   8.896  1.00  0.00     0.058 A 
ATOM     82  C   UNL     1      -1.698   3.838   9.463  1.00  0.00     0.135 A 
ATOM     83  C   UNL     1       0.669   4.238   9.450  1.00  0.00     0.135 A 
ATOM     84  F   UNL     1      -2.931   4.059   8.982  1.00  0.00    -0.206 F 
ATOM     85  C   UNL     1      -1.559   2.985  10.556  1.00  0.00     0.059 A 
ATOM     86  C   UNL     1       0.838   3.366  10.521  1.00  0.00     0.059 A 
ATOM     87  F   UNL     1       1.760   4.833   8.943  1.00  0.00    -0.206 F 
ATOM     88  C   UNL     1      -0.285   2.755  11.077  1.00  0.00     0.060 A 
BRANCH  88  89
ATOM     89  S   UNL     1      -0.108   1.625  12.476  1.00  0.00     0.124 S 
ATOM     90  O   UNL     1      -0.675   2.413  13.564  1.00  0.00    -0.237 OA
ATOM     91  O   UNL     1      -0.896   0.476  12.040  1.00  0.00    -0.237 OA
ATOM     92  O   UNL     1       1.332   1.399  12.544  1.00  0.00    -0.744 OA
ENDBRANCH  88  89
ENDBRANCH  56  81
BRANCH  68  93
ATOM     93  C   UNL     1      -3.716  10.716   8.399  1.00  0.00     0.058 A 
ATOM     94  C   UNL     1      -3.133  11.294   9.540  1.00  0.00     0.135 A 
ATOM     95  C   UNL     1      -5.088  10.936   8.188  1.00  0.00     0.135 A 
ATOM     96  F   UNL     1      -1.826  11.121   9.792  1.00  0.00    -0.206 F 
ATOM     97  C   UNL     1      -3.890  12.014  10.460  1.00  0.00     0.059 A 
ATOM     98  C   UNL     1      -5.856  11.683   9.077  1.00  0.00     0.059 A 
ATOM     99  F   UNL     1      -5.697  10.426   7.106  1.00  0.00    -0.206 F 
ATOM    100  C   UNL     1      -5.253  12.198  10.223  1.00  0.00     0.060 A 
BRANCH 100 101
ATOM    101  S   UNL     1      -6.225  13.122  11.432  1.00  0.00     0.124 S 
ATOM    102  O   UNL     1      -6.312  12.167  12.531  1.00  0.00    -0.237 OA
ATOM    103  O   UNL     1      -5.390  14.294  11.675  1.00  0.00    -0.237 OA
ATOM    104  O   UNL     1      -7.478  13.387  10.730  1.00  0.00    -0.744 OA
ENDBRANCH 100 101
ENDBRANCH  68  93
ENDBRANCH  42  43
ENDBRANCH  35  37
ENDBRANCH  34  35
ENDBRANCH  33  34
ENDBRANCH   1  33
TORSDOF 18
