REMARK SMILES Cc1ccc(Nc2c(Cl)cccc2Cl)c(CC(=O)OCCOC(=O)c2ccc(-c3c4nc(c(-c5c(F)cc(S(=O)(=O)[O-])cc5F)c5ccc([nH]5)c(-c5c(F)cc(S(=O)(=O)[O-])cc5F)c5nc(c(-c6c(F)cc(S(=O)(=O)[O-])cc6F)c6ccc3[nH]6)C=C5)C=C4)cc2)c1
REMARK SMILES IDX 20 1 19 2 17 3 18 4 16 5 15 6 1 7 2 8 3 9 91 10 4 11 5 12
REMARK SMILES IDX 6 13 7 15 8 16 13 17 9 18 10 19 12 20 14 21 11 22 21 23
REMARK SMILES IDX 22 24 23 25 24 26 25 27 26 28 90 29 27 30 89 31 28 32 29 33
REMARK SMILES IDX 30 34 83 35 31 36 88 37 82 38 84 39 32 40 87 41 81 42 80 43
REMARK SMILES IDX 33 45 67 46 46 47 66 48 47 49 50 50 65 51 85 52 48 53 49 54
REMARK SMILES IDX 64 56 86 57 51 58 34 59 35 60 44 61 36 62 37 63 43 64 45 65
REMARK SMILES IDX 38 66 39 67 40 68 41 69 42 70 68 71 69 72 78 73 70 74 71 75
REMARK SMILES IDX 77 76 79 77 72 78 73 79 74 80 75 81 76 82 52 83 53 84 62 85
REMARK SMILES IDX 54 86 55 87 61 88 63 89 56 90 57 91 58 92 59 93 60 94
REMARK H PARENT 6 14 84 44 50 55
REMARK Flexibility Score: inf
ROOT
ATOM      1  C   UNL     1      -2.775   0.896  -3.979  1.00  0.00     0.274 C 
ENDROOT
BRANCH   1   2
ATOM      2  O   UNL     1      -1.909   1.464  -2.999  1.00  0.00    -0.462 OA
BRANCH   2   3
ATOM      3  C   UNL     1      -1.002   0.603  -2.463  1.00  0.00     0.310 C 
ATOM      4  O   UNL     1      -0.531  -0.340  -3.044  1.00  0.00    -0.252 OA
BRANCH   3   5
ATOM      5  C   UNL     1      -0.707   1.055  -1.038  1.00  0.00     0.160 C 
BRANCH   5   6
ATOM      6  C   UNL     1      -0.083  -0.069  -0.253  1.00  0.00    -0.013 A 
ATOM      7  C   UNL     1       3.508  -1.018   0.478  1.00  0.00     0.044 C 
ATOM      8  C   UNL     1       2.015  -1.091   0.405  1.00  0.00    -0.051 A 
ATOM      9  C   UNL     1       1.326  -2.280   0.654  1.00  0.00     0.005 A 
ATOM     10  C   UNL     1       1.302   0.012  -0.048  1.00  0.00     0.009 A 
ATOM     11  C   UNL     1      -0.065  -2.346   0.509  1.00  0.00     0.026 A 
ATOM     12  C   UNL     1      -0.804  -1.236   0.097  1.00  0.00     0.042 A 
BRANCH  12  13
ATOM     13  N   UNL     1      -2.191  -1.320  -0.119  1.00  0.00    -0.353 N 
ATOM     14  H   UNL     1      -2.587  -0.504  -0.501  1.00  0.00     0.167 HD
BRANCH  13  15
ATOM     15  C   UNL     1      -3.128  -2.363   0.112  1.00  0.00     0.076 A 
ATOM     16  C   UNL     1      -3.632  -2.629   1.400  1.00  0.00     0.066 A 
ATOM     17  C   UNL     1      -3.806  -2.952  -0.976  1.00  0.00     0.066 A 
ATOM     18  Cl  UNL     1      -2.901  -1.959   2.821  1.00  0.00    -0.082 Cl
ATOM     19  C   UNL     1      -4.758  -3.444   1.585  1.00  0.00     0.023 A 
ATOM     20  C   UNL     1      -4.964  -3.719  -0.793  1.00  0.00     0.023 A 
ATOM     21  Cl  UNL     1      -3.189  -2.840  -2.588  1.00  0.00    -0.082 Cl
ATOM     22  C   UNL     1      -5.441  -3.965   0.489  1.00  0.00     0.003 A 
ENDBRANCH  13  15
ENDBRANCH  12  13
ENDBRANCH   5   6
ENDBRANCH   3   5
ENDBRANCH   2   3
ENDBRANCH   1   2
BRANCH   1  23
ATOM     23  C   UNL     1      -4.086   0.383  -3.345  1.00  0.00     0.275 C 
BRANCH  23  24
ATOM     24  O   UNL     1      -4.132   0.287  -1.881  1.00  0.00    -0.458 OA
BRANCH  24  25
ATOM     25  C   UNL     1      -4.265   1.209  -0.876  1.00  0.00     0.338 C 
ATOM     26  O   UNL     1      -4.220   0.828   0.292  1.00  0.00    -0.246 OA
BRANCH  25  27
ATOM     27  C   UNL     1      -4.036   2.644  -1.161  1.00  0.00     0.060 A 
ATOM     28  C   UNL     1      -3.389   3.488  -0.235  1.00  0.00     0.016 A 
ATOM     29  C   UNL     1      -4.190   3.075  -2.449  1.00  0.00     0.016 A 
ATOM     30  C   UNL     1      -2.785   4.671  -0.684  1.00  0.00     0.010 A 
ATOM     31  C   UNL     1      -3.277   3.964  -2.934  1.00  0.00     0.010 A 
ATOM     32  C   UNL     1      -2.693   4.873  -2.063  1.00  0.00    -0.014 A 
BRANCH  32  33
ATOM     33  C   UNL     1      -2.330   6.100  -2.761  1.00  0.00     0.031 A 
ATOM     34  C   UNL     1      -0.987   6.687  -2.713  1.00  0.00     0.074 A 
ATOM     35  C   UNL     1      -3.318   6.645  -3.519  1.00  0.00     0.049 A 
ATOM     36  N   UNL     1      -0.752   7.916  -2.402  1.00  0.00    -0.248 NA
ATOM     37  C   UNL     1       0.210   5.934  -3.094  1.00  0.00     0.031 C 
ATOM     38  C   UNL     1      -3.291   7.810  -4.378  1.00  0.00     0.029 A 
ATOM     39  N   UNL     1      -4.654   6.243  -3.628  1.00  0.00    -0.354 N 
ATOM     40  C   UNL     1       0.516   8.191  -2.868  1.00  0.00     0.074 A 
ATOM     41  C   UNL     1       1.133   6.907  -3.131  1.00  0.00     0.031 C 
ATOM     42  C   UNL     1      -4.566   8.206  -4.587  1.00  0.00     0.029 A 
ATOM     43  C   UNL     1      -5.453   7.350  -3.805  1.00  0.00     0.049 A 
ATOM     44  H   UNL     1      -4.972   5.312  -3.585  1.00  0.00     0.167 HD
ATOM     45  C   UNL     1       0.850   9.447  -3.284  1.00  0.00     0.037 A 
ATOM     46  C   UNL     1      -6.329   7.714  -2.820  1.00  0.00     0.037 A 
ATOM     47  C   UNL     1      -0.344  10.287  -3.382  1.00  0.00     0.049 A 
ATOM     48  C   UNL     1      -5.853   8.968  -2.127  1.00  0.00     0.074 A 
ATOM     49  C   UNL     1      -1.135  10.603  -4.477  1.00  0.00     0.029 A 
ATOM     50  N   UNL     1      -1.107  10.591  -2.256  1.00  0.00    -0.354 N 
ATOM     51  N   UNL     1      -4.648   9.448  -2.273  1.00  0.00    -0.248 NA
ATOM     52  C   UNL     1      -6.672   9.796  -1.248  1.00  0.00     0.031 C 
ATOM     53  C   UNL     1      -2.402  11.021  -4.010  1.00  0.00     0.029 A 
ATOM     54  C   UNL     1      -2.386  10.978  -2.628  1.00  0.00     0.049 A 
ATOM     55  H   UNL     1      -0.784  10.539  -1.328  1.00  0.00     0.167 HD
ATOM     56  C   UNL     1      -4.526  10.625  -1.595  1.00  0.00     0.074 A 
ATOM     57  C   UNL     1      -5.823  10.803  -0.964  1.00  0.00     0.031 C 
ATOM     58  C   UNL     1      -3.379  11.365  -1.637  1.00  0.00     0.037 A 
BRANCH  45  59
ATOM     59  C   UNL     1       2.171   9.741  -3.964  1.00  0.00     0.058 A 
ATOM     60  C   UNL     1       2.271  10.562  -5.105  1.00  0.00     0.135 A 
ATOM     61  C   UNL     1       3.395   9.218  -3.494  1.00  0.00     0.135 A 
ATOM     62  F   UNL     1       1.201  11.165  -5.637  1.00  0.00    -0.206 F 
ATOM     63  C   UNL     1       3.475  10.792  -5.772  1.00  0.00     0.059 A 
ATOM     64  C   UNL     1       4.614   9.419  -4.157  1.00  0.00     0.059 A 
ATOM     65  F   UNL     1       3.434   8.483  -2.370  1.00  0.00    -0.206 F 
ATOM     66  C   UNL     1       4.642  10.206  -5.302  1.00  0.00     0.060 A 
BRANCH  66  67
ATOM     67  S   UNL     1       6.169  10.480  -6.224  1.00  0.00     0.124 S 
ATOM     68  O   UNL     1       5.776  10.123  -7.585  1.00  0.00    -0.237 OA
ATOM     69  O   UNL     1       6.416  11.898  -5.989  1.00  0.00    -0.237 OA
ATOM     70  O   UNL     1       7.115   9.564  -5.594  1.00  0.00    -0.744 OA
ENDBRANCH  66  67
ENDBRANCH  45  59
BRANCH  46  71
ATOM     71  C   UNL     1      -7.083   6.572  -2.204  1.00  0.00     0.058 A 
ATOM     72  C   UNL     1      -8.014   5.905  -3.029  1.00  0.00     0.135 A 
ATOM     73  C   UNL     1      -6.670   5.892  -1.046  1.00  0.00     0.135 A 
ATOM     74  F   UNL     1      -8.470   6.505  -4.141  1.00  0.00    -0.206 F 
ATOM     75  C   UNL     1      -8.394   4.583  -2.811  1.00  0.00     0.059 A 
ATOM     76  C   UNL     1      -7.049   4.562  -0.798  1.00  0.00     0.059 A 
ATOM     77  F   UNL     1      -5.793   6.461  -0.206  1.00  0.00    -0.206 F 
ATOM     78  C   UNL     1      -7.856   3.899  -1.726  1.00  0.00     0.060 A 
BRANCH  78  79
ATOM     79  S   UNL     1      -8.056   2.098  -1.697  1.00  0.00     0.124 S 
ATOM     80  O   UNL     1      -9.503   1.944  -1.629  1.00  0.00    -0.237 OA
ATOM     81  O   UNL     1      -7.431   1.724  -2.965  1.00  0.00    -0.237 OA
ATOM     82  O   UNL     1      -7.315   1.698  -0.509  1.00  0.00    -0.744 OA
ENDBRANCH  78  79
ENDBRANCH  46  71
BRANCH  58  83
ATOM     83  C   UNL     1      -3.131  12.620  -0.854  1.00  0.00     0.058 A 
ATOM     84  C   UNL     1      -3.600  12.831   0.449  1.00  0.00     0.135 A 
ATOM     85  C   UNL     1      -2.269  13.614  -1.378  1.00  0.00     0.135 A 
ATOM     86  F   UNL     1      -4.346  11.909   1.077  1.00  0.00    -0.206 F 
ATOM     87  C   UNL     1      -3.284  13.982   1.168  1.00  0.00     0.059 A 
ATOM     88  C   UNL     1      -1.893  14.736  -0.656  1.00  0.00     0.059 A 
ATOM     89  F   UNL     1      -1.755  13.521  -2.614  1.00  0.00    -0.206 F 
ATOM     90  C   UNL     1      -2.427  14.926   0.608  1.00  0.00     0.060 A 
BRANCH  90  91
ATOM     91  S   UNL     1      -1.959  16.391   1.541  1.00  0.00     0.124 S 
ATOM     92  O   UNL     1      -2.932  17.364   1.056  1.00  0.00    -0.237 OA
ATOM     93  O   UNL     1      -2.129  15.964   2.926  1.00  0.00    -0.237 OA
ATOM     94  O   UNL     1      -0.577  16.614   1.127  1.00  0.00    -0.744 OA
ENDBRANCH  90  91
ENDBRANCH  58  83
ENDBRANCH  32  33
ENDBRANCH  25  27
ENDBRANCH  24  25
ENDBRANCH  23  24
ENDBRANCH   1  23
TORSDOF 17
