REMARK SMILES COc1cc(OC)cc(-c2ccc([C@@H](C)C(=O)OCCOC(=O)c3ccc(-c4c5nc(c(-c6c(F)cc(S(=O)(=O)[O-])cc6F)c6ccc([nH]6)c(-c6c(F)cc(S(=O)(=O)[O-])cc6F)c6nc(c(-c7c(F)cc(S(=O)(=O)[O-])cc7F)c7ccc4[nH]7)C=C6)C=C5)cc3)cc2F)c1
REMARK SMILES IDX 19 1 18 2 16 3 17 4 14 5 15 6 13 7 10 8 11 9 91 10 12 11
REMARK SMILES IDX 90 12 92 13 9 14 3 15 4 16 93 17 5 18 8 19 2 20 1 21 6 22
REMARK SMILES IDX 7 23 20 24 21 25 22 26 23 27 24 28 25 29 89 30 26 31 88 32
REMARK SMILES IDX 27 33 28 34 29 35 82 36 30 37 87 38 81 39 83 40 31 41 86 42
REMARK SMILES IDX 80 43 79 44 32 46 66 47 45 48 65 49 46 50 49 51 64 52 84 53
REMARK SMILES IDX 47 54 48 55 63 57 85 58 50 59 33 60 34 61 43 62 35 63 36 64
REMARK SMILES IDX 42 65 44 66 37 67 38 68 39 69 40 70 41 71 67 72 68 73 77 74
REMARK SMILES IDX 69 75 70 76 76 77 78 78 71 79 72 80 73 81 74 82 75 83 51 84
REMARK SMILES IDX 52 85 61 86 53 87 54 88 60 89 62 90 55 91 56 92 57 93 58 94
REMARK SMILES IDX 59 95
REMARK H PARENT 83 45 49 56
REMARK Flexibility Score: inf
ROOT
ATOM      1  C   UNL     1       8.487   2.716  -5.682  1.00  0.00     0.274 C 
ENDROOT
BRANCH   1   2
ATOM      2  O   UNL     1       7.838   1.450  -5.910  1.00  0.00    -0.462 OA
BRANCH   2   3
ATOM      3  C   UNL     1       8.639   0.356  -5.991  1.00  0.00     0.313 C 
ATOM      4  O   UNL     1       9.865   0.397  -5.965  1.00  0.00    -0.252 OA
BRANCH   3   5
ATOM      5  C   UNL     1       7.874  -0.950  -6.182  1.00  0.00     0.126 C 
ATOM      6  C   UNL     1       7.888  -1.343  -7.659  1.00  0.00     0.025 C 
BRANCH   5   7
ATOM      7  C   UNL     1       6.476  -0.994  -5.582  1.00  0.00    -0.031 A 
ATOM      8  C   UNL     1       3.863  -1.163  -4.465  1.00  0.00     0.018 A 
ATOM      9  C   UNL     1       4.130  -0.341  -5.571  1.00  0.00     0.012 A 
ATOM     10  C   UNL     1       4.935  -1.870  -3.912  1.00  0.00     0.131 A 
ATOM     11  C   UNL     1       5.413  -0.259  -6.123  1.00  0.00     0.005 A 
ATOM     12  C   UNL     1       6.215  -1.802  -4.463  1.00  0.00     0.044 A 
ATOM     13  F   UNL     1       4.741  -2.680  -2.861  1.00  0.00    -0.206 F 
BRANCH   8  14
ATOM     14  C   UNL     1       2.487  -1.339  -3.979  1.00  0.00    -0.008 A 
ATOM     15  C   UNL     1       0.793  -1.224  -2.237  1.00  0.00     0.123 A 
ATOM     16  C   UNL     1      -0.147  -1.750  -3.128  1.00  0.00     0.092 A 
ATOM     17  C   UNL     1       2.111  -1.033  -2.660  1.00  0.00     0.055 A 
ATOM     18  C   UNL     1       0.204  -2.069  -4.438  1.00  0.00     0.123 A 
ATOM     19  C   UNL     1       1.514  -1.852  -4.858  1.00  0.00     0.055 A 
BRANCH  15  20
ATOM     20  O   UNL     1       0.303  -0.963  -0.987  1.00  0.00    -0.497 OA
ATOM     21  C   UNL     1       1.098  -0.132  -0.150  1.00  0.00     0.278 C 
ENDBRANCH  15  20
BRANCH  18  22
ATOM     22  O   UNL     1      -0.806  -2.573  -5.211  1.00  0.00    -0.497 OA
ATOM     23  C   UNL     1      -0.432  -3.089  -6.483  1.00  0.00     0.278 C 
ENDBRANCH  18  22
ENDBRANCH   8  14
ENDBRANCH   5   7
ENDBRANCH   3   5
ENDBRANCH   2   3
ENDBRANCH   1   2
BRANCH   1  24
ATOM     24  C   UNL     1       8.324   3.163  -4.229  1.00  0.00     0.275 C 
BRANCH  24  25
ATOM     25  O   UNL     1       9.061   2.306  -3.338  1.00  0.00    -0.458 OA
BRANCH  25  26
ATOM     26  C   UNL     1       8.324   1.356  -2.715  1.00  0.00     0.338 C 
ATOM     27  O   UNL     1       7.119   1.194  -2.782  1.00  0.00    -0.246 OA
BRANCH  26  28
ATOM     28  C   UNL     1       9.222   0.419  -2.024  1.00  0.00     0.060 A 
ATOM     29  C   UNL     1       9.325  -0.874  -2.536  1.00  0.00     0.016 A 
ATOM     30  C   UNL     1       9.889   0.770  -0.850  1.00  0.00     0.016 A 
ATOM     31  C   UNL     1      10.072  -1.837  -1.867  1.00  0.00     0.010 A 
ATOM     32  C   UNL     1      10.659  -0.194  -0.185  1.00  0.00     0.010 A 
ATOM     33  C   UNL     1      10.742  -1.507  -0.682  1.00  0.00    -0.014 A 
BRANCH  33  34
ATOM     34  C   UNL     1      11.501  -2.565   0.029  1.00  0.00     0.031 A 
ATOM     35  C   UNL     1      10.953  -3.174   1.288  1.00  0.00     0.074 A 
ATOM     36  C   UNL     1      12.652  -3.022  -0.500  1.00  0.00     0.049 A 
ATOM     37  N   UNL     1      11.459  -4.122   2.034  1.00  0.00    -0.248 NA
ATOM     38  C   UNL     1       9.667  -2.648   1.772  1.00  0.00     0.031 C 
ATOM     39  C   UNL     1      13.269  -2.526  -1.732  1.00  0.00     0.029 A 
ATOM     40  N   UNL     1      13.499  -4.014  -0.078  1.00  0.00    -0.354 N 
ATOM     41  C   UNL     1      10.565  -4.300   3.082  1.00  0.00     0.074 A 
ATOM     42  C   UNL     1       9.492  -3.346   2.886  1.00  0.00     0.031 C 
ATOM     43  C   UNL     1      14.386  -3.230  -1.976  1.00  0.00     0.029 A 
ATOM     44  C   UNL     1      14.581  -4.202  -0.904  1.00  0.00     0.049 A 
ATOM     45  H   UNL     1      13.346  -4.542   0.738  1.00  0.00     0.167 HD
ATOM     46  C   UNL     1      10.629  -5.182   4.109  1.00  0.00     0.037 A 
ATOM     47  C   UNL     1      15.618  -5.054  -0.804  1.00  0.00     0.037 A 
ATOM     48  C   UNL     1      11.689  -6.140   4.292  1.00  0.00     0.049 A 
ATOM     49  C   UNL     1      15.675  -6.010   0.355  1.00  0.00     0.074 A 
ATOM     50  C   UNL     1      11.835  -7.084   5.294  1.00  0.00     0.029 A 
ATOM     51  N   UNL     1      12.785  -6.279   3.452  1.00  0.00    -0.354 N 
ATOM     52  N   UNL     1      14.821  -6.163   1.339  1.00  0.00    -0.248 NA
ATOM     53  C   UNL     1      16.837  -6.906   0.419  1.00  0.00     0.031 C 
ATOM     54  C   UNL     1      13.035  -7.772   5.077  1.00  0.00     0.029 A 
ATOM     55  C   UNL     1      13.619  -7.281   3.921  1.00  0.00     0.049 A 
ATOM     56  H   UNL     1      12.946  -5.744   2.642  1.00  0.00     0.167 HD
ATOM     57  C   UNL     1      15.339  -7.177   2.136  1.00  0.00     0.074 A 
ATOM     58  C   UNL     1      16.568  -7.617   1.506  1.00  0.00     0.031 C 
ATOM     59  C   UNL     1      14.846  -7.695   3.289  1.00  0.00     0.037 A 
BRANCH  46  60
ATOM     60  C   UNL     1       9.528  -5.132   5.130  1.00  0.00     0.058 A 
ATOM     61  C   UNL     1       8.246  -5.635   4.859  1.00  0.00     0.135 A 
ATOM     62  C   UNL     1       9.765  -4.592   6.404  1.00  0.00     0.135 A 
ATOM     63  F   UNL     1       7.962  -6.146   3.651  1.00  0.00    -0.206 F 
ATOM     64  C   UNL     1       7.229  -5.582   5.808  1.00  0.00     0.059 A 
ATOM     65  C   UNL     1       8.769  -4.548   7.375  1.00  0.00     0.059 A 
ATOM     66  F   UNL     1      10.973  -4.096   6.714  1.00  0.00    -0.206 F 
ATOM     67  C   UNL     1       7.499  -5.031   7.062  1.00  0.00     0.060 A 
BRANCH  67  68
ATOM     68  S   UNL     1       6.172  -4.960   8.284  1.00  0.00     0.124 S 
ATOM     69  O   UNL     1       5.383  -3.836   7.791  1.00  0.00    -0.237 OA
ATOM     70  O   UNL     1       5.552  -6.275   8.154  1.00  0.00    -0.237 OA
ATOM     71  O   UNL     1       6.879  -4.728   9.540  1.00  0.00    -0.744 OA
ENDBRANCH  67  68
ENDBRANCH  46  60
BRANCH  47  72
ATOM     72  C   UNL     1      16.691  -5.037  -1.832  1.00  0.00     0.058 A 
ATOM     73  C   UNL     1      16.820  -6.078  -2.762  1.00  0.00     0.135 A 
ATOM     74  C   UNL     1      17.597  -3.969  -1.912  1.00  0.00     0.135 A 
ATOM     75  F   UNL     1      15.982  -7.125  -2.717  1.00  0.00    -0.206 F 
ATOM     76  C   UNL     1      17.816  -6.066  -3.733  1.00  0.00     0.059 A 
ATOM     77  C   UNL     1      18.587  -3.924  -2.888  1.00  0.00     0.059 A 
ATOM     78  F   UNL     1      17.507  -2.944  -1.051  1.00  0.00    -0.206 F 
ATOM     79  C   UNL     1      18.694  -4.982  -3.789  1.00  0.00     0.060 A 
BRANCH  79  80
ATOM     80  S   UNL     1      19.947  -4.941  -5.090  1.00  0.00     0.124 S 
ATOM     81  O   UNL     1      20.951  -5.855  -4.559  1.00  0.00    -0.237 OA
ATOM     82  O   UNL     1      19.203  -5.414  -6.253  1.00  0.00    -0.237 OA
ATOM     83  O   UNL     1      20.332  -3.533  -5.135  1.00  0.00    -0.744 OA
ENDBRANCH  79  80
ENDBRANCH  47  72
BRANCH  59  84
ATOM     84  C   UNL     1      15.641  -8.795   3.932  1.00  0.00     0.058 A 
ATOM     85  C   UNL     1      16.839  -8.528   4.613  1.00  0.00     0.135 A 
ATOM     86  C   UNL     1      15.201 -10.126   3.872  1.00  0.00     0.135 A 
ATOM     87  F   UNL     1      17.305  -7.272   4.694  1.00  0.00    -0.206 F 
ATOM     88  C   UNL     1      17.594  -9.549   5.182  1.00  0.00     0.059 A 
ATOM     89  C   UNL     1      15.929 -11.161   4.452  1.00  0.00     0.059 A 
ATOM     90  F   UNL     1      14.056 -10.432   3.241  1.00  0.00    -0.206 F 
ATOM     91  C   UNL     1      17.134 -10.864   5.089  1.00  0.00     0.060 A 
BRANCH  91  92
ATOM     92  S   UNL     1      18.119 -12.186   5.825  1.00  0.00     0.124 S 
ATOM     93  O   UNL     1      19.149 -12.383   4.810  1.00  0.00    -0.237 OA
ATOM     94  O   UNL     1      18.570 -11.587   7.077  1.00  0.00    -0.237 OA
ATOM     95  O   UNL     1      17.162 -13.279   5.970  1.00  0.00    -0.744 OA
ENDBRANCH  91  92
ENDBRANCH  59  84
ENDBRANCH  33  34
ENDBRANCH  26  28
ENDBRANCH  25  26
ENDBRANCH  24  25
ENDBRANCH   1  24
TORSDOF 18
