REMARK SMILES CC(C)=C1[C@H]2CC[C@@H]1[C@@H](C(=O)Nc1cc(C)cc(C)c1)[C@@H]2C(=O)OCCOC(=O)c1ccc(-c2c3nc(c(-c4c(F)cc(S(=O)(=O)[O-])cc4F)c4ccc([nH]4)c(-c4c(F)cc(S(=O)(=O)[O-])cc4F)c4nc(c(-c5c(F)cc(S(=O)(=O)[O-])cc5F)c5ccc2[nH]5)C=C4)C=C3)cc1
REMARK SMILES IDX 26 1 25 2 24 3 22 4 23 5 21 6 1 7 2 8 3 9 4 10 5 11 8 12
REMARK SMILES IDX 6 13 7 14 9 15 10 16 11 17 12 18 13 20 14 21 20 22 15 23
REMARK SMILES IDX 18 24 16 25 17 26 19 27 27 28 28 29 29 30 30 31 31 32 95 33
REMARK SMILES IDX 32 34 94 35 33 36 34 37 35 38 88 39 36 40 93 41 87 42 89 43
REMARK SMILES IDX 37 44 92 45 86 46 85 47 38 49 72 50 51 51 71 52 52 53 55 54
REMARK SMILES IDX 70 55 90 56 53 57 54 58 69 60 91 61 56 62 39 63 40 64 49 65
REMARK SMILES IDX 41 66 42 67 48 68 50 69 43 70 44 71 45 72 46 73 47 74 73 75
REMARK SMILES IDX 74 76 83 77 75 78 76 79 82 80 84 81 77 82 78 83 79 84 80 85
REMARK SMILES IDX 81 86 57 87 58 88 67 89 59 90 60 91 66 92 68 93 61 94 62 95
REMARK SMILES IDX 63 96 64 97 65 98
REMARK H PARENT 12 19 89 48 55 59
REMARK Flexibility Score: inf
ROOT
ATOM      1  C   UNL     1      -1.365  -4.079   7.405  1.00  0.00     0.275 C 
ENDROOT
BRANCH   1   2
ATOM      2  C   UNL     1      -1.613  -2.693   6.814  1.00  0.00     0.274 C 
BRANCH   2   3
ATOM      3  O   UNL     1      -1.244  -2.653   5.422  1.00  0.00    -0.462 OA
BRANCH   3   4
ATOM      4  C   UNL     1      -0.078  -2.041   5.091  1.00  0.00     0.310 C 
ATOM      5  O   UNL     1       0.685  -1.528   5.899  1.00  0.00    -0.252 OA
BRANCH   4   6
ATOM      6  C   UNL     1       0.128  -1.935   3.595  1.00  0.00     0.119 C 
ATOM      7  C   UNL     1      -0.348  -1.075  -0.809  1.00  0.00     0.039 C 
ATOM      8  C   UNL     1      -0.951  -1.218   0.554  1.00  0.00    -0.077 C 
ATOM      9  C   UNL     1      -2.032  -0.217   0.874  1.00  0.00     0.039 C 
ATOM     10  C   UNL     1      -0.530  -2.120   1.453  1.00  0.00    -0.064 C 
ATOM     11  C   UNL     1      -1.103  -2.409   2.801  1.00  0.00     0.030 C 
ATOM     12  C   UNL     1       0.635  -3.086   1.519  1.00  0.00     0.029 C 
ATOM     13  C   UNL     1      -1.261  -3.950   2.676  1.00  0.00     0.009 C 
ATOM     14  C   UNL     1      -0.152  -4.384   1.698  1.00  0.00     0.009 C 
ATOM     15  C   UNL     1       1.248  -2.742   2.917  1.00  0.00     0.101 C 
BRANCH  15  16
ATOM     16  C   UNL     1       2.697  -2.286   2.827  1.00  0.00     0.228 C 
ATOM     17  O   UNL     1       3.561  -3.016   3.339  1.00  0.00    -0.274 OA
ATOM     18  N   UNL     1       3.216  -1.268   2.115  1.00  0.00    -0.326 N 
ATOM     19  H   UNL     1       4.195  -1.201   2.197  1.00  0.00     0.169 HD
BRANCH  18  20
ATOM     20  C   UNL     1       2.672  -0.294   1.292  1.00  0.00     0.041 A 
ATOM     21  C   UNL     1       1.824   0.699   1.767  1.00  0.00     0.029 A 
ATOM     22  C   UNL     1       3.174  -0.227  -0.011  1.00  0.00     0.029 A 
ATOM     23  C   UNL     1       1.436   1.746   0.918  1.00  0.00    -0.049 A 
ATOM     24  C   UNL     1       2.762   0.780  -0.885  1.00  0.00    -0.049 A 
ATOM     25  C   UNL     1       0.547   2.850   1.411  1.00  0.00     0.044 C 
ATOM     26  C   UNL     1       1.887   1.764  -0.412  1.00  0.00     0.007 A 
ATOM     27  C   UNL     1       3.182   0.744  -2.323  1.00  0.00     0.044 C 
ENDBRANCH  18  20
ENDBRANCH  15  16
ENDBRANCH   4   6
ENDBRANCH   3   4
ENDBRANCH   2   3
ENDBRANCH   1   2
BRANCH   1  28
ATOM     28  O   UNL     1       0.040  -4.293   7.618  1.00  0.00    -0.458 OA
BRANCH  28  29
ATOM     29  C   UNL     1       0.682  -4.920   6.606  1.00  0.00     0.338 C 
ATOM     30  O   UNL     1       0.194  -5.389   5.594  1.00  0.00    -0.246 OA
BRANCH  29  31
ATOM     31  C   UNL     1       2.128  -4.832   6.835  1.00  0.00     0.060 A 
ATOM     32  C   UNL     1       2.828  -3.846   6.149  1.00  0.00     0.016 A 
ATOM     33  C   UNL     1       2.805  -5.763   7.615  1.00  0.00     0.016 A 
ATOM     34  C   UNL     1       4.211  -3.808   6.185  1.00  0.00     0.010 A 
ATOM     35  C   UNL     1       4.201  -5.700   7.686  1.00  0.00     0.010 A 
ATOM     36  C   UNL     1       4.913  -4.734   6.951  1.00  0.00    -0.014 A 
BRANCH  36  37
ATOM     37  C   UNL     1       6.391  -4.723   6.909  1.00  0.00     0.031 A 
ATOM     38  C   UNL     1       7.115  -5.880   6.288  1.00  0.00     0.074 A 
ATOM     39  C   UNL     1       7.070  -3.657   7.373  1.00  0.00     0.049 A 
ATOM     40  N   UNL     1       8.385  -6.181   6.335  1.00  0.00    -0.248 NA
ATOM     41  C   UNL     1       6.296  -6.833   5.519  1.00  0.00     0.031 C 
ATOM     42  C   UNL     1       6.467  -2.426   7.891  1.00  0.00     0.029 A 
ATOM     43  N   UNL     1       8.418  -3.436   7.480  1.00  0.00    -0.354 N 
ATOM     44  C   UNL     1       8.512  -7.384   5.652  1.00  0.00     0.074 A 
ATOM     45  C   UNL     1       7.191  -7.757   5.195  1.00  0.00     0.031 C 
ATOM     46  C   UNL     1       7.441  -1.577   8.254  1.00  0.00     0.029 A 
ATOM     47  C   UNL     1       8.729  -2.236   8.073  1.00  0.00     0.049 A 
ATOM     48  H   UNL     1       9.098  -4.074   7.164  1.00  0.00     0.167 HD
ATOM     49  C   UNL     1       9.636  -8.108   5.441  1.00  0.00     0.037 A 
ATOM     50  C   UNL     1       9.917  -1.747   8.475  1.00  0.00     0.037 A 
ATOM     51  C   UNL     1      10.945  -7.687   5.868  1.00  0.00     0.049 A 
ATOM     52  C   UNL     1      11.144  -2.593   8.279  1.00  0.00     0.074 A 
ATOM     53  C   UNL     1      12.153  -8.348   5.734  1.00  0.00     0.029 A 
ATOM     54  N   UNL     1      11.219  -6.478   6.495  1.00  0.00    -0.354 N 
ATOM     55  N   UNL     1      11.247  -3.780   7.728  1.00  0.00    -0.248 NA
ATOM     56  C   UNL     1      12.412  -2.046   8.775  1.00  0.00     0.031 C 
ATOM     57  C   UNL     1      13.152  -7.552   6.304  1.00  0.00     0.029 A 
ATOM     58  C   UNL     1      12.574  -6.376   6.757  1.00  0.00     0.049 A 
ATOM     59  H   UNL     1      10.547  -5.795   6.720  1.00  0.00     0.167 HD
ATOM     60  C   UNL     1      12.593  -4.115   7.796  1.00  0.00     0.074 A 
ATOM     61  C   UNL     1      13.267  -2.998   8.428  1.00  0.00     0.031 C 
ATOM     62  C   UNL     1      13.216  -5.245   7.380  1.00  0.00     0.037 A 
BRANCH  49  63
ATOM     63  C   UNL     1       9.490  -9.443   4.765  1.00  0.00     0.058 A 
ATOM     64  C   UNL     1       9.222  -9.561   3.393  1.00  0.00     0.135 A 
ATOM     65  C   UNL     1       9.645 -10.627   5.506  1.00  0.00     0.135 A 
ATOM     66  F   UNL     1       9.042  -8.463   2.642  1.00  0.00    -0.206 F 
ATOM     67  C   UNL     1       9.093 -10.806   2.782  1.00  0.00     0.059 A 
ATOM     68  C   UNL     1       9.544 -11.881   4.911  1.00  0.00     0.059 A 
ATOM     69  F   UNL     1       9.897 -10.572   6.823  1.00  0.00    -0.206 F 
ATOM     70  C   UNL     1       9.255 -11.960   3.550  1.00  0.00     0.060 A 
BRANCH  70  71
ATOM     71  S   UNL     1       9.097 -13.569   2.744  1.00  0.00     0.124 S 
ATOM     72  O   UNL     1       7.652 -13.662   2.560  1.00  0.00    -0.237 OA
ATOM     73  O   UNL     1       9.880 -13.388   1.526  1.00  0.00    -0.237 OA
ATOM     74  O   UNL     1       9.666 -14.495   3.719  1.00  0.00    -0.744 OA
ENDBRANCH  70  71
ENDBRANCH  49  63
BRANCH  50  75
ATOM     75  C   UNL     1       9.990  -0.422   9.146  1.00  0.00     0.058 A 
ATOM     76  C   UNL     1      10.604   0.672   8.523  1.00  0.00     0.135 A 
ATOM     77  C   UNL     1       9.432  -0.221  10.420  1.00  0.00     0.135 A 
ATOM     78  F   UNL     1      11.159   0.529   7.310  1.00  0.00    -0.206 F 
ATOM     79  C   UNL     1      10.675   1.917   9.141  1.00  0.00     0.059 A 
ATOM     80  C   UNL     1       9.466   1.020  11.046  1.00  0.00     0.059 A 
ATOM     81  F   UNL     1       8.822  -1.233  11.056  1.00  0.00    -0.206 F 
ATOM     82  C   UNL     1      10.101   2.082  10.403  1.00  0.00     0.060 A 
BRANCH  82  83
ATOM     83  S   UNL     1      10.157   3.711  11.180  1.00  0.00     0.124 S 
ATOM     84  O   UNL     1      11.541   3.771  11.635  1.00  0.00    -0.237 OA
ATOM     85  O   UNL     1       9.810   4.595  10.072  1.00  0.00    -0.237 OA
ATOM     86  O   UNL     1       9.149   3.615  12.232  1.00  0.00    -0.744 OA
ENDBRANCH  82  83
ENDBRANCH  50  75
BRANCH  62  87
ATOM     87  C   UNL     1      14.705  -5.303   7.560  1.00  0.00     0.058 A 
ATOM     88  C   UNL     1      15.287  -5.513   8.819  1.00  0.00     0.135 A 
ATOM     89  C   UNL     1      15.557  -5.178   6.451  1.00  0.00     0.135 A 
ATOM     90  F   UNL     1      14.514  -5.631   9.910  1.00  0.00    -0.206 F 
ATOM     91  C   UNL     1      16.667  -5.569   8.978  1.00  0.00     0.059 A 
ATOM     92  C   UNL     1      16.939  -5.255   6.583  1.00  0.00     0.059 A 
ATOM     93  F   UNL     1      15.047  -4.985   5.224  1.00  0.00    -0.206 F 
ATOM     94  C   UNL     1      17.485  -5.436   7.854  1.00  0.00     0.060 A 
BRANCH  94  95
ATOM     95  S   UNL     1      19.275  -5.530   8.067  1.00  0.00     0.124 S 
ATOM     96  O   UNL     1      19.572  -4.216   8.627  1.00  0.00    -0.237 OA
ATOM     97  O   UNL     1      19.424  -6.658   8.983  1.00  0.00    -0.237 OA
ATOM     98  O   UNL     1      19.766  -5.763   6.712  1.00  0.00    -0.744 OA
ENDBRANCH  94  95
ENDBRANCH  62  87
ENDBRANCH  36  37
ENDBRANCH  29  31
ENDBRANCH  28  29
ENDBRANCH   1  28
TORSDOF 16
