REMARK SMILES O=C(OCCOC(=O)c1ccccc1N[C@H]1SC(=O)N(Cc2ccccc2)C1=O)c1ccc(-c2c3nc(c(-c4c(F)cc(S(=O)(=O)[O-])cc4F)c4ccc([nH]4)c(-c4c(F)cc(S(=O)(=O)[O-])cc4F)c4nc(c(-c5c(F)cc(S(=O)(=O)[O-])cc5F)c5ccc2[nH]5)C=C4)C=C3)cc1
REMARK SMILES IDX 5 1 4 2 3 3 2 4 1 5 30 6 31 7 95 8 32 9 94 10 33 11 34 12
REMARK SMILES IDX 35 13 88 14 36 15 93 16 87 17 89 18 37 19 92 20 86 21 85 22
REMARK SMILES IDX 38 24 72 25 51 26 71 27 52 28 55 29 70 30 90 31 53 32 54 33
REMARK SMILES IDX 69 35 91 36 56 37 39 38 40 39 49 40 41 41 42 42 48 43 50 44
REMARK SMILES IDX 43 45 44 46 45 47 46 48 47 49 73 50 74 51 83 52 75 53 76 54
REMARK SMILES IDX 82 55 84 56 77 57 78 58 79 59 80 60 81 61 57 62 58 63 67 64
REMARK SMILES IDX 59 65 60 66 66 67 68 68 61 69 62 70 63 71 64 72 65 73 6 74
REMARK SMILES IDX 7 75 8 76 9 77 10 78 14 79 11 80 13 81 12 82 15 83 16 85
REMARK SMILES IDX 17 86 28 87 18 88 20 89 29 90 19 91 21 92 22 93 23 94 27 95
REMARK SMILES IDX 24 96 26 97 25 98
REMARK H PARENT 89 23 55 34 15 84
REMARK Flexibility Score: inf
ROOT
ATOM      1  C   UNL     1       6.888   4.829  -7.036  1.00  0.00     0.275 C 
ENDROOT
BRANCH   1   2
ATOM      2  C   UNL     1       8.302   5.268  -7.435  1.00  0.00     0.275 C 
BRANCH   2   3
ATOM      3  O   UNL     1       9.335   4.349  -7.037  1.00  0.00    -0.458 OA
BRANCH   3   4
ATOM      4  C   UNL     1      10.076   4.289  -5.907  1.00  0.00     0.338 C 
ATOM      5  O   UNL     1      11.044   3.528  -5.897  1.00  0.00    -0.246 OA
BRANCH   4   6
ATOM      6  C   UNL     1       9.745   5.002  -4.624  1.00  0.00     0.060 A 
ATOM      7  C   UNL     1       8.864   6.075  -4.470  1.00  0.00     0.016 A 
ATOM      8  C   UNL     1      10.377   4.512  -3.461  1.00  0.00     0.016 A 
ATOM      9  C   UNL     1       8.586   6.614  -3.211  1.00  0.00     0.010 A 
ATOM     10  C   UNL     1      10.113   5.051  -2.197  1.00  0.00     0.010 A 
ATOM     11  C   UNL     1       9.223   6.119  -2.072  1.00  0.00    -0.014 A 
BRANCH  11  12
ATOM     12  C   UNL     1       9.076   6.871  -0.808  1.00  0.00     0.031 A 
ATOM     13  C   UNL     1      10.073   7.933  -0.511  1.00  0.00     0.074 A 
ATOM     14  C   UNL     1       8.065   6.629   0.042  1.00  0.00     0.049 A 
ATOM     15  N   UNL     1      10.068   8.806   0.453  1.00  0.00    -0.248 NA
ATOM     16  C   UNL     1      11.254   7.982  -1.386  1.00  0.00     0.031 C 
ATOM     17  C   UNL     1       7.157   5.512  -0.108  1.00  0.00     0.029 A 
ATOM     18  N   UNL     1       7.612   7.270   1.168  1.00  0.00    -0.354 N 
ATOM     19  C   UNL     1      11.276   9.472   0.345  1.00  0.00     0.074 A 
ATOM     20  C   UNL     1      11.982   8.909  -0.785  1.00  0.00     0.031 C 
ATOM     21  C   UNL     1       6.214   5.573   0.841  1.00  0.00     0.029 A 
ATOM     22  C   UNL     1       6.405   6.776   1.626  1.00  0.00     0.049 A 
ATOM     23  H   UNL     1       8.098   8.007   1.605  1.00  0.00     0.167 HD
ATOM     24  C   UNL     1      11.753  10.442   1.154  1.00  0.00     0.037 A 
ATOM     25  C   UNL     1       5.535   7.281   2.526  1.00  0.00     0.037 A 
ATOM     26  C   UNL     1      11.031  10.939   2.294  1.00  0.00     0.049 A 
ATOM     27  C   UNL     1       6.004   8.486   3.293  1.00  0.00     0.074 A 
ATOM     28  C   UNL     1      11.416  11.900   3.207  1.00  0.00     0.029 A 
ATOM     29  N   UNL     1       9.771  10.494   2.685  1.00  0.00    -0.354 N 
ATOM     30  N   UNL     1       7.129   9.151   3.158  1.00  0.00    -0.248 NA
ATOM     31  C   UNL     1       5.136   8.976   4.369  1.00  0.00     0.031 C 
ATOM     32  C   UNL     1      10.410  12.005   4.175  1.00  0.00     0.029 A 
ATOM     33  C   UNL     1       9.366  11.159   3.829  1.00  0.00     0.049 A 
ATOM     34  H   UNL     1       9.245   9.806   2.216  1.00  0.00     0.167 HD
ATOM     35  C   UNL     1       7.118  10.120   4.147  1.00  0.00     0.074 A 
ATOM     36  C   UNL     1       5.843   9.999   4.831  1.00  0.00     0.031 C 
ATOM     37  C   UNL     1       8.090  11.001   4.487  1.00  0.00     0.037 A 
BRANCH  24  38
ATOM     38  C   UNL     1      13.143  10.923   0.863  1.00  0.00     0.058 A 
ATOM     39  C   UNL     1      13.454  11.636  -0.307  1.00  0.00     0.135 A 
ATOM     40  C   UNL     1      14.197  10.582   1.724  1.00  0.00     0.135 A 
ATOM     41  F   UNL     1      12.489  11.950  -1.187  1.00  0.00    -0.206 F 
ATOM     42  C   UNL     1      14.768  11.949  -0.637  1.00  0.00     0.059 A 
ATOM     43  C   UNL     1      15.514  10.917   1.431  1.00  0.00     0.059 A 
ATOM     44  F   UNL     1      13.958   9.883   2.844  1.00  0.00    -0.206 F 
ATOM     45  C   UNL     1      15.791  11.580   0.237  1.00  0.00     0.060 A 
BRANCH  45  46
ATOM     46  S   UNL     1      17.493  11.967  -0.218  1.00  0.00     0.124 S 
ATOM     47  O   UNL     1      17.738  11.000  -1.283  1.00  0.00    -0.237 OA
ATOM     48  O   UNL     1      17.392  13.361  -0.640  1.00  0.00    -0.237 OA
ATOM     49  O   UNL     1      18.235  11.742   1.018  1.00  0.00    -0.744 OA
ENDBRANCH  45  46
ENDBRANCH  24  38
BRANCH  25  50
ATOM     50  C   UNL     1       4.146   6.739   2.692  1.00  0.00     0.058 A 
ATOM     51  C   UNL     1       3.027   7.557   2.433  1.00  0.00     0.135 A 
ATOM     52  C   UNL     1       3.878   5.417   3.080  1.00  0.00     0.135 A 
ATOM     53  F   UNL     1       3.199   8.843   2.087  1.00  0.00    -0.206 F 
ATOM     54  C   UNL     1       1.717   7.090   2.547  1.00  0.00     0.059 A 
ATOM     55  C   UNL     1       2.577   4.916   3.168  1.00  0.00     0.059 A 
ATOM     56  F   UNL     1       4.889   4.580   3.362  1.00  0.00    -0.206 F 
ATOM     57  C   UNL     1       1.502   5.762   2.906  1.00  0.00     0.060 A 
BRANCH  57  58
ATOM     58  S   UNL     1      -0.197   5.147   2.988  1.00  0.00     0.124 S 
ATOM     59  O   UNL     1      -0.691   5.796   4.198  1.00  0.00    -0.237 OA
ATOM     60  O   UNL     1      -0.762   5.628   1.730  1.00  0.00    -0.237 OA
ATOM     61  O   UNL     1      -0.028   3.700   3.074  1.00  0.00    -0.744 OA
ENDBRANCH  57  58
ENDBRANCH  25  50
BRANCH  37  62
ATOM     62  C   UNL     1       7.800  11.898   5.653  1.00  0.00     0.058 A 
ATOM     63  C   UNL     1       7.758  11.406   6.967  1.00  0.00     0.135 A 
ATOM     64  C   UNL     1       7.606  13.272   5.452  1.00  0.00     0.135 A 
ATOM     65  F   UNL     1       7.932  10.096   7.208  1.00  0.00    -0.206 F 
ATOM     66  C   UNL     1       7.503  12.245   8.044  1.00  0.00     0.059 A 
ATOM     67  C   UNL     1       7.382  14.134   6.517  1.00  0.00     0.059 A 
ATOM     68  F   UNL     1       7.646  13.788   4.214  1.00  0.00    -0.206 F 
ATOM     69  C   UNL     1       7.318  13.609   7.807  1.00  0.00     0.060 A 
BRANCH  69  70
ATOM     70  S   UNL     1       7.016  14.694   9.215  1.00  0.00     0.124 S 
ATOM     71  O   UNL     1       5.646  14.339   9.570  1.00  0.00    -0.237 OA
ATOM     72  O   UNL     1       8.047  14.273  10.159  1.00  0.00    -0.237 OA
ATOM     73  O   UNL     1       7.194  16.031   8.657  1.00  0.00    -0.744 OA
ENDBRANCH  69  70
ENDBRANCH  37  62
ENDBRANCH  11  12
ENDBRANCH   4   6
ENDBRANCH   3   4
ENDBRANCH   2   3
ENDBRANCH   1   2
BRANCH   1  74
ATOM     74  O   UNL     1       6.779   4.432  -5.660  1.00  0.00    -0.458 OA
BRANCH  74  75
ATOM     75  C   UNL     1       6.971   3.104  -5.436  1.00  0.00     0.340 C 
ATOM     76  O   UNL     1       7.154   2.255  -6.294  1.00  0.00    -0.246 OA
BRANCH  75  77
ATOM     77  C   UNL     1       7.059   2.805  -3.987  1.00  0.00     0.083 A 
ATOM     78  C   UNL     1       8.119   1.950  -3.624  1.00  0.00     0.018 A 
ATOM     79  C   UNL     1       6.122   3.277  -3.037  1.00  0.00     0.050 A 
ATOM     80  C   UNL     1       8.271   1.541  -2.307  1.00  0.00     0.001 A 
ATOM     81  C   UNL     1       6.216   2.708  -1.759  1.00  0.00     0.026 A 
ATOM     82  C   UNL     1       7.301   1.897  -1.382  1.00  0.00     0.002 A 
BRANCH  79  83
ATOM     83  N   UNL     1       5.205   4.260  -3.362  1.00  0.00    -0.364 N 
ATOM     84  H   UNL     1       5.516   4.894  -4.048  1.00  0.00     0.162 HD
BRANCH  83  85
ATOM     85  C   UNL     1       3.850   4.525  -2.866  1.00  0.00     0.238 C 
ATOM     86  S   UNL     1       3.699   4.992  -1.155  1.00  0.00    -0.029 SA
ATOM     87  C   UNL     1       3.304   5.771  -3.590  1.00  0.00     0.263 C 
ATOM     88  C   UNL     1       3.700   6.697  -1.515  1.00  0.00     0.291 C 
ATOM     89  N   UNL     1       3.491   6.911  -2.842  1.00  0.00    -0.266 N 
ATOM     90  O   UNL     1       2.820   5.728  -4.718  1.00  0.00    -0.271 OA
ATOM     91  O   UNL     1       3.792   7.550  -0.642  1.00  0.00    -0.261 OA
BRANCH  89  92
ATOM     92  C   UNL     1       3.194   8.252  -3.322  1.00  0.00     0.165 C 
BRANCH  92  93
ATOM     93  C   UNL     1       4.218   8.854  -4.269  1.00  0.00    -0.028 A 
ATOM     94  C   UNL     1       4.806  10.097  -3.979  1.00  0.00     0.005 A 
ATOM     95  C   UNL     1       4.509   8.265  -5.509  1.00  0.00     0.005 A 
ATOM     96  C   UNL     1       5.646  10.727  -4.905  1.00  0.00     0.000 A 
ATOM     97  C   UNL     1       5.357   8.887  -6.427  1.00  0.00     0.000 A 
ATOM     98  C   UNL     1       5.920  10.122  -6.129  1.00  0.00     0.000 A 
ENDBRANCH  92  93
ENDBRANCH  89  92
ENDBRANCH  83  85
ENDBRANCH  79  83
ENDBRANCH  75  77
ENDBRANCH  74  75
ENDBRANCH   1  74
TORSDOF 18
