REMARK SMILES CCNC(=O)C[NH2+][C@@H](C)[C@@H](C)C(=O)OCCOC(=O)c1ccc(-c2c3nc(c(-c4c(F)cc(S(=O)(=O)[O-])cc4F)c4ccc([nH]4)c(-c4c(F)cc(S(=O)(=O)[O-])cc4F)c4nc(c(-c5c(F)cc(S(=O)(=O)[O-])cc5F)c5ccc2[nH]5)C=C4)C=C3)cc1
REMARK SMILES IDX 15 1 14 2 12 3 13 4 10 5 11 6 8 7 9 8 7 9 6 12 4 13 3 14
REMARK SMILES IDX 5 16 2 17 1 18 16 19 17 20 18 21 19 22 20 23 21 24 85 25
REMARK SMILES IDX 22 26 84 27 23 28 24 29 25 30 78 31 26 32 83 33 77 34 79 35
REMARK SMILES IDX 27 36 82 37 76 38 75 39 28 41 62 42 41 43 61 44 42 45 45 46
REMARK SMILES IDX 60 47 80 48 43 49 44 50 59 52 81 53 46 54 29 55 30 56 39 57
REMARK SMILES IDX 31 58 32 59 38 60 40 61 33 62 34 63 35 64 36 65 37 66 63 67
REMARK SMILES IDX 64 68 73 69 65 70 66 71 72 72 74 73 67 74 68 75 69 76 70 77
REMARK SMILES IDX 71 78 47 79 48 80 57 81 49 82 50 83 56 84 58 85 51 86 52 87
REMARK SMILES IDX 53 88 54 89 55 90
REMARK H PARENT 7 10 7 11 3 15 79 40 45 51
REMARK Flexibility Score: inf
ROOT
ATOM      1  C   UNL     1      -6.880   0.034  -0.228  1.00  0.00     0.274 C 
ENDROOT
BRANCH   1   2
ATOM      2  O   UNL     1      -5.516   0.186   0.216  1.00  0.00    -0.462 OA
BRANCH   2   3
ATOM      3  C   UNL     1      -4.762   1.009  -0.558  1.00  0.00     0.314 C 
ATOM      4  O   UNL     1      -5.142   1.510  -1.612  1.00  0.00    -0.252 OA
BRANCH   3   5
ATOM      5  C   UNL     1      -3.349   1.212  -0.048  1.00  0.00     0.154 C 
ATOM      6  C   UNL     1      -2.456   0.328  -0.925  1.00  0.00     0.026 C 
BRANCH   5   7
ATOM      7  C   UNL     1      -3.113   0.982   1.468  1.00  0.00     0.193 C 
ATOM      8  C   UNL     1      -4.005   1.874   2.341  1.00  0.00     0.076 C 
BRANCH   7   9
ATOM      9  N   UNL     1      -1.691   1.268   1.747  1.00  0.00    -0.336 N 
ATOM     10  H   UNL     1      -1.130   0.876   0.991  1.00  0.00     0.346 HD
ATOM     11  H   UNL     1      -1.601   2.282   1.816  1.00  0.00     0.346 HD
BRANCH   9  12
ATOM     12  C   UNL     1      -1.209   0.709   3.019  1.00  0.00     0.362 C 
BRANCH  12  13
ATOM     13  C   UNL     1       0.303   0.929   3.148  1.00  0.00     0.275 C 
ATOM     14  N   UNL     1       1.161   0.243   2.335  1.00  0.00    -0.351 N 
ATOM     15  H   UNL     1       2.120   0.372   2.520  1.00  0.00     0.163 HD
ATOM     16  O   UNL     1       0.774   1.693   3.992  1.00  0.00    -0.269 OA
BRANCH  14  17
ATOM     17  C   UNL     1       0.847  -0.649   1.238  1.00  0.00     0.112 C 
ATOM     18  C   UNL     1       1.253  -0.037  -0.090  1.00  0.00     0.027 C 
ENDBRANCH  14  17
ENDBRANCH  12  13
ENDBRANCH   9  12
ENDBRANCH   7   9
ENDBRANCH   5   7
ENDBRANCH   3   5
ENDBRANCH   2   3
ENDBRANCH   1   2
BRANCH   1  19
ATOM     19  C   UNL     1      -7.786   1.082   0.418  1.00  0.00     0.275 C 
BRANCH  19  20
ATOM     20  O   UNL     1      -7.289   2.403   0.142  1.00  0.00    -0.458 OA
BRANCH  20  21
ATOM     21  C   UNL     1      -7.321   3.267   1.183  1.00  0.00     0.338 C 
ATOM     22  O   UNL     1      -7.774   3.054   2.294  1.00  0.00    -0.246 OA
BRANCH  21  23
ATOM     23  C   UNL     1      -6.737   4.565   0.786  1.00  0.00     0.060 A 
ATOM     24  C   UNL     1      -5.504   4.647   0.132  1.00  0.00     0.016 A 
ATOM     25  C   UNL     1      -7.408   5.729   1.162  1.00  0.00     0.016 A 
ATOM     26  C   UNL     1      -4.917   5.893  -0.103  1.00  0.00     0.010 A 
ATOM     27  C   UNL     1      -6.849   6.974   0.872  1.00  0.00     0.010 A 
ATOM     28  C   UNL     1      -5.587   7.069   0.262  1.00  0.00    -0.014 A 
BRANCH  28  29
ATOM     29  C   UNL     1      -4.983   8.408   0.045  1.00  0.00     0.031 A 
ATOM     30  C   UNL     1      -4.637   9.270   1.230  1.00  0.00     0.074 A 
ATOM     31  C   UNL     1      -4.801   8.877  -1.203  1.00  0.00     0.049 A 
ATOM     32  N   UNL     1      -4.320  10.538   1.268  1.00  0.00    -0.248 NA
ATOM     33  C   UNL     1      -4.668   8.617   2.548  1.00  0.00     0.031 C 
ATOM     34  C   UNL     1      -5.066   8.133  -2.435  1.00  0.00     0.029 A 
ATOM     35  N   UNL     1      -4.374  10.106  -1.641  1.00  0.00    -0.354 N 
ATOM     36  C   UNL     1      -4.155  10.847   2.613  1.00  0.00     0.074 A 
ATOM     37  C   UNL     1      -4.410   9.633   3.359  1.00  0.00     0.031 C 
ATOM     38  C   UNL     1      -4.802   8.922  -3.489  1.00  0.00     0.029 A 
ATOM     39  C   UNL     1      -4.410  10.243  -3.008  1.00  0.00     0.049 A 
ATOM     40  H   UNL     1      -4.071  10.820  -1.034  1.00  0.00     0.167 HD
ATOM     41  C   UNL     1      -3.826  12.037   3.172  1.00  0.00     0.037 A 
ATOM     42  C   UNL     1      -4.196  11.322  -3.786  1.00  0.00     0.037 A 
ATOM     43  C   UNL     1      -3.545  13.233   2.422  1.00  0.00     0.049 A 
ATOM     44  C   UNL     1      -3.857  12.638  -3.145  1.00  0.00     0.074 A 
ATOM     45  C   UNL     1      -3.187  14.484   2.894  1.00  0.00     0.029 A 
ATOM     46  N   UNL     1      -3.584  13.325   1.038  1.00  0.00    -0.354 N 
ATOM     47  N   UNL     1      -3.738  12.926  -1.871  1.00  0.00    -0.248 NA
ATOM     48  C   UNL     1      -3.637  13.778  -4.045  1.00  0.00     0.031 C 
ATOM     49  C   UNL     1      -3.034  15.339   1.796  1.00  0.00     0.029 A 
ATOM     50  C   UNL     1      -3.266  14.612   0.639  1.00  0.00     0.049 A 
ATOM     51  H   UNL     1      -3.806  12.583   0.429  1.00  0.00     0.167 HD
ATOM     52  C   UNL     1      -3.420  14.278  -1.816  1.00  0.00     0.074 A 
ATOM     53  C   UNL     1      -3.353  14.748  -3.185  1.00  0.00     0.031 C 
ATOM     54  C   UNL     1      -3.205  15.060  -0.730  1.00  0.00     0.037 A 
BRANCH  41  55
ATOM     55  C   UNL     1      -3.785  12.106   4.673  1.00  0.00     0.058 A 
ATOM     56  C   UNL     1      -2.735  11.539   5.412  1.00  0.00     0.135 A 
ATOM     57  C   UNL     1      -4.806  12.761   5.380  1.00  0.00     0.135 A 
ATOM     58  F   UNL     1      -1.743  10.887   4.785  1.00  0.00    -0.206 F 
ATOM     59  C   UNL     1      -2.714  11.594   6.803  1.00  0.00     0.059 A 
ATOM     60  C   UNL     1      -4.794  12.846   6.770  1.00  0.00     0.059 A 
ATOM     61  F   UNL     1      -5.833  13.320   4.722  1.00  0.00    -0.206 F 
ATOM     62  C   UNL     1      -3.752  12.243   7.473  1.00  0.00     0.060 A 
BRANCH  62  63
ATOM     63  S   UNL     1      -3.724  12.297   9.278  1.00  0.00     0.124 S 
ATOM     64  O   UNL     1      -4.181  10.952   9.615  1.00  0.00    -0.237 OA
ATOM     65  O   UNL     1      -2.321  12.579   9.565  1.00  0.00    -0.237 OA
ATOM     66  O   UNL     1      -4.654  13.375   9.599  1.00  0.00    -0.744 OA
ENDBRANCH  62  63
ENDBRANCH  41  55
BRANCH  42  67
ATOM     67  C   UNL     1      -4.328  11.199  -5.260  1.00  0.00     0.058 A 
ATOM     68  C   UNL     1      -3.196  11.191  -6.086  1.00  0.00     0.135 A 
ATOM     69  C   UNL     1      -5.584  11.041  -5.866  1.00  0.00     0.135 A 
ATOM     70  F   UNL     1      -1.975  11.350  -5.551  1.00  0.00    -0.206 F 
ATOM     71  C   UNL     1      -3.302  11.029  -7.463  1.00  0.00     0.059 A 
ATOM     72  C   UNL     1      -5.714  10.856  -7.239  1.00  0.00     0.059 A 
ATOM     73  F   UNL     1      -6.697  11.030  -5.115  1.00  0.00    -0.206 F 
ATOM     74  C   UNL     1      -4.566  10.855  -8.030  1.00  0.00     0.060 A 
BRANCH  74  75
ATOM     75  S   UNL     1      -4.691  10.561  -9.808  1.00  0.00     0.124 S 
ATOM     76  O   UNL     1      -4.525  11.909 -10.340  1.00  0.00    -0.237 OA
ATOM     77  O   UNL     1      -3.586   9.639 -10.049  1.00  0.00    -0.237 OA
ATOM     78  O   UNL     1      -6.023   9.981  -9.956  1.00  0.00    -0.744 OA
ENDBRANCH  74  75
ENDBRANCH  42  67
BRANCH  54  79
ATOM     79  C   UNL     1      -2.854  16.498  -0.980  1.00  0.00     0.058 A 
ATOM     80  C   UNL     1      -3.832  17.438  -1.338  1.00  0.00     0.135 A 
ATOM     81  C   UNL     1      -1.534  16.947  -0.822  1.00  0.00     0.135 A 
ATOM     82  F   UNL     1      -5.107  17.056  -1.509  1.00  0.00    -0.206 F 
ATOM     83  C   UNL     1      -3.509  18.775  -1.549  1.00  0.00     0.059 A 
ATOM     84  C   UNL     1      -1.192  18.282  -1.010  1.00  0.00     0.059 A 
ATOM     85  F   UNL     1      -0.565  16.086  -0.473  1.00  0.00    -0.206 F 
ATOM     86  C   UNL     1      -2.184  19.187  -1.385  1.00  0.00     0.060 A 
BRANCH  86  87
ATOM     87  S   UNL     1      -1.777  20.928  -1.632  1.00  0.00     0.124 S 
ATOM     88  O   UNL     1      -1.729  21.014  -3.088  1.00  0.00    -0.237 OA
ATOM     89  O   UNL     1      -2.898  21.610  -0.993  1.00  0.00    -0.237 OA
ATOM     90  O   UNL     1      -0.494  21.075  -0.951  1.00  0.00    -0.744 OA
ENDBRANCH  86  87
ENDBRANCH  54  79
ENDBRANCH  28  29
ENDBRANCH  21  23
ENDBRANCH  20  21
ENDBRANCH  19  20
ENDBRANCH   1  19
TORSDOF 19
