REMARK SMILES Cc1ccc(SCC[N@H+]2CC[C@@H](C(=O)OCCOC(=O)c3ccc(-c4c5nc(c(-c6c(F)cc(S(=O)(=O)[O-])cc6F)c6ccc([nH]6)c(-c6c(F)cc(S(=O)(=O)[O-])cc6F)c6nc(c(-c7c(F)cc(S(=O)(=O)[O-])cc7F)c7ccc4[nH]7)C=C6)C=C5)cc3)[C@@H]2C)cc1
REMARK SMILES IDX 16 1 15 2 13 3 14 4 12 5 9 6 10 7 87 8 11 10 88 11 8 12 7 13
REMARK SMILES IDX 6 14 5 15 1 16 2 17 3 18 90 19 4 20 89 21 17 22 18 23 19 24
REMARK SMILES IDX 20 25 21 26 22 27 86 28 23 29 85 30 24 31 25 32 26 33 79 34
REMARK SMILES IDX 27 35 84 36 78 37 80 38 28 39 83 40 77 41 76 42 29 44 63 45
REMARK SMILES IDX 42 46 62 47 43 48 46 49 61 50 81 51 44 52 45 53 60 55 82 56
REMARK SMILES IDX 47 57 30 58 31 59 40 60 32 61 33 62 39 63 41 64 34 65 35 66
REMARK SMILES IDX 36 67 37 68 38 69 64 70 65 71 74 72 66 73 67 74 73 75 75 76
REMARK SMILES IDX 68 77 69 78 70 79 71 80 72 81 48 82 49 83 58 84 50 85 51 86
REMARK SMILES IDX 57 87 59 88 52 89 53 90 54 91 55 92 56 93
REMARK H PARENT 9 9 80 43 46 54
REMARK Flexibility Score: inf
ROOT
ATOM      1  C   UNL     1      -4.431   2.463   5.867  1.00  0.00     0.274 C 
ENDROOT
BRANCH   1   2
ATOM      2  O   UNL     1      -4.091   3.112   4.643  1.00  0.00    -0.462 OA
BRANCH   2   3
ATOM      3  C   UNL     1      -4.205   2.323   3.546  1.00  0.00     0.315 C 
ATOM      4  O   UNL     1      -5.047   1.448   3.409  1.00  0.00    -0.252 OA
BRANCH   3   5
ATOM      5  C   UNL     1      -3.060   2.625   2.617  1.00  0.00     0.162 C 
ATOM      6  N   UNL     1      -2.888   1.827   0.379  1.00  0.00    -0.331 N 
ATOM      7  C   UNL     1      -2.657   3.278   0.369  1.00  0.00     0.263 C 
ATOM      8  C   UNL     1      -2.698   1.405   1.780  1.00  0.00     0.195 C 
ATOM      9  H   UNL     1      -2.243   1.353  -0.254  1.00  0.00     0.348 HD
ATOM     10  C   UNL     1      -3.286   3.775   1.655  1.00  0.00     0.083 C 
ATOM     11  C   UNL     1      -1.249   0.988   2.030  1.00  0.00     0.076 C 
BRANCH   6  12
ATOM     12  C   UNL     1      -4.237   1.478  -0.098  1.00  0.00     0.273 C 
BRANCH  12  13
ATOM     13  C   UNL     1      -4.199   0.912  -1.523  1.00  0.00     0.136 C 
BRANCH  13  14
ATOM     14  S   UNL     1      -3.511  -0.793  -1.680  1.00  0.00    -0.120 SA
BRANCH  14  15
ATOM     15  C   UNL     1      -1.761  -0.596  -1.355  1.00  0.00     0.007 A 
ATOM     16  C   UNL     1       2.395  -0.202  -0.217  1.00  0.00     0.044 C 
ATOM     17  C   UNL     1       0.969  -0.362  -0.655  1.00  0.00    -0.051 A 
ATOM     18  C   UNL     1       0.263  -1.534  -0.369  1.00  0.00     0.004 A 
ATOM     19  C   UNL     1       0.322   0.662  -1.353  1.00  0.00     0.004 A 
ATOM     20  C   UNL     1      -1.092  -1.646  -0.710  1.00  0.00     0.015 A 
ATOM     21  C   UNL     1      -1.027   0.539  -1.710  1.00  0.00     0.015 A 
ENDBRANCH  14  15
ENDBRANCH  13  14
ENDBRANCH  12  13
ENDBRANCH   6  12
ENDBRANCH   3   5
ENDBRANCH   2   3
ENDBRANCH   1   2
BRANCH   1  22
ATOM     22  C   UNL     1      -3.321   1.507   6.379  1.00  0.00     0.275 C 
BRANCH  22  23
ATOM     23  O   UNL     1      -2.181   1.265   5.498  1.00  0.00    -0.458 OA
BRANCH  23  24
ATOM     24  C   UNL     1      -0.947   1.890   5.458  1.00  0.00     0.338 C 
ATOM     25  O   UNL     1       0.022   1.333   4.991  1.00  0.00    -0.246 OA
BRANCH  24  26
ATOM     26  C   UNL     1      -0.992   3.373   5.527  1.00  0.00     0.060 A 
ATOM     27  C   UNL     1      -0.459   4.146   4.474  1.00  0.00     0.016 A 
ATOM     28  C   UNL     1      -1.824   3.953   6.451  1.00  0.00     0.016 A 
ATOM     29  C   UNL     1      -0.956   5.434   4.245  1.00  0.00     0.010 A 
ATOM     30  C   UNL     1      -2.496   5.079   6.074  1.00  0.00     0.010 A 
ATOM     31  C   UNL     1      -2.045   5.859   5.009  1.00  0.00    -0.014 A 
BRANCH  31  32
ATOM     32  C   UNL     1      -2.662   7.183   4.963  1.00  0.00     0.031 A 
ATOM     33  C   UNL     1      -3.296   7.710   3.753  1.00  0.00     0.074 A 
ATOM     34  C   UNL     1      -2.594   7.868   6.127  1.00  0.00     0.049 A 
ATOM     35  N   UNL     1      -3.055   8.861   3.231  1.00  0.00    -0.248 NA
ATOM     36  C   UNL     1      -4.314   6.947   3.037  1.00  0.00     0.031 C 
ATOM     37  C   UNL     1      -2.984   9.214   6.482  1.00  0.00     0.029 A 
ATOM     38  N   UNL     1      -1.859   7.437   7.243  1.00  0.00    -0.354 N 
ATOM     39  C   UNL     1      -4.103   9.123   2.367  1.00  0.00     0.074 A 
ATOM     40  C   UNL     1      -4.742   7.845   2.141  1.00  0.00     0.031 C 
ATOM     41  C   UNL     1      -2.159   9.615   7.478  1.00  0.00     0.029 A 
ATOM     42  C   UNL     1      -1.188   8.546   7.737  1.00  0.00     0.049 A 
ATOM     43  H   UNL     1      -1.825   6.522   7.606  1.00  0.00     0.167 HD
ATOM     44  C   UNL     1      -4.502  10.412   2.144  1.00  0.00     0.037 A 
ATOM     45  C   UNL     1       0.164   8.533   7.523  1.00  0.00     0.037 A 
ATOM     46  C   UNL     1      -3.771  11.318   3.039  1.00  0.00     0.049 A 
ATOM     47  C   UNL     1       0.545   9.525   6.444  1.00  0.00     0.074 A 
ATOM     48  C   UNL     1      -4.104  11.925   4.240  1.00  0.00     0.029 A 
ATOM     49  N   UNL     1      -2.391  11.395   2.954  1.00  0.00    -0.354 N 
ATOM     50  N   UNL     1      -0.330  10.142   5.691  1.00  0.00    -0.248 NA
ATOM     51  C   UNL     1       1.913   9.932   6.136  1.00  0.00     0.031 C 
ATOM     52  C   UNL     1      -2.899  12.303   4.903  1.00  0.00     0.029 A 
ATOM     53  C   UNL     1      -1.835  11.925   4.104  1.00  0.00     0.049 A 
ATOM     54  H   UNL     1      -1.869  11.108   2.171  1.00  0.00     0.167 HD
ATOM     55  C   UNL     1       0.292  11.092   4.940  1.00  0.00     0.074 A 
ATOM     56  C   UNL     1       1.706  10.888   5.211  1.00  0.00     0.031 C 
ATOM     57  C   UNL     1      -0.387  12.013   4.196  1.00  0.00     0.037 A 
BRANCH  44  58
ATOM     58  C   UNL     1      -5.779  10.787   1.408  1.00  0.00     0.058 A 
ATOM     59  C   UNL     1      -6.496  11.961   1.727  1.00  0.00     0.135 A 
ATOM     60  C   UNL     1      -6.351  10.020   0.369  1.00  0.00     0.135 A 
ATOM     61  F   UNL     1      -6.017  12.861   2.595  1.00  0.00    -0.206 F 
ATOM     62  C   UNL     1      -7.737  12.275   1.167  1.00  0.00     0.059 A 
ATOM     63  C   UNL     1      -7.614  10.289  -0.177  1.00  0.00     0.059 A 
ATOM     64  F   UNL     1      -5.680   8.996  -0.182  1.00  0.00    -0.206 F 
ATOM     65  C   UNL     1      -8.309  11.415   0.240  1.00  0.00     0.060 A 
BRANCH  65  66
ATOM     66  S   UNL     1      -9.944  11.809  -0.414  1.00  0.00     0.124 S 
ATOM     67  O   UNL     1     -10.738  11.948   0.804  1.00  0.00    -0.237 OA
ATOM     68  O   UNL     1      -9.688  13.042  -1.149  1.00  0.00    -0.237 OA
ATOM     69  O   UNL     1     -10.271  10.646  -1.235  1.00  0.00    -0.744 OA
ENDBRANCH  65  66
ENDBRANCH  44  58
BRANCH  45  70
ATOM     70  C   UNL     1       0.800   7.196   7.853  1.00  0.00     0.058 A 
ATOM     71  C   UNL     1       0.480   6.620   9.112  1.00  0.00     0.135 A 
ATOM     72  C   UNL     1       1.437   6.341   6.940  1.00  0.00     0.135 A 
ATOM     73  F   UNL     1      -0.107   7.368  10.061  1.00  0.00    -0.206 F 
ATOM     74  C   UNL     1       0.636   5.264   9.394  1.00  0.00     0.059 A 
ATOM     75  C   UNL     1       1.637   4.971   7.217  1.00  0.00     0.059 A 
ATOM     76  F   UNL     1       1.806   6.794   5.734  1.00  0.00    -0.206 F 
ATOM     77  C   UNL     1       1.177   4.434   8.423  1.00  0.00     0.060 A 
BRANCH  77  78
ATOM     78  S   UNL     1       1.109   2.647   8.731  1.00  0.00     0.124 S 
ATOM     79  O   UNL     1       1.918   2.509   9.937  1.00  0.00    -0.237 OA
ATOM     80  O   UNL     1      -0.328   2.431   8.908  1.00  0.00    -0.237 OA
ATOM     81  O   UNL     1       1.679   2.075   7.522  1.00  0.00    -0.744 OA
ENDBRANCH  77  78
ENDBRANCH  45  70
BRANCH  57  82
ATOM     82  C   UNL     1       0.291  13.151   3.507  1.00  0.00     0.058 A 
ATOM     83  C   UNL     1       1.219  13.972   4.165  1.00  0.00     0.135 A 
ATOM     84  C   UNL     1      -0.091  13.537   2.206  1.00  0.00     0.135 A 
ATOM     85  F   UNL     1       1.580  13.722   5.434  1.00  0.00    -0.206 F 
ATOM     86  C   UNL     1       1.789  15.077   3.541  1.00  0.00     0.059 A 
ATOM     87  C   UNL     1       0.419  14.667   1.588  1.00  0.00     0.059 A 
ATOM     88  F   UNL     1      -0.956  12.809   1.485  1.00  0.00    -0.206 F 
ATOM     89  C   UNL     1       1.387  15.411   2.249  1.00  0.00     0.060 A 
BRANCH  89  90
ATOM     90  S   UNL     1       2.135  16.819   1.419  1.00  0.00     0.124 S 
ATOM     91  O   UNL     1       2.375  17.750   2.517  1.00  0.00    -0.237 OA
ATOM     92  O   UNL     1       3.326  16.206   0.838  1.00  0.00    -0.237 OA
ATOM     93  O   UNL     1       1.109  17.232   0.467  1.00  0.00    -0.744 OA
ENDBRANCH  89  90
ENDBRANCH  57  82
ENDBRANCH  31  32
ENDBRANCH  24  26
ENDBRANCH  23  24
ENDBRANCH  22  23
ENDBRANCH   1  22
TORSDOF 18
