REMARK SMILES Cc1ccc(NC(=O)C[C@@H](C(=O)OCCOC(=O)c2ccc(-c3c4nc(c(-c5c(F)cc(S(=O)(=O)[O-])cc5F)c5ccc([nH]5)c(-c5c(F)cc(S(=O)(=O)[O-])cc5F)c5nc(c(-c6c(F)cc(S(=O)(=O)[O-])cc6F)c6ccc3[nH]6)C=C5)C=C4)cc2)[NH+]2CCOCC2)cc1
REMARK SMILES IDX 14 1 13 2 11 3 12 4 10 5 9 6 7 7 6 8 8 10 5 11 1 12 2 13
REMARK SMILES IDX 3 14 92 15 4 16 91 17 85 18 86 19 90 20 87 22 89 23 88 24
REMARK SMILES IDX 15 25 16 26 17 27 18 28 19 29 20 30 84 31 21 32 83 33 22 34
REMARK SMILES IDX 23 35 24 36 77 37 25 38 82 39 76 40 78 41 26 42 81 43 75 44
REMARK SMILES IDX 74 45 27 47 61 48 40 49 60 50 41 51 44 52 59 53 79 54 42 55
REMARK SMILES IDX 43 56 58 58 80 59 45 60 28 61 29 62 38 63 30 64 31 65 37 66
REMARK SMILES IDX 39 67 32 68 33 69 34 70 35 71 36 72 62 73 63 74 72 75 64 76
REMARK SMILES IDX 65 77 71 78 73 79 66 80 67 81 68 82 69 83 70 84 46 85 47 86
REMARK SMILES IDX 56 87 48 88 49 89 55 90 57 91 50 92 51 93 52 94 53 95 54 96
REMARK H PARENT 6 9 85 21 78 46 44 57
REMARK Flexibility Score: inf
ROOT
ATOM      1  C   UNL     1      -2.164   1.129  -0.132  1.00  0.00     0.274 C 
ENDROOT
BRANCH   1   2
ATOM      2  O   UNL     1      -3.415   0.099  -0.867  1.00  0.00    -0.458 OA
BRANCH   2   3
ATOM      3  C   UNL     1      -3.255  -1.083  -1.605  1.00  0.00     0.365 C 
ATOM      4  O   UNL     1      -2.463  -1.126  -2.523  1.00  0.00    -0.245 OA
BRANCH   3   5
ATOM      5  C   UNL     1      -4.169  -2.325  -1.211  1.00  0.00     0.304 C 
BRANCH   5   6
ATOM      6  C   UNL     1      -4.468  -2.397   0.296  1.00  0.00     0.177 C 
BRANCH   6   7
ATOM      7  C   UNL     1      -5.136  -1.177   0.868  1.00  0.00     0.231 C 
ATOM      8  N   UNL     1      -4.441  -0.217   1.538  1.00  0.00    -0.326 N 
ATOM      9  H   UNL     1      -4.966   0.300   2.192  1.00  0.00     0.169 HD
ATOM     10  O   UNL     1      -6.357  -1.028   0.758  1.00  0.00    -0.274 OA
BRANCH   8  11
ATOM     11  C   UNL     1      -3.092   0.145   1.438  1.00  0.00     0.041 A 
ATOM     12  C   UNL     1       1.265   2.478   0.161  1.00  0.00     0.044 C 
ATOM     13  C   UNL     1      -0.171   1.979   0.265  1.00  0.00    -0.051 A 
ATOM     14  C   UNL     1      -0.383   0.275  -0.118  1.00  0.00     0.005 A 
ATOM     15  C   UNL     1      -1.354   2.718   1.244  1.00  0.00     0.005 A 
ATOM     16  C   UNL     1      -1.857  -0.732   0.454  1.00  0.00     0.026 A 
ATOM     17  C   UNL     1      -2.771   1.852   1.828  1.00  0.00     0.026 A 
ENDBRANCH   8  11
ENDBRANCH   6   7
ENDBRANCH   5   6
BRANCH   5  18
ATOM     18  N   UNL     1      -3.818  -3.758  -1.753  1.00  0.00    -0.319 N 
ATOM     19  C   UNL     1      -3.114  -3.857  -3.050  1.00  0.00     0.291 C 
ATOM     20  C   UNL     1      -3.188  -4.737  -0.825  1.00  0.00     0.291 C 
ATOM     21  H   UNL     1      -4.793  -4.027  -1.885  1.00  0.00     0.348 HD
ATOM     22  C   UNL     1      -2.903  -5.295  -3.603  1.00  0.00     0.221 C 
ATOM     23  C   UNL     1      -3.026  -6.161  -1.432  1.00  0.00     0.221 C 
ATOM     24  O   UNL     1      -2.269  -6.148  -2.641  1.00  0.00    -0.370 OA
ENDBRANCH   5  18
ENDBRANCH   3   5
ENDBRANCH   2   3
ENDBRANCH   1   2
BRANCH   1  25
ATOM     25  C   UNL     1      -1.034   0.530   1.676  1.00  0.00     0.275 C 
BRANCH  25  26
ATOM     26  O   UNL     1      -0.051  -1.049   1.676  1.00  0.00    -0.458 OA
BRANCH  26  27
ATOM     27  C   UNL     1       0.277  -2.203   0.748  1.00  0.00     0.338 C 
ATOM     28  O   UNL     1      -0.051  -3.322   1.150  1.00  0.00    -0.246 OA
BRANCH  27  29
ATOM     29  C   UNL     1       0.627  -2.091  -0.851  1.00  0.00     0.060 A 
ATOM     30  C   UNL     1       0.048  -2.851  -1.880  1.00  0.00     0.016 A 
ATOM     31  C   UNL     1       1.354  -1.046  -1.369  1.00  0.00     0.016 A 
ATOM     32  C   UNL     1      -0.134  -2.294  -3.204  1.00  0.00     0.010 A 
ATOM     33  C   UNL     1       0.694  -0.318  -2.353  1.00  0.00     0.010 A 
ATOM     34  C   UNL     1      -0.020  -0.920  -3.365  1.00  0.00    -0.014 A 
BRANCH  34  35
ATOM     35  C   UNL     1      -0.293  -0.022  -4.535  1.00  0.00     0.031 A 
ATOM     36  C   UNL     1      -1.670   0.068  -5.182  1.00  0.00     0.074 A 
ATOM     37  C   UNL     1       0.894   0.550  -4.920  1.00  0.00     0.049 A 
ATOM     38  N   UNL     1      -2.024  -0.418  -6.329  1.00  0.00    -0.248 NA
ATOM     39  C   UNL     1      -2.840   0.739  -4.550  1.00  0.00     0.031 C 
ATOM     40  C   UNL     1       1.408   1.134  -6.139  1.00  0.00     0.029 A 
ATOM     41  N   UNL     1       2.120   0.355  -4.213  1.00  0.00    -0.354 N 
ATOM     42  C   UNL     1      -3.199   0.246  -6.714  1.00  0.00     0.074 A 
ATOM     43  C   UNL     1      -3.799   0.701  -5.495  1.00  0.00     0.031 C 
ATOM     44  C   UNL     1       2.684   0.670  -6.273  1.00  0.00     0.029 A 
ATOM     45  C   UNL     1       3.021  -0.168  -5.103  1.00  0.00     0.049 A 
ATOM     46  H   UNL     1       2.286   0.559  -3.264  1.00  0.00     0.167 HD
ATOM     47  C   UNL     1      -3.343   0.725  -7.995  1.00  0.00     0.037 A 
ATOM     48  C   UNL     1       3.234  -1.520  -5.007  1.00  0.00     0.037 A 
ATOM     49  C   UNL     1      -2.048   0.571  -8.645  1.00  0.00     0.049 A 
ATOM     50  C   UNL     1       2.648  -2.129  -6.252  1.00  0.00     0.074 A 
ATOM     51  C   UNL     1      -1.004   1.469  -8.777  1.00  0.00     0.029 A 
ATOM     52  N   UNL     1      -1.506  -0.697  -8.803  1.00  0.00    -0.354 N 
ATOM     53  N   UNL     1       1.513  -1.784  -6.811  1.00  0.00    -0.248 NA
ATOM     54  C   UNL     1       3.498  -2.946  -7.097  1.00  0.00     0.031 C 
ATOM     55  C   UNL     1       0.179   0.727  -9.000  1.00  0.00     0.029 A 
ATOM     56  C   UNL     1      -0.129  -0.619  -8.894  1.00  0.00     0.049 A 
ATOM     57  H   UNL     1      -2.027  -1.531  -8.845  1.00  0.00     0.167 HD
ATOM     58  C   UNL     1       1.551  -2.178  -8.133  1.00  0.00     0.074 A 
ATOM     59  C   UNL     1       2.817  -2.888  -8.249  1.00  0.00     0.031 C 
ATOM     60  C   UNL     1       0.654  -1.820  -9.108  1.00  0.00     0.037 A 
BRANCH  47  61
ATOM     61  C   UNL     1      -4.427   1.651  -8.571  1.00  0.00     0.058 A 
ATOM     62  C   UNL     1      -4.116   2.626  -9.557  1.00  0.00     0.135 A 
ATOM     63  C   UNL     1      -5.804   1.565  -8.273  1.00  0.00     0.135 A 
ATOM     64  F   UNL     1      -2.865   2.821  -9.987  1.00  0.00    -0.206 F 
ATOM     65  C   UNL     1      -5.060   3.463 -10.161  1.00  0.00     0.059 A 
ATOM     66  C   UNL     1      -6.780   2.400  -8.874  1.00  0.00     0.059 A 
ATOM     67  F   UNL     1      -6.252   0.645  -7.404  1.00  0.00    -0.206 F 
ATOM     68  C   UNL     1      -6.395   3.352  -9.816  1.00  0.00     0.060 A 
BRANCH  68  69
ATOM     69  S   UNL     1      -7.570   4.464 -10.631  1.00  0.00     0.124 S 
ATOM     70  O   UNL     1      -7.059   5.780 -10.256  1.00  0.00    -0.237 OA
ATOM     71  O   UNL     1      -7.414   4.108 -12.038  1.00  0.00    -0.237 OA
ATOM     72  O   UNL     1      -8.853   4.105 -10.035  1.00  0.00    -0.744 OA
ENDBRANCH  68  69
ENDBRANCH  47  61
BRANCH  48  73
ATOM     73  C   UNL     1       3.484  -2.203  -3.651  1.00  0.00     0.058 A 
ATOM     74  C   UNL     1       4.230  -1.515  -2.656  1.00  0.00     0.135 A 
ATOM     75  C   UNL     1       2.976  -3.450  -3.218  1.00  0.00     0.135 A 
ATOM     76  F   UNL     1       4.792  -0.328  -2.938  1.00  0.00    -0.206 F 
ATOM     77  C   UNL     1       4.364  -1.954  -1.325  1.00  0.00     0.059 A 
ATOM     78  C   UNL     1       3.090  -3.915  -1.871  1.00  0.00     0.059 A 
ATOM     79  F   UNL     1       2.267  -4.214  -4.063  1.00  0.00    -0.206 F 
ATOM     80  C   UNL     1       3.755  -3.137  -0.920  1.00  0.00     0.060 A 
BRANCH  80  81
ATOM     81  S   UNL     1       3.628  -3.437   0.879  1.00  0.00     0.124 S 
ATOM     82  O   UNL     1       5.004  -3.759   1.238  1.00  0.00    -0.237 OA
ATOM     83  O   UNL     1       3.150  -2.138   1.357  1.00  0.00    -0.237 OA
ATOM     84  O   UNL     1       2.680  -4.537   0.978  1.00  0.00    -0.744 OA
ENDBRANCH  80  81
ENDBRANCH  48  73
BRANCH  60  85
ATOM     85  C   UNL     1       0.496  -2.487 -10.462  1.00  0.00     0.058 A 
ATOM     86  C   UNL     1       1.032  -3.741 -10.784  1.00  0.00     0.135 A 
ATOM     87  C   UNL     1      -0.361  -1.930 -11.455  1.00  0.00     0.135 A 
ATOM     88  F   UNL     1       1.726  -4.471  -9.904  1.00  0.00    -0.206 F 
ATOM     89  C   UNL     1       0.827  -4.345 -12.019  1.00  0.00     0.059 A 
ATOM     90  C   UNL     1      -0.667  -2.569 -12.646  1.00  0.00     0.059 A 
ATOM     91  F   UNL     1      -0.969  -0.744 -11.309  1.00  0.00    -0.206 F 
ATOM     92  C   UNL     1      -0.034  -3.760 -12.937  1.00  0.00     0.060 A 
BRANCH  92  93
ATOM     93  S   UNL     1      -0.353  -4.600 -14.486  1.00  0.00     0.124 S 
ATOM     94  O   UNL     1       0.851  -4.270 -15.242  1.00  0.00    -0.237 OA
ATOM     95  O   UNL     1      -0.475  -5.992 -14.064  1.00  0.00    -0.237 OA
ATOM     96  O   UNL     1      -1.588  -3.985 -14.960  1.00  0.00    -0.744 OA
ENDBRANCH  92  93
ENDBRANCH  60  85
ENDBRANCH  34  35
ENDBRANCH  27  29
ENDBRANCH  26  27
ENDBRANCH  25  26
ENDBRANCH   1  25
TORSDOF 18
