REMARK SMILES CC1C[NH+]([C@@H](C(=O)OCCOC(=O)c2ccc(-c3c4nc(c(-c5c(F)cc(S(=O)(=O)[O-])cc5F)c5ccc([nH]5)c(-c5c(F)cc(S(=O)(=O)[O-])cc5F)c5nc(c(-c6c(F)cc(S(=O)(=O)[O-])cc6F)c6ccc3[nH]6)C=C5)C=C4)cc2)C2CCCCC2)C1
REMARK SMILES IDX 10 1 9 2 8 3 6 4 7 5 5 6 4 7 1 8 2 9 3 10 86 11 80 13 81 14
REMARK SMILES IDX 85 15 82 16 84 17 83 18 11 19 12 20 13 21 14 22 15 23 79 24
REMARK SMILES IDX 16 25 78 26 17 27 18 28 19 29 72 30 20 31 77 32 71 33 73 34
REMARK SMILES IDX 21 35 76 36 70 37 69 38 22 40 56 41 35 42 55 43 36 44 39 45
REMARK SMILES IDX 54 46 74 47 37 48 38 49 53 51 75 52 40 53 23 54 24 55 33 56
REMARK SMILES IDX 25 57 26 58 32 59 34 60 27 61 28 62 29 63 30 64 31 65 57 66
REMARK SMILES IDX 58 67 67 68 59 69 60 70 66 71 68 72 61 73 62 74 63 75 64 76
REMARK SMILES IDX 65 77 41 78 42 79 51 80 43 81 44 82 50 83 52 84 45 85 46 86
REMARK SMILES IDX 47 87 48 88 49 89
REMARK H PARENT 4 12 73 39 39 50
REMARK Flexibility Score: inf
ROOT
ATOM      1  C   UNL     1      -3.177   0.337   1.194  1.00  0.00     0.275 C 
ENDROOT
BRANCH   1   2
ATOM      2  C   UNL     1      -2.598   1.397   2.124  1.00  0.00     0.274 C 
BRANCH   2   3
ATOM      3  O   UNL     1      -1.238   1.051   2.458  1.00  0.00    -0.458 OA
BRANCH   3   4
ATOM      4  C   UNL     1      -0.976   0.591   3.705  1.00  0.00     0.365 C 
ATOM      5  O   UNL     1      -1.840   0.511   4.575  1.00  0.00    -0.245 OA
BRANCH   4   6
ATOM      6  C   UNL     1       0.518   0.293   3.990  1.00  0.00     0.298 C 
BRANCH   6   7
ATOM      7  N   UNL     1       1.502   0.265   2.871  1.00  0.00    -0.322 N 
ATOM      8  C   UNL     1       1.964   0.613  -0.419  1.00  0.00     0.020 C 
ATOM      9  C   UNL     1       1.078   0.636   0.811  1.00  0.00     0.096 C 
ATOM     10  C   UNL     1       1.148  -0.591   1.735  1.00  0.00     0.272 C 
ATOM     11  C   UNL     1       1.536   1.468   2.032  1.00  0.00     0.272 C 
ATOM     12  H   UNL     1       2.323   0.028   3.428  1.00  0.00     0.348 HD
ENDBRANCH   6   7
BRANCH   6  13
ATOM     13  C   UNL     1       0.666  -0.935   4.971  1.00  0.00     0.059 C 
ATOM     14  C   UNL     1       0.940  -2.294   4.293  1.00  0.00     0.010 C 
ATOM     15  C   UNL     1       1.751  -0.671   6.035  1.00  0.00     0.010 C 
ATOM     16  C   UNL     1       1.061  -3.439   5.298  1.00  0.00     0.001 C 
ATOM     17  C   UNL     1       1.861  -1.822   7.038  1.00  0.00     0.001 C 
ATOM     18  C   UNL     1       2.126  -3.153   6.345  1.00  0.00     0.000 C 
ENDBRANCH   6  13
ENDBRANCH   4   6
ENDBRANCH   3   4
ENDBRANCH   2   3
ENDBRANCH   1   2
BRANCH   1  19
ATOM     19  O   UNL     1      -3.321  -0.879   1.945  1.00  0.00    -0.458 OA
BRANCH  19  20
ATOM     20  C   UNL     1      -2.771  -1.996   1.417  1.00  0.00     0.338 C 
ATOM     21  O   UNL     1      -2.311  -2.124   0.297  1.00  0.00    -0.246 OA
BRANCH  20  22
ATOM     22  C   UNL     1      -2.759  -3.064   2.446  1.00  0.00     0.060 A 
ATOM     23  C   UNL     1      -2.634  -2.744   3.798  1.00  0.00     0.016 A 
ATOM     24  C   UNL     1      -2.770  -4.405   2.057  1.00  0.00     0.016 A 
ATOM     25  C   UNL     1      -2.431  -3.752   4.740  1.00  0.00     0.010 A 
ATOM     26  C   UNL     1      -2.665  -5.416   3.024  1.00  0.00     0.010 A 
ATOM     27  C   UNL     1      -2.454  -5.107   4.380  1.00  0.00    -0.014 A 
BRANCH  27  28
ATOM     28  C   UNL     1      -2.218  -6.181   5.398  1.00  0.00     0.031 A 
ATOM     29  C   UNL     1      -1.187  -7.261   5.152  1.00  0.00     0.074 A 
ATOM     30  C   UNL     1      -2.897  -6.201   6.566  1.00  0.00     0.049 A 
ATOM     31  N   UNL     1      -1.019  -8.402   5.773  1.00  0.00    -0.248 NA
ATOM     32  C   UNL     1      -0.231  -7.038   4.055  1.00  0.00     0.031 C 
ATOM     33  C   UNL     1      -3.885  -5.210   6.998  1.00  0.00     0.029 A 
ATOM     34  N   UNL     1      -2.848  -7.087   7.617  1.00  0.00    -0.354 N 
ATOM     35  C   UNL     1       0.003  -9.062   5.098  1.00  0.00     0.074 A 
ATOM     36  C   UNL     1       0.432  -8.187   4.029  1.00  0.00     0.031 C 
ATOM     37  C   UNL     1      -4.295  -5.502   8.240  1.00  0.00     0.029 A 
ATOM     38  C   UNL     1      -3.700  -6.768   8.649  1.00  0.00     0.049 A 
ATOM     39  H   UNL     1      -2.259  -7.876   7.630  1.00  0.00     0.167 HD
ATOM     40  C   UNL     1       0.529 -10.288   5.342  1.00  0.00     0.037 A 
ATOM     41  C   UNL     1      -4.025  -7.437   9.774  1.00  0.00     0.037 A 
ATOM     42  C   UNL     1       0.162 -11.125   6.457  1.00  0.00     0.049 A 
ATOM     43  C   UNL     1      -3.444  -8.799  10.019  1.00  0.00     0.074 A 
ATOM     44  C   UNL     1       0.635 -12.387   6.779  1.00  0.00     0.029 A 
ATOM     45  N   UNL     1      -0.736 -10.773   7.452  1.00  0.00    -0.354 N 
ATOM     46  N   UNL     1      -2.584  -9.469   9.292  1.00  0.00    -0.248 NA
ATOM     47  C   UNL     1      -3.909  -9.512  11.216  1.00  0.00     0.031 C 
ATOM     48  C   UNL     1       0.009 -12.805   7.959  1.00  0.00     0.029 A 
ATOM     49  C   UNL     1      -0.829 -11.790   8.388  1.00  0.00     0.049 A 
ATOM     50  H   UNL     1      -1.235  -9.924   7.488  1.00  0.00     0.167 HD
ATOM     51  C   UNL     1      -2.414 -10.688   9.937  1.00  0.00     0.074 A 
ATOM     52  C   UNL     1      -3.235 -10.651  11.129  1.00  0.00     0.031 C 
ATOM     53  C   UNL     1      -1.655 -11.747   9.566  1.00  0.00     0.037 A 
BRANCH  40  54
ATOM     54  C   UNL     1       1.541 -10.829   4.371  1.00  0.00     0.058 A 
ATOM     55  C   UNL     1       2.873 -10.392   4.359  1.00  0.00     0.135 A 
ATOM     56  C   UNL     1       1.183 -11.864   3.490  1.00  0.00     0.135 A 
ATOM     57  F   UNL     1       3.264  -9.395   5.168  1.00  0.00    -0.206 F 
ATOM     58  C   UNL     1       3.815 -10.957   3.503  1.00  0.00     0.059 A 
ATOM     59  C   UNL     1       2.112 -12.458   2.641  1.00  0.00     0.059 A 
ATOM     60  F   UNL     1      -0.080 -12.320   3.461  1.00  0.00    -0.206 F 
ATOM     61  C   UNL     1       3.425 -11.992   2.650  1.00  0.00     0.060 A 
BRANCH  61  62
ATOM     62  S   UNL     1       4.664 -12.743   1.571  1.00  0.00     0.124 S 
ATOM     63  O   UNL     1       4.801 -11.725   0.534  1.00  0.00    -0.237 OA
ATOM     64  O   UNL     1       5.808 -12.896   2.463  1.00  0.00    -0.237 OA
ATOM     65  O   UNL     1       4.034 -13.989   1.146  1.00  0.00    -0.744 OA
ENDBRANCH  61  62
ENDBRANCH  40  54
BRANCH  41  66
ATOM     66  C   UNL     1      -5.017  -6.855  10.717  1.00  0.00     0.058 A 
ATOM     67  C   UNL     1      -4.626  -6.387  11.979  1.00  0.00     0.135 A 
ATOM     68  C   UNL     1      -6.370  -6.733  10.362  1.00  0.00     0.135 A 
ATOM     69  F   UNL     1      -3.347  -6.500  12.370  1.00  0.00    -0.206 F 
ATOM     70  C   UNL     1      -5.540  -5.812  12.857  1.00  0.00     0.059 A 
ATOM     71  C   UNL     1      -7.296  -6.136  11.209  1.00  0.00     0.059 A 
ATOM     72  F   UNL     1      -6.792  -7.160   9.162  1.00  0.00    -0.206 F 
ATOM     73  C   UNL     1      -6.873  -5.685  12.459  1.00  0.00     0.060 A 
BRANCH  73  74
ATOM     74  S   UNL     1      -8.046  -4.863  13.559  1.00  0.00     0.124 S 
ATOM     75  O   UNL     1      -8.414  -5.950  14.458  1.00  0.00    -0.237 OA
ATOM     76  O   UNL     1      -7.236  -3.798  14.143  1.00  0.00    -0.237 OA
ATOM     77  O   UNL     1      -9.092  -4.412  12.646  1.00  0.00    -0.744 OA
ENDBRANCH  73  74
ENDBRANCH  41  66
BRANCH  53  78
ATOM     78  C   UNL     1      -1.670 -12.947  10.468  1.00  0.00     0.058 A 
ATOM     79  C   UNL     1      -2.756 -13.835  10.482  1.00  0.00     0.135 A 
ATOM     80  C   UNL     1      -0.584 -13.219  11.313  1.00  0.00     0.135 A 
ATOM     81  F   UNL     1      -3.821 -13.613   9.696  1.00  0.00    -0.206 F 
ATOM     82  C   UNL     1      -2.776 -14.942  11.325  1.00  0.00     0.059 A 
ATOM     83  C   UNL     1      -0.575 -14.330  12.151  1.00  0.00     0.059 A 
ATOM     84  F   UNL     1       0.481 -12.402  11.330  1.00  0.00    -0.206 F 
ATOM     85  C   UNL     1      -1.683 -15.177  12.161  1.00  0.00     0.060 A 
BRANCH  85  86
ATOM     86  S   UNL     1      -1.714 -16.619  13.248  1.00  0.00     0.124 S 
ATOM     87  O   UNL     1      -2.597 -16.160  14.316  1.00  0.00    -0.237 OA
ATOM     88  O   UNL     1      -2.257 -17.658  12.379  1.00  0.00    -0.237 OA
ATOM     89  O   UNL     1      -0.314 -16.791  13.621  1.00  0.00    -0.744 OA
ENDBRANCH  85  86
ENDBRANCH  53  78
ENDBRANCH  27  28
ENDBRANCH  20  22
ENDBRANCH  19  20
ENDBRANCH   1  19
TORSDOF 16
