REMARK SMILES CCCC[C@@H](C(=O)OCCOC(=O)c1ccc(-c2c3nc(c(-c4c(F)cc(S(=O)(=O)[O-])cc4F)c4ccc([nH]4)c(-c4c(F)cc(S(=O)(=O)[O-])cc4F)c4nc(c(-c5c(F)cc(S(=O)(=O)[O-])cc5F)c5ccc2[nH]5)C=C4)C=C3)cc1)[C@]1(O)COc2cc(O)ccc21
REMARK SMILES IDX 9 1 8 2 6 3 7 4 5 5 4 6 3 7 2 8 1 9 80 10 82 11 90 12 83 13
REMARK SMILES IDX 84 14 89 15 85 16 88 17 86 18 81 19 87 21 10 23 11 24 12 25
REMARK SMILES IDX 13 26 14 27 15 28 79 29 16 30 78 31 17 32 18 33 19 34 72 35
REMARK SMILES IDX 20 36 77 37 71 38 73 39 21 40 76 41 70 42 69 43 22 45 56 46
REMARK SMILES IDX 35 47 55 48 36 49 39 50 54 51 74 52 37 53 38 54 53 56 75 57
REMARK SMILES IDX 40 58 23 59 24 60 33 61 25 62 26 63 32 64 34 65 27 66 28 67
REMARK SMILES IDX 29 68 30 69 31 70 57 71 58 72 67 73 59 74 60 75 66 76 68 77
REMARK SMILES IDX 61 78 62 79 63 80 64 81 65 82 41 83 42 84 51 85 43 86 44 87
REMARK SMILES IDX 50 88 52 89 45 90 46 91 47 92 48 93 49 94
REMARK H PARENT 81 20 87 22 73 44 39 55
REMARK Flexibility Score: inf
ROOT
ATOM      1  C   UNL     1      -1.429   2.899  -5.079  1.00  0.00     0.274 C 
ENDROOT
BRANCH   1   2
ATOM      2  O   UNL     1      -1.154   1.826  -4.166  1.00  0.00    -0.462 OA
BRANCH   2   3
ATOM      3  C   UNL     1      -1.936   1.774  -3.053  1.00  0.00     0.312 C 
ATOM      4  O   UNL     1      -2.733   2.642  -2.720  1.00  0.00    -0.252 OA
BRANCH   3   5
ATOM      5  C   UNL     1      -1.727   0.475  -2.282  1.00  0.00     0.139 C 
BRANCH   5   6
ATOM      6  C   UNL     1      -0.220   0.067  -2.295  1.00  0.00     0.019 C 
BRANCH   6   7
ATOM      7  C   UNL     1       0.780   1.090  -1.740  1.00  0.00     0.001 C 
BRANCH   7   8
ATOM      8  C   UNL     1       0.708   1.318  -0.234  1.00  0.00    -0.003 C 
ATOM      9  C   UNL     1       1.115   0.094   0.572  1.00  0.00     0.004 C 
ENDBRANCH   7   8
ENDBRANCH   6   7
ENDBRANCH   5   6
BRANCH   5  10
ATOM     10  C   UNL     1      -2.697  -0.668  -2.775  1.00  0.00     0.140 C 
ATOM     11  C   UNL     1      -2.023  -1.575  -3.818  1.00  0.00     0.270 C 
ATOM     12  C   UNL     1      -3.817  -0.266  -3.708  1.00  0.00     0.030 A 
ATOM     13  O   UNL     1      -2.030  -0.793  -5.021  1.00  0.00    -0.490 OA
ATOM     14  C   UNL     1      -3.294  -0.275  -4.998  1.00  0.00     0.129 A 
ATOM     15  C   UNL     1      -5.160   0.009  -3.539  1.00  0.00     0.014 A 
ATOM     16  C   UNL     1      -3.985   0.134  -6.112  1.00  0.00     0.093 A 
ATOM     17  C   UNL     1      -5.926   0.326  -4.680  1.00  0.00     0.047 A 
ATOM     18  C   UNL     1      -5.325   0.417  -5.944  1.00  0.00     0.119 A 
BRANCH  10  19
ATOM     19  O   UNL     1      -3.151  -1.449  -1.675  1.00  0.00    -0.381 OA
ATOM     20  H   UNL     1      -2.398  -1.680  -1.109  1.00  0.00     0.212 HD
ENDBRANCH  10  19
BRANCH  18  21
ATOM     21  O   UNL     1      -6.028   0.748  -7.064  1.00  0.00    -0.508 OA
ATOM     22  H   UNL     1      -5.594   0.799  -7.893  1.00  0.00     0.293 HD
ENDBRANCH  18  21
ENDBRANCH   5  10
ENDBRANCH   3   5
ENDBRANCH   2   3
ENDBRANCH   1   2
BRANCH   1  23
ATOM     23  C   UNL     1      -0.522   2.759  -6.306  1.00  0.00     0.275 C 
BRANCH  23  24
ATOM     24  O   UNL     1      -0.891   1.601  -7.086  1.00  0.00    -0.458 OA
BRANCH  24  25
ATOM     25  C   UNL     1      -0.015   0.563  -7.099  1.00  0.00     0.338 C 
ATOM     26  O   UNL     1       1.099   0.538  -6.600  1.00  0.00    -0.246 OA
BRANCH  25  27
ATOM     27  C   UNL     1      -0.695  -0.627  -7.668  1.00  0.00     0.060 A 
ATOM     28  C   UNL     1      -0.593  -1.825  -6.952  1.00  0.00     0.016 A 
ATOM     29  C   UNL     1      -1.541  -0.548  -8.778  1.00  0.00     0.016 A 
ATOM     30  C   UNL     1      -1.467  -2.878  -7.225  1.00  0.00     0.010 A 
ATOM     31  C   UNL     1      -2.340  -1.648  -9.122  1.00  0.00     0.010 A 
ATOM     32  C   UNL     1      -2.327  -2.807  -8.329  1.00  0.00    -0.014 A 
BRANCH  32  33
ATOM     33  C   UNL     1      -2.958  -4.059  -8.814  1.00  0.00     0.031 A 
ATOM     34  C   UNL     1      -2.050  -5.008  -9.547  1.00  0.00     0.074 A 
ATOM     35  C   UNL     1      -4.248  -4.374  -8.588  1.00  0.00     0.049 A 
ATOM     36  N   UNL     1      -2.329  -6.130 -10.150  1.00  0.00    -0.248 NA
ATOM     37  C   UNL     1      -0.620  -4.646  -9.581  1.00  0.00     0.031 C 
ATOM     38  C   UNL     1      -5.189  -3.602  -7.776  1.00  0.00     0.029 A 
ATOM     39  N   UNL     1      -4.992  -5.447  -9.024  1.00  0.00    -0.354 N 
ATOM     40  C   UNL     1      -1.114  -6.600 -10.632  1.00  0.00     0.074 A 
ATOM     41  C   UNL     1      -0.092  -5.666 -10.231  1.00  0.00     0.031 C 
ATOM     42  C   UNL     1      -6.387  -4.220  -7.785  1.00  0.00     0.029 A 
ATOM     43  C   UNL     1      -6.317  -5.400  -8.647  1.00  0.00     0.049 A 
ATOM     44  H   UNL     1      -4.612  -6.181  -9.557  1.00  0.00     0.167 HD
ATOM     45  C   UNL     1      -0.872  -7.695 -11.384  1.00  0.00     0.037 A 
ATOM     46  C   UNL     1      -7.349  -6.200  -8.997  1.00  0.00     0.037 A 
ATOM     47  C   UNL     1      -1.906  -8.564 -11.859  1.00  0.00     0.049 A 
ATOM     48  C   UNL     1      -7.080  -7.346  -9.954  1.00  0.00     0.074 A 
ATOM     49  C   UNL     1      -1.805  -9.624 -12.738  1.00  0.00     0.029 A 
ATOM     50  N   UNL     1      -3.243  -8.448 -11.506  1.00  0.00    -0.354 N 
ATOM     51  N   UNL     1      -5.937  -7.744 -10.464  1.00  0.00    -0.248 NA
ATOM     52  C   UNL     1      -8.238  -8.136 -10.403  1.00  0.00     0.031 C 
ATOM     53  C   UNL     1      -3.092 -10.125 -12.951  1.00  0.00     0.029 A 
ATOM     54  C   UNL     1      -3.982  -9.415 -12.156  1.00  0.00     0.049 A 
ATOM     55  H   UNL     1      -3.608  -7.778 -10.885  1.00  0.00     0.167 HD
ATOM     56  C   UNL     1      -6.233  -8.845 -11.263  1.00  0.00     0.074 A 
ATOM     57  C   UNL     1      -7.663  -9.052 -11.173  1.00  0.00     0.031 C 
ATOM     58  C   UNL     1      -5.402  -9.616 -12.006  1.00  0.00     0.037 A 
BRANCH  45  59
ATOM     59  C   UNL     1       0.547  -7.911 -11.817  1.00  0.00     0.058 A 
ATOM     60  C   UNL     1       1.537  -8.341 -10.920  1.00  0.00     0.135 A 
ATOM     61  C   UNL     1       0.935  -7.603 -13.130  1.00  0.00     0.135 A 
ATOM     62  F   UNL     1       1.224  -8.600  -9.640  1.00  0.00    -0.206 F 
ATOM     63  C   UNL     1       2.870  -8.432 -11.303  1.00  0.00     0.059 A 
ATOM     64  C   UNL     1       2.258  -7.710 -13.542  1.00  0.00     0.059 A 
ATOM     65  F   UNL     1       0.030  -7.160 -14.017  1.00  0.00    -0.206 F 
ATOM     66  C   UNL     1       3.221  -8.108 -12.616  1.00  0.00     0.060 A 
BRANCH  66  67
ATOM     67  S   UNL     1       4.959  -8.202 -13.094  1.00  0.00     0.124 S 
ATOM     68  O   UNL     1       5.511  -7.032 -12.418  1.00  0.00    -0.237 OA
ATOM     69  O   UNL     1       5.362  -9.496 -12.551  1.00  0.00    -0.237 OA
ATOM     70  O   UNL     1       4.915  -8.123 -14.550  1.00  0.00    -0.744 OA
ENDBRANCH  66  67
ENDBRANCH  45  59
BRANCH  46  71
ATOM     71  C   UNL     1      -8.738  -5.933  -8.513  1.00  0.00     0.058 A 
ATOM     72  C   UNL     1      -9.424  -6.852  -7.702  1.00  0.00     0.135 A 
ATOM     73  C   UNL     1      -9.433  -4.773  -8.895  1.00  0.00     0.135 A 
ATOM     74  F   UNL     1      -8.823  -7.990  -7.323  1.00  0.00    -0.206 F 
ATOM     75  C   UNL     1     -10.744  -6.641  -7.302  1.00  0.00     0.059 A 
ATOM     76  C   UNL     1     -10.742  -4.526  -8.485  1.00  0.00     0.059 A 
ATOM     77  F   UNL     1      -8.836  -3.857  -9.674  1.00  0.00    -0.206 F 
ATOM     78  C   UNL     1     -11.395  -5.472  -7.698  1.00  0.00     0.060 A 
BRANCH  78  79
ATOM     79  S   UNL     1     -13.092  -5.185  -7.146  1.00  0.00     0.124 S 
ATOM     80  O   UNL     1     -13.834  -6.141  -7.960  1.00  0.00    -0.237 OA
ATOM     81  O   UNL     1     -13.007  -5.489  -5.721  1.00  0.00    -0.237 OA
ATOM     82  O   UNL     1     -13.314  -3.777  -7.465  1.00  0.00    -0.744 OA
ENDBRANCH  78  79
ENDBRANCH  46  71
BRANCH  58  83
ATOM     83  C   UNL     1      -5.979 -10.799 -12.728  1.00  0.00     0.058 A 
ATOM     84  C   UNL     1      -6.686 -10.658 -13.930  1.00  0.00     0.135 A 
ATOM     85  C   UNL     1      -5.669 -12.097 -12.290  1.00  0.00     0.135 A 
ATOM     86  F   UNL     1      -7.005  -9.438 -14.389  1.00  0.00    -0.206 F 
ATOM     87  C   UNL     1      -7.057 -11.768 -14.683  1.00  0.00     0.059 A 
ATOM     88  C   UNL     1      -6.009 -13.218 -13.037  1.00  0.00     0.059 A 
ATOM     89  F   UNL     1      -4.980 -12.280 -11.152  1.00  0.00    -0.206 F 
ATOM     90  C   UNL     1      -6.700 -13.043 -14.236  1.00  0.00     0.060 A 
BRANCH  90  91
ATOM     91  S   UNL     1      -7.090 -14.466 -15.275  1.00  0.00     0.124 S 
ATOM     92  O   UNL     1      -8.530 -14.588 -15.079  1.00  0.00    -0.237 OA
ATOM     93  O   UNL     1      -6.666 -14.013 -16.596  1.00  0.00    -0.237 OA
ATOM     94  O   UNL     1      -6.284 -15.539 -14.700  1.00  0.00    -0.744 OA
ENDBRANCH  90  91
ENDBRANCH  58  83
ENDBRANCH  32  33
ENDBRANCH  25  27
ENDBRANCH  24  25
ENDBRANCH  23  24
ENDBRANCH   1  23
TORSDOF 20
