REMARK SMILES C[C@@H](C(=O)OCCOC(=O)c1ccc(-c2c3nc(c(-c4c(F)cc(S(=O)(=O)[O-])cc4F)c4ccc([nH]4)c(-c4c(F)cc(S(=O)(=O)[O-])cc4F)c4nc(c(-c5c(F)cc(S(=O)(=O)[O-])cc5F)c5ccc2[nH]5)C=C4)C=C3)cc1)c1ccc2c3cc(Cl)ccc3n(C(=O)c3ccc(Cl)cc3)c2c1
REMARK SMILES IDX 6 1 5 2 3 3 4 4 2 5 1 6 77 7 78 8 99 9 79 10 98 11 80 12
REMARK SMILES IDX 88 13 81 14 87 15 82 16 86 17 83 18 85 19 84 20 89 21 90 22
REMARK SMILES IDX 91 23 92 24 97 25 93 26 96 27 94 28 95 29 7 30 8 31 9 32
REMARK SMILES IDX 10 33 11 34 12 35 76 36 13 37 75 38 14 39 15 40 16 41 69 42
REMARK SMILES IDX 17 43 74 44 68 45 70 46 18 47 73 48 67 49 66 50 19 52 53 53
REMARK SMILES IDX 32 54 52 55 33 56 36 57 51 58 71 59 34 60 35 61 50 63 72 64
REMARK SMILES IDX 37 65 20 66 21 67 30 68 22 69 23 70 29 71 31 72 24 73 25 74
REMARK SMILES IDX 26 75 27 76 28 77 54 78 55 79 64 80 56 81 57 82 63 83 65 84
REMARK SMILES IDX 58 85 59 86 60 87 61 88 62 89 38 90 39 91 48 92 40 93 41 94
REMARK SMILES IDX 47 95 49 96 42 97 43 98 44 99 45 100 46 101
REMARK H PARENT 70 51 36 62
REMARK Flexibility Score: inf
ROOT
ATOM      1  C   UNL     1       2.667   3.854  -0.620  1.00  0.00     0.274 C 
ENDROOT
BRANCH   1   2
ATOM      2  O   UNL     1       2.166   2.661   0.014  1.00  0.00    -0.462 OA
BRANCH   2   3
ATOM      3  C   UNL     1       1.042   2.803   0.780  1.00  0.00     0.313 C 
ATOM      4  O   UNL     1       0.528   3.897   0.975  1.00  0.00    -0.252 OA
BRANCH   3   5
ATOM      5  C   UNL     1       0.603   1.469   1.440  1.00  0.00     0.126 C 
ATOM      6  C   UNL     1       1.167   0.274   0.636  1.00  0.00     0.025 C 
BRANCH   5   7
ATOM      7  C   UNL     1      -0.918   1.324   1.698  1.00  0.00    -0.032 A 
ATOM      8  C   UNL     1      -1.758   2.424   1.896  1.00  0.00     0.005 A 
ATOM      9  C   UNL     1      -1.516   0.046   1.773  1.00  0.00     0.032 A 
ATOM     10  C   UNL     1      -3.153   2.291   1.957  1.00  0.00     0.011 A 
ATOM     11  C   UNL     1      -2.922  -0.103   1.876  1.00  0.00     0.057 A 
ATOM     12  C   UNL     1      -3.744   1.017   1.891  1.00  0.00     0.008 A 
ATOM     13  N   UNL     1      -3.742  -1.248   1.922  1.00  0.00    -0.276 N 
ATOM     14  C   UNL     1      -5.086   0.565   1.796  1.00  0.00     0.009 A 
ATOM     15  C   UNL     1      -5.078  -0.821   1.983  1.00  0.00     0.057 A 
ATOM     16  C   UNL     1      -6.313   1.236   1.597  1.00  0.00     0.031 A 
ATOM     17  C   UNL     1      -6.292  -1.508   2.187  1.00  0.00     0.029 A 
ATOM     18  C   UNL     1      -7.503   0.515   1.641  1.00  0.00     0.041 A 
ATOM     19  C   UNL     1      -7.497  -0.829   1.976  1.00  0.00     0.023 A 
ATOM     20  Cl  UNL     1      -8.995   1.298   1.313  1.00  0.00    -0.084 Cl
BRANCH  13  21
ATOM     21  C   UNL     1      -3.251  -2.583   1.900  1.00  0.00     0.262 C 
ATOM     22  O   UNL     1      -2.041  -2.746   2.083  1.00  0.00    -0.268 OA
BRANCH  21  23
ATOM     23  C   UNL     1      -4.007  -3.842   1.683  1.00  0.00     0.040 A 
ATOM     24  C   UNL     1      -3.581  -4.974   2.399  1.00  0.00     0.015 A 
ATOM     25  C   UNL     1      -5.020  -3.980   0.728  1.00  0.00     0.015 A 
ATOM     26  C   UNL     1      -4.181  -6.216   2.194  1.00  0.00     0.021 A 
ATOM     27  C   UNL     1      -5.644  -5.222   0.546  1.00  0.00     0.021 A 
ATOM     28  C   UNL     1      -5.219  -6.333   1.274  1.00  0.00     0.041 A 
ATOM     29  Cl  UNL     1      -5.957  -7.867   1.022  1.00  0.00    -0.084 Cl
ENDBRANCH  21  23
ENDBRANCH  13  21
ENDBRANCH   5   7
ENDBRANCH   3   5
ENDBRANCH   2   3
ENDBRANCH   1   2
BRANCH   1  30
ATOM     30  C   UNL     1       2.277   3.915  -2.099  1.00  0.00     0.275 C 
BRANCH  30  31
ATOM     31  O   UNL     1       0.853   4.034  -2.276  1.00  0.00    -0.458 OA
BRANCH  31  32
ATOM     32  C   UNL     1       0.205   2.869  -2.507  1.00  0.00     0.338 C 
ATOM     33  O   UNL     1       0.721   1.762  -2.630  1.00  0.00    -0.246 OA
BRANCH  32  34
ATOM     34  C   UNL     1      -1.255   3.064  -2.438  1.00  0.00     0.060 A 
ATOM     35  C   UNL     1      -1.974   2.175  -1.639  1.00  0.00     0.016 A 
ATOM     36  C   UNL     1      -1.928   4.056  -3.160  1.00  0.00     0.016 A 
ATOM     37  C   UNL     1      -3.355   2.296  -1.525  1.00  0.00     0.010 A 
ATOM     38  C   UNL     1      -3.326   4.162  -3.060  1.00  0.00     0.010 A 
ATOM     39  C   UNL     1      -4.045   3.288  -2.229  1.00  0.00    -0.014 A 
BRANCH  39  40
ATOM     40  C   UNL     1      -5.525   3.314  -2.117  1.00  0.00     0.031 A 
ATOM     41  C   UNL     1      -6.341   2.384  -2.968  1.00  0.00     0.074 A 
ATOM     42  C   UNL     1      -6.125   4.034  -1.151  1.00  0.00     0.049 A 
ATOM     43  N   UNL     1      -7.631   2.170  -2.955  1.00  0.00    -0.248 NA
ATOM     44  C   UNL     1      -5.601   1.565  -3.940  1.00  0.00     0.031 C 
ATOM     45  C   UNL     1      -5.431   4.857  -0.161  1.00  0.00     0.029 A 
ATOM     46  N   UNL     1      -7.451   4.139  -0.804  1.00  0.00    -0.354 N 
ATOM     47  C   UNL     1      -7.861   1.196  -3.917  1.00  0.00     0.074 A 
ATOM     48  C   UNL     1      -6.575   0.854  -4.489  1.00  0.00     0.031 C 
ATOM     49  C   UNL     1      -6.333   5.344   0.710  1.00  0.00     0.029 A 
ATOM     50  C   UNL     1      -7.673   4.908   0.315  1.00  0.00     0.049 A 
ATOM     51  H   UNL     1      -8.175   3.704  -1.309  1.00  0.00     0.167 HD
ATOM     52  C   UNL     1      -9.037   0.647  -4.302  1.00  0.00     0.037 A 
ATOM     53  C   UNL     1      -8.823   5.218   0.949  1.00  0.00     0.037 A 
ATOM     54  C   UNL     1     -10.322   1.001  -3.758  1.00  0.00     0.049 A 
ATOM     55  C   UNL     1     -10.135   4.694   0.411  1.00  0.00     0.074 A 
ATOM     56  C   UNL     1     -11.571   0.546  -4.143  1.00  0.00     0.029 A 
ATOM     57  N   UNL     1     -10.526   1.898  -2.721  1.00  0.00    -0.354 N 
ATOM     58  N   UNL     1     -10.349   3.852  -0.571  1.00  0.00    -0.248 NA
ATOM     59  C   UNL     1     -11.363   5.179   1.061  1.00  0.00     0.031 C 
ATOM     60  C   UNL     1     -12.535   1.209  -3.375  1.00  0.00     0.029 A 
ATOM     61  C   UNL     1     -11.883   2.036  -2.476  1.00  0.00     0.049 A 
ATOM     62  H   UNL     1      -9.813   2.368  -2.232  1.00  0.00     0.167 HD
ATOM     63  C   UNL     1     -11.729   3.674  -0.627  1.00  0.00     0.074 A 
ATOM     64  C   UNL     1     -12.302   4.504   0.410  1.00  0.00     0.031 C 
ATOM     65  C   UNL     1     -12.454   2.885  -1.459  1.00  0.00     0.037 A 
BRANCH  52  66
ATOM     66  C   UNL     1      -8.993  -0.341  -5.431  1.00  0.00     0.058 A 
ATOM     67  C   UNL     1      -8.556  -1.661  -5.248  1.00  0.00     0.135 A 
ATOM     68  C   UNL     1      -9.413   0.045  -6.714  1.00  0.00     0.135 A 
ATOM     69  F   UNL     1      -8.123  -2.071  -4.046  1.00  0.00    -0.206 F 
ATOM     70  C   UNL     1      -8.518  -2.562  -6.308  1.00  0.00     0.059 A 
ATOM     71  C   UNL     1      -9.403  -0.844  -7.782  1.00  0.00     0.059 A 
ATOM     72  F   UNL     1      -9.832   1.300  -6.939  1.00  0.00    -0.206 F 
ATOM     73  C   UNL     1      -8.941  -2.142  -7.572  1.00  0.00     0.060 A 
BRANCH  73  74
ATOM     74  S   UNL     1      -8.877  -3.317  -8.941  1.00  0.00     0.124 S 
ATOM     75  O   UNL     1      -7.442  -3.384  -9.198  1.00  0.00    -0.237 OA
ATOM     76  O   UNL     1      -9.473  -4.513  -8.354  1.00  0.00    -0.237 OA
ATOM     77  O   UNL     1      -9.671  -2.671  -9.981  1.00  0.00    -0.744 OA
ENDBRANCH  73  74
ENDBRANCH  52  66
BRANCH  53  78
ATOM     78  C   UNL     1      -8.809   6.075   2.167  1.00  0.00     0.058 A 
ATOM     79  C   UNL     1      -9.212   5.568   3.413  1.00  0.00     0.135 A 
ATOM     80  C   UNL     1      -8.438   7.426   2.104  1.00  0.00     0.135 A 
ATOM     81  F   UNL     1      -9.588   4.285   3.527  1.00  0.00    -0.206 F 
ATOM     82  C   UNL     1      -9.274   6.376   4.545  1.00  0.00     0.059 A 
ATOM     83  C   UNL     1      -8.463   8.246   3.228  1.00  0.00     0.059 A 
ATOM     84  F   UNL     1      -8.040   7.962   0.940  1.00  0.00    -0.206 F 
ATOM     85  C   UNL     1      -8.901   7.716   4.441  1.00  0.00     0.060 A 
BRANCH  85  86
ATOM     86  S   UNL     1      -8.970   8.761   5.913  1.00  0.00     0.124 S 
ATOM     87  O   UNL     1     -10.401   9.019   6.021  1.00  0.00    -0.237 OA
ATOM     88  O   UNL     1      -8.398   7.892   6.938  1.00  0.00    -0.237 OA
ATOM     89  O   UNL     1      -8.147   9.909   5.546  1.00  0.00    -0.744 OA
ENDBRANCH  85  86
ENDBRANCH  53  78
BRANCH  65  90
ATOM     90  C   UNL     1     -13.951   2.885  -1.304  1.00  0.00     0.058 A 
ATOM     91  C   UNL     1     -14.731   3.981  -1.705  1.00  0.00     0.135 A 
ATOM     92  C   UNL     1     -14.623   1.749  -0.822  1.00  0.00     0.135 A 
ATOM     93  F   UNL     1     -14.143   5.094  -2.172  1.00  0.00    -0.206 F 
ATOM     94  C   UNL     1     -16.120   3.958  -1.619  1.00  0.00     0.059 A 
ATOM     95  C   UNL     1     -16.012   1.694  -0.751  1.00  0.00     0.059 A 
ATOM     96  F   UNL     1     -13.929   0.666  -0.435  1.00  0.00    -0.206 F 
ATOM     97  C   UNL     1     -16.753   2.808  -1.144  1.00  0.00     0.060 A 
BRANCH  97  98
ATOM     98  S   UNL     1     -18.558   2.771  -1.089  1.00  0.00     0.124 S 
ATOM     99  O   UNL     1     -18.836   3.620   0.065  1.00  0.00    -0.237 OA
ATOM    100  O   UNL     1     -18.924   3.328  -2.388  1.00  0.00    -0.237 OA
ATOM    101  O   UNL     1     -18.865   1.355  -0.914  1.00  0.00    -0.744 OA
ENDBRANCH  97  98
ENDBRANCH  65  90
ENDBRANCH  39  40
ENDBRANCH  32  34
ENDBRANCH  31  32
ENDBRANCH  30  31
ENDBRANCH   1  30
TORSDOF 17
