REMARK SMILES CC[NH2+][C@@]1(C(=O)OCCOC(=O)c2ccc(-c3c4nc(c(-c5c(F)cc(S(=O)(=O)[O-])cc5F)c5ccc([nH]5)c(-c5c(F)cc(S(=O)(=O)[O-])cc5F)c5nc(c(-c6c(F)cc(S(=O)(=O)[O-])cc6F)c6ccc3[nH]6)C=C5)C=C4)cc2)CC[C@@H]([NH+]2CCC(C)(CC)CC2)C1
REMARK SMILES IDX 9 1 8 2 7 3 5 4 6 5 4 6 79 7 91 8 80 9 81 10 3 11 2 14 1 15
REMARK SMILES IDX 82 16 83 17 90 18 84 20 89 21 85 22 86 23 87 24 88 25 10 26
REMARK SMILES IDX 11 27 12 28 13 29 14 30 78 31 15 32 77 33 16 34 17 35 18 36
REMARK SMILES IDX 71 37 19 38 76 39 70 40 72 41 20 42 75 43 69 44 68 45 21 47
REMARK SMILES IDX 55 48 34 49 54 50 35 51 38 52 53 53 73 54 36 55 37 56 52 58
REMARK SMILES IDX 74 59 39 60 22 61 23 62 32 63 24 64 25 65 31 66 33 67 26 68
REMARK SMILES IDX 27 69 28 70 29 71 30 72 56 73 57 74 66 75 58 76 59 77 65 78
REMARK SMILES IDX 67 79 60 80 61 81 62 82 63 83 64 84 40 85 41 86 50 87 42 88
REMARK SMILES IDX 43 89 49 90 51 91 44 92 45 93 46 94 47 95 48 96
REMARK H PARENT 3 12 3 13 82 19 72 46 38 57
REMARK Flexibility Score: inf
ROOT
ATOM      1  C   UNL     1      -3.406  -1.383  -4.531  1.00  0.00     0.275 C 
ENDROOT
BRANCH   1   2
ATOM      2  C   UNL     1      -3.169   0.128  -4.523  1.00  0.00     0.274 C 
BRANCH   2   3
ATOM      3  O   UNL     1      -1.756   0.406  -4.536  1.00  0.00    -0.457 OA
BRANCH   3   4
ATOM      4  C   UNL     1      -1.238   0.980  -3.410  1.00  0.00     0.368 C 
ATOM      5  O   UNL     1      -1.934   1.414  -2.499  1.00  0.00    -0.245 OA
BRANCH   4   6
ATOM      6  C   UNL     1       0.324   1.080  -3.465  1.00  0.00     0.200 C 
ATOM      7  C   UNL     1       0.747   2.483  -3.912  1.00  0.00     0.087 C 
ATOM      8  C   UNL     1       0.934   0.159  -4.550  1.00  0.00     0.146 C 
ATOM      9  C   UNL     1       0.688   2.429  -5.432  1.00  0.00     0.072 C 
ATOM     10  C   UNL     1       1.146   1.010  -5.813  1.00  0.00     0.191 C 
BRANCH   6  11
ATOM     11  N   UNL     1       0.904   0.675  -2.156  1.00  0.00    -0.332 N 
ATOM     12  H   UNL     1       0.464  -0.202  -1.879  1.00  0.00     0.347 HD
ATOM     13  H   UNL     1       1.910   0.612  -2.312  1.00  0.00     0.347 HD
BRANCH  11  14
ATOM     14  C   UNL     1       0.741   1.624  -1.053  1.00  0.00     0.257 C 
ATOM     15  C   UNL     1       1.280   0.984   0.219  1.00  0.00     0.071 C 
ENDBRANCH  11  14
ENDBRANCH   6  11
BRANCH  10  16
ATOM     16  N   UNL     1       2.473   0.970  -6.446  1.00  0.00    -0.332 N 
ATOM     17  C   UNL     1       2.801  -0.286  -7.120  1.00  0.00     0.263 C 
ATOM     18  C   UNL     1       3.626   1.498  -5.725  1.00  0.00     0.263 C 
ATOM     19  H   UNL     1       2.302   1.686  -7.152  1.00  0.00     0.348 HD
ATOM     20  C   UNL     1       3.401  -1.369  -6.222  1.00  0.00     0.068 C 
ATOM     21  C   UNL     1       4.313   0.536  -4.750  1.00  0.00     0.068 C 
ATOM     22  C   UNL     1       4.538  -0.906  -5.274  1.00  0.00    -0.022 C 
ATOM     23  C   UNL     1       4.534  -1.861  -4.048  1.00  0.00     0.012 C 
BRANCH  22  24
ATOM     24  C   UNL     1       5.947  -1.077  -5.918  1.00  0.00     0.004 C 
ATOM     25  C   UNL     1       6.292  -0.213  -7.119  1.00  0.00     0.004 C 
ENDBRANCH  22  24
ENDBRANCH  10  16
ENDBRANCH   4   6
ENDBRANCH   3   4
ENDBRANCH   2   3
ENDBRANCH   1   2
BRANCH   1  26
ATOM     26  O   UNL     1      -2.858  -1.993  -3.347  1.00  0.00    -0.458 OA
BRANCH  26  27
ATOM     27  C   UNL     1      -1.709  -2.689  -3.534  1.00  0.00     0.338 C 
ATOM     28  O   UNL     1      -1.150  -2.912  -4.594  1.00  0.00    -0.246 OA
BRANCH  27  29
ATOM     29  C   UNL     1      -1.125  -3.050  -2.229  1.00  0.00     0.060 A 
ATOM     30  C   UNL     1       0.168  -2.601  -1.956  1.00  0.00     0.016 A 
ATOM     31  C   UNL     1      -1.796  -3.865  -1.313  1.00  0.00     0.016 A 
ATOM     32  C   UNL     1       0.791  -2.939  -0.758  1.00  0.00     0.010 A 
ATOM     33  C   UNL     1      -1.158  -4.228  -0.119  1.00  0.00     0.010 A 
ATOM     34  C   UNL     1       0.140  -3.770   0.162  1.00  0.00    -0.014 A 
BRANCH  34  35
ATOM     35  C   UNL     1       0.875  -4.201   1.376  1.00  0.00     0.031 A 
ATOM     36  C   UNL     1       1.657  -5.483   1.351  1.00  0.00     0.074 A 
ATOM     37  C   UNL     1       0.914  -3.405   2.461  1.00  0.00     0.049 A 
ATOM     38  N   UNL     1       2.396  -6.018   2.288  1.00  0.00    -0.248 NA
ATOM     39  C   UNL     1       1.609  -6.259   0.102  1.00  0.00     0.031 C 
ATOM     40  C   UNL     1       0.237  -2.114   2.584  1.00  0.00     0.029 A 
ATOM     41  N   UNL     1       1.565  -3.558   3.659  1.00  0.00    -0.354 N 
ATOM     42  C   UNL     1       2.916  -7.184   1.740  1.00  0.00     0.074 A 
ATOM     43  C   UNL     1       2.385  -7.293   0.397  1.00  0.00     0.031 C 
ATOM     44  C   UNL     1       0.517  -1.587   3.789  1.00  0.00     0.029 A 
ATOM     45  C   UNL     1       1.367  -2.514   4.532  1.00  0.00     0.049 A 
ATOM     46  H   UNL     1       2.121  -4.341   3.873  1.00  0.00     0.167 HD
ATOM     47  C   UNL     1       3.763  -8.079   2.303  1.00  0.00     0.037 A 
ATOM     48  C   UNL     1       1.813  -2.336   5.791  1.00  0.00     0.037 A 
ATOM     49  C   UNL     1       4.267  -7.987   3.648  1.00  0.00     0.049 A 
ATOM     50  C   UNL     1       2.692  -3.387   6.419  1.00  0.00     0.074 A 
ATOM     51  C   UNL     1       5.077  -8.880   4.329  1.00  0.00     0.029 A 
ATOM     52  N   UNL     1       4.011  -6.939   4.518  1.00  0.00    -0.354 N 
ATOM     53  N   UNL     1       3.153  -4.498   5.896  1.00  0.00    -0.248 NA
ATOM     54  C   UNL     1       3.107  -3.161   7.811  1.00  0.00     0.031 C 
ATOM     55  C   UNL     1       5.291  -8.383   5.620  1.00  0.00     0.029 A 
ATOM     56  C   UNL     1       4.642  -7.164   5.731  1.00  0.00     0.049 A 
ATOM     57  H   UNL     1       3.461  -6.150   4.306  1.00  0.00     0.167 HD
ATOM     58  C   UNL     1       3.926  -5.093   6.889  1.00  0.00     0.074 A 
ATOM     59  C   UNL     1       3.886  -4.210   8.036  1.00  0.00     0.031 C 
ATOM     60  C   UNL     1       4.601  -6.268   6.858  1.00  0.00     0.037 A 
BRANCH  47  61
ATOM     61  C   UNL     1       4.184  -9.249   1.462  1.00  0.00     0.058 A 
ATOM     62  C   UNL     1       5.138  -9.107   0.443  1.00  0.00     0.135 A 
ATOM     63  C   UNL     1       3.652 -10.527   1.693  1.00  0.00     0.135 A 
ATOM     64  F   UNL     1       5.662  -7.902   0.170  1.00  0.00    -0.206 F 
ATOM     65  C   UNL     1       5.539 -10.191  -0.331  1.00  0.00     0.059 A 
ATOM     66  C   UNL     1       4.051 -11.629   0.943  1.00  0.00     0.059 A 
ATOM     67  F   UNL     1       2.732 -10.712   2.653  1.00  0.00    -0.206 F 
ATOM     68  C   UNL     1       4.987 -11.448  -0.075  1.00  0.00     0.060 A 
BRANCH  68  69
ATOM     69  S   UNL     1       5.518 -12.847  -1.086  1.00  0.00     0.124 S 
ATOM     70  O   UNL     1       4.816 -12.583  -2.338  1.00  0.00    -0.237 OA
ATOM     71  O   UNL     1       6.967 -12.676  -1.124  1.00  0.00    -0.237 OA
ATOM     72  O   UNL     1       5.047 -14.006  -0.334  1.00  0.00    -0.744 OA
ENDBRANCH  68  69
ENDBRANCH  47  61
BRANCH  48  73
ATOM     73  C   UNL     1       1.419  -1.131   6.567  1.00  0.00     0.058 A 
ATOM     74  C   UNL     1       2.361  -0.151   6.916  1.00  0.00     0.135 A 
ATOM     75  C   UNL     1       0.102  -0.964   7.023  1.00  0.00     0.135 A 
ATOM     76  F   UNL     1       3.635  -0.272   6.512  1.00  0.00    -0.206 F 
ATOM     77  C   UNL     1       2.020   0.934   7.717  1.00  0.00     0.059 A 
ATOM     78  C   UNL     1      -0.268   0.125   7.804  1.00  0.00     0.059 A 
ATOM     79  F   UNL     1      -0.838  -1.868   6.708  1.00  0.00    -0.206 F 
ATOM     80  C   UNL     1       0.704   1.058   8.164  1.00  0.00     0.060 A 
BRANCH  80  81
ATOM     81  S   UNL     1       0.261   2.466   9.205  1.00  0.00     0.124 S 
ATOM     82  O   UNL     1       0.741   2.026  10.510  1.00  0.00    -0.237 OA
ATOM     83  O   UNL     1       1.005   3.559   8.587  1.00  0.00    -0.237 OA
ATOM     84  O   UNL     1      -1.190   2.544   9.057  1.00  0.00    -0.744 OA
ENDBRANCH  80  81
ENDBRANCH  48  73
BRANCH  60  85
ATOM     85  C   UNL     1       5.374  -6.649   8.090  1.00  0.00     0.058 A 
ATOM     86  C   UNL     1       4.729  -7.115   9.246  1.00  0.00     0.135 A 
ATOM     87  C   UNL     1       6.776  -6.573   8.104  1.00  0.00     0.135 A 
ATOM     88  F   UNL     1       3.390  -7.201   9.285  1.00  0.00    -0.206 F 
ATOM     89  C   UNL     1       5.447  -7.466  10.386  1.00  0.00     0.059 A 
ATOM     90  C   UNL     1       7.514  -6.940   9.225  1.00  0.00     0.059 A 
ATOM     91  F   UNL     1       7.440  -6.144   7.019  1.00  0.00    -0.206 F 
ATOM     92  C   UNL     1       6.839  -7.370  10.367  1.00  0.00     0.060 A 
BRANCH  92  93
ATOM     93  S   UNL     1       7.765  -7.845  11.842  1.00  0.00     0.124 S 
ATOM     94  O   UNL     1       7.598  -6.666  12.685  1.00  0.00    -0.237 OA
ATOM     95  O   UNL     1       7.062  -9.045  12.286  1.00  0.00    -0.237 OA
ATOM     96  O   UNL     1       9.116  -8.071  11.336  1.00  0.00    -0.744 OA
ENDBRANCH  92  93
ENDBRANCH  60  85
ENDBRANCH  34  35
ENDBRANCH  27  29
ENDBRANCH  26  27
ENDBRANCH   1  26
TORSDOF 18
