REMARK SMILES O=C(OCCOC(=O)c1ccc(-c2c3nc(c(-c4c(F)cc(S(=O)(=O)[O-])cc4F)c4ccc([nH]4)c(-c4c(F)cc(S(=O)(=O)[O-])cc4F)c4nc(c(-c5c(F)cc(S(=O)(=O)[O-])cc5F)c5ccc2[nH]5)C=C4)C=C3)cc1)C1=Cc2cc(Cl)cc(C#Cc3ccccc3)c2O[C@@H]1C(F)(F)F
REMARK SMILES IDX 5 1 4 2 3 3 2 4 1 5 75 6 76 7 93 8 77 9 92 10 78 11 91 12
REMARK SMILES IDX 79 13 82 14 80 15 81 16 94 17 95 18 96 19 97 20 83 21 84 22
REMARK SMILES IDX 85 23 86 24 90 25 87 26 89 27 88 28 6 29 7 30 8 31 9 32
REMARK SMILES IDX 10 33 74 34 11 35 73 36 12 37 13 38 14 39 67 40 15 41 72 42
REMARK SMILES IDX 66 43 68 44 16 45 71 46 65 47 64 48 17 50 51 51 30 52 50 53
REMARK SMILES IDX 31 54 34 55 49 56 69 57 32 58 33 59 48 61 70 62 35 63 18 64
REMARK SMILES IDX 19 65 28 66 20 67 21 68 27 69 29 70 22 71 23 72 24 73 25 74
REMARK SMILES IDX 26 75 52 76 53 77 62 78 54 79 55 80 61 81 63 82 56 83 57 84
REMARK SMILES IDX 58 85 59 86 60 87 36 88 37 89 46 90 38 91 39 92 45 93 47 94
REMARK SMILES IDX 40 95 41 96 42 97 43 98 44 99
REMARK H PARENT 68 49 34 60
REMARK Flexibility Score: inf
ROOT
ATOM      1  C   UNL     1       4.620  -0.838   0.017  1.00  0.00     0.275 C 
ENDROOT
BRANCH   1   2
ATOM      2  C   UNL     1       3.691   1.114  -0.296  1.00  0.00     0.275 C 
BRANCH   2   3
ATOM      3  O   UNL     1       2.664   1.483  -1.332  1.00  0.00    -0.459 OA
BRANCH   3   4
ATOM      4  C   UNL     1       2.879   0.842  -2.482  1.00  0.00     0.338 C 
ATOM      5  O   UNL     1       2.145   0.785  -3.439  1.00  0.00    -0.246 OA
BRANCH   4   6
ATOM      6  C   UNL     1       3.908  -0.090  -2.014  1.00  0.00     0.087 C 
ATOM      7  C   UNL     1       5.226   0.446  -1.834  1.00  0.00     0.027 C 
ATOM      8  C   UNL     1       2.765  -0.683  -0.605  1.00  0.00     0.316 C 
ATOM      9  C   UNL     1       5.935   0.866  -0.273  1.00  0.00     0.020 A 
ATOM     10  O   UNL     1       3.415  -0.057   1.137  1.00  0.00    -0.474 OA
ATOM     11  C   UNL     1       7.197   1.382  -0.301  1.00  0.00     0.032 A 
ATOM     12  C   UNL     1       5.047   0.806   1.212  1.00  0.00     0.143 A 
ATOM     13  C   UNL     1       7.637   1.898   0.916  1.00  0.00     0.043 A 
ATOM     14  C   UNL     1       5.548   1.386   2.340  1.00  0.00     0.069 A 
ATOM     15  Cl  UNL     1       9.218   2.609   0.925  1.00  0.00    -0.084 Cl
ATOM     16  C   UNL     1       6.857   1.927   2.144  1.00  0.00     0.041 A 
BRANCH   8  17
ATOM     17  C   UNL     1       2.795  -2.152  -1.454  1.00  0.00     0.430 C 
ATOM     18  F   UNL     1       1.661  -2.822  -1.342  1.00  0.00    -0.167 F 
ATOM     19  F   UNL     1       2.822  -1.924  -2.810  1.00  0.00    -0.167 F 
ATOM     20  F   UNL     1       3.849  -2.979  -1.276  1.00  0.00    -0.167 F 
ENDBRANCH   8  17
BRANCH  14  21
ATOM     21  C   UNL     1       4.886   1.636   3.568  1.00  0.00    -0.058 C 
ATOM     22  C   UNL     1       4.486   1.981   4.640  1.00  0.00    -0.062 C 
BRANCH  22  23
ATOM     23  C   UNL     1       4.124   2.377   5.965  1.00  0.00     0.025 A 
ATOM     24  C   UNL     1       4.124   3.721   6.346  1.00  0.00     0.017 A 
ATOM     25  C   UNL     1       3.820   1.384   6.895  1.00  0.00     0.017 A 
ATOM     26  C   UNL     1       3.817   4.067   7.664  1.00  0.00     0.001 A 
ATOM     27  C   UNL     1       3.516   1.731   8.209  1.00  0.00     0.001 A 
ATOM     28  C   UNL     1       3.516   3.071   8.594  1.00  0.00     0.000 A 
ENDBRANCH  22  23
ENDBRANCH  14  21
ENDBRANCH   4   6
ENDBRANCH   3   4
ENDBRANCH   2   3
ENDBRANCH   1   2
BRANCH   1  29
ATOM     29  O   UNL     1       3.758  -2.172   0.813  1.00  0.00    -0.458 OA
BRANCH  29  30
ATOM     30  C   UNL     1       2.667  -2.421   1.645  1.00  0.00     0.338 C 
ATOM     31  O   UNL     1       2.046  -1.651   2.357  1.00  0.00    -0.246 OA
BRANCH  30  32
ATOM     32  C   UNL     1       2.057  -3.712   1.193  1.00  0.00     0.060 A 
ATOM     33  C   UNL     1       0.763  -3.707   0.619  1.00  0.00     0.016 A 
ATOM     34  C   UNL     1       2.912  -4.783   0.970  1.00  0.00     0.016 A 
ATOM     35  C   UNL     1       0.448  -4.646  -0.391  1.00  0.00     0.010 A 
ATOM     36  C   UNL     1       2.601  -5.700  -0.032  1.00  0.00     0.010 A 
ATOM     37  C   UNL     1       1.410  -5.593  -0.781  1.00  0.00    -0.014 A 
BRANCH  37  38
ATOM     38  C   UNL     1       1.089  -6.720  -1.696  1.00  0.00     0.031 A 
ATOM     39  C   UNL     1       0.593  -7.933  -0.972  1.00  0.00     0.074 A 
ATOM     40  C   UNL     1       1.359  -6.765  -3.019  1.00  0.00     0.049 A 
ATOM     41  N   UNL     1       0.481  -9.164  -1.378  1.00  0.00    -0.248 NA
ATOM     42  C   UNL     1       0.269  -7.724   0.453  1.00  0.00     0.031 C 
ATOM     43  C   UNL     1       1.856  -5.664  -3.845  1.00  0.00     0.029 A 
ATOM     44  N   UNL     1       1.273  -7.819  -3.907  1.00  0.00    -0.354 N 
ATOM     45  C   UNL     1       0.114  -9.872  -0.244  1.00  0.00     0.074 A 
ATOM     46  C   UNL     1       0.133  -8.963   0.873  1.00  0.00     0.031 C 
ATOM     47  C   UNL     1       2.032  -6.102  -5.110  1.00  0.00     0.029 A 
ATOM     48  C   UNL     1       1.699  -7.525  -5.187  1.00  0.00     0.049 A 
ATOM     49  H   UNL     1       0.935  -8.707  -3.648  1.00  0.00     0.167 HD
ATOM     50  C   UNL     1      -0.248 -11.166  -0.140  1.00  0.00     0.037 A 
ATOM     51  C   UNL     1       1.817  -8.323  -6.275  1.00  0.00     0.037 A 
ATOM     52  C   UNL     1      -0.255 -12.061  -1.254  1.00  0.00     0.049 A 
ATOM     53  C   UNL     1       1.445  -9.789  -6.143  1.00  0.00     0.074 A 
ATOM     54  C   UNL     1      -0.620 -13.390  -1.283  1.00  0.00     0.029 A 
ATOM     55  N   UNL     1       0.138 -11.711  -2.539  1.00  0.00    -0.354 N 
ATOM     56  N   UNL     1       1.040 -10.446  -5.078  1.00  0.00    -0.248 NA
ATOM     57  C   UNL     1       1.543 -10.626  -7.350  1.00  0.00     0.031 C 
ATOM     58  C   UNL     1      -0.380 -13.866  -2.574  1.00  0.00     0.029 A 
ATOM     59  C   UNL     1       0.047 -12.810  -3.369  1.00  0.00     0.049 A 
ATOM     60  H   UNL     1       0.438 -10.815  -2.816  1.00  0.00     0.167 HD
ATOM     61  C   UNL     1       0.791 -11.751  -5.497  1.00  0.00     0.074 A 
ATOM     62  C   UNL     1       1.101 -11.798  -6.911  1.00  0.00     0.031 C 
ATOM     63  C   UNL     1       0.335 -12.812  -4.783  1.00  0.00     0.037 A 
BRANCH  50  64
ATOM     64  C   UNL     1      -0.615 -11.643   1.233  1.00  0.00     0.058 A 
ATOM     65  C   UNL     1      -1.722 -11.121   1.928  1.00  0.00     0.135 A 
ATOM     66  C   UNL     1       0.215 -12.550   1.905  1.00  0.00     0.135 A 
ATOM     67  F   UNL     1      -2.522 -10.212   1.346  1.00  0.00    -0.206 F 
ATOM     68  C   UNL     1      -1.952 -11.431   3.261  1.00  0.00     0.059 A 
ATOM     69  C   UNL     1      -0.027 -12.914   3.224  1.00  0.00     0.059 A 
ATOM     70  F   UNL     1       1.296 -13.061   1.296  1.00  0.00    -0.206 F 
ATOM     71  C   UNL     1      -1.097 -12.328   3.900  1.00  0.00     0.060 A 
BRANCH  71  72
ATOM     72  S   UNL     1      -1.402 -12.711   5.635  1.00  0.00     0.124 S 
ATOM     73  O   UNL     1      -1.010 -11.463   6.283  1.00  0.00    -0.237 OA
ATOM     74  O   UNL     1      -2.831 -13.006   5.638  1.00  0.00    -0.237 OA
ATOM     75  O   UNL     1      -0.528 -13.852   5.889  1.00  0.00    -0.744 OA
ENDBRANCH  71  72
ENDBRANCH  50  64
BRANCH  51  76
ATOM     76  C   UNL     1       2.288  -7.780  -7.590  1.00  0.00     0.058 A 
ATOM     77  C   UNL     1       1.426  -7.691  -8.698  1.00  0.00     0.135 A 
ATOM     78  C   UNL     1       3.612  -7.349  -7.779  1.00  0.00     0.135 A 
ATOM     79  F   UNL     1       0.159  -8.119  -8.595  1.00  0.00    -0.206 F 
ATOM     80  C   UNL     1       1.851  -7.192  -9.931  1.00  0.00     0.059 A 
ATOM     81  C   UNL     1       4.055  -6.825  -8.995  1.00  0.00     0.059 A 
ATOM     82  F   UNL     1       4.492  -7.423  -6.769  1.00  0.00    -0.206 F 
ATOM     83  C   UNL     1       3.166  -6.747 -10.066  1.00  0.00     0.060 A 
BRANCH  83  84
ATOM     84  S   UNL     1       3.679  -6.016 -11.640  1.00  0.00     0.124 S 
ATOM     85  O   UNL     1       3.641  -7.168 -12.534  1.00  0.00    -0.237 OA
ATOM     86  O   UNL     1       2.648  -5.007 -11.857  1.00  0.00    -0.237 OA
ATOM     87  O   UNL     1       5.010  -5.489 -11.350  1.00  0.00    -0.744 OA
ENDBRANCH  83  84
ENDBRANCH  51  76
BRANCH  63  88
ATOM     88  C   UNL     1       0.054 -14.101  -5.508  1.00  0.00     0.058 A 
ATOM     89  C   UNL     1       1.077 -14.945  -5.961  1.00  0.00     0.135 A 
ATOM     90  C   UNL     1      -1.271 -14.561  -5.606  1.00  0.00     0.135 A 
ATOM     91  F   UNL     1       2.360 -14.554  -5.888  1.00  0.00    -0.206 F 
ATOM     92  C   UNL     1       0.797 -16.202  -6.487  1.00  0.00     0.059 A 
ATOM     93  C   UNL     1      -1.571 -15.827  -6.095  1.00  0.00     0.059 A 
ATOM     94  F   UNL     1      -2.286 -13.799  -5.169  1.00  0.00    -0.206 F 
ATOM     95  C   UNL     1      -0.529 -16.639  -6.536  1.00  0.00     0.060 A 
BRANCH  95  96
ATOM     96  S   UNL     1      -0.871 -18.303  -7.146  1.00  0.00     0.124 S 
ATOM     97  O   UNL     1      -0.564 -18.165  -8.566  1.00  0.00    -0.237 OA
ATOM     98  O   UNL     1       0.063 -19.114  -6.371  1.00  0.00    -0.237 OA
ATOM     99  O   UNL     1      -2.281 -18.502  -6.826  1.00  0.00    -0.744 OA
ENDBRANCH  95  96
ENDBRANCH  63  88
ENDBRANCH  37  38
ENDBRANCH  30  32
ENDBRANCH  29  30
ENDBRANCH   1  29
TORSDOF 17
