REMARK SMILES Cc1ccccc1/[NH+]=C1\S[C@@H](CC(=O)Nc2ccc(C(=O)OCCOC(=O)c3ccc(-c4c5nc(c(-c6c(F)cc(S(=O)(=O)[O-])cc6F)c6ccc([nH]6)c(-c6c(F)cc(S(=O)(=O)[O-])cc6F)c6nc(c(-c7c(F)cc(S(=O)(=O)[O-])cc7F)c7ccc4[nH]7)C=C6)C=C5)cc3)cc2)C(=O)N1C
REMARK SMILES IDX 23 1 22 2 20 3 21 4 19 5 16 6 17 7 95 8 18 9 94 10 15 11
REMARK SMILES IDX 13 12 14 13 12 15 11 16 8 17 9 18 10 20 98 21 96 22 99 23
REMARK SMILES IDX 97 24 7 25 1 26 2 27 3 28 4 29 6 30 5 31 24 32 25 33 26 34
REMARK SMILES IDX 27 35 28 36 29 37 93 38 30 39 92 40 31 41 32 42 33 43 86 44
REMARK SMILES IDX 34 45 91 46 85 47 87 48 35 49 90 50 84 51 83 52 36 54 70 55
REMARK SMILES IDX 49 56 69 57 50 58 53 59 68 60 88 61 51 62 52 63 67 65 89 66
REMARK SMILES IDX 54 67 37 68 38 69 47 70 39 71 40 72 46 73 48 74 41 75 42 76
REMARK SMILES IDX 43 77 44 78 45 79 71 80 72 81 81 82 73 83 74 84 80 85 82 86
REMARK SMILES IDX 75 87 76 88 77 89 78 90 79 91 55 92 56 93 65 94 57 95 58 96
REMARK SMILES IDX 64 97 66 98 59 99 60 100 61 101 62 102 63 103
REMARK H PARENT 15 14 8 19 87 53 53 64
REMARK Flexibility Score: inf
ROOT
ATOM      1  C   UNL     1       2.639   7.013  -2.258  1.00  0.00     0.275 C 
ENDROOT
BRANCH   1   2
ATOM      2  O   UNL     1       3.649   6.749  -1.279  1.00  0.00    -0.458 OA
BRANCH   2   3
ATOM      3  C   UNL     1       4.200   5.513  -1.377  1.00  0.00     0.338 C 
ATOM      4  O   UNL     1       3.776   4.585  -2.039  1.00  0.00    -0.246 OA
BRANCH   3   5
ATOM      5  C   UNL     1       5.374   5.372  -0.493  1.00  0.00     0.060 A 
ATOM      6  C   UNL     1       7.046   4.185   1.330  1.00  0.00     0.041 A 
ATOM      7  C   UNL     1       6.115   5.123   1.777  1.00  0.00     0.027 A 
ATOM      8  C   UNL     1       7.349   4.067  -0.019  1.00  0.00     0.027 A 
ATOM      9  C   UNL     1       5.255   5.714   0.852  1.00  0.00     0.018 A 
ATOM     10  C   UNL     1       6.468   4.619  -0.936  1.00  0.00     0.018 A 
BRANCH   6  11
ATOM     11  N   UNL     1       7.369   3.133   2.196  1.00  0.00    -0.326 N 
ATOM     12  C   UNL     1       6.783   1.885   2.130  1.00  0.00     0.226 C 
ATOM     13  O   UNL     1       6.933   1.104   3.075  1.00  0.00    -0.275 OA
ATOM     14  H   UNL     1       8.050   3.292   2.889  1.00  0.00     0.169 HD
BRANCH  12  15
ATOM     15  C   UNL     1       5.936   1.474   0.927  1.00  0.00     0.128 C 
BRANCH  15  16
ATOM     16  C   UNL     1       4.435   1.553   1.143  1.00  0.00     0.183 C 
ATOM     17  N   UNL     1       0.928   1.810   0.290  1.00  0.00    -0.234 N 
ATOM     18  C   UNL     1       2.178   2.086   0.217  1.00  0.00     0.319 C 
ATOM     19  H   UNL     1       0.375   2.539   0.651  1.00  0.00     0.313 HD
ATOM     20  S   UNL     1       3.538   1.238  -0.427  1.00  0.00    -0.022 SA
ATOM     21  N   UNL     1       2.658   3.162   0.902  1.00  0.00    -0.193 N 
ATOM     22  C   UNL     1       3.784   2.847   1.638  1.00  0.00     0.324 C 
ATOM     23  C   UNL     1       1.854   4.344   1.148  1.00  0.00     0.301 C 
ATOM     24  O   UNL     1       4.085   3.392   2.697  1.00  0.00    -0.245 OA
BRANCH  17  25
ATOM     25  C   UNL     1       0.207   0.658  -0.052  1.00  0.00     0.128 A 
ATOM     26  C   UNL     1       1.924  -1.199   0.519  1.00  0.00     0.049 C 
ATOM     27  C   UNL     1       0.573  -0.695   0.110  1.00  0.00    -0.004 A 
ATOM     28  C   UNL     1      -0.392  -1.705  -0.098  1.00  0.00     0.008 A 
ATOM     29  C   UNL     1      -1.722  -1.400  -0.358  1.00  0.00     0.001 A 
ATOM     30  C   UNL     1      -1.148   0.932  -0.329  1.00  0.00     0.052 A 
ATOM     31  C   UNL     1      -2.106  -0.074  -0.461  1.00  0.00     0.004 A 
ENDBRANCH  17  25
ENDBRANCH  15  16
ENDBRANCH  12  15
ENDBRANCH   6  11
ENDBRANCH   3   5
ENDBRANCH   2   3
ENDBRANCH   1   2
BRANCH   1  32
ATOM     32  C   UNL     1       2.663   8.481  -2.719  1.00  0.00     0.275 C 
BRANCH  32  33
ATOM     33  O   UNL     1       3.912   9.122  -3.100  1.00  0.00    -0.458 OA
BRANCH  33  34
ATOM     34  C   UNL     1       5.086   8.443  -3.018  1.00  0.00     0.338 C 
ATOM     35  O   UNL     1       5.843   8.560  -2.061  1.00  0.00    -0.246 OA
BRANCH  34  36
ATOM     36  C   UNL     1       5.176   7.403  -4.074  1.00  0.00     0.060 A 
ATOM     37  C   UNL     1       5.986   6.285  -3.851  1.00  0.00     0.016 A 
ATOM     38  C   UNL     1       4.198   7.389  -5.069  1.00  0.00     0.016 A 
ATOM     39  C   UNL     1       5.671   5.077  -4.463  1.00  0.00     0.010 A 
ATOM     40  C   UNL     1       3.794   6.177  -5.564  1.00  0.00     0.010 A 
ATOM     41  C   UNL     1       4.520   5.022  -5.246  1.00  0.00    -0.014 A 
BRANCH  41  42
ATOM     42  C   UNL     1       4.176   3.873  -6.059  1.00  0.00     0.031 A 
ATOM     43  C   UNL     1       3.465   2.712  -5.487  1.00  0.00     0.074 A 
ATOM     44  C   UNL     1       4.561   4.082  -7.337  1.00  0.00     0.049 A 
ATOM     45  N   UNL     1       3.734   1.487  -5.781  1.00  0.00    -0.248 NA
ATOM     46  C   UNL     1       2.407   2.819  -4.474  1.00  0.00     0.031 C 
ATOM     47  C   UNL     1       4.324   3.368  -8.569  1.00  0.00     0.029 A 
ATOM     48  N   UNL     1       5.497   5.061  -7.703  1.00  0.00    -0.354 N 
ATOM     49  C   UNL     1       2.659   0.732  -5.340  1.00  0.00     0.074 A 
ATOM     50  C   UNL     1       1.979   1.550  -4.370  1.00  0.00     0.031 C 
ATOM     51  C   UNL     1       5.305   3.695  -9.439  1.00  0.00     0.029 A 
ATOM     52  C   UNL     1       6.258   4.555  -8.740  1.00  0.00     0.049 A 
ATOM     53  H   UNL     1       5.595   5.951  -7.293  1.00  0.00     0.167 HD
ATOM     54  C   UNL     1       2.281  -0.367  -6.057  1.00  0.00     0.037 A 
ATOM     55  C   UNL     1       7.567   4.278  -8.465  1.00  0.00     0.037 A 
ATOM     56  C   UNL     1       3.103  -0.440  -7.258  1.00  0.00     0.049 A 
ATOM     57  C   UNL     1       7.774   2.787  -8.531  1.00  0.00     0.074 A 
ATOM     58  C   UNL     1       2.884   0.106  -8.513  1.00  0.00     0.029 A 
ATOM     59  N   UNL     1       4.462  -0.702  -7.166  1.00  0.00    -0.354 N 
ATOM     60  N   UNL     1       6.912   1.896  -8.114  1.00  0.00    -0.248 NA
ATOM     61  C   UNL     1       8.900   2.209  -9.251  1.00  0.00     0.031 C 
ATOM     62  C   UNL     1       4.127   0.194  -9.174  1.00  0.00     0.029 A 
ATOM     63  C   UNL     1       5.106  -0.256  -8.305  1.00  0.00     0.049 A 
ATOM     64  H   UNL     1       4.903  -1.141  -6.403  1.00  0.00     0.167 HD
ATOM     65  C   UNL     1       7.290   0.663  -8.595  1.00  0.00     0.074 A 
ATOM     66  C   UNL     1       8.546   0.915  -9.283  1.00  0.00     0.031 C 
ATOM     67  C   UNL     1       6.526  -0.468  -8.493  1.00  0.00     0.037 A 
BRANCH  54  68
ATOM     68  C   UNL     1       0.965  -1.106  -5.919  1.00  0.00     0.058 A 
ATOM     69  C   UNL     1       0.284  -1.584  -7.064  1.00  0.00     0.135 A 
ATOM     70  C   UNL     1       0.338  -1.402  -4.693  1.00  0.00     0.135 A 
ATOM     71  F   UNL     1       0.767  -1.412  -8.300  1.00  0.00    -0.206 F 
ATOM     72  C   UNL     1      -0.936  -2.255  -7.010  1.00  0.00     0.059 A 
ATOM     73  C   UNL     1      -0.900  -2.067  -4.613  1.00  0.00     0.059 A 
ATOM     74  F   UNL     1       0.925  -1.074  -3.531  1.00  0.00    -0.206 F 
ATOM     75  C   UNL     1      -1.531  -2.486  -5.782  1.00  0.00     0.060 A 
BRANCH  75  76
ATOM     76  S   UNL     1      -3.119  -3.346  -5.773  1.00  0.00     0.124 S 
ATOM     77  O   UNL     1      -3.950  -2.461  -6.584  1.00  0.00    -0.237 OA
ATOM     78  O   UNL     1      -2.780  -4.627  -6.384  1.00  0.00    -0.237 OA
ATOM     79  O   UNL     1      -3.472  -3.402  -4.357  1.00  0.00    -0.744 OA
ENDBRANCH  75  76
ENDBRANCH  54  68
BRANCH  55  80
ATOM     80  C   UNL     1       8.244   5.247  -7.528  1.00  0.00     0.058 A 
ATOM     81  C   UNL     1       8.137   6.632  -7.811  1.00  0.00     0.135 A 
ATOM     82  C   UNL     1       8.777   4.918  -6.273  1.00  0.00     0.135 A 
ATOM     83  F   UNL     1       7.662   7.039  -9.001  1.00  0.00    -0.206 F 
ATOM     84  C   UNL     1       8.414   7.624  -6.872  1.00  0.00     0.059 A 
ATOM     85  C   UNL     1       9.091   5.903  -5.318  1.00  0.00     0.059 A 
ATOM     86  F   UNL     1       8.934   3.635  -5.918  1.00  0.00    -0.206 F 
ATOM     87  C   UNL     1       8.868   7.250  -5.614  1.00  0.00     0.060 A 
BRANCH  87  88
ATOM     88  S   UNL     1       8.976   8.534  -4.335  1.00  0.00     0.124 S 
ATOM     89  O   UNL     1      10.223   9.204  -4.687  1.00  0.00    -0.237 OA
ATOM     90  O   UNL     1       7.758   9.303  -4.581  1.00  0.00    -0.237 OA
ATOM     91  O   UNL     1       9.001   7.759  -3.100  1.00  0.00    -0.744 OA
ENDBRANCH  87  88
ENDBRANCH  55  80
BRANCH  67  92
ATOM     92  C   UNL     1       6.987  -1.889  -8.732  1.00  0.00     0.058 A 
ATOM     93  C   UNL     1       8.330  -2.289  -8.684  1.00  0.00     0.135 A 
ATOM     94  C   UNL     1       6.046  -2.946  -8.871  1.00  0.00     0.135 A 
ATOM     95  F   UNL     1       9.315  -1.424  -8.411  1.00  0.00    -0.206 F 
ATOM     96  C   UNL     1       8.719  -3.613  -8.863  1.00  0.00     0.059 A 
ATOM     97  C   UNL     1       6.409  -4.282  -8.964  1.00  0.00     0.059 A 
ATOM     98  F   UNL     1       4.723  -2.730  -8.900  1.00  0.00    -0.206 F 
ATOM     99  C   UNL     1       7.753  -4.603  -8.999  1.00  0.00     0.060 A 
BRANCH  99 100
ATOM    100  S   UNL     1       8.267  -6.314  -9.175  1.00  0.00     0.124 S 
ATOM    101  O   UNL     1       8.585  -6.372 -10.598  1.00  0.00    -0.237 OA
ATOM    102  O   UNL     1       9.409  -6.394  -8.268  1.00  0.00    -0.237 OA
ATOM    103  O   UNL     1       7.090  -7.068  -8.758  1.00  0.00    -0.744 OA
ENDBRANCH  99 100
ENDBRANCH  67  92
ENDBRANCH  41  42
ENDBRANCH  34  36
ENDBRANCH  33  34
ENDBRANCH  32  33
ENDBRANCH   1  32
TORSDOF 18
