REMARK SMILES C[C@@H]1C[N@H+](Cc2ccccc2)CC[C@@H]1CC(=O)OCCOC(=O)c1ccc(-c2c3nc(c(-c4c(F)cc(S(=O)(=O)[O-])cc4F)c4ccc([nH]4)c(-c4c(F)cc(S(=O)(=O)[O-])cc4F)c4nc(c(-c5c(F)cc(S(=O)(=O)[O-])cc5F)c5ccc2[nH]5)C=C4)C=C3)cc1
REMARK SMILES IDX 19 1 18 2 16 3 17 4 15 5 14 6 1 7 2 8 3 9 4 10 13 11 12 12
REMARK SMILES IDX 5 14 6 15 7 16 11 17 8 18 10 19 9 20 20 21 21 22 22 23 23 24
REMARK SMILES IDX 24 25 25 26 89 27 26 28 88 29 27 30 28 31 29 32 82 33 30 34
REMARK SMILES IDX 87 35 81 36 83 37 31 38 86 39 80 40 79 41 32 43 66 44 45 45
REMARK SMILES IDX 65 46 46 47 49 48 64 49 84 50 47 51 48 52 63 54 85 55 50 56
REMARK SMILES IDX 33 57 34 58 43 59 35 60 36 61 42 62 44 63 37 64 38 65 39 66
REMARK SMILES IDX 40 67 41 68 67 69 68 70 77 71 69 72 70 73 76 74 78 75 71 76
REMARK SMILES IDX 72 77 73 78 74 79 75 80 51 81 52 82 61 83 53 84 54 85 60 86
REMARK SMILES IDX 62 87 55 88 56 89 57 90 58 91 59 92
REMARK H PARENT 4 13 83 42 49 53
REMARK Flexibility Score: inf
ROOT
ATOM      1  C   UNL     1       4.668   0.129  -0.253  1.00  0.00     0.274 C 
ENDROOT
BRANCH   1   2
ATOM      2  O   UNL     1       3.420  -0.043  -0.963  1.00  0.00    -0.462 OA
BRANCH   2   3
ATOM      3  C   UNL     1       2.738  -1.196  -0.753  1.00  0.00     0.306 C 
ATOM      4  O   UNL     1       3.141  -2.113  -0.048  1.00  0.00    -0.252 OA
BRANCH   3   5
ATOM      5  C   UNL     1       1.508  -1.307  -1.642  1.00  0.00     0.127 C 
BRANCH   5   6
ATOM      6  C   UNL     1       0.228  -0.420  -1.539  1.00  0.00     0.014 C 
ATOM      7  C   UNL     1       1.396   1.776  -0.487  1.00  0.00     0.014 C 
ATOM      8  C   UNL     1       0.268   1.127  -1.280  1.00  0.00     0.045 C 
ATOM      9  C   UNL     1      -1.087   1.688  -0.795  1.00  0.00     0.265 C 
ATOM     10  N   UNL     1      -1.773   0.900   0.214  1.00  0.00    -0.331 N 
ATOM     11  C   UNL     1      -0.931  -1.211  -0.859  1.00  0.00     0.066 C 
ATOM     12  C   UNL     1      -2.117  -0.407  -0.320  1.00  0.00     0.262 C 
ATOM     13  H   UNL     1      -2.666   1.355   0.403  1.00  0.00     0.348 HD
BRANCH  10  14
ATOM     14  C   UNL     1      -1.309   1.013   1.610  1.00  0.00     0.299 C 
BRANCH  14  15
ATOM     15  C   UNL     1      -0.869  -0.273   2.276  1.00  0.00     0.006 A 
ATOM     16  C   UNL     1      -1.747  -1.032   3.064  1.00  0.00     0.009 A 
ATOM     17  C   UNL     1       0.371  -0.821   1.965  1.00  0.00     0.009 A 
ATOM     18  C   UNL     1      -1.439  -2.353   3.401  1.00  0.00     0.001 A 
ATOM     19  C   UNL     1       0.616  -2.167   2.192  1.00  0.00     0.001 A 
ATOM     20  C   UNL     1      -0.281  -2.940   2.912  1.00  0.00     0.000 A 
ENDBRANCH  14  15
ENDBRANCH  10  14
ENDBRANCH   5   6
ENDBRANCH   3   5
ENDBRANCH   2   3
ENDBRANCH   1   2
BRANCH   1  21
ATOM     21  C   UNL     1       4.485   0.871   1.079  1.00  0.00     0.275 C 
BRANCH  21  22
ATOM     22  O   UNL     1       3.774   0.096   2.062  1.00  0.00    -0.458 OA
BRANCH  22  23
ATOM     23  C   UNL     1       4.537  -0.827   2.694  1.00  0.00     0.338 C 
ATOM     24  O   UNL     1       5.729  -1.030   2.508  1.00  0.00    -0.246 OA
BRANCH  23  25
ATOM     25  C   UNL     1       3.712  -1.643   3.598  1.00  0.00     0.060 A 
ATOM     26  C   UNL     1       3.476  -2.963   3.228  1.00  0.00     0.016 A 
ATOM     27  C   UNL     1       3.243  -1.162   4.826  1.00  0.00     0.016 A 
ATOM     28  C   UNL     1       2.746  -3.796   4.077  1.00  0.00     0.010 A 
ATOM     29  C   UNL     1       2.624  -2.045   5.732  1.00  0.00     0.010 A 
ATOM     30  C   UNL     1       2.413  -3.389   5.386  1.00  0.00    -0.014 A 
BRANCH  30  31
ATOM     31  C   UNL     1       2.108  -4.449   6.403  1.00  0.00     0.031 A 
ATOM     32  C   UNL     1       0.868  -4.474   7.258  1.00  0.00     0.074 A 
ATOM     33  C   UNL     1       3.022  -5.437   6.542  1.00  0.00     0.049 A 
ATOM     34  N   UNL     1       0.553  -5.315   8.215  1.00  0.00    -0.248 NA
ATOM     35  C   UNL     1      -0.141  -3.432   7.029  1.00  0.00     0.031 C 
ATOM     36  C   UNL     1       4.280  -5.524   5.791  1.00  0.00     0.029 A 
ATOM     37  N   UNL     1       3.034  -6.574   7.311  1.00  0.00    -0.354 N 
ATOM     38  C   UNL     1      -0.669  -4.892   8.728  1.00  0.00     0.074 A 
ATOM     39  C   UNL     1      -1.044  -3.716   7.963  1.00  0.00     0.031 C 
ATOM     40  C   UNL     1       4.864  -6.700   6.026  1.00  0.00     0.029 A 
ATOM     41  C   UNL     1       4.127  -7.378   7.078  1.00  0.00     0.049 A 
ATOM     42  H   UNL     1       2.331  -6.792   7.965  1.00  0.00     0.167 HD
ATOM     43  C   UNL     1      -1.392  -5.425   9.749  1.00  0.00     0.037 A 
ATOM     44  C   UNL     1       4.550  -8.507   7.676  1.00  0.00     0.037 A 
ATOM     45  C   UNL     1      -0.997  -6.596  10.504  1.00  0.00     0.049 A 
ATOM     46  C   UNL     1       3.766  -9.039   8.830  1.00  0.00     0.074 A 
ATOM     47  C   UNL     1      -1.655  -7.204  11.562  1.00  0.00     0.029 A 
ATOM     48  N   UNL     1       0.162  -7.334  10.289  1.00  0.00    -0.354 N 
ATOM     49  N   UNL     1       2.640  -8.591   9.329  1.00  0.00    -0.248 NA
ATOM     50  C   UNL     1       4.327 -10.198   9.530  1.00  0.00     0.031 C 
ATOM     51  C   UNL     1      -0.872  -8.272  12.018  1.00  0.00     0.029 A 
ATOM     52  C   UNL     1       0.249  -8.370  11.210  1.00  0.00     0.049 A 
ATOM     53  H   UNL     1       0.825  -7.149   9.586  1.00  0.00     0.167 HD
ATOM     54  C   UNL     1       2.358  -9.409  10.411  1.00  0.00     0.074 A 
ATOM     55  C   UNL     1       3.417 -10.398  10.474  1.00  0.00     0.031 C 
ATOM     56  C   UNL     1       1.318  -9.338  11.278  1.00  0.00     0.037 A 
BRANCH  43  57
ATOM     57  C   UNL     1      -2.661  -4.716  10.162  1.00  0.00     0.058 A 
ATOM     58  C   UNL     1      -3.823  -4.734   9.374  1.00  0.00     0.135 A 
ATOM     59  C   UNL     1      -2.726  -4.038  11.393  1.00  0.00     0.135 A 
ATOM     60  F   UNL     1      -3.826  -5.366   8.190  1.00  0.00    -0.206 F 
ATOM     61  C   UNL     1      -4.985  -4.072   9.769  1.00  0.00     0.059 A 
ATOM     62  C   UNL     1      -3.884  -3.391  11.820  1.00  0.00     0.059 A 
ATOM     63  F   UNL     1      -1.654  -3.999  12.200  1.00  0.00    -0.206 F 
ATOM     64  C   UNL     1      -5.003  -3.393  10.989  1.00  0.00     0.060 A 
BRANCH  64  65
ATOM     65  S   UNL     1      -6.498  -2.497  11.466  1.00  0.00     0.124 S 
ATOM     66  O   UNL     1      -6.453  -1.354  10.559  1.00  0.00    -0.237 OA
ATOM     67  O   UNL     1      -7.549  -3.474  11.200  1.00  0.00    -0.237 OA
ATOM     68  O   UNL     1      -6.277  -2.188  12.875  1.00  0.00    -0.744 OA
ENDBRANCH  64  65
ENDBRANCH  43  57
BRANCH  44  69
ATOM     69  C   UNL     1       5.813  -9.144   7.215  1.00  0.00     0.058 A 
ATOM     70  C   UNL     1       5.799 -10.370   6.538  1.00  0.00     0.135 A 
ATOM     71  C   UNL     1       7.048  -8.487   7.354  1.00  0.00     0.135 A 
ATOM     72  F   UNL     1       4.648 -11.044   6.392  1.00  0.00    -0.206 F 
ATOM     73  C   UNL     1       6.960 -10.912   5.993  1.00  0.00     0.059 A 
ATOM     74  C   UNL     1       8.213  -8.989   6.786  1.00  0.00     0.059 A 
ATOM     75  F   UNL     1       7.113  -7.302   7.982  1.00  0.00    -0.206 F 
ATOM     76  C   UNL     1       8.159 -10.205   6.108  1.00  0.00     0.060 A 
BRANCH  76  77
ATOM     77  S   UNL     1       9.638 -10.860   5.306  1.00  0.00     0.124 S 
ATOM     78  O   UNL     1       9.998 -11.952   6.202  1.00  0.00    -0.237 OA
ATOM     79  O   UNL     1       9.130 -11.251   3.994  1.00  0.00    -0.237 OA
ATOM     80  O   UNL     1      10.550  -9.720   5.300  1.00  0.00    -0.744 OA
ENDBRANCH  76  77
ENDBRANCH  44  69
BRANCH  56  81
ATOM     81  C   UNL     1       1.277 -10.379  12.361  1.00  0.00     0.058 A 
ATOM     82  C   UNL     1       2.162 -10.344  13.450  1.00  0.00     0.135 A 
ATOM     83  C   UNL     1       0.345 -11.426  12.305  1.00  0.00     0.135 A 
ATOM     84  F   UNL     1       3.086  -9.373  13.540  1.00  0.00    -0.206 F 
ATOM     85  C   UNL     1       2.142 -11.327  14.434  1.00  0.00     0.059 A 
ATOM     86  C   UNL     1       0.289 -12.406  13.291  1.00  0.00     0.059 A 
ATOM     87  F   UNL     1      -0.524 -11.505  11.285  1.00  0.00    -0.206 F 
ATOM     88  C   UNL     1       1.202 -12.355  14.345  1.00  0.00     0.060 A 
BRANCH  88  89
ATOM     89  S   UNL     1       1.174 -13.617  15.635  1.00  0.00     0.124 S 
ATOM     90  O   UNL     1       2.357 -14.404  15.303  1.00  0.00    -0.237 OA
ATOM     91  O   UNL     1       1.265 -12.820  16.855  1.00  0.00    -0.237 OA
ATOM     92  O   UNL     1      -0.106 -14.288  15.427  1.00  0.00    -0.744 OA
ENDBRANCH  88  89
ENDBRANCH  56  81
ENDBRANCH  30  31
ENDBRANCH  23  25
ENDBRANCH  22  23
ENDBRANCH  21  22
ENDBRANCH   1  21
TORSDOF 17
