REMARK SMILES COc1ccccc1C(=O)Nc1sc2c(c1C(=O)OCCOC(=O)c1ccc(-c3c4nc(c(-c5c(F)cc(S(=O)(=O)[O-])cc5F)c5ccc([nH]5)c(-c5c(F)cc(S(=O)(=O)[O-])cc5F)c5nc(c(-c6c(F)cc(S(=O)(=O)[O-])cc6F)c6ccc3[nH]6)C=C5)C=C4)cc1)CCCC2
REMARK SMILES IDX 20 1 19 2 17 3 18 4 16 5 12 6 13 7 14 8 15 9 94 10 91 11
REMARK SMILES IDX 93 12 92 13 11 14 9 15 10 16 8 18 3 19 4 20 5 21 7 22 6 23
REMARK SMILES IDX 2 24 1 25 21 26 22 27 23 28 24 29 25 30 26 31 90 32 27 33
REMARK SMILES IDX 89 34 28 35 29 36 30 37 83 38 31 39 88 40 82 41 84 42 32 43
REMARK SMILES IDX 87 44 81 45 80 46 33 48 67 49 46 50 66 51 47 52 50 53 65 54
REMARK SMILES IDX 85 55 48 56 49 57 64 59 86 60 51 61 34 62 35 63 44 64 36 65
REMARK SMILES IDX 37 66 43 67 45 68 38 69 39 70 40 71 41 72 42 73 68 74 69 75
REMARK SMILES IDX 78 76 70 77 71 78 77 79 79 80 72 81 73 82 74 83 75 84 76 85
REMARK SMILES IDX 52 86 53 87 62 88 54 89 55 90 61 91 63 92 56 93 57 94 58 95
REMARK SMILES IDX 59 96 60 97
REMARK H PARENT 11 17 84 47 50 58
REMARK Flexibility Score: inf
ROOT
ATOM      1  C   UNL     1       0.765   2.941   3.088  1.00  0.00     0.275 C 
ENDROOT
BRANCH   1   2
ATOM      2  O   UNL     1       0.424   1.575   2.770  1.00  0.00    -0.458 OA
BRANCH   2   3
ATOM      3  C   UNL     1       0.680   1.171   1.491  1.00  0.00     0.341 C 
ATOM      4  O   UNL     1       1.216   1.884   0.650  1.00  0.00    -0.246 OA
BRANCH   3   5
ATOM      5  C   UNL     1       0.198  -0.177   1.192  1.00  0.00     0.098 A 
ATOM      6  C   UNL     1       0.804  -1.038   0.289  1.00  0.00     0.110 A 
ATOM      7  S   UNL     1       0.011  -2.528   0.121  1.00  0.00    -0.122 S 
ATOM      8  C   UNL     1      -1.314  -1.950   1.012  1.00  0.00     0.011 A 
ATOM      9  C   UNL     1      -1.066  -0.730   1.617  1.00  0.00    -0.017 A 
ATOM     10  C   UNL     1      -2.608  -2.695   1.072  1.00  0.00     0.047 C 
ATOM     11  C   UNL     1      -2.106  -0.029   2.443  1.00  0.00     0.038 C 
ATOM     12  C   UNL     1      -3.733  -1.734   1.489  1.00  0.00     0.006 C 
ATOM     13  C   UNL     1      -3.329  -0.914   2.720  1.00  0.00     0.005 C 
BRANCH   6  14
ATOM     14  N   UNL     1       1.999  -0.906  -0.381  1.00  0.00    -0.313 N 
ATOM     15  C   UNL     1       2.068  -0.371  -1.655  1.00  0.00     0.260 C 
ATOM     16  O   UNL     1       2.931   0.469  -1.918  1.00  0.00    -0.269 OA
ATOM     17  H   UNL     1       2.829  -1.200   0.059  1.00  0.00     0.171 HD
BRANCH  15  18
ATOM     18  C   UNL     1       1.259  -0.863  -2.781  1.00  0.00     0.082 A 
ATOM     19  C   UNL     1      -0.125  -0.724  -2.902  1.00  0.00     0.131 A 
ATOM     20  C   UNL     1      -0.773  -1.230  -4.033  1.00  0.00     0.047 A 
ATOM     21  C   UNL     1      -0.035  -1.775  -5.086  1.00  0.00     0.004 A 
ATOM     22  C   UNL     1       1.998  -1.386  -3.857  1.00  0.00     0.018 A 
ATOM     23  C   UNL     1       1.354  -1.832  -5.009  1.00  0.00     0.001 A 
BRANCH  19  24
ATOM     24  O   UNL     1      -0.928  -0.141  -1.960  1.00  0.00    -0.496 OA
ATOM     25  C   UNL     1      -0.758   1.276  -1.931  1.00  0.00     0.278 C 
ENDBRANCH  19  24
ENDBRANCH  15  18
ENDBRANCH   6  14
ENDBRANCH   3   5
ENDBRANCH   2   3
ENDBRANCH   1   2
BRANCH   1  26
ATOM     26  C   UNL     1       2.037   3.016   3.930  1.00  0.00     0.275 C 
BRANCH  26  27
ATOM     27  O   UNL     1       3.164   2.625   3.131  1.00  0.00    -0.458 OA
BRANCH  27  28
ATOM     28  C   UNL     1       3.835   1.520   3.537  1.00  0.00     0.338 C 
ATOM     29  O   UNL     1       3.645   0.872   4.545  1.00  0.00    -0.246 OA
BRANCH  28  30
ATOM     30  C   UNL     1       4.830   1.155   2.508  1.00  0.00     0.060 A 
ATOM     31  C   UNL     1       4.413   1.039   1.190  1.00  0.00     0.016 A 
ATOM     32  C   UNL     1       6.133   0.795   2.853  1.00  0.00     0.016 A 
ATOM     33  C   UNL     1       5.245   0.447   0.250  1.00  0.00     0.010 A 
ATOM     34  C   UNL     1       7.013   0.326   1.861  1.00  0.00     0.010 A 
ATOM     35  C   UNL     1       6.565   0.111   0.547  1.00  0.00    -0.014 A 
BRANCH  35  36
ATOM     36  C   UNL     1       7.406  -0.518  -0.518  1.00  0.00     0.031 A 
ATOM     37  C   UNL     1       8.040  -1.862  -0.277  1.00  0.00     0.074 A 
ATOM     38  C   UNL     1       7.515   0.043  -1.743  1.00  0.00     0.049 A 
ATOM     39  N   UNL     1       8.939  -2.494  -0.988  1.00  0.00    -0.248 NA
ATOM     40  C   UNL     1       7.601  -2.596   0.920  1.00  0.00     0.031 C 
ATOM     41  C   UNL     1       6.835   1.263  -2.187  1.00  0.00     0.029 A 
ATOM     42  N   UNL     1       8.202  -0.366  -2.863  1.00  0.00    -0.354 N 
ATOM     43  C   UNL     1       9.232  -3.657  -0.284  1.00  0.00     0.074 A 
ATOM     44  C   UNL     1       8.395  -3.656   0.897  1.00  0.00     0.031 C 
ATOM     45  C   UNL     1       7.062   1.449  -3.495  1.00  0.00     0.029 A 
ATOM     46  C   UNL     1       8.024   0.457  -3.952  1.00  0.00     0.049 A 
ATOM     47  H   UNL     1       8.768  -1.171  -2.883  1.00  0.00     0.167 HD
ATOM     48  C   UNL     1      10.132  -4.623  -0.590  1.00  0.00     0.037 A 
ATOM     49  C   UNL     1       8.610   0.457  -5.166  1.00  0.00     0.037 A 
ATOM     50  C   UNL     1      10.914  -4.639  -1.799  1.00  0.00     0.049 A 
ATOM     51  C   UNL     1       9.685  -0.553  -5.442  1.00  0.00     0.074 A 
ATOM     52  C   UNL     1      11.881  -5.547  -2.192  1.00  0.00     0.029 A 
ATOM     53  N   UNL     1      10.805  -3.706  -2.822  1.00  0.00    -0.354 N 
ATOM     54  N   UNL     1      10.070  -1.568  -4.706  1.00  0.00    -0.248 NA
ATOM     55  C   UNL     1      10.444  -0.389  -6.689  1.00  0.00     0.031 C 
ATOM     56  C   UNL     1      12.391  -5.136  -3.429  1.00  0.00     0.029 A 
ATOM     57  C   UNL     1      11.707  -3.999  -3.832  1.00  0.00     0.049 A 
ATOM     58  H   UNL     1      10.179  -2.946  -2.828  1.00  0.00     0.167 HD
ATOM     59  C   UNL     1      11.117  -2.164  -5.398  1.00  0.00     0.074 A 
ATOM     60  C   UNL     1      11.290  -1.409  -6.623  1.00  0.00     0.031 C 
ATOM     61  C   UNL     1      11.870  -3.234  -5.044  1.00  0.00     0.037 A 
BRANCH  48  62
ATOM     62  C   UNL     1      10.387  -5.677   0.454  1.00  0.00     0.058 A 
ATOM     63  C   UNL     1       9.466  -6.692   0.753  1.00  0.00     0.135 A 
ATOM     64  C   UNL     1      11.582  -5.640   1.194  1.00  0.00     0.135 A 
ATOM     65  F   UNL     1       8.301  -6.765   0.091  1.00  0.00    -0.206 F 
ATOM     66  C   UNL     1       9.697  -7.602   1.783  1.00  0.00     0.059 A 
ATOM     67  C   UNL     1      11.846  -6.555   2.208  1.00  0.00     0.059 A 
ATOM     68  F   UNL     1      12.500  -4.692   0.949  1.00  0.00    -0.206 F 
ATOM     69  C   UNL     1      10.885  -7.516   2.513  1.00  0.00     0.060 A 
BRANCH  69  70
ATOM     70  S   UNL     1      11.151  -8.661   3.884  1.00  0.00     0.124 S 
ATOM     71  O   UNL     1      10.256  -8.111   4.899  1.00  0.00    -0.237 OA
ATOM     72  O   UNL     1      10.746  -9.940   3.310  1.00  0.00    -0.237 OA
ATOM     73  O   UNL     1      12.576  -8.528   4.167  1.00  0.00    -0.744 OA
ENDBRANCH  69  70
ENDBRANCH  48  62
BRANCH  49  74
ATOM     74  C   UNL     1       8.252   1.499  -6.170  1.00  0.00     0.058 A 
ATOM     75  C   UNL     1       7.609   1.160  -7.368  1.00  0.00     0.135 A 
ATOM     76  C   UNL     1       8.521   2.860  -5.939  1.00  0.00     0.135 A 
ATOM     77  F   UNL     1       7.350  -0.126  -7.651  1.00  0.00    -0.206 F 
ATOM     78  C   UNL     1       7.233   2.130  -8.295  1.00  0.00     0.059 A 
ATOM     79  C   UNL     1       8.127   3.849  -6.833  1.00  0.00     0.059 A 
ATOM     80  F   UNL     1       9.141   3.242  -4.811  1.00  0.00    -0.206 F 
ATOM     81  C   UNL     1       7.487   3.474  -8.013  1.00  0.00     0.060 A 
BRANCH  81  82
ATOM     82  S   UNL     1       6.931   4.732  -9.184  1.00  0.00     0.124 S 
ATOM     83  O   UNL     1       7.896   4.573 -10.266  1.00  0.00    -0.237 OA
ATOM     84  O   UNL     1       5.567   4.301  -9.477  1.00  0.00    -0.237 OA
ATOM     85  O   UNL     1       7.037   5.972  -8.421  1.00  0.00    -0.744 OA
ENDBRANCH  81  82
ENDBRANCH  49  74
BRANCH  61  86
ATOM     86  C   UNL     1      12.941  -3.665  -6.005  1.00  0.00     0.058 A 
ATOM     87  C   UNL     1      14.134  -2.940  -6.150  1.00  0.00     0.135 A 
ATOM     88  C   UNL     1      12.793  -4.844  -6.753  1.00  0.00     0.135 A 
ATOM     89  F   UNL     1      14.319  -1.799  -5.467  1.00  0.00    -0.206 F 
ATOM     90  C   UNL     1      15.138  -3.362  -7.015  1.00  0.00     0.059 A 
ATOM     91  C   UNL     1      13.795  -5.298  -7.604  1.00  0.00     0.059 A 
ATOM     92  F   UNL     1      11.673  -5.577  -6.645  1.00  0.00    -0.206 F 
ATOM     93  C   UNL     1      14.961  -4.545  -7.735  1.00  0.00     0.060 A 
BRANCH  93  94
ATOM     94  S   UNL     1      16.290  -5.105  -8.821  1.00  0.00     0.124 S 
ATOM     95  O   UNL     1      16.169  -4.175  -9.938  1.00  0.00    -0.237 OA
ATOM     96  O   UNL     1      17.472  -4.938  -7.981  1.00  0.00    -0.237 OA
ATOM     97  O   UNL     1      15.928  -6.489  -9.114  1.00  0.00    -0.744 OA
ENDBRANCH  93  94
ENDBRANCH  61  86
ENDBRANCH  35  36
ENDBRANCH  28  30
ENDBRANCH  27  28
ENDBRANCH  26  27
ENDBRANCH   1  26
TORSDOF 17
