REMARK SMILES Nc1nccc(N2CCC[C@@](Cc3ccc(F)cc3F)(C(=O)OCCOC(=O)c3ccc(-c4c5nc(c(-c6c(F)cc(S(=O)(=O)[O-])cc6F)c6ccc([nH]6)c(-c6c(F)cc(S(=O)(=O)[O-])cc6F)c6nc(c(-c7c(F)cc(S(=O)(=O)[O-])cc7F)c7ccc4[nH]7)C=C6)C=C5)cc3)C2)n1
REMARK SMILES IDX 25 1 24 2 23 3 21 4 22 5 11 6 7 7 8 8 95 9 9 10 10 11 6 12
REMARK SMILES IDX 2 13 3 14 96 15 4 16 5 17 1 18 12 21 13 22 14 23 19 24 15 25
REMARK SMILES IDX 18 26 20 27 16 28 17 29 26 30 27 31 28 32 29 33 30 34 94 35
REMARK SMILES IDX 31 36 93 37 32 38 33 39 34 40 87 41 35 42 92 43 86 44 88 45
REMARK SMILES IDX 36 46 91 47 85 48 84 49 37 51 71 52 50 53 70 54 51 55 54 56
REMARK SMILES IDX 69 57 89 58 52 59 53 60 68 62 90 63 55 64 38 65 39 66 48 67
REMARK SMILES IDX 40 68 41 69 47 70 49 71 42 72 43 73 44 74 45 75 46 76 72 77
REMARK SMILES IDX 73 78 82 79 74 80 75 81 81 82 83 83 76 84 77 85 78 86 79 87
REMARK SMILES IDX 80 88 56 89 57 90 66 91 58 92 59 93 65 94 67 95 60 96 61 97
REMARK SMILES IDX 62 98 63 99 64 100
REMARK H PARENT 1 19 1 20 88 50 54 61
REMARK Flexibility Score: inf
ROOT
ATOM      1  C   UNL     1       2.151  -7.461  -3.989  1.00  0.00     0.275 C 
ENDROOT
BRANCH   1   2
ATOM      2  C   UNL     1       3.167  -6.360  -4.266  1.00  0.00     0.274 C 
BRANCH   2   3
ATOM      3  O   UNL     1       3.423  -5.584  -3.076  1.00  0.00    -0.462 OA
BRANCH   3   4
ATOM      4  C   UNL     1       2.826  -4.360  -3.025  1.00  0.00     0.314 C 
ATOM      5  O   UNL     1       2.076  -3.930  -3.894  1.00  0.00    -0.252 OA
BRANCH   4   6
ATOM      6  C   UNL     1       3.286  -3.520  -1.835  1.00  0.00     0.090 C 
ATOM      7  N   UNL     1       2.382  -1.989  -0.145  1.00  0.00    -0.355 N 
ATOM      8  C   UNL     1       2.846  -2.735   1.021  1.00  0.00     0.118 C 
ATOM      9  C   UNL     1       2.022  -2.806  -1.302  1.00  0.00     0.137 C 
ATOM     10  C   UNL     1       4.072  -3.561   0.620  1.00  0.00     0.023 C 
ATOM     11  C   UNL     1       3.858  -4.367  -0.671  1.00  0.00     0.023 C 
BRANCH   7  12
ATOM     12  C   UNL     1       1.486  -0.950   0.123  1.00  0.00     0.134 A 
ATOM     13  C   UNL     1      -0.640  -0.093   0.173  1.00  0.00     0.221 A 
ATOM     14  N   UNL     1      -0.216   1.142   0.458  1.00  0.00    -0.222 NA
ATOM     15  N   UNL     1       0.163  -1.149  -0.014  1.00  0.00    -0.196 NA
ATOM     16  C   UNL     1       1.108   1.309   0.581  1.00  0.00     0.119 A 
ATOM     17  C   UNL     1       2.010   0.287   0.440  1.00  0.00     0.067 A 
BRANCH  13  18
ATOM     18  N   UNL     1      -1.986  -0.273   0.068  1.00  0.00    -0.368 N 
ATOM     19  H   UNL     1      -2.596   0.488   0.201  1.00  0.00     0.159 HD
ATOM     20  H   UNL     1      -2.348  -1.164  -0.142  1.00  0.00     0.159 HD
ENDBRANCH  13  18
ENDBRANCH   7  12
BRANCH   6  21
ATOM     21  C   UNL     1       4.268  -2.444  -2.381  1.00  0.00     0.059 C 
BRANCH  21  22
ATOM     22  C   UNL     1       5.548  -2.957  -3.001  1.00  0.00    -0.011 A 
ATOM     23  C   UNL     1       5.567  -3.430  -4.323  1.00  0.00     0.010 A 
ATOM     24  C   UNL     1       6.744  -2.957  -2.275  1.00  0.00     0.129 A 
ATOM     25  C   UNL     1       6.748  -3.926  -4.877  1.00  0.00     0.040 A 
ATOM     26  C   UNL     1       7.927  -3.435  -2.823  1.00  0.00     0.078 A 
ATOM     27  F   UNL     1       6.769  -2.480  -1.022  1.00  0.00    -0.207 F 
ATOM     28  C   UNL     1       7.915  -3.924  -4.120  1.00  0.00     0.126 A 
ATOM     29  F   UNL     1       9.047  -4.396  -4.658  1.00  0.00    -0.207 F 
ENDBRANCH  21  22
ENDBRANCH   6  21
ENDBRANCH   4   6
ENDBRANCH   3   4
ENDBRANCH   2   3
ENDBRANCH   1   2
BRANCH   1  30
ATOM     30  O   UNL     1       0.922  -6.864  -3.548  1.00  0.00    -0.458 OA
BRANCH  30  31
ATOM     31  C   UNL     1       0.361  -7.418  -2.449  1.00  0.00     0.338 C 
ATOM     32  O   UNL     1       0.730  -8.421  -1.863  1.00  0.00    -0.246 OA
BRANCH  31  33
ATOM     33  C   UNL     1      -0.790  -6.603  -2.014  1.00  0.00     0.060 A 
ATOM     34  C   UNL     1      -0.692  -5.213  -1.974  1.00  0.00     0.016 A 
ATOM     35  C   UNL     1      -1.936  -7.230  -1.532  1.00  0.00     0.016 A 
ATOM     36  C   UNL     1      -1.680  -4.455  -1.347  1.00  0.00     0.010 A 
ATOM     37  C   UNL     1      -2.980  -6.459  -1.010  1.00  0.00     0.010 A 
ATOM     38  C   UNL     1      -2.848  -5.065  -0.869  1.00  0.00    -0.014 A 
BRANCH  38  39
ATOM     39  C   UNL     1      -3.905  -4.271  -0.177  1.00  0.00     0.031 A 
ATOM     40  C   UNL     1      -4.346  -4.659   1.212  1.00  0.00     0.074 A 
ATOM     41  C   UNL     1      -4.475  -3.203  -0.770  1.00  0.00     0.049 A 
ATOM     42  N   UNL     1      -5.401  -4.274   1.883  1.00  0.00    -0.248 NA
ATOM     43  C   UNL     1      -3.497  -5.622   1.932  1.00  0.00     0.031 C 
ATOM     44  C   UNL     1      -4.121  -2.667  -2.086  1.00  0.00     0.029 A 
ATOM     45  N   UNL     1      -5.471  -2.364  -0.332  1.00  0.00    -0.354 N 
ATOM     46  C   UNL     1      -5.388  -5.007   3.066  1.00  0.00     0.074 A 
ATOM     47  C   UNL     1      -4.210  -5.847   3.027  1.00  0.00     0.031 C 
ATOM     48  C   UNL     1      -4.848  -1.565  -2.325  1.00  0.00     0.029 A 
ATOM     49  C   UNL     1      -5.790  -1.371  -1.229  1.00  0.00     0.049 A 
ATOM     50  H   UNL     1      -5.915  -2.464   0.541  1.00  0.00     0.167 HD
ATOM     51  C   UNL     1      -6.281  -4.987   4.084  1.00  0.00     0.037 A 
ATOM     52  C   UNL     1      -6.760  -0.437  -1.201  1.00  0.00     0.037 A 
ATOM     53  C   UNL     1      -7.407  -4.093   4.155  1.00  0.00     0.049 A 
ATOM     54  C   UNL     1      -7.738  -0.423  -0.062  1.00  0.00     0.074 A 
ATOM     55  C   UNL     1      -8.373  -3.996   5.142  1.00  0.00     0.029 A 
ATOM     56  N   UNL     1      -7.701  -3.118   3.213  1.00  0.00    -0.354 N 
ATOM     57  N   UNL     1      -7.784  -1.203   0.991  1.00  0.00    -0.248 NA
ATOM     58  C   UNL     1      -8.816   0.573  -0.124  1.00  0.00     0.031 C 
ATOM     59  C   UNL     1      -9.259  -2.970   4.790  1.00  0.00     0.029 A 
ATOM     60  C   UNL     1      -8.830  -2.413   3.596  1.00  0.00     0.049 A 
ATOM     61  H   UNL     1      -7.183  -2.952   2.392  1.00  0.00     0.167 HD
ATOM     62  C   UNL     1      -8.902  -0.802   1.710  1.00  0.00     0.074 A 
ATOM     63  C   UNL     1      -9.490   0.308   0.988  1.00  0.00     0.031 C 
ATOM     64  C   UNL     1      -9.405  -1.317   2.859  1.00  0.00     0.037 A 
BRANCH  51  65
ATOM     65  C   UNL     1      -6.097  -5.991   5.187  1.00  0.00     0.058 A 
ATOM     66  C   UNL     1      -6.942  -7.111   5.265  1.00  0.00     0.135 A 
ATOM     67  C   UNL     1      -5.105  -5.850   6.168  1.00  0.00     0.135 A 
ATOM     68  F   UNL     1      -7.907  -7.294   4.350  1.00  0.00    -0.206 F 
ATOM     69  C   UNL     1      -6.806  -8.061   6.273  1.00  0.00     0.059 A 
ATOM     70  C   UNL     1      -4.937  -6.799   7.173  1.00  0.00     0.059 A 
ATOM     71  F   UNL     1      -4.259  -4.809   6.128  1.00  0.00    -0.206 F 
ATOM     72  C   UNL     1      -5.789  -7.905   7.213  1.00  0.00     0.060 A 
BRANCH  72  73
ATOM     73  S   UNL     1      -5.552  -9.138   8.510  1.00  0.00     0.124 S 
ATOM     74  O   UNL     1      -4.377  -9.852   8.020  1.00  0.00    -0.237 OA
ATOM     75  O   UNL     1      -5.343  -8.312   9.695  1.00  0.00    -0.237 OA
ATOM     76  O   UNL     1      -6.800  -9.895   8.491  1.00  0.00    -0.744 OA
ENDBRANCH  72  73
ENDBRANCH  51  65
BRANCH  52  77
ATOM     77  C   UNL     1      -6.870   0.535  -2.318  1.00  0.00     0.058 A 
ATOM     78  C   UNL     1      -7.314   0.139  -3.590  1.00  0.00     0.135 A 
ATOM     79  C   UNL     1      -6.472   1.868  -2.148  1.00  0.00     0.135 A 
ATOM     80  F   UNL     1      -7.696  -1.129  -3.803  1.00  0.00    -0.206 F 
ATOM     81  C   UNL     1      -7.327   1.021  -4.665  1.00  0.00     0.059 A 
ATOM     82  C   UNL     1      -6.496   2.775  -3.203  1.00  0.00     0.059 A 
ATOM     83  F   UNL     1      -6.053   2.294  -0.947  1.00  0.00    -0.206 F 
ATOM     84  C   UNL     1      -6.916   2.338  -4.462  1.00  0.00     0.060 A 
BRANCH  84  85
ATOM     85  S   UNL     1      -6.852   3.492  -5.850  1.00  0.00     0.124 S 
ATOM     86  O   UNL     1      -8.034   4.310  -5.607  1.00  0.00    -0.237 OA
ATOM     87  O   UNL     1      -5.566   4.151  -5.647  1.00  0.00    -0.237 OA
ATOM     88  O   UNL     1      -6.918   2.615  -7.016  1.00  0.00    -0.744 OA
ENDBRANCH  84  85
ENDBRANCH  52  77
BRANCH  64  89
ATOM     89  C   UNL     1     -10.652  -0.685   3.404  1.00  0.00     0.058 A 
ATOM     90  C   UNL     1     -10.591   0.185   4.503  1.00  0.00     0.135 A 
ATOM     91  C   UNL     1     -11.912  -0.979   2.862  1.00  0.00     0.135 A 
ATOM     92  F   UNL     1      -9.408   0.490   5.059  1.00  0.00    -0.206 F 
ATOM     93  C   UNL     1     -11.741   0.744   5.051  1.00  0.00     0.059 A 
ATOM     94  C   UNL     1     -13.073  -0.419   3.384  1.00  0.00     0.059 A 
ATOM     95  F   UNL     1     -12.018  -1.800   1.806  1.00  0.00    -0.206 F 
ATOM     96  C   UNL     1     -12.977   0.443   4.479  1.00  0.00     0.060 A 
BRANCH  96  97
ATOM     97  S   UNL     1     -14.493   1.142   5.166  1.00  0.00     0.124 S 
ATOM     98  O   UNL     1     -14.819   2.166   4.178  1.00  0.00    -0.237 OA
ATOM     99  O   UNL     1     -15.385  -0.013   5.199  1.00  0.00    -0.237 OA
ATOM    100  O   UNL     1     -14.075   1.640   6.473  1.00  0.00    -0.744 OA
ENDBRANCH  96  97
ENDBRANCH  64  89
ENDBRANCH  38  39
ENDBRANCH  31  33
ENDBRANCH  30  31
ENDBRANCH   1  30
TORSDOF 18
