REMARK SMILES CCc1cccc(CC)c1N1/C(=[NH+]/C(=O)CCC(=O)OCCOC(=O)c2ccc(-c3c4nc(c(-c5c(F)cc(S(=O)(=O)[O-])cc5F)c5ccc([nH]5)c(-c5c(F)cc(S(=O)(=O)[O-])cc5F)c5nc(c(-c6c(F)cc(S(=O)(=O)[O-])cc6F)c6ccc3[nH]6)C=C5)C=C4)cc2)S[C@@H]2CS(=O)(=O)C[C@H]21
REMARK SMILES IDX 21 1 20 2 18 3 19 4 17 5 16 6 14 7 11 8 12 9 99 10 13 11
REMARK SMILES IDX 92 12 93 13 98 14 94 16 95 17 15 18 96 19 97 20 10 21 3 22
REMARK SMILES IDX 4 23 5 24 7 25 6 26 2 27 1 28 8 29 9 30 22 31 23 32 24 33
REMARK SMILES IDX 25 34 26 35 27 36 91 37 28 38 90 39 29 40 30 41 31 42 84 43
REMARK SMILES IDX 32 44 89 45 83 46 85 47 33 48 88 49 82 50 81 51 34 53 68 54
REMARK SMILES IDX 47 55 67 56 48 57 51 58 66 59 86 60 49 61 50 62 65 64 87 65
REMARK SMILES IDX 52 66 35 67 36 68 45 69 37 70 38 71 44 72 46 73 39 74 40 75
REMARK SMILES IDX 41 76 42 77 43 78 69 79 70 80 79 81 71 82 72 83 78 84 80 85
REMARK SMILES IDX 73 86 74 87 75 88 76 89 77 90 53 91 54 92 63 93 55 94 56 95
REMARK SMILES IDX 62 96 64 97 57 98 58 99 59 100 60 101 61 102
REMARK H PARENT 13 15 85 52 51 63
REMARK Flexibility Score: inf
ROOT
ATOM      1  C   UNL     1      -1.343  -2.234   0.374  1.00  0.00     0.274 C 
ENDROOT
BRANCH   1   2
ATOM      2  O   UNL     1      -2.095  -1.049   0.100  1.00  0.00    -0.462 OA
BRANCH   2   3
ATOM      3  C   UNL     1      -1.661  -0.314  -0.946  1.00  0.00     0.306 C 
ATOM      4  O   UNL     1      -0.904  -0.716  -1.820  1.00  0.00    -0.252 OA
BRANCH   3   5
ATOM      5  C   UNL     1      -2.244   1.075  -0.921  1.00  0.00     0.135 C 
BRANCH   5   6
ATOM      6  C   UNL     1      -2.672   1.549   0.461  1.00  0.00     0.139 C 
BRANCH   6   7
ATOM      7  C   UNL     1      -1.543   1.917   1.415  1.00  0.00     0.308 C 
ATOM      8  N   UNL     1       1.697   0.435   2.336  1.00  0.00    -0.216 N 
ATOM      9  C   UNL     1       0.630   1.279   1.977  1.00  0.00     0.319 C 
ATOM     10  C   UNL     1       2.976   1.123   2.516  1.00  0.00     0.212 C 
ATOM     11  N   UNL     1      -0.577   0.954   1.639  1.00  0.00    -0.204 N 
ATOM     12  S   UNL     1       1.253   2.978   2.006  1.00  0.00    -0.029 SA
ATOM     13  C   UNL     1       2.599   2.489   3.090  1.00  0.00     0.120 C 
ATOM     14  C   UNL     1       4.021   0.602   3.477  1.00  0.00     0.188 C 
ATOM     15  H   UNL     1      -0.812   0.003   1.540  1.00  0.00     0.316 HD
ATOM     16  C   UNL     1       3.877   3.285   3.130  1.00  0.00     0.156 C 
ATOM     17  S   UNL     1       5.054   2.055   3.716  1.00  0.00     0.155 S 
ATOM     18  O   UNL     1      -1.634   2.977   2.036  1.00  0.00    -0.247 OA
ATOM     19  O   UNL     1       5.258   2.245   5.136  1.00  0.00    -0.229 OA
ATOM     20  O   UNL     1       6.155   1.996   2.778  1.00  0.00    -0.229 OA
BRANCH   8  21
ATOM     21  C   UNL     1       1.702  -0.970   2.339  1.00  0.00     0.134 A 
ATOM     22  C   UNL     1       1.999  -1.734   1.179  1.00  0.00    -0.001 A 
ATOM     23  C   UNL     1       2.064  -3.149   1.294  1.00  0.00     0.008 A 
ATOM     24  C   UNL     1       1.851  -3.808   2.494  1.00  0.00     0.001 A 
ATOM     25  C   UNL     1       1.500  -1.661   3.581  1.00  0.00    -0.001 A 
ATOM     26  C   UNL     1       1.584  -3.068   3.631  1.00  0.00     0.008 A 
BRANCH  22  27
ATOM     27  C   UNL     1       2.234  -1.265  -0.253  1.00  0.00     0.036 C 
ATOM     28  C   UNL     1       1.973   0.152  -0.723  1.00  0.00     0.009 C 
ENDBRANCH  22  27
BRANCH  25  29
ATOM     29  C   UNL     1       1.309  -0.944   4.911  1.00  0.00     0.036 C 
ATOM     30  C   UNL     1       0.151  -1.432   5.773  1.00  0.00     0.009 C 
ENDBRANCH  25  29
ENDBRANCH   8  21
ENDBRANCH   6   7
ENDBRANCH   5   6
ENDBRANCH   3   5
ENDBRANCH   2   3
ENDBRANCH   1   2
BRANCH   1  31
ATOM     31  C   UNL     1      -1.769  -2.815   1.721  1.00  0.00     0.275 C 
BRANCH  31  32
ATOM     32  O   UNL     1      -3.106  -3.310   1.588  1.00  0.00    -0.458 OA
BRANCH  32  33
ATOM     33  C   UNL     1      -4.043  -2.338   1.670  1.00  0.00     0.338 C 
ATOM     34  O   UNL     1      -3.973  -1.276   2.267  1.00  0.00    -0.246 OA
BRANCH  33  35
ATOM     35  C   UNL     1      -5.063  -2.656   0.667  1.00  0.00     0.060 A 
ATOM     36  C   UNL     1      -5.359  -1.697  -0.311  1.00  0.00     0.016 A 
ATOM     37  C   UNL     1      -5.707  -3.892   0.695  1.00  0.00     0.016 A 
ATOM     38  C   UNL     1      -6.367  -1.945  -1.232  1.00  0.00     0.010 A 
ATOM     39  C   UNL     1      -6.715  -4.140  -0.225  1.00  0.00     0.010 A 
ATOM     40  C   UNL     1      -7.078  -3.147  -1.151  1.00  0.00    -0.014 A 
BRANCH  40  41
ATOM     41  C   UNL     1      -8.350  -3.309  -1.876  1.00  0.00     0.031 A 
ATOM     42  C   UNL     1      -9.616  -3.155  -1.085  1.00  0.00     0.074 A 
ATOM     43  C   UNL     1      -8.351  -3.640  -3.177  1.00  0.00     0.049 A 
ATOM     44  N   UNL     1     -10.841  -3.455  -1.415  1.00  0.00    -0.248 NA
ATOM     45  C   UNL     1      -9.474  -2.614   0.281  1.00  0.00     0.031 C 
ATOM     46  C   UNL     1      -7.161  -3.769  -4.018  1.00  0.00     0.029 A 
ATOM     47  N   UNL     1      -9.390  -3.959  -4.007  1.00  0.00    -0.354 N 
ATOM     48  C   UNL     1     -11.610  -3.169  -0.292  1.00  0.00     0.074 A 
ATOM     49  C   UNL     1     -10.714  -2.696   0.737  1.00  0.00     0.031 C 
ATOM     50  C   UNL     1      -7.537  -4.171  -5.244  1.00  0.00     0.029 A 
ATOM     51  C   UNL     1      -8.983  -4.369  -5.253  1.00  0.00     0.049 A 
ATOM     52  H   UNL     1     -10.335  -3.900  -3.738  1.00  0.00     0.167 HD
ATOM     53  C   UNL     1     -12.949  -3.292  -0.147  1.00  0.00     0.037 A 
ATOM     54  C   UNL     1      -9.706  -4.886  -6.264  1.00  0.00     0.037 A 
ATOM     55  C   UNL     1     -13.809  -3.756  -1.202  1.00  0.00     0.049 A 
ATOM     56  C   UNL     1     -11.191  -5.047  -6.067  1.00  0.00     0.074 A 
ATOM     57  C   UNL     1     -15.182  -3.912  -1.193  1.00  0.00     0.029 A 
ATOM     58  N   UNL     1     -13.367  -4.137  -2.464  1.00  0.00    -0.354 N 
ATOM     59  N   UNL     1     -11.916  -4.776  -5.005  1.00  0.00    -0.248 NA
ATOM     60  C   UNL     1     -11.957  -5.580  -7.199  1.00  0.00     0.031 C 
ATOM     61  C   UNL     1     -15.566  -4.426  -2.436  1.00  0.00     0.029 A 
ATOM     62  C   UNL     1     -14.439  -4.539  -3.239  1.00  0.00     0.049 A 
ATOM     63  H   UNL     1     -12.429  -4.122  -2.762  1.00  0.00     0.167 HD
ATOM     64  C   UNL     1     -13.228  -5.077  -5.351  1.00  0.00     0.074 A 
ATOM     65  C   UNL     1     -13.195  -5.541  -6.725  1.00  0.00     0.031 C 
ATOM     66  C   UNL     1     -14.360  -4.980  -4.609  1.00  0.00     0.037 A 
BRANCH  53  67
ATOM     67  C   UNL     1     -13.550  -2.942   1.186  1.00  0.00     0.058 A 
ATOM     68  C   UNL     1     -13.610  -1.616   1.647  1.00  0.00     0.135 A 
ATOM     69  C   UNL     1     -14.101  -3.941   2.005  1.00  0.00     0.135 A 
ATOM     70  F   UNL     1     -13.076  -0.622   0.919  1.00  0.00    -0.206 F 
ATOM     71  C   UNL     1     -14.181  -1.296   2.875  1.00  0.00     0.059 A 
ATOM     72  C   UNL     1     -14.702  -3.641   3.225  1.00  0.00     0.059 A 
ATOM     73  F   UNL     1     -14.059  -5.227   1.622  1.00  0.00    -0.206 F 
ATOM     74  C   UNL     1     -14.729  -2.316   3.655  1.00  0.00     0.060 A 
BRANCH  74  75
ATOM     75  S   UNL     1     -15.494  -1.879   5.231  1.00  0.00     0.124 S 
ATOM     76  O   UNL     1     -14.326  -1.539   6.039  1.00  0.00    -0.237 OA
ATOM     77  O   UNL     1     -16.354  -0.760   4.860  1.00  0.00    -0.237 OA
ATOM     78  O   UNL     1     -16.192  -3.100   5.622  1.00  0.00    -0.744 OA
ENDBRANCH  74  75
ENDBRANCH  53  67
BRANCH  54  79
ATOM     79  C   UNL     1      -9.040  -5.290  -7.530  1.00  0.00     0.058 A 
ATOM     80  C   UNL     1      -9.259  -4.580  -8.719  1.00  0.00     0.135 A 
ATOM     81  C   UNL     1      -8.157  -6.381  -7.577  1.00  0.00     0.135 A 
ATOM     82  F   UNL     1     -10.095  -3.530  -8.728  1.00  0.00    -0.206 F 
ATOM     83  C   UNL     1      -8.647  -4.947  -9.913  1.00  0.00     0.059 A 
ATOM     84  C   UNL     1      -7.511  -6.752  -8.752  1.00  0.00     0.059 A 
ATOM     85  F   UNL     1      -7.896  -7.084  -6.463  1.00  0.00    -0.206 F 
ATOM     86  C   UNL     1      -7.772  -6.036  -9.919  1.00  0.00     0.060 A 
BRANCH  86  87
ATOM     87  S   UNL     1      -6.957  -6.482 -11.468  1.00  0.00     0.124 S 
ATOM     88  O   UNL     1      -8.060  -7.068 -12.221  1.00  0.00    -0.237 OA
ATOM     89  O   UNL     1      -6.474  -5.190 -11.944  1.00  0.00    -0.237 OA
ATOM     90  O   UNL     1      -5.917  -7.414 -11.043  1.00  0.00    -0.744 OA
ENDBRANCH  86  87
ENDBRANCH  54  79
BRANCH  66  91
ATOM     91  C   UNL     1     -15.652  -5.337  -5.286  1.00  0.00     0.058 A 
ATOM     92  C   UNL     1     -15.995  -6.668  -5.564  1.00  0.00     0.135 A 
ATOM     93  C   UNL     1     -16.581  -4.333  -5.604  1.00  0.00     0.135 A 
ATOM     94  F   UNL     1     -15.137  -7.661  -5.284  1.00  0.00    -0.206 F 
ATOM     95  C   UNL     1     -17.209  -6.991  -6.159  1.00  0.00     0.059 A 
ATOM     96  C   UNL     1     -17.813  -4.636  -6.170  1.00  0.00     0.059 A 
ATOM     97  F   UNL     1     -16.302  -3.046  -5.344  1.00  0.00    -0.206 F 
ATOM     98  C   UNL     1     -18.113  -5.968  -6.455  1.00  0.00     0.060 A 
BRANCH  98  99
ATOM     99  S   UNL     1     -19.700  -6.405  -7.192  1.00  0.00     0.124 S 
ATOM    100  O   UNL     1     -19.307  -6.738  -8.557  1.00  0.00    -0.237 OA
ATOM    101  O   UNL     1     -20.130  -7.527  -6.364  1.00  0.00    -0.237 OA
ATOM    102  O   UNL     1     -20.490  -5.186  -7.045  1.00  0.00    -0.744 OA
ENDBRANCH  98  99
ENDBRANCH  66  91
ENDBRANCH  40  41
ENDBRANCH  33  35
ENDBRANCH  32  33
ENDBRANCH  31  32
ENDBRANCH   1  31
TORSDOF 19
