REMARK SMILES CN(C(=O)N(CC(=O)OCCOC(=O)c1ccc(-c2c3nc(c(-c4c(F)cc(S(=O)(=O)[O-])cc4F)c4ccc([nH]4)c(-c4c(F)cc(S(=O)(=O)[O-])cc4F)c4nc(c(-c5c(F)cc(S(=O)(=O)[O-])cc5F)c5ccc2[nH]5)C=C4)C=C3)cc1)C(C)(C)C)C1CCCCCC1
REMARK SMILES IDX 7 1 8 2 6 3 5 4 3 5 4 6 2 7 1 8 85 9 86 10 87 11 91 13 90 14
REMARK SMILES IDX 89 15 88 16 81 18 82 19 83 20 84 21 9 22 10 23 11 24 12 25
REMARK SMILES IDX 13 26 14 27 15 28 16 29 80 30 17 31 79 32 18 33 19 34 20 35
REMARK SMILES IDX 73 36 21 37 78 38 72 39 74 40 22 41 77 42 71 43 70 44 23 46
REMARK SMILES IDX 57 47 36 48 56 49 37 50 40 51 55 52 75 53 38 54 39 55 54 57
REMARK SMILES IDX 76 58 41 59 24 60 25 61 34 62 26 63 27 64 33 65 35 66 28 67
REMARK SMILES IDX 29 68 30 69 31 70 32 71 58 72 59 73 68 74 60 75 61 76 67 77
REMARK SMILES IDX 69 78 62 79 63 80 64 81 65 82 66 83 42 84 43 85 52 86 44 87
REMARK SMILES IDX 45 88 51 89 53 90 46 91 47 92 48 93 49 94 50 95
REMARK H PARENT 74 45 40 56
REMARK Flexibility Score: 80.00
ROOT
ATOM      1  C   UNL     1      -0.835   0.558  -2.090  1.00  0.00     0.325 C 
ATOM      2  O   UNL     1      -0.350  -0.157  -2.963  1.00  0.00    -0.250 OA
ENDROOT
BRANCH   1   3
ATOM      3  C   UNL     1      -0.073   1.754  -1.518  1.00  0.00     0.244 C 
BRANCH   3   4
ATOM      4  N   UNL     1      -0.597   2.313  -0.271  1.00  0.00    -0.309 N 
BRANCH   4   5
ATOM      5  C   UNL     1      -0.577   1.630   0.947  1.00  0.00     0.320 C 
ATOM      6  O   UNL     1      -1.423   1.921   1.794  1.00  0.00    -0.248 OA
BRANCH   5   7
ATOM      7  N   UNL     1       0.415   0.711   1.274  1.00  0.00    -0.325 N 
ATOM      8  C   UNL     1       1.330   0.018   0.373  1.00  0.00     0.149 C 
BRANCH   7   9
ATOM      9  C   UNL     1       0.625   0.335   2.711  1.00  0.00     0.086 C 
BRANCH   9  10
ATOM     10  C   UNL     1       0.380   1.439   3.769  1.00  0.00     0.025 C 
BRANCH  10  11
ATOM     11  C   UNL     1      -0.955   1.379   4.526  1.00  0.00     0.002 CG0
ATOM     12  G   UNL     1      -0.935   0.452   5.736  1.00  0.00     0.000 G0
ENDBRANCH  10  11
ENDBRANCH   9  10
BRANCH   9  13
ATOM     13  C   UNL     1      -0.008  -1.031   3.028  1.00  0.00     0.025 C 
BRANCH  13  14
ATOM     14  C   UNL     1       0.185  -1.486   4.476  1.00  0.00     0.002 C 
BRANCH  14  15
ATOM     15  C   UNL     1      -0.946  -1.034   5.394  1.00  0.00     0.000 C 
BRANCH  15  16
ATOM     16  C   UNL     1      -0.935   0.452   5.736  1.00  0.00     0.000 CG0
ATOM     17  G   UNL     1      -0.955   1.379   4.526  1.00  0.00     0.000 G0
ENDBRANCH  15  16
ENDBRANCH  14  15
ENDBRANCH  13  14
ENDBRANCH   9  13
ENDBRANCH   7   9
ENDBRANCH   5   7
ENDBRANCH   4   5
BRANCH   4  18
ATOM     18  C   UNL     1      -1.273   3.683  -0.308  1.00  0.00     0.037 C 
ATOM     19  C   UNL     1      -2.782   3.606   0.021  1.00  0.00     0.034 C 
ATOM     20  C   UNL     1      -0.560   4.623   0.696  1.00  0.00     0.034 C 
ATOM     21  C   UNL     1      -1.187   4.418  -1.673  1.00  0.00     0.034 C 
ENDBRANCH   4  18
ENDBRANCH   3   4
ENDBRANCH   1   3
BRANCH   1  22
ATOM     22  O   UNL     1      -2.104   0.444  -1.616  1.00  0.00    -0.461 OA
BRANCH  22  23
ATOM     23  C   UNL     1      -2.916  -0.554  -2.260  1.00  0.00     0.274 C 
BRANCH  23  24
ATOM     24  C   UNL     1      -3.780   0.074  -3.352  1.00  0.00     0.275 C 
BRANCH  24  25
ATOM     25  O   UNL     1      -2.962   0.855  -4.242  1.00  0.00    -0.458 OA
BRANCH  25  26
ATOM     26  C   UNL     1      -3.279   2.165  -4.328  1.00  0.00     0.338 C 
ATOM     27  O   UNL     1      -4.237   2.724  -3.802  1.00  0.00    -0.246 OA
BRANCH  26  28
ATOM     28  C   UNL     1      -2.300   2.894  -5.159  1.00  0.00     0.060 A 
ATOM     29  C   UNL     1      -0.930   2.623  -5.091  1.00  0.00     0.016 A 
ATOM     30  C   UNL     1      -2.758   3.950  -5.948  1.00  0.00     0.016 A 
ATOM     31  C   UNL     1      -0.017   3.447  -5.750  1.00  0.00     0.010 A 
ATOM     32  C   UNL     1      -1.851   4.710  -6.685  1.00  0.00     0.010 A 
ATOM     33  C   UNL     1      -0.468   4.481  -6.582  1.00  0.00    -0.014 A 
BRANCH  33  34
ATOM     34  C   UNL     1       0.468   5.315  -7.383  1.00  0.00     0.031 A 
ATOM     35  C   UNL     1       0.465   6.812  -7.229  1.00  0.00     0.074 A 
ATOM     36  C   UNL     1       1.259   4.742  -8.311  1.00  0.00     0.049 A 
ATOM     37  N   UNL     1       0.961   7.726  -8.021  1.00  0.00    -0.248 NA
ATOM     38  C   UNL     1      -0.198   7.348  -6.030  1.00  0.00     0.031 C 
ATOM     39  C   UNL     1       1.405   3.302  -8.534  1.00  0.00     0.029 A 
ATOM     40  N   UNL     1       2.074   5.307  -9.261  1.00  0.00    -0.354 N 
ATOM     41  C   UNL     1       0.622   8.948  -7.450  1.00  0.00     0.074 A 
ATOM     42  C   UNL     1      -0.115   8.656  -6.238  1.00  0.00     0.031 C 
ATOM     43  C   UNL     1       2.265   3.097  -9.543  1.00  0.00     0.029 A 
ATOM     44  C   UNL     1       2.655   4.387 -10.099  1.00  0.00     0.049 A 
ATOM     45  H   UNL     1       2.226   6.277  -9.334  1.00  0.00     0.167 HD
ATOM     46  C   UNL     1       0.893  10.195  -7.905  1.00  0.00     0.037 A 
ATOM     47  C   UNL     1       3.372   4.553 -11.227  1.00  0.00     0.037 A 
ATOM     48  C   UNL     1       1.657  10.473  -9.093  1.00  0.00     0.049 A 
ATOM     49  C   UNL     1       3.606   5.939 -11.752  1.00  0.00     0.074 A 
ATOM     50  C   UNL     1       1.997  11.702  -9.633  1.00  0.00     0.029 A 
ATOM     51  N   UNL     1       2.207   9.507  -9.923  1.00  0.00    -0.354 N 
ATOM     52  N   UNL     1       3.226   7.085 -11.242  1.00  0.00    -0.248 NA
ATOM     53  C   UNL     1       4.338   6.054 -13.020  1.00  0.00     0.031 C 
ATOM     54  C   UNL     1       2.729  11.477 -10.805  1.00  0.00     0.029 A 
ATOM     55  C   UNL     1       2.874  10.110 -10.976  1.00  0.00     0.049 A 
ATOM     56  H   UNL     1       2.134   8.535  -9.784  1.00  0.00     0.167 HD
ATOM     57  C   UNL     1       3.691   8.060 -12.114  1.00  0.00     0.074 A 
ATOM     58  C   UNL     1       4.378   7.370 -13.187  1.00  0.00     0.031 C 
ATOM     59  C   UNL     1       3.563   9.407 -12.029  1.00  0.00     0.037 A 
BRANCH  46  60
ATOM     60  C   UNL     1       0.322  11.352  -7.134  1.00  0.00     0.058 A 
ATOM     61  C   UNL     1       0.849  11.755  -5.898  1.00  0.00     0.135 A 
ATOM     62  C   UNL     1      -0.768  12.074  -7.649  1.00  0.00     0.135 A 
ATOM     63  F   UNL     1       1.881  11.091  -5.355  1.00  0.00    -0.206 F 
ATOM     64  C   UNL     1       0.294  12.812  -5.181  1.00  0.00     0.059 A 
ATOM     65  C   UNL     1      -1.325  13.147  -6.960  1.00  0.00     0.059 A 
ATOM     66  F   UNL     1      -1.309  11.732  -8.829  1.00  0.00    -0.206 F 
ATOM     67  C   UNL     1      -0.800  13.495  -5.716  1.00  0.00     0.060 A 
BRANCH  67  68
ATOM     68  S   UNL     1      -1.534  14.845  -4.767  1.00  0.00     0.124 S 
ATOM     69  O   UNL     1      -2.334  14.110  -3.792  1.00  0.00    -0.237 OA
ATOM     70  O   UNL     1      -0.362  15.532  -4.234  1.00  0.00    -0.237 OA
ATOM     71  O   UNL     1      -2.291  15.589  -5.768  1.00  0.00    -0.744 OA
ENDBRANCH  67  68
ENDBRANCH  46  60
BRANCH  47  72
ATOM     72  C   UNL     1       3.890   3.360 -11.943  1.00  0.00     0.058 A 
ATOM     73  C   UNL     1       5.251   3.032 -11.886  1.00  0.00     0.135 A 
ATOM     74  C   UNL     1       3.032   2.490 -12.634  1.00  0.00     0.135 A 
ATOM     75  F   UNL     1       6.109   3.839 -11.244  1.00  0.00    -0.206 F 
ATOM     76  C   UNL     1       5.744   1.874 -12.478  1.00  0.00     0.059 A 
ATOM     77  C   UNL     1       3.498   1.316 -13.216  1.00  0.00     0.059 A 
ATOM     78  F   UNL     1       1.718   2.756 -12.703  1.00  0.00    -0.206 F 
ATOM     79  C   UNL     1       4.857   1.017 -13.133  1.00  0.00     0.060 A 
BRANCH  79  80
ATOM     80  S   UNL     1       5.489  -0.532 -13.812  1.00  0.00     0.124 S 
ATOM     81  O   UNL     1       6.138  -0.073 -15.034  1.00  0.00    -0.237 OA
ATOM     82  O   UNL     1       6.379  -0.995 -12.751  1.00  0.00    -0.237 OA
ATOM     83  O   UNL     1       4.282  -1.332 -13.997  1.00  0.00    -0.744 OA
ENDBRANCH  79  80
ENDBRANCH  47  72
BRANCH  59  84
ATOM     84  C   UNL     1       4.218  10.230 -13.099  1.00  0.00     0.058 A 
ATOM     85  C   UNL     1       3.627  10.400 -14.359  1.00  0.00     0.135 A 
ATOM     86  C   UNL     1       5.417  10.909 -12.834  1.00  0.00     0.135 A 
ATOM     87  F   UNL     1       2.486   9.761 -14.663  1.00  0.00    -0.206 F 
ATOM     88  C   UNL     1       4.205  11.219 -15.324  1.00  0.00     0.059 A 
ATOM     89  C   UNL     1       6.004  11.745 -13.777  1.00  0.00     0.059 A 
ATOM     90  F   UNL     1       6.017  10.778 -11.640  1.00  0.00    -0.206 F 
ATOM     91  C   UNL     1       5.392  11.890 -15.022  1.00  0.00     0.060 A 
BRANCH  91  92
ATOM     92  S   UNL     1       6.103  12.998 -16.258  1.00  0.00     0.124 S 
ATOM     93  O   UNL     1       6.727  12.052 -17.176  1.00  0.00    -0.237 OA
ATOM     94  O   UNL     1       4.927  13.697 -16.769  1.00  0.00    -0.237 OA
ATOM     95  O   UNL     1       7.024  13.823 -15.482  1.00  0.00    -0.744 OA
ENDBRANCH  91  92
ENDBRANCH  59  84
ENDBRANCH  33  34
ENDBRANCH  26  28
ENDBRANCH  25  26
ENDBRANCH  24  25
ENDBRANCH  23  24
ENDBRANCH  22  23
ENDBRANCH   1  22
TORSDOF 19
