REMARK SMILES COc1ccc(/C=C2/C(=O)N(c3ccccc3)C(=O)N=C2OCCOC(=O)c2ccc(-c3c4nc(c(-c5c(F)cc(S(=O)(=O)[O-])cc5F)c5ccc([nH]5)c(-c5c(F)cc(S(=O)(=O)[O-])cc5F)c5nc(c(-c6c(F)cc(S(=O)(=O)[O-])cc6F)c6ccc3[nH]6)C=C5)C=C4)cc2)cc1C(=O)[O-]
REMARK SMILES IDX 24 1 23 2 22 3 21 4 7 5 8 6 9 7 10 8 11 9 20 10 18 11 19 12
REMARK SMILES IDX 6 13 3 14 4 15 95 16 5 17 94 18 2 19 1 20 96 21 97 22 98 23
REMARK SMILES IDX 12 24 13 25 17 26 14 27 16 28 15 29 25 30 26 31 27 32 28 33
REMARK SMILES IDX 29 34 93 35 30 36 92 37 31 38 32 39 33 40 86 41 34 42 91 43
REMARK SMILES IDX 85 44 87 45 35 46 90 47 84 48 83 49 36 51 70 52 49 53 69 54
REMARK SMILES IDX 50 55 53 56 68 57 88 58 51 59 52 60 67 62 89 63 54 64 37 65
REMARK SMILES IDX 38 66 47 67 39 68 40 69 46 70 48 71 41 72 42 73 43 74 44 75
REMARK SMILES IDX 45 76 71 77 72 78 81 79 73 80 74 81 80 82 82 83 75 84 76 85
REMARK SMILES IDX 77 86 78 87 79 88 55 89 56 90 65 91 57 92 58 93 64 94 66 95
REMARK SMILES IDX 59 96 60 97 61 98 62 99 63 100
REMARK H PARENT 87 50 53 61
REMARK Flexibility Score: inf
ROOT
ATOM      1  C   UNL     1      -3.041  -2.534   6.102  1.00  0.00     0.274 C 
ENDROOT
BRANCH   1   2
ATOM      2  C   UNL     1      -1.936  -1.522   6.414  1.00  0.00     0.273 C 
BRANCH   2   3
ATOM      3  O   UNL     1      -0.633  -2.090   6.134  1.00  0.00    -0.473 OA
BRANCH   3   4
ATOM      4  C   UNL     1       0.334  -2.074   7.078  1.00  0.00     0.231 C 
ATOM      5  C   UNL     1       2.254  -2.389   5.445  1.00  0.00     0.027 C 
ATOM      6  C   UNL     1       1.610  -2.610   6.609  1.00  0.00     0.103 C 
ATOM      7  C   UNL     1       2.318  -3.411   7.655  1.00  0.00     0.272 C 
ATOM      8  O   UNL     1       3.190  -4.215   7.330  1.00  0.00    -0.268 OA
ATOM      9  N   UNL     1       1.945  -3.085   8.957  1.00  0.00    -0.226 N 
ATOM     10  N   UNL     1       0.126  -1.730   8.296  1.00  0.00    -0.156 NA
ATOM     11  C   UNL     1       1.169  -1.936   9.182  1.00  0.00     0.358 C 
ATOM     12  O   UNL     1       1.339  -1.150  10.101  1.00  0.00    -0.245 OA
BRANCH   5  13
ATOM     13  C   UNL     1       1.945  -1.565   4.254  1.00  0.00    -0.024 A 
ATOM     14  C   UNL     1       1.537  -0.052   1.881  1.00  0.00     0.127 A 
ATOM     15  C   UNL     1       0.742   0.157   3.008  1.00  0.00     0.048 A 
ATOM     16  C   UNL     1       2.590  -0.964   1.961  1.00  0.00     0.040 A 
ATOM     17  C   UNL     1       0.969  -0.567   4.188  1.00  0.00     0.012 A 
ATOM     18  C   UNL     1       2.770  -1.729   3.129  1.00  0.00     0.022 A 
BRANCH  14  19
ATOM     19  O   UNL     1       1.328   0.791   0.825  1.00  0.00    -0.496 OA
ATOM     20  C   UNL     1       0.743   0.129  -0.298  1.00  0.00     0.278 C 
ENDBRANCH  14  19
BRANCH  16  21
ATOM     21  C   UNL     1       3.649  -1.074   0.945  1.00  0.00     0.075 C 
ATOM     22  O   UNL     1       4.844  -1.051   1.176  1.00  0.00    -0.545 OA
ATOM     23  O   UNL     1       3.185  -1.328  -0.288  1.00  0.00    -0.545 OA
ENDBRANCH  16  21
ENDBRANCH   5  13
BRANCH   9  24
ATOM     24  C   UNL     1       2.415  -3.887  10.060  1.00  0.00     0.054 A 
ATOM     25  C   UNL     1       2.447  -5.291   9.924  1.00  0.00     0.027 A 
ATOM     26  C   UNL     1       2.699  -3.354  11.325  1.00  0.00     0.027 A 
ATOM     27  C   UNL     1       2.677  -6.124  11.026  1.00  0.00     0.002 A 
ATOM     28  C   UNL     1       2.970  -4.188  12.418  1.00  0.00     0.002 A 
ATOM     29  C   UNL     1       2.932  -5.571  12.274  1.00  0.00     0.000 A 
ENDBRANCH   9  24
ENDBRANCH   3   4
ENDBRANCH   2   3
ENDBRANCH   1   2
BRANCH   1  30
ATOM     30  O   UNL     1      -3.242  -3.386   7.243  1.00  0.00    -0.458 OA
BRANCH  30  31
ATOM     31  C   UNL     1      -2.617  -4.583   7.193  1.00  0.00     0.338 C 
ATOM     32  O   UNL     1      -2.047  -5.088   6.242  1.00  0.00    -0.246 OA
BRANCH  31  33
ATOM     33  C   UNL     1      -2.484  -5.070   8.571  1.00  0.00     0.060 A 
ATOM     34  C   UNL     1      -1.276  -4.787   9.197  1.00  0.00     0.016 A 
ATOM     35  C   UNL     1      -3.455  -5.830   9.220  1.00  0.00     0.016 A 
ATOM     36  C   UNL     1      -1.011  -5.284  10.462  1.00  0.00     0.010 A 
ATOM     37  C   UNL     1      -3.181  -6.338  10.501  1.00  0.00     0.010 A 
ATOM     38  C   UNL     1      -1.937  -6.098  11.117  1.00  0.00    -0.014 A 
BRANCH  38  39
ATOM     39  C   UNL     1      -1.479  -6.822  12.335  1.00  0.00     0.031 A 
ATOM     40  C   UNL     1      -1.284  -8.314  12.264  1.00  0.00     0.074 A 
ATOM     41  C   UNL     1      -1.071  -6.155  13.435  1.00  0.00     0.049 A 
ATOM     42  N   UNL     1      -0.976  -9.156  13.215  1.00  0.00    -0.248 NA
ATOM     43  C   UNL     1      -1.450  -8.942  10.941  1.00  0.00     0.031 C 
ATOM     44  C   UNL     1      -1.067  -4.699  13.592  1.00  0.00     0.029 A 
ATOM     45  N   UNL     1      -0.533  -6.615  14.613  1.00  0.00    -0.354 N 
ATOM     46  C   UNL     1      -0.993 -10.416  12.627  1.00  0.00     0.074 A 
ATOM     47  C   UNL     1      -1.305 -10.228  11.228  1.00  0.00     0.031 C 
ATOM     48  C   UNL     1      -0.498  -4.386  14.769  1.00  0.00     0.029 A 
ATOM     49  C   UNL     1      -0.175  -5.614  15.487  1.00  0.00     0.049 A 
ATOM     50  H   UNL     1      -0.415  -7.571  14.812  1.00  0.00     0.167 HD
ATOM     51  C   UNL     1      -0.786 -11.620  13.208  1.00  0.00     0.037 A 
ATOM     52  C   UNL     1       0.329  -5.682  16.736  1.00  0.00     0.037 A 
ATOM     53  C   UNL     1      -0.397 -11.798  14.581  1.00  0.00     0.049 A 
ATOM     54  C   UNL     1       0.539  -7.035  17.366  1.00  0.00     0.074 A 
ATOM     55  C   UNL     1      -0.203 -12.979  15.277  1.00  0.00     0.029 A 
ATOM     56  N   UNL     1      -0.109 -10.765  15.459  1.00  0.00    -0.354 N 
ATOM     57  N   UNL     1       0.388  -8.226  16.837  1.00  0.00    -0.248 NA
ATOM     58  C   UNL     1       0.959  -7.053  18.776  1.00  0.00     0.031 C 
ATOM     59  C   UNL     1       0.178 -12.658  16.584  1.00  0.00     0.029 A 
ATOM     60  C   UNL     1       0.259 -11.280  16.690  1.00  0.00     0.049 A 
ATOM     61  H   UNL     1      -0.158  -9.806  15.239  1.00  0.00     0.167 HD
ATOM     62  C   UNL     1       0.693  -9.132  17.849  1.00  0.00     0.074 A 
ATOM     63  C   UNL     1       1.074  -8.353  19.008  1.00  0.00     0.031 C 
ATOM     64  C   UNL     1       0.644 -10.487  17.828  1.00  0.00     0.037 A 
BRANCH  51  65
ATOM     65  C   UNL     1      -1.054 -12.845  12.384  1.00  0.00     0.058 A 
ATOM     66  C   UNL     1      -0.157 -13.316  11.415  1.00  0.00     0.135 A 
ATOM     67  C   UNL     1      -2.229 -13.584  12.607  1.00  0.00     0.135 A 
ATOM     68  F   UNL     1       0.965 -12.630  11.143  1.00  0.00    -0.206 F 
ATOM     69  C   UNL     1      -0.417 -14.475  10.690  1.00  0.00     0.059 A 
ATOM     70  C   UNL     1      -2.499 -14.755  11.910  1.00  0.00     0.059 A 
ATOM     71  F   UNL     1      -3.125 -13.168  13.516  1.00  0.00    -0.206 F 
ATOM     72  C   UNL     1      -1.590 -15.189  10.947  1.00  0.00     0.060 A 
BRANCH  72  73
ATOM     73  S   UNL     1      -1.907 -16.707  10.022  1.00  0.00     0.124 S 
ATOM     74  O   UNL     1      -2.298 -16.177   8.719  1.00  0.00    -0.237 OA
ATOM     75  O   UNL     1      -0.612 -17.379  10.069  1.00  0.00    -0.237 OA
ATOM     76  O   UNL     1      -2.972 -17.352  10.782  1.00  0.00    -0.744 OA
ENDBRANCH  72  73
ENDBRANCH  51  65
BRANCH  52  77
ATOM     77  C   UNL     1       0.612  -4.442  17.512  1.00  0.00     0.058 A 
ATOM     78  C   UNL     1       1.919  -4.112  17.902  1.00  0.00     0.135 A 
ATOM     79  C   UNL     1      -0.424  -3.590  17.924  1.00  0.00     0.135 A 
ATOM     80  F   UNL     1       2.945  -4.901  17.546  1.00  0.00    -0.206 F 
ATOM     81  C   UNL     1       2.187  -2.999  18.695  1.00  0.00     0.059 A 
ATOM     82  C   UNL     1      -0.179  -2.454  18.689  1.00  0.00     0.059 A 
ATOM     83  F   UNL     1      -1.693  -3.855  17.577  1.00  0.00    -0.206 F 
ATOM     84  C   UNL     1       1.128  -2.179  19.088  1.00  0.00     0.060 A 
BRANCH  84  85
ATOM     85  S   UNL     1       1.469  -0.726  20.106  1.00  0.00     0.124 S 
ATOM     86  O   UNL     1       1.549  -1.315  21.437  1.00  0.00    -0.237 OA
ATOM     87  O   UNL     1       2.726  -0.239  19.547  1.00  0.00    -0.237 OA
ATOM     88  O   UNL     1       0.311   0.128  19.859  1.00  0.00    -0.744 OA
ENDBRANCH  84  85
ENDBRANCH  52  77
BRANCH  64  89
ATOM     89  C   UNL     1       1.032 -11.206  19.088  1.00  0.00     0.058 A 
ATOM     90  C   UNL     1       0.186 -11.231  20.208  1.00  0.00     0.135 A 
ATOM     91  C   UNL     1       2.251 -11.897  19.169  1.00  0.00     0.135 A 
ATOM     92  F   UNL     1      -0.990 -10.584  20.181  1.00  0.00    -0.206 F 
ATOM     93  C   UNL     1       0.552 -11.885  21.380  1.00  0.00     0.059 A 
ATOM     94  C   UNL     1       2.627 -12.579  20.322  1.00  0.00     0.059 A 
ATOM     95  F   UNL     1       3.088 -11.917  18.119  1.00  0.00    -0.206 F 
ATOM     96  C   UNL     1       1.779 -12.551  21.429  1.00  0.00     0.060 A 
BRANCH  96  97
ATOM     97  S   UNL     1       2.247 -13.399  22.952  1.00  0.00     0.124 S 
ATOM     98  O   UNL     1       2.692 -12.284  23.782  1.00  0.00    -0.237 OA
ATOM     99  O   UNL     1       0.997 -14.033  23.359  1.00  0.00    -0.237 OA
ATOM    100  O   UNL     1       3.295 -14.317  22.518  1.00  0.00    -0.744 OA
ENDBRANCH  96  97
ENDBRANCH  64  89
ENDBRANCH  38  39
ENDBRANCH  31  33
ENDBRANCH  30  31
ENDBRANCH   1  30
TORSDOF 17
