REMARK SMILES C#CCNC(=O)C[N@@H+](CC(=O)OCCOC(=O)c1ccc(-c2c3nc(c(-c4c(F)cc(S(=O)(=O)[O-])cc4F)c4ccc([nH]4)c(-c4c(F)cc(S(=O)(=O)[O-])cc4F)c4nc(c(-c5c(F)cc(S(=O)(=O)[O-])cc5F)c5ccc2[nH]5)C=C4)C=C3)cc1)C(C)(C)C
REMARK SMILES IDX 13 1 12 2 10 3 11 4 9 5 8 6 7 8 5 9 4 10 6 12 3 13 2 14 1 15
REMARK SMILES IDX 84 16 85 17 86 18 87 19 14 20 15 21 16 22 17 23 18 24 19 25
REMARK SMILES IDX 83 26 20 27 82 28 21 29 22 30 23 31 76 32 24 33 81 34 75 35
REMARK SMILES IDX 77 36 25 37 80 38 74 39 73 40 26 42 60 43 39 44 59 45 40 46
REMARK SMILES IDX 43 47 58 48 78 49 41 50 42 51 57 53 79 54 44 55 27 56 28 57
REMARK SMILES IDX 37 58 29 59 30 60 36 61 38 62 31 63 32 64 33 65 34 66 35 67
REMARK SMILES IDX 61 68 62 69 71 70 63 71 64 72 70 73 72 74 65 75 66 76 67 77
REMARK SMILES IDX 68 78 69 79 45 80 46 81 55 82 47 83 48 84 54 85 56 86 49 87
REMARK SMILES IDX 50 88 51 89 52 90 53 91
REMARK H PARENT 8 7 4 11 77 41 43 52
REMARK Flexibility Score: inf
ROOT
ATOM      1  C   UNL     1      -5.481   1.840   5.661  1.00  0.00     0.274 C 
ENDROOT
BRANCH   1   2
ATOM      2  O   UNL     1      -4.487   1.275   4.777  1.00  0.00    -0.458 OA
BRANCH   2   3
ATOM      3  C   UNL     1      -3.811   2.166   4.017  1.00  0.00     0.361 C 
ATOM      4  O   UNL     1      -4.070   3.370   3.991  1.00  0.00    -0.245 OA
BRANCH   3   5
ATOM      5  C   UNL     1      -2.678   1.620   3.161  1.00  0.00     0.387 C 
BRANCH   5   6
ATOM      6  N   UNL     1      -2.448   0.167   3.004  1.00  0.00    -0.314 N 
ATOM      7  H   UNL     1      -1.739   0.149   2.272  1.00  0.00     0.349 HD
BRANCH   6   8
ATOM      8  C   UNL     1      -3.586  -0.549   2.415  1.00  0.00     0.364 C 
BRANCH   8   9
ATOM      9  C   UNL     1      -3.173  -1.568   1.344  1.00  0.00     0.275 C 
ATOM     10  N   UNL     1      -2.298  -1.231   0.351  1.00  0.00    -0.340 N 
ATOM     11  H   UNL     1      -2.001  -1.972  -0.224  1.00  0.00     0.164 HD
ATOM     12  O   UNL     1      -3.663  -2.701   1.325  1.00  0.00    -0.268 OA
BRANCH  10  13
ATOM     13  C   UNL     1      -1.752   0.062   0.032  1.00  0.00     0.206 C 
BRANCH  13  14
ATOM     14  C   UNL     1      -0.232   0.062   0.032  1.00  0.00    -0.085 C 
ATOM     15  C   UNL     1       1.072   0.062   0.032  1.00  0.00     0.006 C 
ENDBRANCH  13  14
ENDBRANCH  10  13
ENDBRANCH   8   9
ENDBRANCH   6   8
BRANCH   6  16
ATOM     16  C   UNL     1      -1.525  -0.556   3.918  1.00  0.00     0.090 C 
ATOM     17  C   UNL     1      -2.241  -1.174   5.134  1.00  0.00     0.078 C 
ATOM     18  C   UNL     1      -0.806  -1.735   3.210  1.00  0.00     0.078 C 
ATOM     19  C   UNL     1      -0.367   0.359   4.387  1.00  0.00     0.078 C 
ENDBRANCH   6  16
ENDBRANCH   5   6
ENDBRANCH   3   5
ENDBRANCH   2   3
ENDBRANCH   1   2
BRANCH   1  20
ATOM     20  C   UNL     1      -4.974   1.921   7.101  1.00  0.00     0.275 C 
BRANCH  20  21
ATOM     21  O   UNL     1      -3.851   2.819   7.209  1.00  0.00    -0.458 OA
BRANCH  21  22
ATOM     22  C   UNL     1      -2.659   2.189   7.179  1.00  0.00     0.338 C 
ATOM     23  O   UNL     1      -2.470   0.985   7.086  1.00  0.00    -0.246 OA
BRANCH  22  24
ATOM     24  C   UNL     1      -1.522   3.094   7.324  1.00  0.00     0.060 A 
ATOM     25  C   UNL     1      -0.981   3.731   6.206  1.00  0.00     0.016 A 
ATOM     26  C   UNL     1      -0.831   3.055   8.538  1.00  0.00     0.016 A 
ATOM     27  C   UNL     1       0.296   4.286   6.293  1.00  0.00     0.010 A 
ATOM     28  C   UNL     1       0.424   3.648   8.634  1.00  0.00     0.010 A 
ATOM     29  C   UNL     1       1.007   4.244   7.506  1.00  0.00    -0.014 A 
BRANCH  29  30
ATOM     30  C   UNL     1       2.324   4.906   7.630  1.00  0.00     0.031 A 
ATOM     31  C   UNL     1       3.596   4.116   7.743  1.00  0.00     0.074 A 
ATOM     32  C   UNL     1       2.345   6.250   7.678  1.00  0.00     0.049 A 
ATOM     33  N   UNL     1       4.811   4.548   7.966  1.00  0.00    -0.248 NA
ATOM     34  C   UNL     1       3.494   2.657   7.589  1.00  0.00     0.031 C 
ATOM     35  C   UNL     1       1.164   7.109   7.576  1.00  0.00     0.029 A 
ATOM     36  N   UNL     1       3.386   7.125   7.829  1.00  0.00    -0.354 N 
ATOM     37  C   UNL     1       5.618   3.417   8.001  1.00  0.00     0.074 A 
ATOM     38  C   UNL     1       4.754   2.277   7.771  1.00  0.00     0.031 C 
ATOM     39  C   UNL     1       1.548   8.391   7.652  1.00  0.00     0.029 A 
ATOM     40  C   UNL     1       2.991   8.439   7.858  1.00  0.00     0.049 A 
ATOM     41  H   UNL     1       4.325   6.840   7.910  1.00  0.00     0.167 HD
ATOM     42  C   UNL     1       6.955   3.345   8.213  1.00  0.00     0.037 A 
ATOM     43  C   UNL     1       3.707   9.560   8.055  1.00  0.00     0.037 A 
ATOM     44  C   UNL     1       7.805   4.489   8.434  1.00  0.00     0.049 A 
ATOM     45  C   UNL     1       5.181   9.453   8.288  1.00  0.00     0.074 A 
ATOM     46  C   UNL     1       9.171   4.521   8.659  1.00  0.00     0.029 A 
ATOM     47  N   UNL     1       7.368   5.806   8.456  1.00  0.00    -0.354 N 
ATOM     48  N   UNL     1       5.925   8.375   8.342  1.00  0.00    -0.248 NA
ATOM     49  C   UNL     1       5.910  10.708   8.500  1.00  0.00     0.031 C 
ATOM     50  C   UNL     1       9.556   5.856   8.836  1.00  0.00     0.029 A 
ATOM     51  C   UNL     1       8.434   6.658   8.699  1.00  0.00     0.049 A 
ATOM     52  H   UNL     1       6.437   6.094   8.319  1.00  0.00     0.167 HD
ATOM     53  C   UNL     1       7.212   8.819   8.606  1.00  0.00     0.074 A 
ATOM     54  C   UNL     1       7.149  10.266   8.676  1.00  0.00     0.031 C 
ATOM     55  C   UNL     1       8.343   8.093   8.784  1.00  0.00     0.037 A 
BRANCH  42  56
ATOM     56  C   UNL     1       7.585   1.982   8.242  1.00  0.00     0.058 A 
ATOM     57  C   UNL     1       7.894   1.288   7.063  1.00  0.00     0.135 A 
ATOM     58  C   UNL     1       7.930   1.384   9.465  1.00  0.00     0.135 A 
ATOM     59  F   UNL     1       7.575   1.812   5.869  1.00  0.00    -0.206 F 
ATOM     60  C   UNL     1       8.513   0.042   7.094  1.00  0.00     0.059 A 
ATOM     61  C   UNL     1       8.560   0.143   9.520  1.00  0.00     0.059 A 
ATOM     62  F   UNL     1       7.655   2.006  10.622  1.00  0.00    -0.206 F 
ATOM     63  C   UNL     1       8.838  -0.526   8.328  1.00  0.00     0.060 A 
BRANCH  63  64
ATOM     64  S   UNL     1       9.648  -2.140   8.364  1.00  0.00     0.124 S 
ATOM     65  O   UNL     1       8.513  -3.038   8.177  1.00  0.00    -0.237 OA
ATOM     66  O   UNL     1      10.578  -2.055   7.242  1.00  0.00    -0.237 OA
ATOM     67  O   UNL     1      10.268  -2.176   9.684  1.00  0.00    -0.744 OA
ENDBRANCH  63  64
ENDBRANCH  42  56
BRANCH  43  68
ATOM     68  C   UNL     1       3.005  10.865   8.051  1.00  0.00     0.058 A 
ATOM     69  C   UNL     1       3.053  11.700   6.928  1.00  0.00     0.135 A 
ATOM     70  C   UNL     1       2.188  11.245   9.126  1.00  0.00     0.135 A 
ATOM     71  F   UNL     1       3.821  11.370   5.879  1.00  0.00    -0.206 F 
ATOM     72  C   UNL     1       2.300  12.867   6.862  1.00  0.00     0.059 A 
ATOM     73  C   UNL     1       1.413  12.398   9.076  1.00  0.00     0.059 A 
ATOM     74  F   UNL     1       2.096  10.462  10.212  1.00  0.00    -0.206 F 
ATOM     75  C   UNL     1       1.475  13.202   7.938  1.00  0.00     0.060 A 
BRANCH  75  76
ATOM     76  S   UNL     1       0.402  14.649   7.808  1.00  0.00     0.124 S 
ATOM     77  O   UNL     1       1.292  15.713   8.256  1.00  0.00    -0.237 OA
ATOM     78  O   UNL     1       0.055  14.662   6.390  1.00  0.00    -0.237 OA
ATOM     79  O   UNL     1      -0.700  14.321   8.708  1.00  0.00    -0.744 OA
ENDBRANCH  75  76
ENDBRANCH  43  68
BRANCH  55  80
ATOM     80  C   UNL     1       9.591   8.865   9.085  1.00  0.00     0.058 A 
ATOM     81  C   UNL     1       9.851   9.341  10.379  1.00  0.00     0.135 A 
ATOM     82  C   UNL     1      10.530   9.132   8.079  1.00  0.00     0.135 A 
ATOM     83  F   UNL     1       8.974   9.117  11.371  1.00  0.00    -0.206 F 
ATOM     84  C   UNL     1      10.994  10.079  10.662  1.00  0.00     0.059 A 
ATOM     85  C   UNL     1      11.687   9.858   8.342  1.00  0.00     0.059 A 
ATOM     86  F   UNL     1      10.323   8.695   6.827  1.00  0.00    -0.206 F 
ATOM     87  C   UNL     1      11.902  10.340   9.634  1.00  0.00     0.060 A 
BRANCH  87  88
ATOM     88  S   UNL     1      13.388  11.298  10.002  1.00  0.00     0.124 S 
ATOM     89  O   UNL     1      12.882  12.664   9.919  1.00  0.00    -0.237 OA
ATOM     90  O   UNL     1      13.745  10.835  11.339  1.00  0.00    -0.237 OA
ATOM     91  O   UNL     1      14.311  10.902   8.943  1.00  0.00    -0.744 OA
ENDBRANCH  87  88
ENDBRANCH  55  80
ENDBRANCH  29  30
ENDBRANCH  22  24
ENDBRANCH  21  22
ENDBRANCH  20  21
ENDBRANCH   1  20
TORSDOF 20
