REMARK SMILES O=C(OCCOC(=O)[C@@H]1C=C[C@H](NC(=O)[C@@H]2Cc3ccccc3O2)C1)c1ccc(-c2c3nc(c(-c4c(F)cc(S(=O)(=O)[O-])cc4F)c4ccc([nH]4)c(-c4c(F)cc(S(=O)(=O)[O-])cc4F)c4nc(c(-c5c(F)cc(S(=O)(=O)[O-])cc5F)c5ccc2[nH]5)C=C4)C=C3)cc1
REMARK SMILES IDX 4 1 3 2 2 3 1 4 26 5 27 6 91 7 28 8 90 9 29 10 30 11 31 12
REMARK SMILES IDX 84 13 32 14 89 15 83 16 85 17 33 18 88 19 82 20 81 21 34 23
REMARK SMILES IDX 68 24 47 25 67 26 48 27 51 28 66 29 86 30 49 31 50 32 65 34
REMARK SMILES IDX 87 35 52 36 35 37 36 38 45 39 37 40 38 41 44 42 46 43 39 44
REMARK SMILES IDX 40 45 41 46 42 47 43 48 69 49 70 50 79 51 71 52 72 53 78 54
REMARK SMILES IDX 80 55 73 56 74 57 75 58 76 59 77 60 53 61 54 62 63 63 55 64
REMARK SMILES IDX 56 65 62 66 64 67 57 68 58 69 59 70 60 71 61 72 5 73 6 74
REMARK SMILES IDX 7 75 8 76 9 77 10 78 25 79 11 80 12 81 13 82 14 83 15 85
REMARK SMILES IDX 16 86 17 87 24 88 18 89 23 90 19 91 22 92 20 93 21 94
REMARK H PARENT 85 22 51 33 13 84
REMARK Flexibility Score: inf
ROOT
ATOM      1  C   UNL     1       4.197   0.338   1.979  1.00  0.00     0.275 C 
ENDROOT
BRANCH   1   2
ATOM      2  O   UNL     1       4.455   0.235   3.414  1.00  0.00    -0.458 OA
BRANCH   2   3
ATOM      3  C   UNL     1       5.443   0.873   4.121  1.00  0.00     0.338 C 
ATOM      4  O   UNL     1       6.242   0.221   4.787  1.00  0.00    -0.246 OA
BRANCH   3   5
ATOM      5  C   UNL     1       5.349   2.362   4.361  1.00  0.00     0.060 A 
ATOM      6  C   UNL     1       4.646   3.171   3.513  1.00  0.00     0.016 A 
ATOM      7  C   UNL     1       5.909   3.028   5.470  1.00  0.00     0.016 A 
ATOM      8  C   UNL     1       4.445   4.544   3.771  1.00  0.00     0.010 A 
ATOM      9  C   UNL     1       5.745   4.452   5.692  1.00  0.00     0.010 A 
ATOM     10  C   UNL     1       4.987   5.244   4.824  1.00  0.00    -0.014 A 
BRANCH  10  11
ATOM     11  C   UNL     1       4.822   6.745   4.646  1.00  0.00     0.031 A 
ATOM     12  C   UNL     1       5.867   7.480   3.829  1.00  0.00     0.074 A 
ATOM     13  C   UNL     1       3.606   7.353   4.723  1.00  0.00     0.049 A 
ATOM     14  N   UNL     1       5.810   8.663   3.266  1.00  0.00    -0.248 NA
ATOM     15  C   UNL     1       7.113   6.753   3.564  1.00  0.00     0.031 C 
ATOM     16  C   UNL     1       2.396   6.741   5.261  1.00  0.00     0.029 A 
ATOM     17  N   UNL     1       3.150   8.573   4.242  1.00  0.00    -0.354 N 
ATOM     18  C   UNL     1       7.014   8.822   2.592  1.00  0.00     0.074 A 
ATOM     19  C   UNL     1       7.755   7.589   2.763  1.00  0.00     0.031 C 
ATOM     20  C   UNL     1       1.332   7.510   4.965  1.00  0.00     0.029 A 
ATOM     21  C   UNL     1       1.784   8.768   4.371  1.00  0.00     0.049 A 
ATOM     22  H   UNL     1       3.748   9.244   3.841  1.00  0.00     0.167 HD
ATOM     23  C   UNL     1       7.502   9.912   1.950  1.00  0.00     0.037 A 
ATOM     24  C   UNL     1       0.987   9.839   4.118  1.00  0.00     0.037 A 
ATOM     25  C   UNL     1       6.840  11.187   1.866  1.00  0.00     0.049 A 
ATOM     26  C   UNL     1       1.623  11.127   3.646  1.00  0.00     0.074 A 
ATOM     27  C   UNL     1       7.353  12.391   1.410  1.00  0.00     0.029 A 
ATOM     28  N   UNL     1       5.544  11.442   2.277  1.00  0.00    -0.354 N 
ATOM     29  N   UNL     1       2.832  11.325   3.180  1.00  0.00    -0.248 NA
ATOM     30  C   UNL     1       0.813  12.354   3.741  1.00  0.00     0.031 C 
ATOM     31  C   UNL     1       6.402  13.392   1.643  1.00  0.00     0.029 A 
ATOM     32  C   UNL     1       5.263  12.795   2.152  1.00  0.00     0.049 A 
ATOM     33  H   UNL     1       4.913  10.763   2.610  1.00  0.00     0.167 HD
ATOM     34  C   UNL     1       2.932  12.694   2.947  1.00  0.00     0.074 A 
ATOM     35  C   UNL     1       1.652  13.275   3.284  1.00  0.00     0.031 C 
ATOM     36  C   UNL     1       4.003  13.400   2.505  1.00  0.00     0.037 A 
BRANCH  23  37
ATOM     37  C   UNL     1       8.924   9.828   1.476  1.00  0.00     0.058 A 
ATOM     38  C   UNL     1       9.301   9.181   0.292  1.00  0.00     0.135 A 
ATOM     39  C   UNL     1       9.931  10.421   2.257  1.00  0.00     0.135 A 
ATOM     40  F   UNL     1       8.380   8.574  -0.472  1.00  0.00    -0.206 F 
ATOM     41  C   UNL     1      10.637   9.114  -0.097  1.00  0.00     0.059 A 
ATOM     42  C   UNL     1      11.265  10.385   1.878  1.00  0.00     0.059 A 
ATOM     43  F   UNL     1       9.617  11.037   3.408  1.00  0.00    -0.206 F 
ATOM     44  C   UNL     1      11.611   9.719   0.705  1.00  0.00     0.060 A 
BRANCH  44  45
ATOM     45  S   UNL     1      13.341   9.615   0.204  1.00  0.00     0.124 S 
ATOM     46  O   UNL     1      13.621   8.197   0.412  1.00  0.00    -0.237 OA
ATOM     47  O   UNL     1      13.289  10.055  -1.186  1.00  0.00    -0.237 OA
ATOM     48  O   UNL     1      14.017  10.526   1.122  1.00  0.00    -0.744 OA
ENDBRANCH  44  45
ENDBRANCH  23  37
BRANCH  24  49
ATOM     49  C   UNL     1      -0.474   9.831   4.479  1.00  0.00     0.058 A 
ATOM     50  C   UNL     1      -1.496  10.145   3.562  1.00  0.00     0.135 A 
ATOM     51  C   UNL     1      -0.875   9.574   5.802  1.00  0.00     0.135 A 
ATOM     52  F   UNL     1      -1.187  10.473   2.298  1.00  0.00    -0.206 F 
ATOM     53  C   UNL     1      -2.844  10.168   3.935  1.00  0.00     0.059 A 
ATOM     54  C   UNL     1      -2.212   9.542   6.185  1.00  0.00     0.059 A 
ATOM     55  F   UNL     1       0.044   9.330   6.749  1.00  0.00    -0.206 F 
ATOM     56  C   UNL     1      -3.192   9.843   5.247  1.00  0.00     0.060 A 
BRANCH  56  57
ATOM     57  S   UNL     1      -4.936   9.760   5.716  1.00  0.00     0.124 S 
ATOM     58  O   UNL     1      -5.288  11.171   5.808  1.00  0.00    -0.237 OA
ATOM     59  O   UNL     1      -5.521   9.024   4.600  1.00  0.00    -0.237 OA
ATOM     60  O   UNL     1      -4.904   9.033   6.983  1.00  0.00    -0.744 OA
ENDBRANCH  56  57
ENDBRANCH  24  49
BRANCH  36  61
ATOM     61  C   UNL     1       3.846  14.889   2.334  1.00  0.00     0.058 A 
ATOM     62  C   UNL     1       3.725  15.759   3.431  1.00  0.00     0.135 A 
ATOM     63  C   UNL     1       3.835  15.459   1.050  1.00  0.00     0.135 A 
ATOM     64  F   UNL     1       3.730  15.273   4.682  1.00  0.00    -0.206 F 
ATOM     65  C   UNL     1       3.558  17.131   3.259  1.00  0.00     0.059 A 
ATOM     66  C   UNL     1       3.698  16.830   0.856  1.00  0.00     0.059 A 
ATOM     67  F   UNL     1       3.962  14.680  -0.036  1.00  0.00    -0.206 F 
ATOM     68  C   UNL     1       3.538  17.657   1.966  1.00  0.00     0.060 A 
BRANCH  68  69
ATOM     69  S   UNL     1       3.305  19.435   1.752  1.00  0.00     0.124 S 
ATOM     70  O   UNL     1       1.888  19.585   2.069  1.00  0.00    -0.237 OA
ATOM     71  O   UNL     1       4.236  19.994   2.727  1.00  0.00    -0.237 OA
ATOM     72  O   UNL     1       3.661  19.659   0.354  1.00  0.00    -0.744 OA
ENDBRANCH  68  69
ENDBRANCH  36  61
ENDBRANCH  10  11
ENDBRANCH   3   5
ENDBRANCH   2   3
ENDBRANCH   1   2
BRANCH   1  73
ATOM     73  C   UNL     1       2.683   0.281   1.701  1.00  0.00     0.274 C 
BRANCH  73  74
ATOM     74  O   UNL     1       1.993   1.198   2.554  1.00  0.00    -0.462 OA
BRANCH  74  75
ATOM     75  C   UNL     1       1.357   0.735   3.657  1.00  0.00     0.312 C 
ATOM     76  O   UNL     1       1.170  -0.456   3.917  1.00  0.00    -0.252 OA
BRANCH  75  77
ATOM     77  C   UNL     1       0.915   1.892   4.555  1.00  0.00     0.124 C 
ATOM     78  C   UNL     1      -0.275   2.658   4.103  1.00  0.00    -0.014 C 
ATOM     79  C   UNL     1       1.933   3.023   4.527  1.00  0.00     0.048 C 
ATOM     80  C   UNL     1       0.071   3.798   3.477  1.00  0.00    -0.006 C 
ATOM     81  C   UNL     1       1.575   4.008   3.357  1.00  0.00     0.106 C 
BRANCH  81  82
ATOM     82  N   UNL     1       1.963   3.772   1.909  1.00  0.00    -0.347 N 
ATOM     83  C   UNL     1       2.715   4.305   0.885  1.00  0.00     0.261 C 
ATOM     84  H   UNL     1       1.524   2.950   1.591  1.00  0.00     0.164 HD
ATOM     85  O   UNL     1       2.015   4.420  -0.147  1.00  0.00    -0.271 OA
BRANCH  83  86
ATOM     86  C   UNL     1       4.328   4.661   0.637  1.00  0.00     0.266 C 
ATOM     87  C   UNL     1       4.815   3.831  -0.598  1.00  0.00     0.095 C 
ATOM     88  O   UNL     1       5.495   4.769   1.466  1.00  0.00    -0.480 OA
ATOM     89  C   UNL     1       5.992   3.120  -0.033  1.00  0.00    -0.002 A 
ATOM     90  C   UNL     1       6.357   3.752   1.131  1.00  0.00     0.123 A 
ATOM     91  C   UNL     1       6.703   2.017  -0.481  1.00  0.00     0.008 A 
ATOM     92  C   UNL     1       7.419   3.304   1.908  1.00  0.00     0.047 A 
ATOM     93  C   UNL     1       7.743   1.513   0.315  1.00  0.00     0.001 A 
ATOM     94  C   UNL     1       8.093   2.147   1.514  1.00  0.00     0.004 A 
ENDBRANCH  83  86
ENDBRANCH  81  82
ENDBRANCH  75  77
ENDBRANCH  74  75
ENDBRANCH  73  74
ENDBRANCH   1  73
TORSDOF 16
