REMARK SMILES O=C(OCCOC(=O)c1ccn(-c2cc(-c3ccncc3)nc(-c3ccccc3F)n2)n1)c1ccc(-c2c3nc(c(-c4c(F)cc(S(=O)(=O)[O-])cc4F)c4ccc([nH]4)c(-c4c(F)cc(S(=O)(=O)[O-])cc4F)c4nc(c(-c5c(F)cc(S(=O)(=O)[O-])cc5F)c5ccc2[nH]5)C=C4)C=C3)cc1
REMARK SMILES IDX 4 1 3 2 2 3 1 4 33 5 34 6 98 7 35 8 97 9 36 10 37 11 38 12
REMARK SMILES IDX 91 13 39 14 96 15 90 16 92 17 40 18 95 19 89 20 88 21 41 23
REMARK SMILES IDX 75 24 54 25 74 26 55 27 58 28 73 29 93 30 56 31 57 32 72 34
REMARK SMILES IDX 94 35 59 36 42 37 43 38 52 39 44 40 45 41 51 42 53 43 46 44
REMARK SMILES IDX 47 45 48 46 49 47 50 48 76 49 77 50 86 51 78 52 79 53 85 54
REMARK SMILES IDX 87 55 80 56 81 57 82 58 83 59 84 60 60 61 61 62 70 63 62 64
REMARK SMILES IDX 63 65 69 66 71 67 64 68 65 69 66 70 67 71 68 72 5 73 6 74
REMARK SMILES IDX 7 75 8 76 9 77 10 78 32 79 11 80 12 81 13 82 14 83 31 84
REMARK SMILES IDX 15 85 23 86 22 87 16 88 17 89 21 90 18 91 20 92 19 93 24 94
REMARK SMILES IDX 25 95 29 96 26 97 28 98 30 99 27 100
REMARK H PARENT 92 22 58 33
REMARK Flexibility Score: inf
ROOT
ATOM      1  C   UNL     1       4.592  -0.823  -0.832  1.00  0.00     0.275 C 
ENDROOT
BRANCH   1   2
ATOM      2  O   UNL     1       3.311  -1.444  -0.623  1.00  0.00    -0.458 OA
BRANCH   2   3
ATOM      3  C   UNL     1       2.263  -0.762  -0.113  1.00  0.00     0.338 C 
ATOM      4  O   UNL     1       1.260  -0.541  -0.781  1.00  0.00    -0.246 OA
BRANCH   3   5
ATOM      5  C   UNL     1       2.256  -0.581   1.366  1.00  0.00     0.060 A 
ATOM      6  C   UNL     1       3.375  -0.644   2.204  1.00  0.00     0.016 A 
ATOM      7  C   UNL     1       0.991  -0.383   1.933  1.00  0.00     0.016 A 
ATOM      8  C   UNL     1       3.208  -0.684   3.587  1.00  0.00     0.010 A 
ATOM      9  C   UNL     1       0.825  -0.402   3.303  1.00  0.00     0.010 A 
ATOM     10  C   UNL     1       1.919  -0.636   4.127  1.00  0.00    -0.014 A 
BRANCH  10  11
ATOM     11  C   UNL     1       1.702  -0.645   5.573  1.00  0.00     0.031 A 
ATOM     12  C   UNL     1       2.384   0.502   6.253  1.00  0.00     0.074 A 
ATOM     13  C   UNL     1       0.822  -1.510   6.146  1.00  0.00     0.049 A 
ATOM     14  N   UNL     1       3.310   0.464   7.148  1.00  0.00    -0.248 NA
ATOM     15  C   UNL     1       2.170   1.871   5.756  1.00  0.00     0.031 C 
ATOM     16  C   UNL     1      -0.016  -2.520   5.478  1.00  0.00     0.029 A 
ATOM     17  N   UNL     1       0.419  -1.643   7.449  1.00  0.00    -0.354 N 
ATOM     18  C   UNL     1       3.540   1.785   7.547  1.00  0.00     0.074 A 
ATOM     19  C   UNL     1       2.931   2.616   6.556  1.00  0.00     0.031 C 
ATOM     20  C   UNL     1      -0.972  -2.976   6.322  1.00  0.00     0.029 A 
ATOM     21  C   UNL     1      -0.740  -2.424   7.642  1.00  0.00     0.049 A 
ATOM     22  H   UNL     1       0.903  -1.223   8.196  1.00  0.00     0.167 HD
ATOM     23  C   UNL     1       3.995   2.038   8.804  1.00  0.00     0.037 A 
ATOM     24  C   UNL     1      -1.420  -2.649   8.810  1.00  0.00     0.037 A 
ATOM     25  C   UNL     1       4.577   0.833   9.342  1.00  0.00     0.049 A 
ATOM     26  C   UNL     1      -0.456  -2.344   9.900  1.00  0.00     0.074 A 
ATOM     27  C   UNL     1       5.646   0.038   8.986  1.00  0.00     0.029 A 
ATOM     28  N   UNL     1       3.741   0.055  10.104  1.00  0.00    -0.354 N 
ATOM     29  N   UNL     1       0.646  -3.021  10.092  1.00  0.00    -0.248 NA
ATOM     30  C   UNL     1      -0.458  -0.983  10.406  1.00  0.00     0.031 C 
ATOM     31  C   UNL     1       5.192  -1.297   9.187  1.00  0.00     0.029 A 
ATOM     32  C   UNL     1       3.926  -1.260   9.777  1.00  0.00     0.049 A 
ATOM     33  H   UNL     1       3.108   0.391  10.780  1.00  0.00     0.167 HD
ATOM     34  C   UNL     1       1.614  -2.051  10.309  1.00  0.00     0.074 A 
ATOM     35  C   UNL     1       0.861  -0.812  10.526  1.00  0.00     0.031 C 
ATOM     36  C   UNL     1       2.921  -2.282   9.981  1.00  0.00     0.037 A 
BRANCH  23  37
ATOM     37  C   UNL     1       3.514   3.159   9.708  1.00  0.00     0.058 A 
ATOM     38  C   UNL     1       2.369   3.951   9.479  1.00  0.00     0.135 A 
ATOM     39  C   UNL     1       4.030   3.214  11.022  1.00  0.00     0.135 A 
ATOM     40  F   UNL     1       1.778   4.023   8.282  1.00  0.00    -0.206 F 
ATOM     41  C   UNL     1       1.728   4.662  10.493  1.00  0.00     0.059 A 
ATOM     42  C   UNL     1       3.389   3.892  12.058  1.00  0.00     0.059 A 
ATOM     43  F   UNL     1       5.141   2.536  11.348  1.00  0.00    -0.206 F 
ATOM     44  C   UNL     1       2.226   4.598  11.788  1.00  0.00     0.060 A 
BRANCH  44  45
ATOM     45  S   UNL     1       1.316   5.427  13.103  1.00  0.00     0.124 S 
ATOM     46  O   UNL     1       1.365   6.816  12.659  1.00  0.00    -0.237 OA
ATOM     47  O   UNL     1       0.015   4.774  13.022  1.00  0.00    -0.237 OA
ATOM     48  O   UNL     1       2.100   5.123  14.296  1.00  0.00    -0.744 OA
ENDBRANCH  44  45
ENDBRANCH  23  37
BRANCH  24  49
ATOM     49  C   UNL     1      -2.906  -2.661   9.065  1.00  0.00     0.058 A 
ATOM     50  C   UNL     1      -3.817  -2.142   8.129  1.00  0.00     0.135 A 
ATOM     51  C   UNL     1      -3.445  -2.891  10.355  1.00  0.00     0.135 A 
ATOM     52  F   UNL     1      -3.444  -1.910   6.863  1.00  0.00    -0.206 F 
ATOM     53  C   UNL     1      -5.119  -1.757   8.467  1.00  0.00     0.059 A 
ATOM     54  C   UNL     1      -4.761  -2.533  10.715  1.00  0.00     0.059 A 
ATOM     55  F   UNL     1      -2.677  -3.420  11.321  1.00  0.00    -0.206 F 
ATOM     56  C   UNL     1      -5.576  -1.918   9.770  1.00  0.00     0.060 A 
BRANCH  56  57
ATOM     57  S   UNL     1      -7.216  -1.264  10.181  1.00  0.00     0.124 S 
ATOM     58  O   UNL     1      -7.022   0.172  10.008  1.00  0.00    -0.237 OA
ATOM     59  O   UNL     1      -8.061  -1.906   9.177  1.00  0.00    -0.237 OA
ATOM     60  O   UNL     1      -7.435  -1.710  11.553  1.00  0.00    -0.744 OA
ENDBRANCH  56  57
ENDBRANCH  24  49
BRANCH  36  61
ATOM     61  C   UNL     1       3.354  -3.698   9.688  1.00  0.00     0.058 A 
ATOM     62  C   UNL     1       4.360  -4.228  10.508  1.00  0.00     0.135 A 
ATOM     63  C   UNL     1       2.967  -4.465   8.571  1.00  0.00     0.135 A 
ATOM     64  F   UNL     1       4.814  -3.519  11.555  1.00  0.00    -0.206 F 
ATOM     65  C   UNL     1       4.966  -5.446  10.240  1.00  0.00     0.059 A 
ATOM     66  C   UNL     1       3.540  -5.714   8.301  1.00  0.00     0.059 A 
ATOM     67  F   UNL     1       2.078  -3.994   7.685  1.00  0.00    -0.206 F 
ATOM     68  C   UNL     1       4.547  -6.190   9.140  1.00  0.00     0.060 A 
BRANCH  68  69
ATOM     69  S   UNL     1       5.362  -7.773   8.846  1.00  0.00     0.124 S 
ATOM     70  O   UNL     1       6.729  -7.358   8.544  1.00  0.00    -0.237 OA
ATOM     71  O   UNL     1       5.181  -8.454  10.125  1.00  0.00    -0.237 OA
ATOM     72  O   UNL     1       4.623  -8.345   7.725  1.00  0.00    -0.744 OA
ENDBRANCH  68  69
ENDBRANCH  36  61
ENDBRANCH  10  11
ENDBRANCH   3   5
ENDBRANCH   2   3
ENDBRANCH   1   2
BRANCH   1  73
ATOM     73  C   UNL     1       4.584   0.595  -1.401  1.00  0.00     0.275 C 
BRANCH  73  74
ATOM     74  O   UNL     1       4.034   1.527  -0.453  1.00  0.00    -0.457 OA
BRANCH  74  75
ATOM     75  C   UNL     1       2.876   2.151  -0.818  1.00  0.00     0.358 C 
ATOM     76  O   UNL     1       2.347   2.044  -1.933  1.00  0.00    -0.244 OA
BRANCH  75  77
ATOM     77  C   UNL     1       2.356   3.024   0.230  1.00  0.00     0.170 A 
ATOM     78  C   UNL     1       2.889   4.284   0.593  1.00  0.00     0.058 A 
ATOM     79  N   UNL     1       1.276   2.722   0.981  1.00  0.00    -0.159 NA
ATOM     80  C   UNL     1       1.972   4.820   1.462  1.00  0.00     0.118 A 
ATOM     81  N   UNL     1       1.001   3.864   1.658  1.00  0.00    -0.222 N 
BRANCH  81  82
ATOM     82  C   UNL     1      -0.151   4.018   2.477  1.00  0.00     0.158 A 
ATOM     83  C   UNL     1      -0.419   3.058   3.431  1.00  0.00     0.078 A 
ATOM     84  N   UNL     1      -0.871   5.149   2.351  1.00  0.00    -0.209 NA
ATOM     85  C   UNL     1      -1.390   3.371   4.362  1.00  0.00     0.077 A 
ATOM     86  C   UNL     1      -1.909   5.268   3.196  1.00  0.00     0.165 A 
ATOM     87  N   UNL     1      -2.179   4.447   4.219  1.00  0.00    -0.228 NA
BRANCH  85  88
ATOM     88  C   UNL     1      -1.582   2.628   5.611  1.00  0.00     0.003 A 
ATOM     89  C   UNL     1      -0.745   2.847   6.714  1.00  0.00     0.030 A 
ATOM     90  C   UNL     1      -2.643   1.743   5.776  1.00  0.00     0.030 A 
ATOM     91  C   UNL     1      -0.946   2.128   7.883  1.00  0.00     0.111 A 
ATOM     92  C   UNL     1      -2.791   1.105   6.998  1.00  0.00     0.111 A 
ATOM     93  N   UNL     1      -1.952   1.253   8.044  1.00  0.00    -0.265 NA
ENDBRANCH  85  88
BRANCH  86  94
ATOM     94  C   UNL     1      -2.910   6.270   2.886  1.00  0.00     0.055 A 
ATOM     95  C   UNL     1      -3.674   6.182   1.708  1.00  0.00     0.015 A 
ATOM     96  C   UNL     1      -3.169   7.320   3.767  1.00  0.00     0.134 A 
ATOM     97  C   UNL     1      -4.664   7.126   1.426  1.00  0.00     0.001 A 
ATOM     98  C   UNL     1      -4.151   8.267   3.491  1.00  0.00     0.040 A 
ATOM     99  F   UNL     1      -2.456   7.449   4.896  1.00  0.00    -0.206 F 
ATOM    100  C   UNL     1      -4.899   8.171   2.318  1.00  0.00     0.003 A 
ENDBRANCH  86  94
ENDBRANCH  81  82
ENDBRANCH  75  77
ENDBRANCH  74  75
ENDBRANCH  73  74
ENDBRANCH   1  73
TORSDOF 17
