REMARK SMILES O=C(OCCOC(=O)c1ccccc1/C=C1\SC(=S)N(Cc2ccccc2)C1=O)c1ccc(-c2c3nc(c(-c4c(F)cc(S(=O)(=O)[O-])cc4F)c4ccc([nH]4)c(-c4c(F)cc(S(=O)(=O)[O-])cc4F)c4nc(c(-c5c(F)cc(S(=O)(=O)[O-])cc5F)c5ccc2[nH]5)C=C4)C=C3)cc1
REMARK SMILES IDX 4 1 3 2 2 3 1 4 30 5 31 6 95 7 32 8 94 9 33 10 34 11 35 12
REMARK SMILES IDX 88 13 36 14 93 15 87 16 89 17 37 18 92 19 86 20 85 21 38 23
REMARK SMILES IDX 72 24 51 25 71 26 52 27 55 28 70 29 90 30 53 31 54 32 69 34
REMARK SMILES IDX 91 35 56 36 39 37 40 38 49 39 41 40 42 41 48 42 50 43 43 44
REMARK SMILES IDX 44 45 45 46 46 47 47 48 73 49 74 50 83 51 75 52 76 53 82 54
REMARK SMILES IDX 84 55 77 56 78 57 79 58 80 59 81 60 57 61 58 62 67 63 59 64
REMARK SMILES IDX 60 65 66 66 68 67 61 68 62 69 63 70 64 71 65 72 5 73 6 74
REMARK SMILES IDX 7 75 8 76 9 77 10 78 14 79 11 80 13 81 12 82 15 83 16 84
REMARK SMILES IDX 17 85 28 86 18 87 20 88 29 89 19 90 21 91 22 92 23 93 27 94
REMARK SMILES IDX 24 95 26 96 25 97
REMARK H PARENT 89 22 55 33
REMARK Flexibility Score: inf
ROOT
ATOM      1  C   UNL     1       4.040   0.865  -1.162  1.00  0.00     0.275 C 
ENDROOT
BRANCH   1   2
ATOM      2  O   UNL     1       2.976  -0.102  -1.242  1.00  0.00    -0.458 OA
BRANCH   2   3
ATOM      3  C   UNL     1       2.675  -1.169  -0.466  1.00  0.00     0.338 C 
ATOM      4  O   UNL     1       1.665  -1.814  -0.749  1.00  0.00    -0.246 OA
BRANCH   3   5
ATOM      5  C   UNL     1       3.447  -1.607   0.748  1.00  0.00     0.060 A 
ATOM      6  C   UNL     1       4.752  -1.237   1.074  1.00  0.00     0.016 A 
ATOM      7  C   UNL     1       2.787  -2.494   1.627  1.00  0.00     0.016 A 
ATOM      8  C   UNL     1       5.369  -1.710   2.235  1.00  0.00     0.010 A 
ATOM      9  C   UNL     1       3.401  -2.977   2.791  1.00  0.00     0.010 A 
ATOM     10  C   UNL     1       4.707  -2.595   3.091  1.00  0.00    -0.014 A 
BRANCH  10  11
ATOM     11  C   UNL     1       5.474  -3.175   4.218  1.00  0.00     0.031 A 
ATOM     12  C   UNL     1       6.137  -4.498   4.027  1.00  0.00     0.074 A 
ATOM     13  C   UNL     1       5.697  -2.446   5.327  1.00  0.00     0.049 A 
ATOM     14  N   UNL     1       6.989  -5.103   4.806  1.00  0.00    -0.248 NA
ATOM     15  C   UNL     1       5.802  -5.234   2.798  1.00  0.00     0.031 C 
ATOM     16  C   UNL     1       5.075  -1.158   5.577  1.00  0.00     0.029 A 
ATOM     17  N   UNL     1       6.503  -2.632   6.416  1.00  0.00    -0.354 N 
ATOM     18  C   UNL     1       7.311  -6.283   4.155  1.00  0.00     0.074 A 
ATOM     19  C   UNL     1       6.533  -6.329   2.937  1.00  0.00     0.031 C 
ATOM     20  C   UNL     1       5.566  -0.620   6.702  1.00  0.00     0.029 A 
ATOM     21  C   UNL     1       6.504  -1.565   7.291  1.00  0.00     0.049 A 
ATOM     22  H   UNL     1       7.033  -3.450   6.562  1.00  0.00     0.167 HD
ATOM     23  C   UNL     1       8.191  -7.233   4.545  1.00  0.00     0.037 A 
ATOM     24  C   UNL     1       7.182  -1.383   8.440  1.00  0.00     0.037 A 
ATOM     25  C   UNL     1       8.915  -7.178   5.787  1.00  0.00     0.049 A 
ATOM     26  C   UNL     1       8.119  -2.479   8.870  1.00  0.00     0.074 A 
ATOM     27  C   UNL     1       9.767  -8.119   6.333  1.00  0.00     0.029 A 
ATOM     28  N   UNL     1       8.865  -6.114   6.681  1.00  0.00    -0.354 N 
ATOM     29  N   UNL     1       8.402  -3.602   8.249  1.00  0.00    -0.248 NA
ATOM     30  C   UNL     1       8.819  -2.301  10.146  1.00  0.00     0.031 C 
ATOM     31  C   UNL     1      10.205  -7.639   7.573  1.00  0.00     0.029 A 
ATOM     32  C   UNL     1       9.665  -6.378   7.779  1.00  0.00     0.049 A 
ATOM     33  H   UNL     1       8.336  -5.293   6.553  1.00  0.00     0.167 HD
ATOM     34  C   UNL     1       9.312  -4.266   9.059  1.00  0.00     0.074 A 
ATOM     35  C   UNL     1       9.561  -3.398  10.196  1.00  0.00     0.031 C 
ATOM     36  C   UNL     1       9.879  -5.486   8.893  1.00  0.00     0.037 A 
BRANCH  23  37
ATOM     37  C   UNL     1       8.365  -8.408   3.630  1.00  0.00     0.058 A 
ATOM     38  C   UNL     1       9.038  -8.286   2.403  1.00  0.00     0.135 A 
ATOM     39  C   UNL     1       7.822  -9.658   3.959  1.00  0.00     0.135 A 
ATOM     40  F   UNL     1       9.544  -7.101   2.024  1.00  0.00    -0.206 F 
ATOM     41  C   UNL     1       9.145  -9.357   1.524  1.00  0.00     0.059 A 
ATOM     42  C   UNL     1       7.937 -10.751   3.105  1.00  0.00     0.059 A 
ATOM     43  F   UNL     1       7.152  -9.822   5.111  1.00  0.00    -0.206 F 
ATOM     44  C   UNL     1       8.589 -10.586   1.883  1.00  0.00     0.060 A 
BRANCH  44  45
ATOM     45  S   UNL     1       8.727 -11.965   0.726  1.00  0.00     0.124 S 
ATOM     46  O   UNL     1       7.790 -11.564  -0.319  1.00  0.00    -0.237 OA
ATOM     47  O   UNL     1      10.139 -11.923   0.361  1.00  0.00    -0.237 OA
ATOM     48  O   UNL     1       8.322 -13.118   1.523  1.00  0.00    -0.744 OA
ENDBRANCH  44  45
ENDBRANCH  23  37
BRANCH  24  49
ATOM     49  C   UNL     1       6.979  -0.158   9.268  1.00  0.00     0.058 A 
ATOM     50  C   UNL     1       8.016   0.759   9.502  1.00  0.00     0.135 A 
ATOM     51  C   UNL     1       5.735   0.113   9.864  1.00  0.00     0.135 A 
ATOM     52  F   UNL     1       9.226   0.555   8.960  1.00  0.00    -0.206 F 
ATOM     53  C   UNL     1       7.839   1.876  10.316  1.00  0.00     0.059 A 
ATOM     54  C   UNL     1       5.524   1.239  10.655  1.00  0.00     0.059 A 
ATOM     55  F   UNL     1       4.698  -0.716   9.663  1.00  0.00    -0.206 F 
ATOM     56  C   UNL     1       6.588   2.105  10.892  1.00  0.00     0.060 A 
BRANCH  56  57
ATOM     57  S   UNL     1       6.358   3.564  11.934  1.00  0.00     0.124 S 
ATOM     58  O   UNL     1       7.044   3.161  13.156  1.00  0.00    -0.237 OA
ATOM     59  O   UNL     1       7.010   4.609  11.150  1.00  0.00    -0.237 OA
ATOM     60  O   UNL     1       4.906   3.678  12.032  1.00  0.00    -0.744 OA
ENDBRANCH  56  57
ENDBRANCH  24  49
BRANCH  36  61
ATOM     61  C   UNL     1      10.827  -5.935   9.966  1.00  0.00     0.058 A 
ATOM     62  C   UNL     1      10.367  -6.335  11.230  1.00  0.00     0.135 A 
ATOM     63  C   UNL     1      12.206  -5.993   9.714  1.00  0.00     0.135 A 
ATOM     64  F   UNL     1       9.057  -6.289  11.519  1.00  0.00    -0.206 F 
ATOM     65  C   UNL     1      11.249  -6.746  12.222  1.00  0.00     0.059 A 
ATOM     66  C   UNL     1      13.103  -6.429  10.682  1.00  0.00     0.059 A 
ATOM     67  F   UNL     1      12.692  -5.631   8.516  1.00  0.00    -0.206 F 
ATOM     68  C   UNL     1      12.615  -6.788  11.938  1.00  0.00     0.060 A 
BRANCH  68  69
ATOM     69  S   UNL     1      13.749  -7.340  13.228  1.00  0.00     0.124 S 
ATOM     70  O   UNL     1      13.791  -6.170  14.099  1.00  0.00    -0.237 OA
ATOM     71  O   UNL     1      13.064  -8.510  13.769  1.00  0.00    -0.237 OA
ATOM     72  O   UNL     1      14.980  -7.625  12.497  1.00  0.00    -0.744 OA
ENDBRANCH  68  69
ENDBRANCH  36  61
ENDBRANCH  10  11
ENDBRANCH   3   5
ENDBRANCH   2   3
ENDBRANCH   1   2
BRANCH   1  73
ATOM     73  C   UNL     1       3.825   1.948  -0.109  1.00  0.00     0.275 C 
BRANCH  73  74
ATOM     74  O   UNL     1       3.357   1.417   1.134  1.00  0.00    -0.458 OA
BRANCH  74  75
ATOM     75  C   UNL     1       2.026   1.536   1.371  1.00  0.00     0.338 C 
ATOM     76  O   UNL     1       1.197   2.006   0.608  1.00  0.00    -0.246 OA
BRANCH  75  77
ATOM     77  C   UNL     1       1.673   0.926   2.675  1.00  0.00     0.067 A 
ATOM     78  C   UNL     1       0.563   0.066   2.676  1.00  0.00     0.016 A 
ATOM     79  C   UNL     1       2.405   1.135   3.860  1.00  0.00    -0.010 A 
ATOM     80  C   UNL     1       0.193  -0.609   3.839  1.00  0.00     0.001 A 
ATOM     81  C   UNL     1       1.980   0.493   5.035  1.00  0.00     0.009 A 
ATOM     82  C   UNL     1       0.894  -0.387   5.020  1.00  0.00     0.001 A 
BRANCH  79  83
ATOM     83  C   UNL     1       3.712   1.803   3.884  1.00  0.00     0.030 C 
ATOM     84  C   UNL     1       4.051   3.047   3.541  1.00  0.00     0.081 C 
ATOM     85  S   UNL     1       3.080   4.389   3.134  1.00  0.00    -0.054 SA
ATOM     86  C   UNL     1       5.484   3.345   3.307  1.00  0.00     0.266 C 
ATOM     87  C   UNL     1       4.483   5.371   2.700  1.00  0.00     0.148 C 
ATOM     88  N   UNL     1       5.641   4.660   2.921  1.00  0.00    -0.288 N 
ATOM     89  O   UNL     1       6.365   2.495   3.340  1.00  0.00    -0.268 OA
ATOM     90  S   UNL     1       4.319   6.910   2.075  1.00  0.00    -0.052 S 
BRANCH  88  91
ATOM     91  C   UNL     1       7.005   5.164   2.784  1.00  0.00     0.163 C 
BRANCH  91  92
ATOM     92  C   UNL     1       7.568   5.501   4.148  1.00  0.00    -0.028 A 
ATOM     93  C   UNL     1       7.368   6.769   4.707  1.00  0.00     0.005 A 
ATOM     94  C   UNL     1       8.187   4.507   4.924  1.00  0.00     0.005 A 
ATOM     95  C   UNL     1       7.753   7.027   6.023  1.00  0.00     0.000 A 
ATOM     96  C   UNL     1       8.560   4.764   6.242  1.00  0.00     0.000 A 
ATOM     97  C   UNL     1       8.336   6.022   6.793  1.00  0.00     0.000 A 
ENDBRANCH  91  92
ENDBRANCH  88  91
ENDBRANCH  79  83
ENDBRANCH  75  77
ENDBRANCH  74  75
ENDBRANCH  73  74
ENDBRANCH   1  73
TORSDOF 17
