REMARK SMILES COc1ccccc1[C@@H]1C[N@@H+](Cc2cc3c(cc2C)OCO3)C[C@H]1C(=O)OCCOC(=O)c1ccc(-c2c3nc(c(-c4c(F)cc(S(=O)(=O)[O-])cc4F)c4ccc([nH]4)c(-c4c(F)cc(S(=O)(=O)[O-])cc4F)c4nc(c(-c5c(F)cc(S(=O)(=O)[O-])cc5F)c5ccc2[nH]5)C=C4)C=C3)cc1
REMARK SMILES IDX 29 1 28 2 27 3 25 4 26 5 24 6 9 7 10 8 11 9 23 10 8 12 3 13
REMARK SMILES IDX 4 14 5 15 7 16 6 17 2 18 1 19 12 20 13 21 14 22 18 23 15 24
REMARK SMILES IDX 17 25 19 26 16 27 22 28 20 29 21 30 30 31 31 32 32 33 33 34
REMARK SMILES IDX 34 35 98 36 35 37 97 38 36 39 37 40 38 41 91 42 39 43 96 44
REMARK SMILES IDX 90 45 92 46 40 47 95 48 89 49 88 50 41 52 75 53 54 54 74 55
REMARK SMILES IDX 55 56 58 57 73 58 93 59 56 60 57 61 72 63 94 64 59 65 42 66
REMARK SMILES IDX 43 67 52 68 44 69 45 70 51 71 53 72 46 73 47 74 48 75 49 76
REMARK SMILES IDX 50 77 76 78 77 79 86 80 78 81 79 82 85 83 87 84 80 85 81 86
REMARK SMILES IDX 82 87 83 88 84 89 60 90 61 91 70 92 62 93 63 94 69 95 71 96
REMARK SMILES IDX 64 97 65 98 66 99 67 100 68 101
REMARK H PARENT 11 11 92 51 58 62
REMARK Flexibility Score: inf
ROOT
ATOM      1  C   UNL     1       3.042  -2.463   5.290  1.00  0.00     0.275 C 
ENDROOT
BRANCH   1   2
ATOM      2  C   UNL     1       3.282  -2.882   3.840  1.00  0.00     0.274 C 
BRANCH   2   3
ATOM      3  O   UNL     1       3.206  -1.727   2.969  1.00  0.00    -0.462 OA
BRANCH   3   4
ATOM      4  C   UNL     1       2.771  -1.972   1.711  1.00  0.00     0.315 C 
ATOM      5  O   UNL     1       2.502  -3.098   1.296  1.00  0.00    -0.252 OA
BRANCH   4   6
ATOM      6  C   UNL     1       2.552  -0.746   0.840  1.00  0.00     0.167 C 
ATOM      7  C   UNL     1       2.918   0.659   1.323  1.00  0.00     0.098 C 
ATOM      8  C   UNL     1       3.605   1.328   0.125  1.00  0.00     0.272 C 
ATOM      9  N   UNL     1       4.180   0.248  -0.677  1.00  0.00    -0.330 N 
ATOM     10  C   UNL     1       3.318  -0.920  -0.477  1.00  0.00     0.278 C 
ATOM     11  H   UNL     1       4.179   0.504  -1.665  1.00  0.00     0.348 HD
BRANCH   7  12
ATOM     12  C   UNL     1       1.875   1.596   1.934  1.00  0.00     0.004 A 
ATOM     13  C   UNL     1       0.554   1.895   1.549  1.00  0.00     0.122 A 
ATOM     14  C   UNL     1      -0.207   2.784   2.352  1.00  0.00     0.047 A 
ATOM     15  C   UNL     1       0.298   3.410   3.486  1.00  0.00     0.004 A 
ATOM     16  C   UNL     1       2.376   2.298   3.072  1.00  0.00     0.008 A 
ATOM     17  C   UNL     1       1.608   3.178   3.839  1.00  0.00     0.001 A 
BRANCH  13  18
ATOM     18  O   UNL     1      -0.249   1.507   0.525  1.00  0.00    -0.496 OA
ATOM     19  C   UNL     1       0.080   0.711  -0.583  1.00  0.00     0.278 C 
ENDBRANCH  13  18
ENDBRANCH   7  12
BRANCH   9  20
ATOM     20  C   UNL     1       5.624   0.030  -0.506  1.00  0.00     0.299 C 
BRANCH  20  21
ATOM     21  C   UNL     1       6.125  -0.314   0.887  1.00  0.00     0.013 A 
ATOM     22  C   UNL     1       6.543   0.754   1.717  1.00  0.00     0.060 A 
ATOM     23  C   UNL     1       6.176  -1.641   1.399  1.00  0.00    -0.038 A 
ATOM     24  C   UNL     1       6.884   0.490   3.026  1.00  0.00     0.166 A 
ATOM     25  C   UNL     1       6.470  -1.851   2.760  1.00  0.00     0.054 A 
ATOM     26  C   UNL     1       5.941  -2.877   0.573  1.00  0.00     0.045 C 
ATOM     27  C   UNL     1       6.805  -0.775   3.543  1.00  0.00     0.166 A 
ATOM     28  O   UNL     1       7.326   1.393   3.941  1.00  0.00    -0.454 OA
ATOM     29  O   UNL     1       7.133  -0.825   4.861  1.00  0.00    -0.454 OA
ATOM     30  C   UNL     1       7.628   0.516   5.048  1.00  0.00     0.468 C 
ENDBRANCH  20  21
ENDBRANCH   9  20
ENDBRANCH   4   6
ENDBRANCH   3   4
ENDBRANCH   2   3
ENDBRANCH   1   2
BRANCH   1  31
ATOM     31  O   UNL     1       1.648  -2.154   5.432  1.00  0.00    -0.458 OA
BRANCH  31  32
ATOM     32  C   UNL     1       1.341  -0.879   5.103  1.00  0.00     0.338 C 
ATOM     33  O   UNL     1       2.108   0.066   5.029  1.00  0.00    -0.246 OA
BRANCH  32  34
ATOM     34  C   UNL     1      -0.053  -0.868   4.656  1.00  0.00     0.060 A 
ATOM     35  C   UNL     1      -0.318  -0.902   3.287  1.00  0.00     0.016 A 
ATOM     36  C   UNL     1      -1.090  -0.814   5.579  1.00  0.00     0.016 A 
ATOM     37  C   UNL     1      -1.621  -0.816   2.818  1.00  0.00     0.010 A 
ATOM     38  C   UNL     1      -2.403  -0.779   5.112  1.00  0.00     0.010 A 
ATOM     39  C   UNL     1      -2.675  -0.753   3.730  1.00  0.00    -0.014 A 
BRANCH  39  40
ATOM     40  C   UNL     1      -4.068  -0.596   3.255  1.00  0.00     0.031 A 
ATOM     41  C   UNL     1      -4.811   0.663   3.596  1.00  0.00     0.074 A 
ATOM     42  C   UNL     1      -4.660  -1.582   2.556  1.00  0.00     0.049 A 
ATOM     43  N   UNL     1      -6.085   0.926   3.489  1.00  0.00    -0.248 NA
ATOM     44  C   UNL     1      -4.011   1.766   4.156  1.00  0.00     0.031 C 
ATOM     45  C   UNL     1      -4.008  -2.817   2.115  1.00  0.00     0.029 A 
ATOM     46  N   UNL     1      -5.950  -1.709   2.109  1.00  0.00    -0.354 N 
ATOM     47  C   UNL     1      -6.250   2.203   4.011  1.00  0.00     0.074 A 
ATOM     48  C   UNL     1      -4.948   2.656   4.450  1.00  0.00     0.031 C 
ATOM     49  C   UNL     1      -4.903  -3.578   1.465  1.00  0.00     0.029 A 
ATOM     50  C   UNL     1      -6.204  -2.921   1.511  1.00  0.00     0.049 A 
ATOM     51  H   UNL     1      -6.628  -1.002   2.207  1.00  0.00     0.167 HD
ATOM     52  C   UNL     1      -7.392   2.923   4.115  1.00  0.00     0.037 A 
ATOM     53  C   UNL     1      -7.366  -3.459   1.094  1.00  0.00     0.037 A 
ATOM     54  C   UNL     1      -8.670   2.455   3.644  1.00  0.00     0.049 A 
ATOM     55  C   UNL     1      -8.630  -2.663   1.272  1.00  0.00     0.074 A 
ATOM     56  C   UNL     1      -9.891   3.104   3.677  1.00  0.00     0.029 A 
ATOM     57  N   UNL     1      -8.889   1.218   3.050  1.00  0.00    -0.354 N 
ATOM     58  N   UNL     1      -8.785  -1.466   1.788  1.00  0.00    -0.248 NA
ATOM     59  C   UNL     1      -9.878  -3.291   0.821  1.00  0.00     0.031 C 
ATOM     60  C   UNL     1     -10.857   2.238   3.155  1.00  0.00     0.029 A 
ATOM     61  C   UNL     1     -10.230   1.075   2.735  1.00  0.00     0.049 A 
ATOM     62  H   UNL     1      -8.194   0.543   2.879  1.00  0.00     0.167 HD
ATOM     63  C   UNL     1     -10.143  -1.184   1.696  1.00  0.00     0.074 A 
ATOM     64  C   UNL     1     -10.762  -2.333   1.064  1.00  0.00     0.031 C 
ATOM     65  C   UNL     1     -10.818  -0.077   2.095  1.00  0.00     0.037 A 
BRANCH  52  66
ATOM     66  C   UNL     1      -7.318   4.264   4.795  1.00  0.00     0.058 A 
ATOM     67  C   UNL     1      -6.661   5.362   4.217  1.00  0.00     0.135 A 
ATOM     68  C   UNL     1      -7.939   4.459   6.040  1.00  0.00     0.135 A 
ATOM     69  F   UNL     1      -6.031   5.230   3.038  1.00  0.00    -0.206 F 
ATOM     70  C   UNL     1      -6.599   6.595   4.859  1.00  0.00     0.059 A 
ATOM     71  C   UNL     1      -7.917   5.691   6.686  1.00  0.00     0.059 A 
ATOM     72  F   UNL     1      -8.576   3.443   6.644  1.00  0.00    -0.206 F 
ATOM     73  C   UNL     1      -7.232   6.750   6.094  1.00  0.00     0.060 A 
BRANCH  73  74
ATOM     74  S   UNL     1      -7.150   8.358   6.910  1.00  0.00     0.124 S 
ATOM     75  O   UNL     1      -5.749   8.409   7.314  1.00  0.00    -0.237 OA
ATOM     76  O   UNL     1      -7.533   9.271   5.837  1.00  0.00    -0.237 OA
ATOM     77  O   UNL     1      -8.113   8.238   8.000  1.00  0.00    -0.744 OA
ENDBRANCH  73  74
ENDBRANCH  52  66
BRANCH  53  78
ATOM     78  C   UNL     1      -7.387  -4.823   0.499  1.00  0.00     0.058 A 
ATOM     79  C   UNL     1      -7.699  -5.014  -0.855  1.00  0.00     0.135 A 
ATOM     80  C   UNL     1      -7.082  -5.961   1.264  1.00  0.00     0.135 A 
ATOM     81  F   UNL     1      -8.005  -3.961  -1.627  1.00  0.00    -0.206 F 
ATOM     82  C   UNL     1      -7.723  -6.282  -1.427  1.00  0.00     0.059 A 
ATOM     83  C   UNL     1      -7.069  -7.237   0.708  1.00  0.00     0.059 A 
ATOM     84  F   UNL     1      -6.763  -5.835   2.561  1.00  0.00    -0.206 F 
ATOM     85  C   UNL     1      -7.402  -7.388  -0.637  1.00  0.00     0.060 A 
BRANCH  85  86
ATOM     86  S   UNL     1      -7.395  -9.024  -1.402  1.00  0.00     0.124 S 
ATOM     87  O   UNL     1      -8.820  -9.256  -1.611  1.00  0.00    -0.237 OA
ATOM     88  O   UNL     1      -6.602  -8.795  -2.605  1.00  0.00    -0.237 OA
ATOM     89  O   UNL     1      -6.761  -9.865  -0.392  1.00  0.00    -0.744 OA
ENDBRANCH  85  86
ENDBRANCH  53  78
BRANCH  65  90
ATOM     90  C   UNL     1     -12.295  -0.034   1.815  1.00  0.00     0.058 A 
ATOM     91  C   UNL     1     -13.209  -0.831   2.521  1.00  0.00     0.135 A 
ATOM     92  C   UNL     1     -12.805   0.859   0.858  1.00  0.00     0.135 A 
ATOM     93  F   UNL     1     -12.773  -1.707   3.440  1.00  0.00    -0.206 F 
ATOM     94  C   UNL     1     -14.575  -0.762   2.271  1.00  0.00     0.059 A 
ATOM     95  C   UNL     1     -14.170   0.968   0.616  1.00  0.00     0.059 A 
ATOM     96  F   UNL     1     -11.975   1.651   0.161  1.00  0.00    -0.206 F 
ATOM     97  C   UNL     1     -15.046   0.144   1.319  1.00  0.00     0.060 A 
BRANCH  97  98
ATOM     98  S   UNL     1     -16.824   0.248   1.032  1.00  0.00     0.124 S 
ATOM     99  O   UNL     1     -17.082  -1.001   0.324  1.00  0.00    -0.237 OA
ATOM    100  O   UNL     1     -17.355   0.330   2.390  1.00  0.00    -0.237 OA
ATOM    101  O   UNL     1     -16.970   1.463   0.235  1.00  0.00    -0.744 OA
ENDBRANCH  97  98
ENDBRANCH  65  90
ENDBRANCH  39  40
ENDBRANCH  32  34
ENDBRANCH  31  32
ENDBRANCH   1  31
TORSDOF 18
