REMARK SMILES C[C@@H](C(=O)OCCOC(=O)c1ccc(-c2c3nc(c(-c4c(F)cc(S(=O)(=O)[O-])cc4F)c4ccc([nH]4)c(-c4c(F)cc(S(=O)(=O)[O-])cc4F)c4nc(c(-c5c(F)cc(S(=O)(=O)[O-])cc5F)c5ccc2[nH]5)C=C4)C=C3)cc1)c1ccc(-c2ccccc2)cc1
REMARK SMILES IDX 7 1 6 2 5 3 3 4 4 5 2 6 1 7 77 8 78 9 88 10 79 11 87 12
REMARK SMILES IDX 80 13 81 14 82 15 86 16 83 17 85 18 84 19 8 20 9 21 10 22
REMARK SMILES IDX 11 23 12 24 76 25 13 26 75 27 14 28 15 29 16 30 69 31 17 32
REMARK SMILES IDX 74 33 68 34 70 35 18 36 73 37 67 38 66 39 19 41 53 42 32 43
REMARK SMILES IDX 52 44 33 45 36 46 51 47 71 48 34 49 35 50 50 52 72 53 37 54
REMARK SMILES IDX 20 55 21 56 30 57 22 58 23 59 29 60 31 61 24 62 25 63 26 64
REMARK SMILES IDX 27 65 28 66 54 67 55 68 64 69 56 70 57 71 63 72 65 73 58 74
REMARK SMILES IDX 59 75 60 76 61 77 62 78 38 79 39 80 48 81 40 82 41 83 47 84
REMARK SMILES IDX 49 85 42 86 43 87 44 88 45 89 46 90
REMARK H PARENT 70 40 36 51
REMARK Flexibility Score: inf
ROOT
ATOM      1  C   UNL     1       2.187   1.485  -4.184  1.00  0.00     0.275 C 
ENDROOT
BRANCH   1   2
ATOM      2  C   UNL     1       2.632   2.308  -2.979  1.00  0.00     0.274 C 
BRANCH   2   3
ATOM      3  O   UNL     1       2.181   1.683  -1.760  1.00  0.00    -0.462 OA
BRANCH   3   4
ATOM      4  C   UNL     1       1.150   2.288  -1.103  1.00  0.00     0.313 C 
ATOM      5  O   UNL     1       0.647   3.348  -1.459  1.00  0.00    -0.252 OA
BRANCH   4   6
ATOM      6  C   UNL     1       0.742   1.533   0.174  1.00  0.00     0.126 C 
ATOM      7  C   UNL     1       1.439   0.172   0.303  1.00  0.00     0.025 C 
BRANCH   6   8
ATOM      8  C   UNL     1      -0.777   1.465   0.348  1.00  0.00    -0.034 A 
ATOM      9  C   UNL     1      -1.493   2.639   0.639  1.00  0.00     0.005 A 
ATOM     10  C   UNL     1      -1.512   0.280   0.208  1.00  0.00     0.005 A 
ATOM     11  C   UNL     1      -2.890   2.630   0.767  1.00  0.00     0.009 A 
ATOM     12  C   UNL     1      -2.908   0.274   0.345  1.00  0.00     0.009 A 
ATOM     13  C   UNL     1      -3.629   1.447   0.618  1.00  0.00    -0.018 A 
BRANCH  13  14
ATOM     14  C   UNL     1      -5.106   1.436   0.689  1.00  0.00    -0.018 A 
ATOM     15  C   UNL     1      -5.877   2.414   0.036  1.00  0.00     0.009 A 
ATOM     16  C   UNL     1      -5.796   0.423   1.379  1.00  0.00     0.009 A 
ATOM     17  C   UNL     1      -7.275   2.372   0.057  1.00  0.00     0.001 A 
ATOM     18  C   UNL     1      -7.194   0.377   1.397  1.00  0.00     0.001 A 
ATOM     19  C   UNL     1      -7.933   1.349   0.730  1.00  0.00     0.000 A 
ENDBRANCH  13  14
ENDBRANCH   6   8
ENDBRANCH   4   6
ENDBRANCH   3   4
ENDBRANCH   2   3
ENDBRANCH   1   2
BRANCH   1  20
ATOM     20  O   UNL     1       0.755   1.534  -4.282  1.00  0.00    -0.458 OA
BRANCH  20  21
ATOM     21  C   UNL     1       0.110   0.350  -4.176  1.00  0.00     0.338 C 
ATOM     22  O   UNL     1       0.604  -0.759  -4.085  1.00  0.00    -0.246 OA
BRANCH  21  23
ATOM     23  C   UNL     1      -1.340   0.598  -4.184  1.00  0.00     0.060 A 
ATOM     24  C   UNL     1      -1.908   1.376  -3.179  1.00  0.00     0.016 A 
ATOM     25  C   UNL     1      -2.149  -0.025  -5.135  1.00  0.00     0.016 A 
ATOM     26  C   UNL     1      -3.293   1.468  -3.077  1.00  0.00     0.010 A 
ATOM     27  C   UNL     1      -3.539   0.134  -5.072  1.00  0.00     0.010 A 
ATOM     28  C   UNL     1      -4.130   0.850  -4.016  1.00  0.00    -0.014 A 
BRANCH  28  29
ATOM     29  C   UNL     1      -5.609   0.899  -3.841  1.00  0.00     0.031 A 
ATOM     30  C   UNL     1      -6.389  -0.376  -3.641  1.00  0.00     0.074 A 
ATOM     31  C   UNL     1      -6.254   2.082  -3.801  1.00  0.00     0.049 A 
ATOM     32  N   UNL     1      -7.685  -0.555  -3.597  1.00  0.00    -0.248 NA
ATOM     33  C   UNL     1      -5.611  -1.617  -3.493  1.00  0.00     0.031 C 
ATOM     34  C   UNL     1      -5.622   3.398  -3.915  1.00  0.00     0.029 A 
ATOM     35  N   UNL     1      -7.582   2.372  -3.605  1.00  0.00    -0.354 N 
ATOM     36  C   UNL     1      -7.878  -1.928  -3.495  1.00  0.00     0.074 A 
ATOM     37  C   UNL     1      -6.565  -2.537  -3.463  1.00  0.00     0.031 C 
ATOM     38  C   UNL     1      -6.542   4.349  -3.691  1.00  0.00     0.029 A 
ATOM     39  C   UNL     1      -7.844   3.718  -3.498  1.00  0.00     0.049 A 
ATOM     40  H   UNL     1      -8.281   1.682  -3.546  1.00  0.00     0.167 HD
ATOM     41  C   UNL     1      -9.043  -2.618  -3.449  1.00  0.00     0.037 A 
ATOM     42  C   UNL     1      -9.000   4.369  -3.266  1.00  0.00     0.037 A 
ATOM     43  C   UNL     1     -10.344  -2.005  -3.400  1.00  0.00     0.049 A 
ATOM     44  C   UNL     1     -10.277   3.584  -3.154  1.00  0.00     0.074 A 
ATOM     45  C   UNL     1     -11.587  -2.614  -3.397  1.00  0.00     0.029 A 
ATOM     46  N   UNL     1     -10.569  -0.640  -3.307  1.00  0.00    -0.354 N 
ATOM     47  N   UNL     1     -10.450   2.285  -3.168  1.00  0.00    -0.248 NA
ATOM     48  C   UNL     1     -11.521   4.357  -3.027  1.00  0.00     0.031 C 
ATOM     49  C   UNL     1     -12.565  -1.615  -3.317  1.00  0.00     0.029 A 
ATOM     50  C   UNL     1     -11.929  -0.387  -3.244  1.00  0.00     0.049 A 
ATOM     51  H   UNL     1      -9.865   0.048  -3.289  1.00  0.00     0.167 HD
ATOM     52  C   UNL     1     -11.822   2.085  -3.077  1.00  0.00     0.074 A 
ATOM     53  C   UNL     1     -12.430   3.394  -2.956  1.00  0.00     0.031 C 
ATOM     54  C   UNL     1     -12.517   0.922  -3.121  1.00  0.00     0.037 A 
BRANCH  41  55
ATOM     55  C   UNL     1      -8.964  -4.117  -3.513  1.00  0.00     0.058 A 
ATOM     56  C   UNL     1      -8.594  -4.896  -2.409  1.00  0.00     0.135 A 
ATOM     57  C   UNL     1      -9.288  -4.782  -4.708  1.00  0.00     0.135 A 
ATOM     58  F   UNL     1      -8.256  -4.310  -1.250  1.00  0.00    -0.206 F 
ATOM     59  C   UNL     1      -8.524  -6.285  -2.492  1.00  0.00     0.059 A 
ATOM     60  C   UNL     1      -9.245  -6.169  -4.808  1.00  0.00     0.059 A 
ATOM     61  F   UNL     1      -9.648  -4.082  -5.795  1.00  0.00    -0.206 F 
ATOM     62  C   UNL     1      -8.846  -6.911  -3.698  1.00  0.00     0.060 A 
BRANCH  62  63
ATOM     63  S   UNL     1      -8.747  -8.711  -3.801  1.00  0.00     0.124 S 
ATOM     64  O   UNL     1      -7.308  -8.915  -3.938  1.00  0.00    -0.237 OA
ATOM     65  O   UNL     1      -9.328  -9.134  -2.530  1.00  0.00    -0.237 OA
ATOM     66  O   UNL     1      -9.541  -9.027  -4.984  1.00  0.00    -0.744 OA
ENDBRANCH  62  63
ENDBRANCH  41  55
BRANCH  42  67
ATOM     67  C   UNL     1      -9.003   5.847  -3.108  1.00  0.00     0.058 A 
ATOM     68  C   UNL     1      -9.246   6.424  -1.852  1.00  0.00     0.135 A 
ATOM     69  C   UNL     1      -8.747   6.707  -4.185  1.00  0.00     0.135 A 
ATOM     70  F   UNL     1      -9.503   5.639  -0.794  1.00  0.00    -0.206 F 
ATOM     71  C   UNL     1      -9.240   7.802  -1.669  1.00  0.00     0.059 A 
ATOM     72  C   UNL     1      -8.711   8.088  -4.023  1.00  0.00     0.059 A 
ATOM     73  F   UNL     1      -8.498   6.204  -5.404  1.00  0.00    -0.206 F 
ATOM     74  C   UNL     1      -8.969   8.627  -2.762  1.00  0.00     0.060 A 
BRANCH  74  75
ATOM     75  S   UNL     1      -8.889  10.415  -2.515  1.00  0.00     0.124 S 
ATOM     76  O   UNL     1     -10.295  10.786  -2.616  1.00  0.00    -0.237 OA
ATOM     77  O   UNL     1      -8.293  10.525  -1.187  1.00  0.00    -0.237 OA
ATOM     78  O   UNL     1      -8.035  10.859  -3.613  1.00  0.00    -0.744 OA
ENDBRANCH  74  75
ENDBRANCH  42  67
BRANCH  54  79
ATOM     79  C   UNL     1     -14.014   1.014  -3.053  1.00  0.00     0.058 A 
ATOM     80  C   UNL     1     -14.766   1.419  -4.167  1.00  0.00     0.135 A 
ATOM     81  C   UNL     1     -14.706   0.645  -1.889  1.00  0.00     0.135 A 
ATOM     82  F   UNL     1     -14.148   1.785  -5.301  1.00  0.00    -0.206 F 
ATOM     83  C   UNL     1     -16.154   1.472  -4.125  1.00  0.00     0.059 A 
ATOM     84  C   UNL     1     -16.096   0.673  -1.831  1.00  0.00     0.059 A 
ATOM     85  F   UNL     1     -14.032   0.242  -0.801  1.00  0.00    -0.206 F 
ATOM     86  C   UNL     1     -16.811   1.099  -2.951  1.00  0.00     0.060 A 
BRANCH  86  87
ATOM     87  S   UNL     1     -18.616   1.137  -2.917  1.00  0.00     0.124 S 
ATOM     88  O   UNL     1     -18.875   2.562  -2.738  1.00  0.00    -0.237 OA
ATOM     89  O   UNL     1     -18.970   0.588  -4.223  1.00  0.00    -0.237 OA
ATOM     90  O   UNL     1     -18.951   0.289  -1.777  1.00  0.00    -0.744 OA
ENDBRANCH  86  87
ENDBRANCH  54  79
ENDBRANCH  28  29
ENDBRANCH  21  23
ENDBRANCH  20  21
ENDBRANCH   1  20
TORSDOF 16
