REMARK SMILES CCCC[C@H](C(=O)OCCOC(=O)c1ccc(-c2c3nc(c(-c4c(F)cc(S(=O)(=O)[O-])cc4F)c4ccc([nH]4)c(-c4c(F)cc(S(=O)(=O)[O-])cc4F)c4nc(c(-c5c(F)cc(S(=O)(=O)[O-])cc5F)c5ccc2[nH]5)C=C4)C=C3)cc1)[C@](C)(O)c1ccc(Cl)c(Cl)c1
REMARK SMILES IDX 9 1 8 2 6 3 7 4 5 5 4 6 3 7 2 8 1 9 80 10 81 11 82 12 83 14
REMARK SMILES IDX 84 15 90 16 85 17 88 18 86 19 89 20 87 21 10 22 11 23 12 24
REMARK SMILES IDX 13 25 14 26 15 27 79 28 16 29 78 30 17 31 18 32 19 33 72 34
REMARK SMILES IDX 20 35 77 36 71 37 73 38 21 39 76 40 70 41 69 42 22 44 56 45
REMARK SMILES IDX 35 46 55 47 36 48 39 49 54 50 74 51 37 52 38 53 53 55 75 56
REMARK SMILES IDX 40 57 23 58 24 59 33 60 25 61 26 62 32 63 34 64 27 65 28 66
REMARK SMILES IDX 29 67 30 68 31 69 57 70 58 71 67 72 59 73 60 74 66 75 68 76
REMARK SMILES IDX 61 77 62 78 63 79 64 80 65 81 41 82 42 83 51 84 43 85 44 86
REMARK SMILES IDX 50 87 52 88 45 89 46 90 47 91 48 92 49 93
REMARK H PARENT 82 13 73 43 39 54
REMARK Flexibility Score: inf
ROOT
ATOM      1  C   UNL     1      -2.059   5.468  -4.797  1.00  0.00     0.274 C 
ENDROOT
BRANCH   1   2
ATOM      2  O   UNL     1      -1.274   4.709  -3.849  1.00  0.00    -0.462 OA
BRANCH   2   3
ATOM      3  C   UNL     1      -1.681   4.742  -2.554  1.00  0.00     0.312 C 
ATOM      4  O   UNL     1      -2.729   5.282  -2.234  1.00  0.00    -0.252 OA
BRANCH   3   5
ATOM      5  C   UNL     1      -0.783   3.899  -1.626  1.00  0.00     0.135 C 
BRANCH   5   6
ATOM      6  C   UNL     1       0.751   3.955  -1.895  1.00  0.00     0.019 C 
BRANCH   6   7
ATOM      7  C   UNL     1       1.304   3.637  -3.292  1.00  0.00     0.001 C 
BRANCH   7   8
ATOM      8  C   UNL     1       1.537   4.794  -4.279  1.00  0.00    -0.003 C 
ATOM      9  C   UNL     1       1.590   6.195  -3.691  1.00  0.00     0.004 C 
ENDBRANCH   7   8
ENDBRANCH   6   7
ENDBRANCH   5   6
BRANCH   5  10
ATOM     10  C   UNL     1      -1.077   4.158  -0.078  1.00  0.00     0.100 C 
ATOM     11  C   UNL     1      -0.455   3.024   0.780  1.00  0.00     0.048 C 
BRANCH  10  12
ATOM     12  O   UNL     1      -2.482   4.066   0.194  1.00  0.00    -0.385 OA
ATOM     13  H   UNL     1      -2.640   4.226   1.137  1.00  0.00     0.211 HD
ENDBRANCH  10  12
BRANCH  10  14
ATOM     14  C   UNL     1      -0.654   5.560   0.398  1.00  0.00    -0.014 A 
ATOM     15  C   UNL     1       0.495   5.788   1.172  1.00  0.00     0.008 A 
ATOM     16  C   UNL     1      -1.428   6.690   0.062  1.00  0.00     0.028 A 
ATOM     17  C   UNL     1       0.871   7.083   1.549  1.00  0.00     0.022 A 
ATOM     18  C   UNL     1      -1.036   7.991   0.396  1.00  0.00     0.060 A 
ATOM     19  C   UNL     1       0.122   8.188   1.142  1.00  0.00     0.059 A 
ATOM     20  Cl  UNL     1      -2.009   9.300  -0.175  1.00  0.00    -0.083 Cl
ATOM     21  Cl  UNL     1       0.688   9.757   1.590  1.00  0.00    -0.083 Cl
ENDBRANCH  10  14
ENDBRANCH   5  10
ENDBRANCH   3   5
ENDBRANCH   2   3
ENDBRANCH   1   2
BRANCH   1  22
ATOM     22  C   UNL     1      -2.958   4.563  -5.643  1.00  0.00     0.275 C 
BRANCH  22  23
ATOM     23  O   UNL     1      -4.082   4.081  -4.889  1.00  0.00    -0.458 OA
BRANCH  23  24
ATOM     24  C   UNL     1      -3.872   2.918  -4.217  1.00  0.00     0.338 C 
ATOM     25  O   UNL     1      -2.903   2.195  -4.289  1.00  0.00    -0.246 OA
BRANCH  24  26
ATOM     26  C   UNL     1      -4.923   2.782  -3.188  1.00  0.00     0.060 A 
ATOM     27  C   UNL     1      -4.489   2.657  -1.868  1.00  0.00     0.016 A 
ATOM     28  C   UNL     1      -6.284   2.818  -3.483  1.00  0.00     0.016 A 
ATOM     29  C   UNL     1      -5.403   2.646  -0.823  1.00  0.00     0.010 A 
ATOM     30  C   UNL     1      -7.210   2.768  -2.433  1.00  0.00     0.010 A 
ATOM     31  C   UNL     1      -6.770   2.707  -1.099  1.00  0.00    -0.014 A 
BRANCH  31  32
ATOM     32  C   UNL     1      -7.734   2.663   0.022  1.00  0.00     0.031 A 
ATOM     33  C   UNL     1      -8.422   1.372   0.341  1.00  0.00     0.074 A 
ATOM     34  C   UNL     1      -7.955   3.762   0.767  1.00  0.00     0.049 A 
ATOM     35  N   UNL     1      -9.396   1.140   1.178  1.00  0.00    -0.248 NA
ATOM     36  C   UNL     1      -7.938   0.179  -0.372  1.00  0.00     0.031 C 
ATOM     37  C   UNL     1      -7.257   5.040   0.614  1.00  0.00     0.029 A 
ATOM     38  N   UNL     1      -8.835   3.981   1.797  1.00  0.00    -0.354 N 
ATOM     39  C   UNL     1      -9.665  -0.218   1.074  1.00  0.00     0.074 A 
ATOM     40  C   UNL     1      -8.746  -0.760   0.097  1.00  0.00     0.031 C 
ATOM     41  C   UNL     1      -7.753   5.917   1.504  1.00  0.00     0.029 A 
ATOM     42  C   UNL     1      -8.841   5.282   2.244  1.00  0.00     0.049 A 
ATOM     43  H   UNL     1      -9.406   3.276   2.179  1.00  0.00     0.167 HD
ATOM     44  C   UNL     1     -10.604  -0.937   1.732  1.00  0.00     0.037 A 
ATOM     45  C   UNL     1      -9.667   5.900   3.111  1.00  0.00     0.037 A 
ATOM     46  C   UNL     1     -11.508  -0.376   2.701  1.00  0.00     0.049 A 
ATOM     47  C   UNL     1     -10.780   5.104   3.744  1.00  0.00     0.074 A 
ATOM     48  C   UNL     1     -12.503  -1.013   3.420  1.00  0.00     0.029 A 
ATOM     49  N   UNL     1     -11.531   0.959   3.082  1.00  0.00    -0.354 N 
ATOM     50  N   UNL     1     -11.053   3.826   3.619  1.00  0.00    -0.248 NA
ATOM     51  C   UNL     1     -11.710   5.834   4.617  1.00  0.00     0.031 C 
ATOM     52  C   UNL     1     -13.162  -0.053   4.195  1.00  0.00     0.029 A 
ATOM     53  C   UNL     1     -12.546   1.173   3.998  1.00  0.00     0.049 A 
ATOM     54  H   UNL     1     -10.916   1.651   2.748  1.00  0.00     0.167 HD
ATOM     55  C   UNL     1     -12.181   3.598   4.401  1.00  0.00     0.074 A 
ATOM     56  C   UNL     1     -12.525   4.865   5.013  1.00  0.00     0.031 C 
ATOM     57  C   UNL     1     -12.872   2.447   4.592  1.00  0.00     0.037 A 
BRANCH  44  58
ATOM     58  C   UNL     1     -10.739  -2.390   1.376  1.00  0.00     0.058 A 
ATOM     59  C   UNL     1      -9.795  -3.347   1.777  1.00  0.00     0.135 A 
ATOM     60  C   UNL     1     -11.847  -2.832   0.635  1.00  0.00     0.135 A 
ATOM     61  F   UNL     1      -8.705  -2.975   2.467  1.00  0.00    -0.206 F 
ATOM     62  C   UNL     1      -9.933  -4.689   1.436  1.00  0.00     0.059 A 
ATOM     63  C   UNL     1     -12.018  -4.172   0.303  1.00  0.00     0.059 A 
ATOM     64  F   UNL     1     -12.775  -1.955   0.220  1.00  0.00    -0.206 F 
ATOM     65  C   UNL     1     -11.048  -5.092   0.697  1.00  0.00     0.060 A 
BRANCH  65  66
ATOM     66  S   UNL     1     -11.212  -6.836   0.261  1.00  0.00     0.124 S 
ATOM     67  O   UNL     1     -10.177  -6.979  -0.758  1.00  0.00    -0.237 OA
ATOM     68  O   UNL     1     -10.945  -7.501   1.532  1.00  0.00    -0.237 OA
ATOM     69  O   UNL     1     -12.585  -6.939  -0.221  1.00  0.00    -0.744 OA
ENDBRANCH  65  66
ENDBRANCH  44  58
BRANCH  45  70
ATOM     70  C   UNL     1      -9.523   7.358   3.375  1.00  0.00     0.058 A 
ATOM     71  C   UNL     1      -9.134   7.837   4.634  1.00  0.00     0.135 A 
ATOM     72  C   UNL     1      -9.780   8.305   2.369  1.00  0.00     0.135 A 
ATOM     73  F   UNL     1      -8.895   6.976   5.635  1.00  0.00    -0.206 F 
ATOM     74  C   UNL     1      -9.016   9.201   4.891  1.00  0.00     0.059 A 
ATOM     75  C   UNL     1      -9.641   9.671   2.593  1.00  0.00     0.059 A 
ATOM     76  F   UNL     1     -10.156   7.902   1.145  1.00  0.00    -0.206 F 
ATOM     77  C   UNL     1      -9.269  10.110   3.862  1.00  0.00     0.060 A 
BRANCH  77  78
ATOM     78  S   UNL     1      -9.078  11.875   4.195  1.00  0.00     0.124 S 
ATOM     79  O   UNL     1     -10.251  12.147   5.018  1.00  0.00    -0.237 OA
ATOM     80  O   UNL     1      -7.792  11.921   4.884  1.00  0.00    -0.237 OA
ATOM     81  O   UNL     1      -9.090  12.473   2.863  1.00  0.00    -0.744 OA
ENDBRANCH  77  78
ENDBRANCH  45  70
BRANCH  57  82
ATOM     82  C   UNL     1     -14.066   2.499   5.504  1.00  0.00     0.058 A 
ATOM     83  C   UNL     1     -15.272   3.091   5.097  1.00  0.00     0.135 A 
ATOM     84  C   UNL     1     -14.029   1.883   6.765  1.00  0.00     0.135 A 
ATOM     85  F   UNL     1     -15.357   3.701   3.904  1.00  0.00    -0.206 F 
ATOM     86  C   UNL     1     -16.398   3.080   5.914  1.00  0.00     0.059 A 
ATOM     87  C   UNL     1     -15.150   1.837   7.588  1.00  0.00     0.059 A 
ATOM     88  F   UNL     1     -12.902   1.294   7.197  1.00  0.00    -0.206 F 
ATOM     89  C   UNL     1     -16.329   2.443   7.155  1.00  0.00     0.060 A 
BRANCH  89  90
ATOM     90  S   UNL     1     -17.814   2.384   8.179  1.00  0.00     0.124 S 
ATOM     91  O   UNL     1     -17.904   3.763   8.648  1.00  0.00    -0.237 OA
ATOM     92  O   UNL     1     -18.837   1.971   7.223  1.00  0.00    -0.237 OA
ATOM     93  O   UNL     1     -17.484   1.394   9.200  1.00  0.00    -0.744 OA
ENDBRANCH  89  90
ENDBRANCH  57  82
ENDBRANCH  31  32
ENDBRANCH  24  26
ENDBRANCH  23  24
ENDBRANCH  22  23
ENDBRANCH   1  22
TORSDOF 20
