REMARK SMILES C[C@]1(C(=O)OCCOC(=O)c2ccc(-c3c4nc(c(-c5c(F)cc(S(=O)(=O)[O-])cc5F)c5ccc([nH]5)c(-c5c(F)cc(S(=O)(=O)[O-])cc5F)c5nc(c(-c6c(F)cc(S(=O)(=O)[O-])cc6F)c6ccc3[nH]6)C=C5)C=C4)cc2)[NH2+]C2(C(=O)c3ccccc3C2=O)[C@@H]2C(=O)N(c3ccccc3)C(=O)[C@H]21
REMARK SMILES IDX 7 1 6 2 5 3 3 4 4 5 2 6 1 7 77 8 101 9 78 10 89 13 99 14
REMARK SMILES IDX 79 15 87 16 90 17 92 18 100 19 80 20 81 21 86 22 88 23 91 24
REMARK SMILES IDX 82 25 85 26 83 27 84 28 93 29 94 30 98 31 95 32 97 33 96 34
REMARK SMILES IDX 8 35 9 36 10 37 11 38 12 39 76 40 13 41 75 42 14 43 15 44
REMARK SMILES IDX 16 45 69 46 17 47 74 48 68 49 70 50 18 51 73 52 67 53 66 54
REMARK SMILES IDX 19 56 53 57 32 58 52 59 33 60 36 61 51 62 71 63 34 64 35 65
REMARK SMILES IDX 50 67 72 68 37 69 20 70 21 71 30 72 22 73 23 74 29 75 31 76
REMARK SMILES IDX 24 77 25 78 26 79 27 80 28 81 54 82 55 83 64 84 56 85 57 86
REMARK SMILES IDX 63 87 65 88 58 89 59 90 60 91 61 92 62 93 38 94 39 95 48 96
REMARK SMILES IDX 40 97 41 98 47 99 49 100 42 101 43 102 44 103 45 104 46 105
REMARK H PARENT 77 11 77 12 70 55 36 66
REMARK Flexibility Score: inf
ROOT
ATOM      1  C   UNL     1       2.655  -1.714   4.369  1.00  0.00     0.275 C 
ENDROOT
BRANCH   1   2
ATOM      2  C   UNL     1       2.446  -0.208   4.215  1.00  0.00     0.274 C 
BRANCH   2   3
ATOM      3  O   UNL     1       1.354   0.072   3.317  1.00  0.00    -0.457 OA
BRANCH   3   4
ATOM      4  C   UNL     1       1.651   0.563   2.082  1.00  0.00     0.368 C 
ATOM      5  O   UNL     1       2.792   0.760   1.685  1.00  0.00    -0.245 OA
BRANCH   4   6
ATOM      6  C   UNL     1       0.371   0.948   1.273  1.00  0.00     0.205 C 
ATOM      7  C   UNL     1       0.495   0.597  -0.210  1.00  0.00     0.093 C 
ATOM      8  N   UNL     1      -0.881   0.317   1.848  1.00  0.00    -0.313 N 
ATOM      9  C   UNL     1       0.069   2.410   1.443  1.00  0.00     0.172 C 
ATOM     10  C   UNL     1      -1.609   1.381   2.645  1.00  0.00     0.237 C 
ATOM     11  H   UNL     1      -0.628  -0.461   2.457  1.00  0.00     0.348 HD
ATOM     12  H   UNL     1      -1.476  -0.040   1.101  1.00  0.00     0.348 HD
ATOM     13  C   UNL     1      -0.563   2.434   2.817  1.00  0.00     0.177 C 
ATOM     14  C   UNL     1       1.064   3.504   1.547  1.00  0.00     0.244 C 
ATOM     15  C   UNL     1      -2.896   1.765   1.917  1.00  0.00     0.232 C 
ATOM     16  C   UNL     1      -2.119   0.777   3.954  1.00  0.00     0.232 C 
ATOM     17  C   UNL     1      -0.668   3.905   3.019  1.00  0.00     0.245 C 
ATOM     18  N   UNL     1       0.488   4.418   2.426  1.00  0.00    -0.250 N 
ATOM     19  O   UNL     1       2.095   3.567   0.904  1.00  0.00    -0.273 OA
ATOM     20  O   UNL     1      -3.002   2.319   0.838  1.00  0.00    -0.286 OA
ATOM     21  C   UNL     1      -4.026   1.242   2.680  1.00  0.00     0.036 A 
ATOM     22  C   UNL     1      -3.576   0.663   3.860  1.00  0.00     0.036 A 
ATOM     23  O   UNL     1      -1.479   0.453   4.938  1.00  0.00    -0.286 OA
ATOM     24  O   UNL     1      -1.537   4.452   3.675  1.00  0.00    -0.273 OA
ATOM     25  C   UNL     1      -5.364   1.246   2.330  1.00  0.00     0.013 A 
ATOM     26  C   UNL     1      -4.452   0.075   4.754  1.00  0.00     0.013 A 
ATOM     27  C   UNL     1      -6.263   0.653   3.220  1.00  0.00     0.001 A 
ATOM     28  C   UNL     1      -5.811   0.076   4.423  1.00  0.00     0.001 A 
BRANCH  18  29
ATOM     29  C   UNL     1       1.102   5.649   2.740  1.00  0.00     0.052 A 
ATOM     30  C   UNL     1       1.852   6.338   1.775  1.00  0.00     0.027 A 
ATOM     31  C   UNL     1       1.083   6.134   4.052  1.00  0.00     0.027 A 
ATOM     32  C   UNL     1       2.588   7.472   2.116  1.00  0.00     0.002 A 
ATOM     33  C   UNL     1       1.854   7.247   4.402  1.00  0.00     0.002 A 
ATOM     34  C   UNL     1       2.605   7.914   3.435  1.00  0.00     0.000 A 
ENDBRANCH  18  29
ENDBRANCH   4   6
ENDBRANCH   3   4
ENDBRANCH   2   3
ENDBRANCH   1   2
BRANCH   1  35
ATOM     35  O   UNL     1       3.229  -2.267   3.173  1.00  0.00    -0.458 OA
BRANCH  35  36
ATOM     36  C   UNL     1       2.339  -2.761   2.282  1.00  0.00     0.338 C 
ATOM     37  O   UNL     1       1.135  -2.885   2.415  1.00  0.00    -0.246 OA
BRANCH  36  38
ATOM     38  C   UNL     1       3.035  -2.972   1.007  1.00  0.00     0.060 A 
ATOM     39  C   UNL     1       3.804  -4.101   0.758  1.00  0.00     0.016 A 
ATOM     40  C   UNL     1       2.854  -2.011   0.017  1.00  0.00     0.016 A 
ATOM     41  C   UNL     1       4.408  -4.237  -0.496  1.00  0.00     0.010 A 
ATOM     42  C   UNL     1       3.401  -2.166  -1.244  1.00  0.00     0.010 A 
ATOM     43  C   UNL     1       4.207  -3.272  -1.505  1.00  0.00    -0.014 A 
BRANCH  43  44
ATOM     44  C   UNL     1       4.802  -3.422  -2.851  1.00  0.00     0.031 A 
ATOM     45  C   UNL     1       5.834  -2.446  -3.348  1.00  0.00     0.074 A 
ATOM     46  C   UNL     1       4.358  -4.418  -3.640  1.00  0.00     0.049 A 
ATOM     47  N   UNL     1       6.512  -2.470  -4.467  1.00  0.00    -0.248 NA
ATOM     48  C   UNL     1       6.125  -1.279  -2.498  1.00  0.00     0.031 C 
ATOM     49  C   UNL     1       3.278  -5.346  -3.294  1.00  0.00     0.029 A 
ATOM     50  N   UNL     1       4.761  -4.824  -4.884  1.00  0.00    -0.354 N 
ATOM     51  C   UNL     1       7.317  -1.337  -4.447  1.00  0.00     0.074 A 
ATOM     52  C   UNL     1       6.988  -0.604  -3.245  1.00  0.00     0.031 C 
ATOM     53  C   UNL     1       3.150  -6.253  -4.274  1.00  0.00     0.029 A 
ATOM     54  C   UNL     1       4.119  -5.957  -5.323  1.00  0.00     0.049 A 
ATOM     55  H   UNL     1       5.445  -4.351  -5.412  1.00  0.00     0.167 HD
ATOM     56  C   UNL     1       8.272  -0.966  -5.333  1.00  0.00     0.037 A 
ATOM     57  C   UNL     1       4.314  -6.689  -6.436  1.00  0.00     0.037 A 
ATOM     58  C   UNL     1       8.592  -1.718  -6.518  1.00  0.00     0.049 A 
ATOM     59  C   UNL     1       5.400  -6.277  -7.389  1.00  0.00     0.074 A 
ATOM     60  C   UNL     1       9.579  -1.472  -7.456  1.00  0.00     0.029 A 
ATOM     61  N   UNL     1       7.928  -2.866  -6.928  1.00  0.00    -0.354 N 
ATOM     62  N   UNL     1       6.220  -5.255  -7.310  1.00  0.00    -0.248 NA
ATOM     63  C   UNL     1       5.597  -7.120  -8.574  1.00  0.00     0.031 C 
ATOM     64  C   UNL     1       9.488  -2.450  -8.451  1.00  0.00     0.029 A 
ATOM     65  C   UNL     1       8.474  -3.333  -8.112  1.00  0.00     0.049 A 
ATOM     66  H   UNL     1       7.179  -3.288  -6.447  1.00  0.00     0.167 HD
ATOM     67  C   UNL     1       7.042  -5.341  -8.427  1.00  0.00     0.074 A 
ATOM     68  C   UNL     1       6.632  -6.527  -9.153  1.00  0.00     0.031 C 
ATOM     69  C   UNL     1       8.043  -4.514  -8.818  1.00  0.00     0.037 A 
BRANCH  56  70
ATOM     70  C   UNL     1       9.065   0.279  -5.035  1.00  0.00     0.058 A 
ATOM     71  C   UNL     1       9.984   0.320  -3.973  1.00  0.00     0.135 A 
ATOM     72  C   UNL     1       8.960   1.419  -5.848  1.00  0.00     0.135 A 
ATOM     73  F   UNL     1      10.119  -0.736  -3.154  1.00  0.00    -0.206 F 
ATOM     74  C   UNL     1      10.754   1.449  -3.716  1.00  0.00     0.059 A 
ATOM     75  C   UNL     1       9.741   2.551  -5.626  1.00  0.00     0.059 A 
ATOM     76  F   UNL     1       8.099   1.438  -6.878  1.00  0.00    -0.206 F 
ATOM     77  C   UNL     1      10.630   2.559  -4.552  1.00  0.00     0.060 A 
BRANCH  77  78
ATOM     78  S   UNL     1      11.666   4.001  -4.222  1.00  0.00     0.124 S 
ATOM     79  O   UNL     1      11.081   4.507  -2.984  1.00  0.00    -0.237 OA
ATOM     80  O   UNL     1      12.993   3.408  -4.098  1.00  0.00    -0.237 OA
ATOM     81  O   UNL     1      11.466   4.842  -5.398  1.00  0.00    -0.744 OA
ENDBRANCH  77  78
ENDBRANCH  56  70
BRANCH  57  82
ATOM     82  C   UNL     1       3.514  -7.922  -6.652  1.00  0.00     0.058 A 
ATOM     83  C   UNL     1       4.099  -9.189  -6.507  1.00  0.00     0.135 A 
ATOM     84  C   UNL     1       2.144  -7.864  -6.947  1.00  0.00     0.135 A 
ATOM     85  F   UNL     1       5.406  -9.295  -6.223  1.00  0.00    -0.206 F 
ATOM     86  C   UNL     1       3.357 -10.355  -6.657  1.00  0.00     0.059 A 
ATOM     87  C   UNL     1       1.375  -9.016  -7.079  1.00  0.00     0.059 A 
ATOM     88  F   UNL     1       1.533  -6.675  -7.072  1.00  0.00    -0.206 F 
ATOM     89  C   UNL     1       1.993 -10.258  -6.937  1.00  0.00     0.060 A 
BRANCH  89  90
ATOM     90  S   UNL     1       1.030 -11.780  -7.066  1.00  0.00     0.124 S 
ATOM     91  O   UNL     1       1.524 -12.335  -8.321  1.00  0.00    -0.237 OA
ATOM     92  O   UNL     1       1.421 -12.493  -5.854  1.00  0.00    -0.237 OA
ATOM     93  O   UNL     1      -0.350 -11.304  -7.087  1.00  0.00    -0.744 OA
ENDBRANCH  89  90
ENDBRANCH  57  82
BRANCH  69  94
ATOM     94  C   UNL     1       8.767  -4.865 -10.087  1.00  0.00     0.058 A 
ATOM     95  C   UNL     1       8.168  -4.688 -11.343  1.00  0.00     0.135 A 
ATOM     96  C   UNL     1      10.094  -5.324 -10.047  1.00  0.00     0.135 A 
ATOM     97  F   UNL     1       6.900  -4.257 -11.433  1.00  0.00    -0.206 F 
ATOM     98  C   UNL     1       8.853  -4.975 -12.518  1.00  0.00     0.059 A 
ATOM     99  C   UNL     1      10.807  -5.591 -11.211  1.00  0.00     0.059 A 
ATOM    100  F   UNL     1      10.714  -5.499  -8.870  1.00  0.00    -0.206 F 
ATOM    101  C   UNL     1      10.174  -5.422 -12.442  1.00  0.00     0.060 A 
BRANCH 101 102
ATOM    102  S   UNL     1      11.059  -5.757 -13.979  1.00  0.00     0.124 S 
ATOM    103  O   UNL     1      10.405  -6.979 -14.435  1.00  0.00    -0.237 OA
ATOM    104  O   UNL     1      10.782  -4.559 -14.764  1.00  0.00    -0.237 OA
ATOM    105  O   UNL     1      12.445  -5.911 -13.547  1.00  0.00    -0.744 OA
ENDBRANCH 101 102
ENDBRANCH  69  94
ENDBRANCH  43  44
ENDBRANCH  36  38
ENDBRANCH  35  36
ENDBRANCH   1  35
TORSDOF 15
