REMARK SMILES CCC[NH2+][C@]1(C(=O)OCCOC(=O)c2ccc(-c3c4nc(c(-c5c(F)cc(S(=O)(=O)[O-])cc5F)c5ccc([nH]5)c(-c5c(F)cc(S(=O)(=O)[O-])cc5F)c5nc(c(-c6c(F)cc(S(=O)(=O)[O-])cc6F)c6ccc3[nH]6)C=C5)C=C4)cc2)CCC[C@@H]([N@@H+](C)[C@@H](C)C2CC2)C1
REMARK SMILES IDX 9 1 8 2 6 3 7 4 5 5 80 6 91 7 81 8 83 9 82 10 4 11 3 14 2 15
REMARK SMILES IDX 1 16 84 17 85 18 86 20 87 21 88 22 89 23 90 24 10 25 11 26
REMARK SMILES IDX 12 27 13 28 14 29 15 30 79 31 16 32 78 33 17 34 18 35 19 36
REMARK SMILES IDX 72 37 20 38 77 39 71 40 73 41 21 42 76 43 70 44 69 45 22 47
REMARK SMILES IDX 56 48 35 49 55 50 36 51 39 52 54 53 74 54 37 55 38 56 53 58
REMARK SMILES IDX 75 59 40 60 23 61 24 62 33 63 25 64 26 65 32 66 34 67 27 68
REMARK SMILES IDX 28 69 29 70 30 71 31 72 57 73 58 74 67 75 59 76 60 77 66 78
REMARK SMILES IDX 68 79 61 80 62 81 63 82 64 83 65 84 41 85 42 86 51 87 43 88
REMARK SMILES IDX 44 89 50 90 52 91 45 92 46 93 47 94 48 95 49 96
REMARK H PARENT 4 12 4 13 84 19 73 46 39 57
REMARK Flexibility Score: inf
ROOT
ATOM      1  C   UNL     1      -0.466   0.742   1.802  1.00  0.00     0.274 C 
ENDROOT
BRANCH   1   2
ATOM      2  O   UNL     1       0.197   0.330   3.020  1.00  0.00    -0.457 OA
BRANCH   2   3
ATOM      3  C   UNL     1       0.513  -0.993   3.032  1.00  0.00     0.368 C 
ATOM      4  O   UNL     1       0.365  -1.715   2.047  1.00  0.00    -0.245 OA
BRANCH   3   5
ATOM      5  C   UNL     1       0.987  -1.556   4.406  1.00  0.00     0.200 C 
ATOM      6  C   UNL     1       0.169  -0.963   5.569  1.00  0.00     0.081 C 
ATOM      7  C   UNL     1       0.640  -3.056   4.295  1.00  0.00     0.146 C 
ATOM      8  C   UNL     1       0.370  -1.740   6.876  1.00  0.00     0.013 C 
ATOM      9  C   UNL     1       0.620  -3.914   5.541  1.00  0.00     0.190 C 
ATOM     10  C   UNL     1      -0.051  -3.205   6.729  1.00  0.00     0.065 C 
BRANCH   5  11
ATOM     11  N   UNL     1       2.418  -1.287   4.716  1.00  0.00    -0.332 N 
ATOM     12  H   UNL     1       2.498  -0.315   5.014  1.00  0.00     0.347 HD
ATOM     13  H   UNL     1       2.681  -1.961   5.435  1.00  0.00     0.347 HD
BRANCH  11  14
ATOM     14  C   UNL     1       3.348  -1.496   3.614  1.00  0.00     0.261 C 
BRANCH  14  15
ATOM     15  C   UNL     1       4.811  -1.377   4.051  1.00  0.00     0.058 C 
ATOM     16  C   UNL     1       5.319  -2.597   4.805  1.00  0.00     0.010 C 
ENDBRANCH  14  15
ENDBRANCH  11  14
ENDBRANCH   5  11
BRANCH   9  17
ATOM     17  N   UNL     1       0.169  -5.287   5.177  1.00  0.00    -0.332 N 
ATOM     18  C   UNL     1       0.719  -6.261   6.132  1.00  0.00     0.333 C 
ATOM     19  H   UNL     1       0.551  -5.325   4.232  1.00  0.00     0.348 HD
BRANCH  17  20
ATOM     20  C   UNL     1      -1.235  -5.633   4.827  1.00  0.00     0.184 C 
ATOM     21  C   UNL     1      -2.354  -5.119   5.739  1.00  0.00     0.075 C 
BRANCH  20  22
ATOM     22  C   UNL     1      -1.707  -5.615   3.376  1.00  0.00     0.047 C 
ATOM     23  C   UNL     1      -2.266  -4.376   2.704  1.00  0.00     0.010 C 
ATOM     24  C   UNL     1      -1.018  -5.026   2.169  1.00  0.00     0.010 C 
ENDBRANCH  20  22
ENDBRANCH  17  20
ENDBRANCH   9  17
ENDBRANCH   3   5
ENDBRANCH   2   3
ENDBRANCH   1   2
BRANCH   1  25
ATOM     25  C   UNL     1       0.512   1.214   0.722  1.00  0.00     0.275 C 
BRANCH  25  26
ATOM     26  O   UNL     1       1.421   0.160   0.360  1.00  0.00    -0.458 OA
BRANCH  26  27
ATOM     27  C   UNL     1       2.706   0.526   0.136  1.00  0.00     0.338 C 
ATOM     28  O   UNL     1       3.119   1.673   0.082  1.00  0.00    -0.246 OA
BRANCH  27  29
ATOM     29  C   UNL     1       3.597  -0.665   0.028  1.00  0.00     0.060 A 
ATOM     30  C   UNL     1       3.185  -1.945   0.406  1.00  0.00     0.016 A 
ATOM     31  C   UNL     1       4.927  -0.478  -0.360  1.00  0.00     0.016 A 
ATOM     32  C   UNL     1       4.111  -2.989   0.508  1.00  0.00     0.010 A 
ATOM     33  C   UNL     1       5.822  -1.557  -0.374  1.00  0.00     0.010 A 
ATOM     34  C   UNL     1       5.435  -2.828   0.082  1.00  0.00    -0.014 A 
BRANCH  34  35
ATOM     35  C   UNL     1       6.403  -3.970   0.062  1.00  0.00     0.031 A 
ATOM     36  C   UNL     1       7.779  -3.826   0.671  1.00  0.00     0.074 A 
ATOM     37  C   UNL     1       6.085  -5.125  -0.563  1.00  0.00     0.049 A 
ATOM     38  N   UNL     1       8.851  -4.551   0.476  1.00  0.00    -0.248 NA
ATOM     39  C   UNL     1       7.979  -2.716   1.618  1.00  0.00     0.031 C 
ATOM     40  C   UNL     1       4.785  -5.448  -1.157  1.00  0.00     0.029 A 
ATOM     41  N   UNL     1       6.848  -6.240  -0.831  1.00  0.00    -0.354 N 
ATOM     42  C   UNL     1       9.864  -3.949   1.217  1.00  0.00     0.074 A 
ATOM     43  C   UNL     1       9.275  -2.813   1.890  1.00  0.00     0.031 C 
ATOM     44  C   UNL     1       4.834  -6.669  -1.705  1.00  0.00     0.029 A 
ATOM     45  C   UNL     1       6.200  -7.165  -1.619  1.00  0.00     0.049 A 
ATOM     46  H   UNL     1       7.764  -6.363  -0.493  1.00  0.00     0.167 HD
ATOM     47  C   UNL     1      11.168  -4.305   1.309  1.00  0.00     0.037 A 
ATOM     48  C   UNL     1       6.657  -8.240  -2.290  1.00  0.00     0.037 A 
ATOM     49  C   UNL     1      11.736  -5.471   0.681  1.00  0.00     0.049 A 
ATOM     50  C   UNL     1       8.119  -8.568  -2.243  1.00  0.00     0.074 A 
ATOM     51  C   UNL     1      13.034  -5.948   0.764  1.00  0.00     0.029 A 
ATOM     52  N   UNL     1      11.043  -6.342  -0.144  1.00  0.00    -0.354 N 
ATOM     53  N   UNL     1       9.076  -7.963  -1.583  1.00  0.00    -0.248 NA
ATOM     54  C   UNL     1       8.571  -9.700  -3.064  1.00  0.00     0.031 C 
ATOM     55  C   UNL     1      13.137  -7.082  -0.047  1.00  0.00     0.029 A 
ATOM     56  C   UNL     1      11.894  -7.333  -0.605  1.00  0.00     0.049 A 
ATOM     57  H   UNL     1      10.088  -6.268  -0.369  1.00  0.00     0.167 HD
ATOM     58  C   UNL     1      10.245  -8.638  -1.912  1.00  0.00     0.074 A 
ATOM     59  C   UNL     1       9.873  -9.710  -2.812  1.00  0.00     0.031 C 
ATOM     60  C   UNL     1      11.513  -8.386  -1.509  1.00  0.00     0.037 A 
BRANCH  47  61
ATOM     61  C   UNL     1      12.105  -3.415   2.079  1.00  0.00     0.058 A 
ATOM     62  C   UNL     1      12.173  -3.436   3.479  1.00  0.00     0.135 A 
ATOM     63  C   UNL     1      13.030  -2.613   1.389  1.00  0.00     0.135 A 
ATOM     64  F   UNL     1      11.304  -4.174   4.187  1.00  0.00    -0.206 F 
ATOM     65  C   UNL     1      13.130  -2.696   4.170  1.00  0.00     0.059 A 
ATOM     66  C   UNL     1      14.006  -1.879   2.057  1.00  0.00     0.059 A 
ATOM     67  F   UNL     1      13.006  -2.557   0.048  1.00  0.00    -0.206 F 
ATOM     68  C   UNL     1      14.048  -1.927   3.449  1.00  0.00     0.060 A 
BRANCH  68  69
ATOM     69  S   UNL     1      15.321  -1.020   4.355  1.00  0.00     0.124 S 
ATOM     70  O   UNL     1      14.546   0.075   4.930  1.00  0.00    -0.237 OA
ATOM     71  O   UNL     1      15.804  -2.019   5.302  1.00  0.00    -0.237 OA
ATOM     72  O   UNL     1      16.271  -0.636   3.316  1.00  0.00    -0.744 OA
ENDBRANCH  68  69
ENDBRANCH  47  61
BRANCH  48  73
ATOM     73  C   UNL     1       5.731  -9.008  -3.165  1.00  0.00     0.058 A 
ATOM     74  C   UNL     1       5.333 -10.311  -2.838  1.00  0.00     0.135 A 
ATOM     75  C   UNL     1       5.209  -8.437  -4.338  1.00  0.00     0.135 A 
ATOM     76  F   UNL     1       5.819 -10.904  -1.737  1.00  0.00    -0.206 F 
ATOM     77  C   UNL     1       4.449 -11.023  -3.642  1.00  0.00     0.059 A 
ATOM     78  C   UNL     1       4.301  -9.117  -5.141  1.00  0.00     0.059 A 
ATOM     79  F   UNL     1       5.553  -7.189  -4.691  1.00  0.00    -0.206 F 
ATOM     80  C   UNL     1       3.934 -10.415  -4.790  1.00  0.00     0.060 A 
BRANCH  80  81
ATOM     81  S   UNL     1       2.736 -11.313  -5.798  1.00  0.00     0.124 S 
ATOM     82  O   UNL     1       3.606 -12.177  -6.586  1.00  0.00    -0.237 OA
ATOM     83  O   UNL     1       1.917 -11.981  -4.790  1.00  0.00    -0.237 OA
ATOM     84  O   UNL     1       2.060 -10.250  -6.536  1.00  0.00    -0.744 OA
ENDBRANCH  80  81
ENDBRANCH  48  73
BRANCH  60  85
ATOM     85  C   UNL     1      12.588  -9.291  -2.031  1.00  0.00     0.058 A 
ATOM     86  C   UNL     1      13.075  -9.165  -3.341  1.00  0.00     0.135 A 
ATOM     87  C   UNL     1      13.158 -10.273  -1.207  1.00  0.00     0.135 A 
ATOM     88  F   UNL     1      12.551  -8.248  -4.170  1.00  0.00    -0.206 F 
ATOM     89  C   UNL     1      14.081  -9.994  -3.823  1.00  0.00     0.059 A 
ATOM     90  C   UNL     1      14.179 -11.101  -1.661  1.00  0.00     0.059 A 
ATOM     91  F   UNL     1      12.728 -10.429   0.056  1.00  0.00    -0.206 F 
ATOM     92  C   UNL     1      14.626 -10.961  -2.975  1.00  0.00     0.060 A 
BRANCH  92  93
ATOM     93  S   UNL     1      15.949 -12.017  -3.601  1.00  0.00     0.124 S 
ATOM     94  O   UNL     1      15.206 -12.957  -4.432  1.00  0.00    -0.237 OA
ATOM     95  O   UNL     1      16.797 -11.069  -4.317  1.00  0.00    -0.237 OA
ATOM     96  O   UNL     1      16.536 -12.579  -2.387  1.00  0.00    -0.744 OA
ENDBRANCH  92  93
ENDBRANCH  60  85
ENDBRANCH  34  35
ENDBRANCH  27  29
ENDBRANCH  26  27
ENDBRANCH  25  26
ENDBRANCH   1  25
TORSDOF 20
