REMARK SMILES Cc1cccc(CC(=O)N2CCC3(CCC(=O)N([C@H](C)C(=O)OCCOC(=O)c4ccc(-c5c6nc(c(-c7c(F)cc(S(=O)(=O)[O-])cc7F)c7ccc([nH]7)c(-c7c(F)cc(S(=O)(=O)[O-])cc7F)c7nc(c(-c8c(F)cc(S(=O)(=O)[O-])cc8F)c8ccc5[nH]8)C=C7)C=C6)cc4)C3)CC2)c1
REMARK SMILES IDX 24 1 23 2 21 3 22 4 19 5 20 6 18 7 8 8 9 9 10 10 11 11 97 12
REMARK SMILES IDX 12 13 96 14 13 15 14 16 95 17 15 18 16 19 17 20 7 21 6 22
REMARK SMILES IDX 1 23 2 24 3 25 98 26 4 27 5 28 25 29 26 30 27 31 28 32 29 33
REMARK SMILES IDX 30 34 94 35 31 36 93 37 32 38 33 39 34 40 87 41 35 42 92 43
REMARK SMILES IDX 86 44 88 45 36 46 91 47 85 48 84 49 37 51 71 52 50 53 70 54
REMARK SMILES IDX 51 55 54 56 69 57 89 58 52 59 53 60 68 62 90 63 55 64 38 65
REMARK SMILES IDX 39 66 48 67 40 68 41 69 47 70 49 71 42 72 43 73 44 74 45 75
REMARK SMILES IDX 46 76 72 77 73 78 82 79 74 80 75 81 81 82 83 83 76 84 77 85
REMARK SMILES IDX 78 86 79 87 80 88 56 89 57 90 66 91 58 92 59 93 65 94 67 95
REMARK SMILES IDX 60 96 61 97 62 98 63 99 64 100
REMARK H PARENT 88 50 54 61
REMARK Flexibility Score: inf
ROOT
ATOM      1  C   UNL     1      -3.925   6.652  -6.501  1.00  0.00     0.274 C 
ENDROOT
BRANCH   1   2
ATOM      2  O   UNL     1      -2.442   6.692  -7.271  1.00  0.00    -0.461 OA
BRANCH   2   3
ATOM      3  C   UNL     1      -1.922   5.705  -8.174  1.00  0.00     0.328 C 
ATOM      4  O   UNL     1      -2.640   5.233  -9.053  1.00  0.00    -0.250 OA
BRANCH   3   5
ATOM      5  C   UNL     1      -0.274   5.208  -7.946  1.00  0.00     0.192 C 
ATOM      6  C   UNL     1      -0.216   3.690  -7.643  1.00  0.00     0.044 C 
BRANCH   5   7
ATOM      7  N   UNL     1       1.055   5.497  -8.756  1.00  0.00    -0.329 N 
ATOM      8  C   UNL     1       7.766   5.269  -7.098  1.00  0.00     0.226 C 
ATOM      9  O   UNL     1       8.239   4.126  -7.115  1.00  0.00    -0.275 OA
ATOM     10  N   UNL     1       6.495   5.537  -7.615  1.00  0.00    -0.342 N 
ATOM     11  C   UNL     1       5.665   4.399  -8.000  1.00  0.00     0.120 C 
ATOM     12  C   UNL     1       6.093   6.823  -8.186  1.00  0.00     0.120 C 
ATOM     13  C   UNL     1       4.174   4.669  -7.786  1.00  0.00     0.030 C 
ATOM     14  C   UNL     1       4.588   7.103  -8.059  1.00  0.00     0.030 C 
ATOM     15  C   UNL     1       3.664   5.924  -8.522  1.00  0.00    -0.008 C 
ATOM     16  C   UNL     1       3.673   5.835 -10.051  1.00  0.00     0.019 C 
ATOM     17  C   UNL     1       2.193   6.216  -8.118  1.00  0.00     0.127 C 
ATOM     18  C   UNL     1       2.646   4.839 -10.563  1.00  0.00     0.101 C 
ATOM     19  C   UNL     1       1.205   4.961 -10.034  1.00  0.00     0.223 C 
ATOM     20  O   UNL     1       0.291   4.497 -10.654  1.00  0.00    -0.275 OA
BRANCH   8  21
ATOM     21  C   UNL     1       8.525   6.361  -6.348  1.00  0.00     0.135 C 
BRANCH  21  22
ATOM     22  C   UNL     1       9.120   7.479  -7.165  1.00  0.00    -0.038 A 
ATOM     23  C   UNL     1       8.821  11.280  -7.308  1.00  0.00     0.044 C 
ATOM     24  C   UNL     1       9.263   9.877  -7.607  1.00  0.00    -0.051 A 
ATOM     25  C   UNL     1      10.087   9.611  -8.704  1.00  0.00     0.003 A 
ATOM     26  C   UNL     1       8.811   8.808  -6.827  1.00  0.00     0.007 A 
ATOM     27  C   UNL     1      10.454   8.299  -9.011  1.00  0.00     0.001 A 
ATOM     28  C   UNL     1       9.974   7.235  -8.246  1.00  0.00     0.004 A 
ENDBRANCH  21  22
ENDBRANCH   8  21
ENDBRANCH   5   7
ENDBRANCH   3   5
ENDBRANCH   2   3
ENDBRANCH   1   2
BRANCH   1  29
ATOM     29  C   UNL     1      -4.227   7.032  -4.634  1.00  0.00     0.275 C 
BRANCH  29  30
ATOM     30  O   UNL     1      -3.030   7.853  -3.431  1.00  0.00    -0.458 OA
BRANCH  30  31
ATOM     31  C   UNL     1      -1.398   8.212  -3.066  1.00  0.00     0.338 C 
ATOM     32  O   UNL     1      -1.280   8.703  -1.931  1.00  0.00    -0.246 OA
BRANCH  31  33
ATOM     33  C   UNL     1       0.176   8.315  -4.106  1.00  0.00     0.060 A 
ATOM     34  C   UNL     1       0.925   9.512  -4.207  1.00  0.00     0.016 A 
ATOM     35  C   UNL     1       0.443   7.623  -5.341  1.00  0.00     0.016 A 
ATOM     36  C   UNL     1       1.346  10.097  -5.565  1.00  0.00     0.010 A 
ATOM     37  C   UNL     1       0.706   8.185  -6.623  1.00  0.00     0.010 A 
ATOM     38  C   UNL     1       1.047   9.485  -6.822  1.00  0.00    -0.014 A 
BRANCH  38  39
ATOM     39  C   UNL     1       0.553  10.008  -8.186  1.00  0.00     0.031 A 
ATOM     40  C   UNL     1       1.152   9.635  -9.497  1.00  0.00     0.074 A 
ATOM     41  C   UNL     1      -0.727  10.386  -8.491  1.00  0.00     0.049 A 
ATOM     42  N   UNL     1       2.011  10.347 -10.152  1.00  0.00    -0.248 NA
ATOM     43  C   UNL     1       0.569   8.524 -10.287  1.00  0.00     0.031 C 
ATOM     44  C   UNL     1      -1.247  11.110  -9.664  1.00  0.00     0.029 A 
ATOM     45  N   UNL     1      -1.844  10.399  -7.698  1.00  0.00    -0.354 N 
ATOM     46  C   UNL     1       1.828  10.000 -11.488  1.00  0.00     0.074 A 
ATOM     47  C   UNL     1       1.091   8.743 -11.498  1.00  0.00     0.031 C 
ATOM     48  C   UNL     1      -2.267  11.901  -9.256  1.00  0.00     0.029 A 
ATOM     49  C   UNL     1      -2.504  11.632  -7.851  1.00  0.00     0.049 A 
ATOM     50  H   UNL     1      -2.137   9.663  -7.114  1.00  0.00     0.167 HD
ATOM     51  C   UNL     1       1.702  10.934 -12.487  1.00  0.00     0.037 A 
ATOM     52  C   UNL     1      -2.429  12.451  -6.755  1.00  0.00     0.037 A 
ATOM     53  C   UNL     1       1.266  12.238 -11.970  1.00  0.00     0.049 A 
ATOM     54  C   UNL     1      -1.187  13.394  -6.951  1.00  0.00     0.074 A 
ATOM     55  C   UNL     1       0.123  13.000 -12.178  1.00  0.00     0.029 A 
ATOM     56  N   UNL     1       1.884  12.803 -10.856  1.00  0.00    -0.354 N 
ATOM     57  N   UNL     1      -0.595  13.558  -8.111  1.00  0.00    -0.248 NA
ATOM     58  C   UNL     1      -0.491  14.184  -5.923  1.00  0.00     0.031 C 
ATOM     59  C   UNL     1       0.006  13.944 -11.129  1.00  0.00     0.029 A 
ATOM     60  C   UNL     1       1.069  13.757 -10.271  1.00  0.00     0.049 A 
ATOM     61  H   UNL     1       2.779  12.556 -10.530  1.00  0.00     0.167 HD
ATOM     62  C   UNL     1       0.580  14.263  -7.982  1.00  0.00     0.074 A 
ATOM     63  C   UNL     1       0.557  14.703  -6.602  1.00  0.00     0.031 C 
ATOM     64  C   UNL     1       1.467  14.396  -9.023  1.00  0.00     0.037 A 
BRANCH  51  65
ATOM     65  C   UNL     1       1.661  10.521 -13.956  1.00  0.00     0.058 A 
ATOM     66  C   UNL     1       1.095  11.317 -14.973  1.00  0.00     0.135 A 
ATOM     67  C   UNL     1       2.313   9.351 -14.420  1.00  0.00     0.135 A 
ATOM     68  F   UNL     1       0.513  12.493 -14.716  1.00  0.00    -0.206 F 
ATOM     69  C   UNL     1       1.122  10.963 -16.325  1.00  0.00     0.059 A 
ATOM     70  C   UNL     1       2.344   8.971 -15.768  1.00  0.00     0.059 A 
ATOM     71  F   UNL     1       2.967   8.546 -13.566  1.00  0.00    -0.206 F 
ATOM     72  C   UNL     1       1.749   9.790 -16.717  1.00  0.00     0.060 A 
BRANCH  72  73
ATOM     73  S   UNL     1       1.807   9.394 -18.475  1.00  0.00     0.124 S 
ATOM     74  O   UNL     1       0.392   9.406 -18.840  1.00  0.00    -0.237 OA
ATOM     75  O   UNL     1       2.606  10.494 -19.008  1.00  0.00    -0.237 OA
ATOM     76  O   UNL     1       2.447   8.082 -18.510  1.00  0.00    -0.744 OA
ENDBRANCH  72  73
ENDBRANCH  51  65
BRANCH  52  77
ATOM     77  C   UNL     1      -2.788  11.560  -5.520  1.00  0.00     0.058 A 
ATOM     78  C   UNL     1      -3.844  10.647  -5.626  1.00  0.00     0.135 A 
ATOM     79  C   UNL     1      -1.762  10.925  -4.914  1.00  0.00     0.135 A 
ATOM     80  F   UNL     1      -5.066  11.114  -5.931  1.00  0.00    -0.206 F 
ATOM     81  C   UNL     1      -3.672   9.149  -5.582  1.00  0.00     0.059 A 
ATOM     82  C   UNL     1      -1.636   9.462  -5.130  1.00  0.00     0.059 A 
ATOM     83  F   UNL     1      -0.649  11.633  -4.666  1.00  0.00    -0.206 F 
ATOM     84  C   UNL     1      -2.424   8.333  -5.406  1.00  0.00     0.060 A 
BRANCH  84  85
ATOM     85  S   UNL     1      -1.947   6.133  -4.608  1.00  0.00     0.124 S 
ATOM     86  O   UNL     1      -2.863   5.653  -3.561  1.00  0.00    -0.237 OA
ATOM     87  O   UNL     1      -2.027   5.211  -5.725  1.00  0.00    -0.237 OA
ATOM     88  O   UNL     1      -0.653   6.052  -3.943  1.00  0.00    -0.744 OA
ENDBRANCH  84  85
ENDBRANCH  52  77
BRANCH  64  89
ATOM     89  C   UNL     1       2.764  15.180  -9.060  1.00  0.00     0.058 A 
ATOM     90  C   UNL     1       3.681  15.293  -8.008  1.00  0.00     0.135 A 
ATOM     91  C   UNL     1       3.165  15.772 -10.290  1.00  0.00     0.135 A 
ATOM     92  F   UNL     1       3.449  14.703  -6.827  1.00  0.00    -0.206 F 
ATOM     93  C   UNL     1       4.887  15.998  -8.148  1.00  0.00     0.059 A 
ATOM     94  C   UNL     1       4.375  16.434 -10.464  1.00  0.00     0.059 A 
ATOM     95  F   UNL     1       2.377  15.730 -11.375  1.00  0.00    -0.206 F 
ATOM     96  C   UNL     1       5.218  16.576  -9.376  1.00  0.00     0.060 A 
BRANCH  96  97
ATOM     97  S   UNL     1       6.747  17.514  -9.569  1.00  0.00     0.124 S 
ATOM     98  O   UNL     1       6.319  18.848  -9.161  1.00  0.00    -0.237 OA
ATOM     99  O   UNL     1       7.661  16.835  -8.655  1.00  0.00    -0.237 OA
ATOM    100  O   UNL     1       7.061  17.360 -10.987  1.00  0.00    -0.744 OA
ENDBRANCH  96  97
ENDBRANCH  64  89
ENDBRANCH  38  39
ENDBRANCH  31  33
ENDBRANCH  30  31
ENDBRANCH  29  30
ENDBRANCH   1  29
TORSDOF 17
