REMARK SMILES O=C(OCCOC(=O)c1ccc(S(=O)(=O)Cc2cnoc2)c(F)c1)c1ccc(-c2c3nc(c(-c4c(F)cc(S(=O)(=O)[O-])cc4F)c4ccc([nH]4)c(-c4c(F)cc(S(=O)(=O)[O-])cc4F)c4nc(c(-c5c(F)cc(S(=O)(=O)[O-])cc5F)c5ccc2[nH]5)C=C4)C=C3)cc1
REMARK SMILES IDX 4 1 3 2 2 3 1 4 25 5 26 6 90 7 27 8 89 9 28 10 29 11 30 12
REMARK SMILES IDX 83 13 31 14 88 15 82 16 84 17 32 18 87 19 81 20 80 21 33 23
REMARK SMILES IDX 67 24 46 25 66 26 47 27 50 28 65 29 85 30 48 31 49 32 64 34
REMARK SMILES IDX 86 35 51 36 34 37 35 38 44 39 36 40 37 41 43 42 45 43 38 44
REMARK SMILES IDX 39 45 40 46 41 47 42 48 68 49 69 50 78 51 70 52 71 53 77 54
REMARK SMILES IDX 79 55 72 56 73 57 74 58 75 59 76 60 52 61 53 62 62 63 54 64
REMARK SMILES IDX 55 65 61 66 63 67 56 68 57 69 58 70 59 71 60 72 5 73 6 74
REMARK SMILES IDX 7 75 8 76 9 77 10 78 24 79 11 80 22 81 12 82 23 83 13 84
REMARK SMILES IDX 14 85 15 86 16 87 17 88 18 89 21 90 19 91 20 92
REMARK H PARENT 84 22 50 33
REMARK Flexibility Score: inf
ROOT
ATOM      1  C   UNL     1       4.194  -1.210  -1.005  1.00  0.00     0.275 C 
ENDROOT
BRANCH   1   2
ATOM      2  O   UNL     1       3.113  -1.047  -0.071  1.00  0.00    -0.458 OA
BRANCH   2   3
ATOM      3  C   UNL     1       3.089  -0.291   1.053  1.00  0.00     0.338 C 
ATOM      4  O   UNL     1       2.306  -0.589   1.954  1.00  0.00    -0.246 OA
BRANCH   3   5
ATOM      5  C   UNL     1       3.798   1.024   1.154  1.00  0.00     0.060 A 
ATOM      6  C   UNL     1       5.065   1.318   0.648  1.00  0.00     0.016 A 
ATOM      7  C   UNL     1       3.112   2.042   1.844  1.00  0.00     0.016 A 
ATOM      8  C   UNL     1       5.603   2.603   0.761  1.00  0.00     0.010 A 
ATOM      9  C   UNL     1       3.633   3.335   1.938  1.00  0.00     0.010 A 
ATOM     10  C   UNL     1       4.890   3.619   1.400  1.00  0.00    -0.014 A 
BRANCH  10  11
ATOM     11  C   UNL     1       5.537   4.928   1.639  1.00  0.00     0.031 A 
ATOM     12  C   UNL     1       6.068   5.221   3.010  1.00  0.00     0.074 A 
ATOM     13  C   UNL     1       5.698   5.807   0.633  1.00  0.00     0.049 A 
ATOM     14  N   UNL     1       6.733   6.262   3.433  1.00  0.00    -0.248 NA
ATOM     15  C   UNL     1       5.839   4.191   4.039  1.00  0.00     0.031 C 
ATOM     16  C   UNL     1       5.265   5.596  -0.747  1.00  0.00     0.029 A 
ATOM     17  N   UNL     1       6.268   7.053   0.616  1.00  0.00    -0.354 N 
ATOM     18  C   UNL     1       7.036   5.995   4.761  1.00  0.00     0.074 A 
ATOM     19  C   UNL     1       6.418   4.733   5.098  1.00  0.00     0.031 C 
ATOM     20  C   UNL     1       5.554   6.689  -1.472  1.00  0.00     0.029 A 
ATOM     21  C   UNL     1       6.197   7.675  -0.608  1.00  0.00     0.049 A 
ATOM     22  H   UNL     1       6.689   7.464   1.405  1.00  0.00     0.167 HD
ATOM     23  C   UNL     1       7.801   6.717   5.611  1.00  0.00     0.037 A 
ATOM     24  C   UNL     1       6.612   8.901  -0.985  1.00  0.00     0.037 A 
ATOM     25  C   UNL     1       8.380   7.987   5.275  1.00  0.00     0.049 A 
ATOM     26  C   UNL     1       7.346   9.752   0.014  1.00  0.00     0.074 A 
ATOM     27  C   UNL     1       9.148   8.822   6.063  1.00  0.00     0.029 A 
ATOM     28  N   UNL     1       8.238   8.611   4.042  1.00  0.00    -0.354 N 
ATOM     29  N   UNL     1       7.659   9.472   1.258  1.00  0.00    -0.248 NA
ATOM     30  C   UNL     1       7.807  11.070  -0.441  1.00  0.00     0.031 C 
ATOM     31  C   UNL     1       9.442   9.970   5.317  1.00  0.00     0.029 A 
ATOM     32  C   UNL     1       8.891   9.830   4.051  1.00  0.00     0.049 A 
ATOM     33  H   UNL     1       7.745   8.241   3.275  1.00  0.00     0.167 HD
ATOM     34  C   UNL     1       8.388  10.560   1.723  1.00  0.00     0.074 A 
ATOM     35  C   UNL     1       8.461  11.508   0.629  1.00  0.00     0.031 C 
ATOM     36  C   UNL     1       8.957  10.749   2.939  1.00  0.00     0.037 A 
BRANCH  23  37
ATOM     37  C   UNL     1       8.033   6.127   6.971  1.00  0.00     0.058 A 
ATOM     38  C   UNL     1       7.381   6.640   8.101  1.00  0.00     0.135 A 
ATOM     39  C   UNL     1       8.861   5.004   7.143  1.00  0.00     0.135 A 
ATOM     40  F   UNL     1       6.569   7.702   7.991  1.00  0.00    -0.206 F 
ATOM     41  C   UNL     1       7.526   6.049   9.352  1.00  0.00     0.059 A 
ATOM     42  C   UNL     1       9.003   4.384   8.380  1.00  0.00     0.059 A 
ATOM     43  F   UNL     1       9.481   4.455   6.085  1.00  0.00    -0.206 F 
ATOM     44  C   UNL     1       8.331   4.914   9.480  1.00  0.00     0.060 A 
BRANCH  44  45
ATOM     45  S   UNL     1       8.415   4.087  11.083  1.00  0.00     0.124 S 
ATOM     46  O   UNL     1       9.275   4.989  11.840  1.00  0.00    -0.237 OA
ATOM     47  O   UNL     1       7.013   4.053  11.487  1.00  0.00    -0.237 OA
ATOM     48  O   UNL     1       8.993   2.785  10.759  1.00  0.00    -0.744 OA
ENDBRANCH  44  45
ENDBRANCH  23  37
BRANCH  24  49
ATOM     49  C   UNL     1       6.380   9.356  -2.381  1.00  0.00     0.058 A 
ATOM     50  C   UNL     1       5.092   9.685  -2.832  1.00  0.00     0.135 A 
ATOM     51  C   UNL     1       7.429   9.410  -3.310  1.00  0.00     0.135 A 
ATOM     52  F   UNL     1       4.052   9.643  -1.986  1.00  0.00    -0.206 F 
ATOM     53  C   UNL     1       4.847  10.021  -4.160  1.00  0.00     0.059 A 
ATOM     54  C   UNL     1       7.212   9.760  -4.641  1.00  0.00     0.059 A 
ATOM     55  F   UNL     1       8.680   9.113  -2.925  1.00  0.00    -0.206 F 
ATOM     56  C   UNL     1       5.913  10.044  -5.061  1.00  0.00     0.060 A 
BRANCH  56  57
ATOM     57  S   UNL     1       5.565  10.422  -6.793  1.00  0.00     0.124 S 
ATOM     58  O   UNL     1       4.774   9.262  -7.191  1.00  0.00    -0.237 OA
ATOM     59  O   UNL     1       4.839  11.684  -6.691  1.00  0.00    -0.237 OA
ATOM     60  O   UNL     1       6.893  10.511  -7.393  1.00  0.00    -0.744 OA
ENDBRANCH  56  57
ENDBRANCH  24  49
BRANCH  36  61
ATOM     61  C   UNL     1       9.744  12.009   3.150  1.00  0.00     0.058 A 
ATOM     62  C   UNL     1      11.145  11.960   3.234  1.00  0.00     0.135 A 
ATOM     63  C   UNL     1       9.111  13.240   3.377  1.00  0.00     0.135 A 
ATOM     64  F   UNL     1      11.794  10.803   3.027  1.00  0.00    -0.206 F 
ATOM     65  C   UNL     1      11.891  13.083   3.565  1.00  0.00     0.059 A 
ATOM     66  C   UNL     1       9.841  14.383   3.689  1.00  0.00     0.059 A 
ATOM     67  F   UNL     1       7.775  13.338   3.296  1.00  0.00    -0.206 F 
ATOM     68  C   UNL     1      11.229  14.289   3.802  1.00  0.00     0.060 A 
BRANCH  68  69
ATOM     69  S   UNL     1      12.210  15.735   4.251  1.00  0.00     0.124 S 
ATOM     70  O   UNL     1      12.585  15.424   5.627  1.00  0.00    -0.237 OA
ATOM     71  O   UNL     1      13.293  15.692   3.273  1.00  0.00    -0.237 OA
ATOM     72  O   UNL     1      11.273  16.843   4.090  1.00  0.00    -0.744 OA
ENDBRANCH  68  69
ENDBRANCH  36  61
ENDBRANCH  10  11
ENDBRANCH   3   5
ENDBRANCH   2   3
ENDBRANCH   1   2
BRANCH   1  73
ATOM     73  C   UNL     1       4.027  -0.392  -2.288  1.00  0.00     0.275 C 
BRANCH  73  74
ATOM     74  O   UNL     1       3.556   0.943  -2.046  1.00  0.00    -0.458 OA
BRANCH  74  75
ATOM     75  C   UNL     1       2.223   1.120  -2.232  1.00  0.00     0.338 C 
ATOM     76  O   UNL     1       1.410   0.298  -2.619  1.00  0.00    -0.246 OA
BRANCH  75  77
ATOM     77  C   UNL     1       1.842   2.442  -1.714  1.00  0.00     0.063 A 
ATOM     78  C   UNL     1       2.281   3.629  -2.305  1.00  0.00     0.017 A 
ATOM     79  C   UNL     1       1.045   2.472  -0.570  1.00  0.00     0.056 A 
ATOM     80  C   UNL     1       1.918   4.855  -1.732  1.00  0.00     0.024 A 
ATOM     81  C   UNL     1       0.762   3.691   0.035  1.00  0.00     0.142 A 
ATOM     82  C   UNL     1       1.169   4.881  -0.545  1.00  0.00     0.103 A 
ATOM     83  F   UNL     1       0.175   3.658   1.235  1.00  0.00    -0.206 F 
BRANCH  82  84
ATOM     84  S   UNL     1       0.822   6.445   0.198  1.00  0.00     0.185 S 
ATOM     85  O   UNL     1       2.020   6.789   0.938  1.00  0.00    -0.223 OA
ATOM     86  O   UNL     1       0.336   7.299  -0.872  1.00  0.00    -0.223 OA
BRANCH  84  87
ATOM     87  C   UNL     1      -0.495   6.294   1.387  1.00  0.00     0.183 C 
BRANCH  87  88
ATOM     88  C   UNL     1      -1.795   5.811   0.854  1.00  0.00     0.027 A 
ATOM     89  C   UNL     1      -2.686   6.474  -0.021  1.00  0.00     0.162 A 
ATOM     90  C   UNL     1      -2.445   4.628   1.121  1.00  0.00     0.235 A 
ATOM     91  N   UNL     1      -3.776   5.748  -0.277  1.00  0.00    -0.088 NA
ATOM     92  O   UNL     1      -3.616   4.578   0.443  1.00  0.00    -0.364 OA
ENDBRANCH  87  88
ENDBRANCH  84  87
ENDBRANCH  82  84
ENDBRANCH  75  77
ENDBRANCH  74  75
ENDBRANCH  73  74
ENDBRANCH   1  73
TORSDOF 17
