REMARK SMILES CSCc1ccc(C(=O)N[C@H]2C=C[C@@H](C(=O)OCCOC(=O)c3ccc(-c4c5nc(c(-c6c(F)cc(S(=O)(=O)[O-])cc6F)c6ccc([nH]6)c(-c6c(F)cc(S(=O)(=O)[O-])cc6F)c6nc(c(-c7c(F)cc(S(=O)(=O)[O-])cc7F)c7ccc4[nH]7)C=C6)C=C5)cc3)C2)o1
REMARK SMILES IDX 18 1 17 2 15 3 16 4 14 5 11 6 12 7 89 8 13 9 10 10 8 11 9 12
REMARK SMILES IDX 7 14 4 15 5 16 90 17 6 18 3 19 2 20 1 21 19 22 20 23 21 24
REMARK SMILES IDX 22 25 23 26 24 27 88 28 25 29 87 30 26 31 27 32 28 33 81 34
REMARK SMILES IDX 29 35 86 36 80 37 82 38 30 39 85 40 79 41 78 42 31 44 65 45
REMARK SMILES IDX 44 46 64 47 45 48 48 49 63 50 83 51 46 52 47 53 62 55 84 56
REMARK SMILES IDX 49 57 32 58 33 59 42 60 34 61 35 62 41 63 43 64 36 65 37 66
REMARK SMILES IDX 38 67 39 68 40 69 66 70 67 71 76 72 68 73 69 74 75 75 77 76
REMARK SMILES IDX 70 77 71 78 72 79 73 80 74 81 50 82 51 83 60 84 52 85 53 86
REMARK SMILES IDX 59 87 61 88 54 89 55 90 56 91 57 92 58 93
REMARK H PARENT 10 13 82 43 48 54
REMARK Flexibility Score: inf
ROOT
ATOM      1  C   UNL     1       1.053  -8.525   8.571  1.00  0.00     0.274 C 
ENDROOT
BRANCH   1   2
ATOM      2  O   UNL     1       0.733  -7.567   7.548  1.00  0.00    -0.462 OA
BRANCH   2   3
ATOM      3  C   UNL     1       1.719  -7.308   6.656  1.00  0.00     0.312 C 
ATOM      4  O   UNL     1       2.867  -7.732   6.741  1.00  0.00    -0.252 OA
BRANCH   3   5
ATOM      5  C   UNL     1       1.269  -6.431   5.506  1.00  0.00     0.124 C 
ATOM      6  C   UNL     1      -0.214  -4.765   4.628  1.00  0.00     0.106 C 
ATOM      7  C   UNL     1       1.045  -4.142   5.150  1.00  0.00    -0.006 C 
ATOM      8  C   UNL     1      -0.222  -6.102   5.373  1.00  0.00     0.048 C 
ATOM      9  C   UNL     1       1.886  -5.071   5.612  1.00  0.00    -0.014 C 
BRANCH   6  10
ATOM     10  N   UNL     1      -1.355  -3.925   4.875  1.00  0.00    -0.343 N 
ATOM     11  C   UNL     1      -1.642  -2.688   4.330  1.00  0.00     0.287 C 
ATOM     12  O   UNL     1      -2.681  -2.141   4.703  1.00  0.00    -0.266 OA
ATOM     13  H   UNL     1      -2.016  -4.277   5.515  1.00  0.00     0.164 HD
BRANCH  11  14
ATOM     14  C   UNL     1      -0.691  -2.069   3.421  1.00  0.00     0.191 A 
ATOM     15  C   UNL     1       0.509  -0.366   2.679  1.00  0.00     0.114 A 
ATOM     16  C   UNL     1       1.012  -1.492   2.069  1.00  0.00     0.047 A 
ATOM     17  O   UNL     1      -0.519  -0.708   3.509  1.00  0.00    -0.455 OA
ATOM     18  C   UNL     1       0.175  -2.557   2.456  1.00  0.00     0.056 A 
BRANCH  15  19
ATOM     19  C   UNL     1       0.882   1.067   2.615  1.00  0.00     0.144 C 
BRANCH  19  20
ATOM     20  S   UNL     1       0.240   1.902   1.122  1.00  0.00    -0.157 SA
ATOM     21  C   UNL     1       0.928   0.837  -0.173  1.00  0.00     0.085 C 
ENDBRANCH  19  20
ENDBRANCH  15  19
ENDBRANCH  11  14
ENDBRANCH   6  10
ENDBRANCH   3   5
ENDBRANCH   2   3
ENDBRANCH   1   2
BRANCH   1  22
ATOM     22  C   UNL     1       0.468  -9.898   8.229  1.00  0.00     0.275 C 
BRANCH  22  23
ATOM     23  O   UNL     1       1.123 -10.510   7.100  1.00  0.00    -0.458 OA
BRANCH  23  24
ATOM     24  C   UNL     1       0.600 -10.209   5.887  1.00  0.00     0.338 C 
ATOM     25  O   UNL     1      -0.349  -9.480   5.654  1.00  0.00    -0.246 OA
BRANCH  24  26
ATOM     26  C   UNL     1       1.440 -10.784   4.825  1.00  0.00     0.060 A 
ATOM     27  C   UNL     1       2.077  -9.907   3.944  1.00  0.00     0.016 A 
ATOM     28  C   UNL     1       1.549 -12.163   4.650  1.00  0.00     0.016 A 
ATOM     29  C   UNL     1       2.826 -10.398   2.882  1.00  0.00     0.010 A 
ATOM     30  C   UNL     1       2.317 -12.658   3.590  1.00  0.00     0.010 A 
ATOM     31  C   UNL     1       2.961 -11.778   2.701  1.00  0.00    -0.014 A 
BRANCH  31  32
ATOM     32  C   UNL     1       3.791 -12.296   1.588  1.00  0.00     0.031 A 
ATOM     33  C   UNL     1       3.143 -12.973   0.416  1.00  0.00     0.074 A 
ATOM     34  C   UNL     1       5.129 -12.149   1.639  1.00  0.00     0.049 A 
ATOM     35  N   UNL     1       3.702 -13.606  -0.581  1.00  0.00    -0.248 NA
ATOM     36  C   UNL     1       1.673 -12.934   0.360  1.00  0.00     0.031 C 
ATOM     37  C   UNL     1       5.862 -11.462   2.705  1.00  0.00     0.029 A 
ATOM     38  N   UNL     1       6.110 -12.575   0.781  1.00  0.00    -0.354 N 
ATOM     39  C   UNL     1       2.656 -14.067  -1.371  1.00  0.00     0.074 A 
ATOM     40  C   UNL     1       1.427 -13.643  -0.734  1.00  0.00     0.031 C 
ATOM     41  C   UNL     1       7.177 -11.518   2.439  1.00  0.00     0.029 A 
ATOM     42  C   UNL     1       7.382 -12.296   1.222  1.00  0.00     0.049 A 
ATOM     43  H   UNL     1       5.923 -13.036  -0.069  1.00  0.00     0.167 HD
ATOM     44  C   UNL     1       2.723 -14.781  -2.519  1.00  0.00     0.037 A 
ATOM     45  C   UNL     1       8.579 -12.666   0.728  1.00  0.00     0.037 A 
ATOM     46  C   UNL     1       3.955 -15.178  -3.151  1.00  0.00     0.049 A 
ATOM     47  C   UNL     1       8.625 -13.517  -0.510  1.00  0.00     0.074 A 
ATOM     48  C   UNL     1       4.130 -15.883  -4.329  1.00  0.00     0.029 A 
ATOM     49  N   UNL     1       5.222 -14.909  -2.654  1.00  0.00    -0.354 N 
ATOM     50  N   UNL     1       7.629 -13.957  -1.241  1.00  0.00    -0.248 NA
ATOM     51  C   UNL     1       9.951 -13.938  -0.979  1.00  0.00     0.031 C 
ATOM     52  C   UNL     1       5.503 -16.075  -4.523  1.00  0.00     0.029 A 
ATOM     53  C   UNL     1       6.184 -15.457  -3.486  1.00  0.00     0.049 A 
ATOM     54  H   UNL     1       5.410 -14.404  -1.830  1.00  0.00     0.167 HD
ATOM     55  C   UNL     1       8.208 -14.703  -2.261  1.00  0.00     0.074 A 
ATOM     56  C   UNL     1       9.642 -14.639  -2.063  1.00  0.00     0.031 C 
ATOM     57  C   UNL     1       7.607 -15.384  -3.267  1.00  0.00     0.037 A 
BRANCH  44  58
ATOM     58  C   UNL     1       1.429 -15.210  -3.151  1.00  0.00     0.058 A 
ATOM     59  C   UNL     1       0.606 -14.308  -3.841  1.00  0.00     0.135 A 
ATOM     60  C   UNL     1       1.028 -16.555  -3.097  1.00  0.00     0.135 A 
ATOM     61  F   UNL     1       0.934 -13.008  -3.908  1.00  0.00    -0.206 F 
ATOM     62  C   UNL     1      -0.582 -14.720  -4.439  1.00  0.00     0.059 A 
ATOM     63  C   UNL     1      -0.144 -16.994  -3.705  1.00  0.00     0.059 A 
ATOM     64  F   UNL     1       1.778 -17.458  -2.446  1.00  0.00    -0.206 F 
ATOM     65  C   UNL     1      -0.949 -16.066  -4.364  1.00  0.00     0.060 A 
BRANCH  65  66
ATOM     66  S   UNL     1      -2.490 -16.587  -5.147  1.00  0.00     0.124 S 
ATOM     67  O   UNL     1      -3.482 -16.055  -4.217  1.00  0.00    -0.237 OA
ATOM     68  O   UNL     1      -2.421 -15.925  -6.446  1.00  0.00    -0.237 OA
ATOM     69  O   UNL     1      -2.379 -18.042  -5.181  1.00  0.00    -0.744 OA
ENDBRANCH  65  66
ENDBRANCH  44  58
BRANCH  45  70
ATOM     70  C   UNL     1       9.825 -12.277   1.439  1.00  0.00     0.058 A 
ATOM     71  C   UNL     1      10.707 -11.334   0.894  1.00  0.00     0.135 A 
ATOM     72  C   UNL     1      10.146 -12.827   2.691  1.00  0.00     0.135 A 
ATOM     73  F   UNL     1      10.448 -10.787  -0.304  1.00  0.00    -0.206 F 
ATOM     74  C   UNL     1      11.867 -10.953   1.560  1.00  0.00     0.059 A 
ATOM     75  C   UNL     1      11.287 -12.444   3.387  1.00  0.00     0.059 A 
ATOM     76  F   UNL     1       9.328 -13.726   3.260  1.00  0.00    -0.206 F 
ATOM     77  C   UNL     1      12.147 -11.512   2.809  1.00  0.00     0.060 A 
BRANCH  77  78
ATOM     78  S   UNL     1      13.625 -10.970   3.694  1.00  0.00     0.124 S 
ATOM     79  O   UNL     1      14.674 -11.683   2.976  1.00  0.00    -0.237 OA
ATOM     80  O   UNL     1      13.588  -9.524   3.502  1.00  0.00    -0.237 OA
ATOM     81  O   UNL     1      13.377 -11.418   5.062  1.00  0.00    -0.744 OA
ENDBRANCH  77  78
ENDBRANCH  45  70
BRANCH  57  82
ATOM     82  C   UNL     1       8.498 -16.108  -4.235  1.00  0.00     0.058 A 
ATOM     83  C   UNL     1       9.117 -17.319  -3.891  1.00  0.00     0.135 A 
ATOM     84  C   UNL     1       8.685 -15.617  -5.537  1.00  0.00     0.135 A 
ATOM     85  F   UNL     1       8.976 -17.823  -2.655  1.00  0.00    -0.206 F 
ATOM     86  C   UNL     1       9.902 -18.016  -4.804  1.00  0.00     0.059 A 
ATOM     87  C   UNL     1       9.448 -16.308  -6.472  1.00  0.00     0.059 A 
ATOM     88  F   UNL     1       8.108 -14.466  -5.915  1.00  0.00    -0.206 F 
ATOM     89  C   UNL     1      10.058 -17.504  -6.093  1.00  0.00     0.060 A 
BRANCH  89  90
ATOM     90  S   UNL     1      11.037 -18.443  -7.285  1.00  0.00     0.124 S 
ATOM     91  O   UNL     1      12.396 -18.165  -6.831  1.00  0.00    -0.237 OA
ATOM     92  O   UNL     1      10.565 -19.807  -7.074  1.00  0.00    -0.237 OA
ATOM     93  O   UNL     1      10.670 -17.850  -8.567  1.00  0.00    -0.744 OA
ENDBRANCH  89  90
ENDBRANCH  57  82
ENDBRANCH  31  32
ENDBRANCH  24  26
ENDBRANCH  23  24
ENDBRANCH  22  23
ENDBRANCH   1  22
TORSDOF 18
