REMARK SMILES COc1cc([C@H]2CC(c3ccc(S(C)(=O)=O)cc3)=NN2c2ccc(C(=O)OCCOC(=O)c3ccc(-c4c5nc(c(-c6c(F)cc(S(=O)(=O)[O-])cc6F)c6ccc([nH]6)c(-c6c(F)cc(S(=O)(=O)[O-])cc6F)c6nc(c(-c7c(F)cc(S(=O)(=O)[O-])cc7F)c7ccc4[nH]7)C=C6)C=C5)cc3)cc2)cc(OC)c1OC
REMARK SMILES IDX 28 1 27 2 25 3 26 4 24 5 21 6 22 7 100 8 23 9 99 10 20 11
REMARK SMILES IDX 6 12 7 13 8 14 19 15 5 16 3 17 4 18 105 19 102 20 101 21
REMARK SMILES IDX 2 22 1 23 106 24 107 25 103 26 104 27 9 28 10 29 18 30 11 31
REMARK SMILES IDX 17 32 12 33 13 34 14 35 15 36 16 37 29 38 30 39 31 40 32 41
REMARK SMILES IDX 33 42 34 43 98 44 35 45 97 46 36 47 37 48 38 49 91 50 39 51
REMARK SMILES IDX 96 52 90 53 92 54 40 55 95 56 89 57 88 58 41 60 75 61 54 62
REMARK SMILES IDX 74 63 55 64 58 65 73 66 93 67 56 68 57 69 72 71 94 72 59 73
REMARK SMILES IDX 42 74 43 75 52 76 44 77 45 78 51 79 53 80 46 81 47 82 48 83
REMARK SMILES IDX 49 84 50 85 76 86 77 87 86 88 78 89 79 90 85 91 87 92 80 93
REMARK SMILES IDX 81 94 82 95 83 96 84 97 60 98 61 99 70 100 62 101 63 102
REMARK SMILES IDX 69 103 71 104 64 105 65 106 66 107 67 108 68 109
REMARK H PARENT 92 59 58 70
REMARK Flexibility Score: inf
ROOT
ATOM      1  C   UNL     1       0.000   7.221  -7.119  1.00  0.00     0.275 C 
ENDROOT
BRANCH   1   2
ATOM      2  O   UNL     1      -0.369   7.210  -5.723  1.00  0.00    -0.458 OA
BRANCH   2   3
ATOM      3  C   UNL     1       0.667   7.029  -4.866  1.00  0.00     0.338 C 
ATOM      4  O   UNL     1       1.837   6.882  -5.172  1.00  0.00    -0.246 OA
BRANCH   3   5
ATOM      5  C   UNL     1       0.226   7.065  -3.454  1.00  0.00     0.060 A 
ATOM      6  C   UNL     1      -0.258   6.918  -0.673  1.00  0.00     0.060 A 
ATOM      7  C   UNL     1       0.678   7.813  -1.198  1.00  0.00     0.029 A 
ATOM      8  C   UNL     1      -0.994   6.140  -1.579  1.00  0.00     0.029 A 
ATOM      9  C   UNL     1       0.937   7.865  -2.562  1.00  0.00     0.018 A 
ATOM     10  C   UNL     1      -0.770   6.220  -2.966  1.00  0.00     0.018 A 
BRANCH   6  11
ATOM     11  N   UNL     1      -0.409   6.846   0.701  1.00  0.00    -0.257 N 
ATOM     12  C   UNL     1      -0.600   5.641   1.507  1.00  0.00     0.144 C 
ATOM     13  C   UNL     1      -0.597   6.204   2.947  1.00  0.00     0.091 C 
ATOM     14  C   UNL     1      -0.475   7.676   2.667  1.00  0.00     0.071 C 
ATOM     15  N   UNL     1      -0.371   8.002   1.421  1.00  0.00    -0.176 NA
BRANCH  12  16
ATOM     16  C   UNL     1       0.458   4.567   1.260  1.00  0.00    -0.015 A 
ATOM     17  C   UNL     1       1.121   2.404   0.308  1.00  0.00     0.164 A 
ATOM     18  C   UNL     1       0.150   3.401   0.541  1.00  0.00     0.056 A 
ATOM     19  C   UNL     1       2.438   2.541   0.787  1.00  0.00     0.203 A 
ATOM     20  C   UNL     1       2.758   3.717   1.494  1.00  0.00     0.164 A 
ATOM     21  C   UNL     1       1.779   4.710   1.702  1.00  0.00     0.056 A 
BRANCH  17  22
ATOM     22  O   UNL     1       0.769   1.372  -0.528  1.00  0.00    -0.493 OA
ATOM     23  C   UNL     1      -0.038   0.392   0.122  1.00  0.00     0.278 C 
ENDBRANCH  17  22
BRANCH  19  24
ATOM     24  O   UNL     1       3.457   1.651   0.591  1.00  0.00    -0.490 OA
ATOM     25  C   UNL     1       3.200   0.315   0.202  1.00  0.00     0.278 C 
ENDBRANCH  19  24
BRANCH  20  26
ATOM     26  O   UNL     1       3.956   4.072   2.066  1.00  0.00    -0.493 OA
ATOM     27  C   UNL     1       5.104   3.264   1.851  1.00  0.00     0.278 C 
ENDBRANCH  20  26
ENDBRANCH  12  16
BRANCH  14  28
ATOM     28  C   UNL     1      -0.530   8.682   3.739  1.00  0.00    -0.002 A 
ATOM     29  C   UNL     1      -1.486   9.702   3.651  1.00  0.00     0.011 A 
ATOM     30  C   UNL     1       0.362   8.635   4.813  1.00  0.00     0.011 A 
ATOM     31  C   UNL     1      -1.583  10.658   4.665  1.00  0.00     0.021 A 
ATOM     32  C   UNL     1       0.285   9.607   5.817  1.00  0.00     0.021 A 
ATOM     33  C   UNL     1      -0.693  10.607   5.743  1.00  0.00     0.067 A 
BRANCH  33  34
ATOM     34  S   UNL     1      -0.870  11.782   7.069  1.00  0.00     0.175 S 
ATOM     35  C   UNL     1      -0.516  13.357   6.334  1.00  0.00     0.163 C 
ATOM     36  O   UNL     1      -2.269  11.757   7.455  1.00  0.00    -0.224 OA
ATOM     37  O   UNL     1       0.166  11.500   8.045  1.00  0.00    -0.224 OA
ENDBRANCH  33  34
ENDBRANCH  14  28
ENDBRANCH   6  11
ENDBRANCH   3   5
ENDBRANCH   2   3
ENDBRANCH   1   2
BRANCH   1  38
ATOM     38  C   UNL     1       0.161   8.638  -7.675  1.00  0.00     0.275 C 
BRANCH  38  39
ATOM     39  O   UNL     1       1.323   9.293  -7.131  1.00  0.00    -0.458 OA
BRANCH  39  40
ATOM     40  C   UNL     1       1.055  10.202  -6.169  1.00  0.00     0.338 C 
ATOM     41  O   UNL     1      -0.045  10.523  -5.745  1.00  0.00    -0.246 OA
BRANCH  40  42
ATOM     42  C   UNL     1       2.291  10.764  -5.607  1.00  0.00     0.060 A 
ATOM     43  C   UNL     1       2.948  10.038  -4.624  1.00  0.00     0.016 A 
ATOM     44  C   UNL     1       2.639  12.092  -5.839  1.00  0.00     0.016 A 
ATOM     45  C   UNL     1       3.799  10.684  -3.732  1.00  0.00     0.010 A 
ATOM     46  C   UNL     1       3.626  12.694  -5.045  1.00  0.00     0.010 A 
ATOM     47  C   UNL     1       4.167  12.021  -3.933  1.00  0.00    -0.014 A 
BRANCH  47  48
ATOM     48  C   UNL     1       5.076  12.714  -2.966  1.00  0.00     0.031 A 
ATOM     49  C   UNL     1       4.670  14.031  -2.341  1.00  0.00     0.074 A 
ATOM     50  C   UNL     1       6.263  12.165  -2.628  1.00  0.00     0.049 A 
ATOM     51  N   UNL     1       5.386  14.873  -1.638  1.00  0.00    -0.248 NA
ATOM     52  C   UNL     1       3.280  14.470  -2.552  1.00  0.00     0.031 C 
ATOM     53  C   UNL     1       6.775  10.881  -3.113  1.00  0.00     0.029 A 
ATOM     54  N   UNL     1       7.257  12.614  -1.792  1.00  0.00    -0.354 N 
ATOM     55  C   UNL     1       4.560  15.963  -1.382  1.00  0.00     0.074 A 
ATOM     56  C   UNL     1       3.289  15.682  -2.015  1.00  0.00     0.031 C 
ATOM     57  C   UNL     1       7.956  10.624  -2.534  1.00  0.00     0.029 A 
ATOM     58  C   UNL     1       8.343  11.771  -1.724  1.00  0.00     0.049 A 
ATOM     59  H   UNL     1       7.198  13.459  -1.289  1.00  0.00     0.167 HD
ATOM     60  C   UNL     1       4.834  17.092  -0.681  1.00  0.00     0.037 A 
ATOM     61  C   UNL     1       9.541  11.916  -1.125  1.00  0.00     0.037 A 
ATOM     62  C   UNL     1       6.082  17.335  -0.000  1.00  0.00     0.049 A 
ATOM     63  C   UNL     1       9.832  13.184  -0.375  1.00  0.00     0.074 A 
ATOM     64  C   UNL     1       6.454  18.437   0.750  1.00  0.00     0.029 A 
ATOM     65  N   UNL     1       7.155  16.455   0.029  1.00  0.00    -0.354 N 
ATOM     66  N   UNL     1       9.059  14.229  -0.192  1.00  0.00    -0.248 NA
ATOM     67  C   UNL     1      11.159  13.299   0.241  1.00  0.00     0.031 C 
ATOM     68  C   UNL     1       7.766  18.244   1.196  1.00  0.00     0.029 A 
ATOM     69  C   UNL     1       8.191  16.995   0.775  1.00  0.00     0.049 A 
ATOM     70  H   UNL     1       7.178  15.577  -0.416  1.00  0.00     0.167 HD
ATOM     71  C   UNL     1       9.798  15.114   0.584  1.00  0.00     0.074 A 
ATOM     72  C   UNL     1      11.072  14.476   0.845  1.00  0.00     0.031 C 
ATOM     73  C   UNL     1       9.450  16.343   1.040  1.00  0.00     0.037 A 
BRANCH  60  74
ATOM     74  C   UNL     1       3.781  18.172  -0.639  1.00  0.00     0.058 A 
ATOM     75  C   UNL     1       2.585  18.027   0.082  1.00  0.00     0.135 A 
ATOM     76  C   UNL     1       3.996  19.393  -1.302  1.00  0.00     0.135 A 
ATOM     77  F   UNL     1       2.318  16.880   0.726  1.00  0.00    -0.206 F 
ATOM     78  C   UNL     1       1.627  19.038   0.116  1.00  0.00     0.059 A 
ATOM     79  C   UNL     1       3.067  20.429  -1.254  1.00  0.00     0.059 A 
ATOM     80  F   UNL     1       5.123  19.592  -2.003  1.00  0.00    -0.206 F 
ATOM     81  C   UNL     1       1.877  20.236  -0.556  1.00  0.00     0.060 A 
BRANCH  81  82
ATOM     82  S   UNL     1       0.628  21.538  -0.496  1.00  0.00     0.124 S 
ATOM     83  O   UNL     1      -0.408  20.987  -1.364  1.00  0.00    -0.237 OA
ATOM     84  O   UNL     1       0.300  21.591   0.925  1.00  0.00    -0.237 OA
ATOM     85  O   UNL     1       1.328  22.707  -1.019  1.00  0.00    -0.744 OA
ENDBRANCH  81  82
ENDBRANCH  60  74
BRANCH  61  86
ATOM     86  C   UNL     1      10.566  10.843  -1.248  1.00  0.00     0.058 A 
ATOM     87  C   UNL     1      10.957  10.082  -0.137  1.00  0.00     0.135 A 
ATOM     88  C   UNL     1      11.159  10.541  -2.486  1.00  0.00     0.135 A 
ATOM     89  F   UNL     1      10.428  10.336   1.069  1.00  0.00    -0.206 F 
ATOM     90  C   UNL     1      11.907   9.070  -0.244  1.00  0.00     0.059 A 
ATOM     91  C   UNL     1      12.085   9.513  -2.624  1.00  0.00     0.059 A 
ATOM     92  F   UNL     1      10.811  11.229  -3.585  1.00  0.00    -0.206 F 
ATOM     93  C   UNL     1      12.462   8.790  -1.494  1.00  0.00     0.060 A 
BRANCH  93  94
ATOM     94  S   UNL     1      13.658   7.445  -1.631  1.00  0.00     0.124 S 
ATOM     95  O   UNL     1      14.832   8.031  -0.994  1.00  0.00    -0.237 OA
ATOM     96  O   UNL     1      13.000   6.372  -0.892  1.00  0.00    -0.237 OA
ATOM     97  O   UNL     1      13.762   7.232  -3.071  1.00  0.00    -0.744 OA
ENDBRANCH  93  94
ENDBRANCH  61  86
BRANCH  73  98
ATOM     98  C   UNL     1      10.439  17.053   1.923  1.00  0.00     0.058 A 
ATOM     99  C   UNL     1      11.634  17.591   1.422  1.00  0.00     0.135 A 
ATOM    100  C   UNL     1      10.169  17.217   3.292  1.00  0.00     0.135 A 
ATOM    101  F   UNL     1      11.945  17.455   0.123  1.00  0.00    -0.206 F 
ATOM    102  C   UNL     1      12.544  18.237   2.253  1.00  0.00     0.059 A 
ATOM    103  C   UNL     1      11.049  17.887   4.135  1.00  0.00     0.059 A 
ATOM    104  F   UNL     1       9.034  16.731   3.821  1.00  0.00    -0.206 F 
ATOM    105  C   UNL     1      12.242  18.379   3.609  1.00  0.00     0.060 A 
BRANCH 105 106
ATOM    106  S   UNL     1      13.422  19.233   4.675  1.00  0.00     0.124 S 
ATOM    107  O   UNL     1      14.479  18.236   4.802  1.00  0.00    -0.237 OA
ATOM    108  O   UNL     1      13.757  20.415   3.886  1.00  0.00    -0.237 OA
ATOM    109  O   UNL     1      12.656  19.495   5.890  1.00  0.00    -0.744 OA
ENDBRANCH 105 106
ENDBRANCH  73  98
ENDBRANCH  47  48
ENDBRANCH  40  42
ENDBRANCH  39  40
ENDBRANCH  38  39
ENDBRANCH   1  38
TORSDOF 21
