REMARK SMILES Cc1cc(/C=C/C(=O)OCCOC(=O)c2ccc(-c3c4nc(c(-c5c(F)cc(S(=O)(=O)[O-])cc5F)c5ccc([nH]5)c(-c5c(F)cc(S(=O)(=O)[O-])cc5F)c5nc(c(-c6c(F)cc(S(=O)(=O)[O-])cc6F)c6ccc3[nH]6)C=C5)C=C4)cc2)ccc1O
REMARK SMILES IDX 11 1 10 2 9 3 7 4 8 5 6 6 5 7 4 8 1 9 2 10 3 11 83 12 82 13
REMARK SMILES IDX 81 14 84 15 12 17 13 18 14 19 15 20 16 21 80 22 17 23 79 24
REMARK SMILES IDX 18 25 19 26 20 27 73 28 21 29 78 30 72 31 74 32 22 33 77 34
REMARK SMILES IDX 71 35 70 36 23 38 57 39 36 40 56 41 37 42 40 43 55 44 75 45
REMARK SMILES IDX 38 46 39 47 54 49 76 50 41 51 24 52 25 53 34 54 26 55 27 56
REMARK SMILES IDX 33 57 35 58 28 59 29 60 30 61 31 62 32 63 58 64 59 65 68 66
REMARK SMILES IDX 60 67 61 68 67 69 69 70 62 71 63 72 64 73 65 74 66 75 42 76
REMARK SMILES IDX 43 77 52 78 44 79 45 80 51 81 53 82 46 83 47 84 48 85 49 86
REMARK SMILES IDX 50 87
REMARK H PARENT 84 16 74 37 40 48
REMARK Flexibility Score: inf
ROOT
ATOM      1  C   UNL     1       7.697  -2.677  -1.410  1.00  0.00     0.275 C 
ENDROOT
BRANCH   1   2
ATOM      2  C   UNL     1       7.044  -3.169  -0.115  1.00  0.00     0.275 C 
BRANCH   2   3
ATOM      3  O   UNL     1       5.704  -2.664   0.027  1.00  0.00    -0.459 OA
BRANCH   3   4
ATOM      4  C   UNL     1       5.558  -1.624   0.883  1.00  0.00     0.330 C 
ATOM      5  O   UNL     1       6.433  -1.148   1.591  1.00  0.00    -0.247 OA
BRANCH   4   6
ATOM      6  C   UNL     1       4.200  -1.047   0.859  1.00  0.00     0.094 C 
ATOM      7  C   UNL     1       3.185  -1.455   0.082  1.00  0.00     0.015 C 
BRANCH   7   8
ATOM      8  C   UNL     1       1.888  -0.762   0.060  1.00  0.00    -0.025 A 
ATOM      9  C   UNL     1      -1.808  -1.705  -0.001  1.00  0.00     0.048 C 
ATOM     10  C   UNL     1      -0.559  -0.873   0.001  1.00  0.00    -0.009 A 
ATOM     11  C   UNL     1       0.698  -1.505   0.045  1.00  0.00     0.015 A 
ATOM     12  C   UNL     1      -0.600   0.526  -0.038  1.00  0.00     0.118 A 
ATOM     13  C   UNL     1       0.572   1.275  -0.046  1.00  0.00     0.047 A 
ATOM     14  C   UNL     1       1.811   0.635  -0.004  1.00  0.00     0.012 A 
BRANCH  12  15
ATOM     15  O   UNL     1      -1.765   1.237  -0.076  1.00  0.00    -0.508 OA
ATOM     16  H   UNL     1      -2.588   0.789  -0.073  1.00  0.00     0.293 HD
ENDBRANCH  12  15
ENDBRANCH   7   8
ENDBRANCH   4   6
ENDBRANCH   3   4
ENDBRANCH   2   3
ENDBRANCH   1   2
BRANCH   1  17
ATOM     17  O   UNL     1       7.926  -1.256  -1.396  1.00  0.00    -0.458 OA
BRANCH  17  18
ATOM     18  C   UNL     1       6.916  -0.508  -1.904  1.00  0.00     0.338 C 
ATOM     19  O   UNL     1       5.872  -0.917  -2.385  1.00  0.00    -0.246 OA
BRANCH  18  20
ATOM     20  C   UNL     1       7.196   0.923  -1.694  1.00  0.00     0.060 A 
ATOM     21  C   UNL     1       6.223   1.692  -1.048  1.00  0.00     0.016 A 
ATOM     22  C   UNL     1       8.361   1.521  -2.181  1.00  0.00     0.016 A 
ATOM     23  C   UNL     1       6.410   3.064  -0.889  1.00  0.00     0.010 A 
ATOM     24  C   UNL     1       8.545   2.900  -2.024  1.00  0.00     0.010 A 
ATOM     25  C   UNL     1       7.566   3.681  -1.386  1.00  0.00    -0.014 A 
BRANCH  25  26
ATOM     26  C   UNL     1       7.725   5.152  -1.263  1.00  0.00     0.031 A 
ATOM     27  C   UNL     1       7.500   6.037  -2.457  1.00  0.00     0.074 A 
ATOM     28  C   UNL     1       8.048   5.692  -0.073  1.00  0.00     0.049 A 
ATOM     29  N   UNL     1       7.608   7.337  -2.554  1.00  0.00    -0.248 NA
ATOM     30  C   UNL     1       7.099   5.371  -3.707  1.00  0.00     0.031 C 
ATOM     31  C   UNL     1       8.270   4.939   1.162  1.00  0.00     0.029 A 
ATOM     32  N   UNL     1       8.245   7.000   0.293  1.00  0.00    -0.354 N 
ATOM     33  C   UNL     1       7.296   7.647  -3.872  1.00  0.00     0.074 A 
ATOM     34  C   UNL     1       7.017   6.396  -4.545  1.00  0.00     0.031 C 
ATOM     35  C   UNL     1       8.571   5.798   2.150  1.00  0.00     0.029 A 
ATOM     36  C   UNL     1       8.596   7.157   1.613  1.00  0.00     0.049 A 
ATOM     37  H   UNL     1       8.144   7.755  -0.331  1.00  0.00     0.167 HD
ATOM     38  C   UNL     1       7.239   8.865  -4.464  1.00  0.00     0.037 A 
ATOM     39  C   UNL     1       8.919   8.266   2.306  1.00  0.00     0.037 A 
ATOM     40  C   UNL     1       7.509  10.109  -3.789  1.00  0.00     0.049 A 
ATOM     41  C   UNL     1       8.896   9.602   1.613  1.00  0.00     0.074 A 
ATOM     42  C   UNL     1       7.456  11.395  -4.300  1.00  0.00     0.029 A 
ATOM     43  N   UNL     1       7.888  10.224  -2.460  1.00  0.00    -0.354 N 
ATOM     44  N   UNL     1       8.579   9.881   0.371  1.00  0.00    -0.248 NA
ATOM     45  C   UNL     1       9.278  10.774   2.413  1.00  0.00     0.031 C 
ATOM     46  C   UNL     1       7.840  12.284  -3.290  1.00  0.00     0.029 A 
ATOM     47  C   UNL     1       8.094  11.556  -2.139  1.00  0.00     0.049 A 
ATOM     48  H   UNL     1       7.996   9.470  -1.836  1.00  0.00     0.167 HD
ATOM     49  C   UNL     1       8.705  11.260   0.246  1.00  0.00     0.074 A 
ATOM     50  C   UNL     1       9.116  11.761   1.542  1.00  0.00     0.031 C 
ATOM     51  C   UNL     1       8.501  12.040  -0.844  1.00  0.00     0.037 A 
BRANCH  38  52
ATOM     52  C   UNL     1       6.886   8.913  -5.924  1.00  0.00     0.058 A 
ATOM     53  C   UNL     1       5.574   8.691  -6.373  1.00  0.00     0.135 A 
ATOM     54  C   UNL     1       7.863   9.224  -6.883  1.00  0.00     0.135 A 
ATOM     55  F   UNL     1       4.605   8.377  -5.499  1.00  0.00    -0.206 F 
ATOM     56  C   UNL     1       5.248   8.753  -7.724  1.00  0.00     0.059 A 
ATOM     57  C   UNL     1       7.555   9.312  -8.238  1.00  0.00     0.059 A 
ATOM     58  F   UNL     1       9.132   9.445  -6.507  1.00  0.00    -0.206 F 
ATOM     59  C   UNL     1       6.247   9.062  -8.650  1.00  0.00     0.060 A 
BRANCH  59  60
ATOM     60  S   UNL     1       5.811   9.139 -10.400  1.00  0.00     0.124 S 
ATOM     61  O   UNL     1       5.675   7.723 -10.729  1.00  0.00    -0.237 OA
ATOM     62  O   UNL     1       4.569   9.906 -10.381  1.00  0.00    -0.237 OA
ATOM     63  O   UNL     1       6.952   9.817 -11.006  1.00  0.00    -0.744 OA
ENDBRANCH  59  60
ENDBRANCH  38  52
BRANCH  39  64
ATOM     64  C   UNL     1       9.307   8.159   3.736  1.00  0.00     0.058 A 
ATOM     65  C   UNL     1       8.468   8.635   4.754  1.00  0.00     0.135 A 
ATOM     66  C   UNL     1      10.526   7.573   4.113  1.00  0.00     0.135 A 
ATOM     67  F   UNL     1       7.298   9.213   4.442  1.00  0.00    -0.206 F 
ATOM     68  C   UNL     1       8.828   8.547   6.095  1.00  0.00     0.059 A 
ATOM     69  C   UNL     1      10.897   7.452   5.448  1.00  0.00     0.059 A 
ATOM     70  F   UNL     1      11.360   7.094   3.177  1.00  0.00    -0.206 F 
ATOM     71  C   UNL     1      10.045   7.952   6.432  1.00  0.00     0.060 A 
BRANCH  71  72
ATOM     72  S   UNL     1      10.486   7.800   8.177  1.00  0.00     0.124 S 
ATOM     73  O   UNL     1      10.889   9.164   8.497  1.00  0.00    -0.237 OA
ATOM     74  O   UNL     1       9.233   7.348   8.774  1.00  0.00    -0.237 OA
ATOM     75  O   UNL     1      11.558   6.809   8.166  1.00  0.00    -0.744 OA
ENDBRANCH  71  72
ENDBRANCH  39  64
BRANCH  51  76
ATOM     76  C   UNL     1       8.697  13.522  -0.680  1.00  0.00     0.058 A 
ATOM     77  C   UNL     1       9.979  14.088  -0.599  1.00  0.00     0.135 A 
ATOM     78  C   UNL     1       7.593  14.390  -0.661  1.00  0.00     0.135 A 
ATOM     79  F   UNL     1      11.066  13.301  -0.606  1.00  0.00    -0.206 F 
ATOM     80  C   UNL     1      10.159  15.463  -0.488  1.00  0.00     0.059 A 
ATOM     81  C   UNL     1       7.752  15.769  -0.573  1.00  0.00     0.059 A 
ATOM     82  F   UNL     1       6.346  13.899  -0.744  1.00  0.00    -0.206 F 
ATOM     83  C   UNL     1       9.039  16.296  -0.477  1.00  0.00     0.060 A 
BRANCH  83  84
ATOM     84  S   UNL     1       9.287  18.082  -0.375  1.00  0.00     0.124 S 
ATOM     85  O   UNL     1       9.618  18.252   1.036  1.00  0.00    -0.237 OA
ATOM     86  O   UNL     1      10.382  18.303  -1.314  1.00  0.00    -0.237 OA
ATOM     87  O   UNL     1       7.997  18.627  -0.788  1.00  0.00    -0.744 OA
ENDBRANCH  83  84
ENDBRANCH  51  76
ENDBRANCH  25  26
ENDBRANCH  18  20
ENDBRANCH  17  18
ENDBRANCH   1  17
TORSDOF 16
