REMARK SMILES CCN1C(=O)[C@H](CC(=O)Nc2ccc(C(=O)OCCOC(=O)c3ccc(-c4c5nc(c(-c6c(F)cc(S(=O)(=O)[O-])cc6F)c6ccc([nH]6)c(-c6c(F)cc(S(=O)(=O)[O-])cc6F)c6nc(c(-c7c(F)cc(S(=O)(=O)[O-])cc7F)c7ccc4[nH]7)C=C6)C=C5)cc3)cc2)S/C1=[NH+]\c1ccc(Cl)cc1
REMARK SMILES IDX 18 1 17 2 15 3 16 4 14 5 11 6 12 7 90 8 13 9 89 10 10 11
REMARK SMILES IDX 8 12 9 13 7 15 6 16 3 17 4 18 92 19 5 20 91 21 93 22 2 24
REMARK SMILES IDX 1 25 94 26 95 27 100 28 96 29 99 30 97 31 98 32 19 33 20 34
REMARK SMILES IDX 21 35 22 36 23 37 24 38 88 39 25 40 87 41 26 42 27 43 28 44
REMARK SMILES IDX 81 45 29 46 86 47 80 48 82 49 30 50 85 51 79 52 78 53 31 55
REMARK SMILES IDX 65 56 44 57 64 58 45 59 48 60 63 61 83 62 46 63 47 64 62 66
REMARK SMILES IDX 84 67 49 68 32 69 33 70 42 71 34 72 35 73 41 74 43 75 36 76
REMARK SMILES IDX 37 77 38 78 39 79 40 80 66 81 67 82 76 83 68 84 69 85 75 86
REMARK SMILES IDX 77 87 70 88 71 89 72 90 73 91 74 92 50 93 51 94 60 95 52 96
REMARK SMILES IDX 53 97 59 98 61 99 54 100 55 101 56 102 57 103 58 104
REMARK H PARENT 10 14 93 23 82 54 48 65
REMARK Flexibility Score: inf
ROOT
ATOM      1  C   UNL     1       2.654   2.896  -0.212  1.00  0.00     0.275 C 
ENDROOT
BRANCH   1   2
ATOM      2  O   UNL     1       2.288   1.509  -0.047  1.00  0.00    -0.458 OA
BRANCH   2   3
ATOM      3  C   UNL     1       3.007   0.776   0.835  1.00  0.00     0.338 C 
ATOM      4  O   UNL     1       3.944   1.138   1.522  1.00  0.00    -0.246 OA
BRANCH   3   5
ATOM      5  C   UNL     1       2.479  -0.599   0.819  1.00  0.00     0.060 A 
ATOM      6  C   UNL     1       1.373  -3.172   0.609  1.00  0.00     0.041 A 
ATOM      7  C   UNL     1       0.883  -2.262   1.550  1.00  0.00     0.027 A 
ATOM      8  C   UNL     1       2.489  -2.811  -0.148  1.00  0.00     0.027 A 
ATOM      9  C   UNL     1       1.417  -0.977   1.640  1.00  0.00     0.018 A 
ATOM     10  C   UNL     1       3.039  -1.526  -0.054  1.00  0.00     0.018 A 
BRANCH   6  11
ATOM     11  N   UNL     1       0.649  -4.368   0.497  1.00  0.00    -0.326 N 
ATOM     12  C   UNL     1       0.511  -5.302  -0.480  1.00  0.00     0.226 C 
ATOM     13  O   UNL     1      -0.244  -6.257  -0.271  1.00  0.00    -0.275 OA
ATOM     14  H   UNL     1       0.125  -4.577   1.304  1.00  0.00     0.169 HD
BRANCH  12  15
ATOM     15  C   UNL     1       1.216  -5.207  -1.806  1.00  0.00     0.128 C 
BRANCH  15  16
ATOM     16  C   UNL     1       0.647  -4.208  -2.807  1.00  0.00     0.183 C 
ATOM     17  N   UNL     1       0.216  -1.837  -2.840  1.00  0.00    -0.190 N 
ATOM     18  C   UNL     1      -0.213  -3.050  -2.329  1.00  0.00     0.324 C 
ATOM     19  C   UNL     1       1.341  -1.841  -3.623  1.00  0.00     0.319 C 
ATOM     20  O   UNL     1      -1.230  -3.201  -1.661  1.00  0.00    -0.245 OA
ATOM     21  S   UNL     1       1.978  -3.458  -3.792  1.00  0.00    -0.022 SA
ATOM     22  N   UNL     1       1.815  -0.766  -4.164  1.00  0.00    -0.235 N 
ATOM     23  H   UNL     1       1.414   0.105  -3.944  1.00  0.00     0.313 HD
BRANCH  17  24
ATOM     24  C   UNL     1      -0.602  -0.638  -2.662  1.00  0.00     0.243 C 
ATOM     25  C   UNL     1      -0.536  -0.068  -1.259  1.00  0.00     0.054 C 
ENDBRANCH  17  24
BRANCH  22  26
ATOM     26  C   UNL     1       2.891  -0.825  -5.060  1.00  0.00     0.125 A 
ATOM     27  C   UNL     1       4.158  -0.365  -4.688  1.00  0.00     0.053 A 
ATOM     28  C   UNL     1       2.685  -1.266  -6.373  1.00  0.00     0.053 A 
ATOM     29  C   UNL     1       5.212  -0.377  -5.609  1.00  0.00     0.025 A 
ATOM     30  C   UNL     1       3.735  -1.288  -7.293  1.00  0.00     0.025 A 
ATOM     31  C   UNL     1       4.996  -0.842  -6.906  1.00  0.00     0.041 A 
ATOM     32  Cl  UNL     1       6.287  -0.852  -8.044  1.00  0.00    -0.084 Cl
ENDBRANCH  22  26
ENDBRANCH  15  16
ENDBRANCH  12  15
ENDBRANCH   6  11
ENDBRANCH   3   5
ENDBRANCH   2   3
ENDBRANCH   1   2
BRANCH   1  33
ATOM     33  C   UNL     1       1.517   3.790   0.280  1.00  0.00     0.275 C 
BRANCH  33  34
ATOM     34  O   UNL     1       1.424   3.626   1.702  1.00  0.00    -0.458 OA
BRANCH  34  35
ATOM     35  C   UNL     1       0.179   3.594   2.228  1.00  0.00     0.338 C 
ATOM     36  O   UNL     1      -0.866   3.886   1.673  1.00  0.00    -0.246 OA
BRANCH  35  37
ATOM     37  C   UNL     1       0.270   3.029   3.590  1.00  0.00     0.060 A 
ATOM     38  C   UNL     1       1.045   1.889   3.785  1.00  0.00     0.016 A 
ATOM     39  C   UNL     1      -0.490   3.531   4.641  1.00  0.00     0.016 A 
ATOM     40  C   UNL     1       0.957   1.167   4.969  1.00  0.00     0.010 A 
ATOM     41  C   UNL     1      -0.452   2.886   5.887  1.00  0.00     0.010 A 
ATOM     42  C   UNL     1       0.234   1.667   6.057  1.00  0.00    -0.014 A 
BRANCH  42  43
ATOM     43  C   UNL     1       0.167   0.893   7.336  1.00  0.00     0.031 A 
ATOM     44  C   UNL     1      -1.171   0.581   7.963  1.00  0.00     0.074 A 
ATOM     45  C   UNL     1       1.290   0.430   7.929  1.00  0.00     0.049 A 
ATOM     46  N   UNL     1      -1.438   0.127   9.161  1.00  0.00    -0.248 NA
ATOM     47  C   UNL     1      -2.367   0.834   7.143  1.00  0.00     0.031 C 
ATOM     48  C   UNL     1       2.656   0.601   7.423  1.00  0.00     0.029 A 
ATOM     49  N   UNL     1       1.464  -0.300   9.081  1.00  0.00    -0.354 N 
ATOM     50  C   UNL     1      -2.826   0.124   9.268  1.00  0.00     0.074 A 
ATOM     51  C   UNL     1      -3.345   0.611   8.009  1.00  0.00     0.031 C 
ATOM     52  C   UNL     1       3.511  -0.065   8.213  1.00  0.00     0.029 A 
ATOM     53  C   UNL     1       2.779  -0.604   9.351  1.00  0.00     0.049 A 
ATOM     54  H   UNL     1       0.717  -0.579   9.659  1.00  0.00     0.167 HD
ATOM     55  C   UNL     1      -3.593  -0.244  10.323  1.00  0.00     0.037 A 
ATOM     56  C   UNL     1       3.350  -1.198  10.418  1.00  0.00     0.037 A 
ATOM     57  C   UNL     1      -3.071  -0.808  11.541  1.00  0.00     0.049 A 
ATOM     58  C   UNL     1       2.481  -1.604  11.574  1.00  0.00     0.074 A 
ATOM     59  C   UNL     1      -3.761  -1.216  12.670  1.00  0.00     0.029 A 
ATOM     60  N   UNL     1      -1.730  -1.074  11.778  1.00  0.00    -0.354 N 
ATOM     61  N   UNL     1       1.180  -1.497  11.702  1.00  0.00    -0.248 NA
ATOM     62  C   UNL     1       3.160  -2.179  12.743  1.00  0.00     0.031 C 
ATOM     63  C   UNL     1      -2.835  -1.706  13.598  1.00  0.00     0.029 A 
ATOM     64  C   UNL     1      -1.572  -1.639  13.033  1.00  0.00     0.049 A 
ATOM     65  H   UNL     1      -0.998  -0.888  11.147  1.00  0.00     0.167 HD
ATOM     66  C   UNL     1       0.884  -1.988  12.968  1.00  0.00     0.074 A 
ATOM     67  C   UNL     1       2.138  -2.420  13.553  1.00  0.00     0.031 C 
ATOM     68  C   UNL     1      -0.315  -2.061  13.596  1.00  0.00     0.037 A 
BRANCH  55  69
ATOM     69  C   UNL     1      -5.076  -0.006  10.225  1.00  0.00     0.058 A 
ATOM     70  C   UNL     1      -5.911  -0.788   9.411  1.00  0.00     0.135 A 
ATOM     71  C   UNL     1      -5.673   1.019  10.978  1.00  0.00     0.135 A 
ATOM     72  F   UNL     1      -5.392  -1.768   8.655  1.00  0.00    -0.206 F 
ATOM     73  C   UNL     1      -7.279  -0.542   9.324  1.00  0.00     0.059 A 
ATOM     74  C   UNL     1      -7.042   1.266  10.927  1.00  0.00     0.059 A 
ATOM     75  F   UNL     1      -4.923   1.797  11.774  1.00  0.00    -0.206 F 
ATOM     76  C   UNL     1      -7.834   0.490  10.083  1.00  0.00     0.060 A 
BRANCH  76  77
ATOM     77  S   UNL     1      -9.608   0.806   9.955  1.00  0.00     0.124 S 
ATOM     78  O   UNL     1      -9.691   1.473   8.659  1.00  0.00    -0.237 OA
ATOM     79  O   UNL     1     -10.172  -0.539  10.011  1.00  0.00    -0.237 OA
ATOM     80  O   UNL     1      -9.887   1.648  11.114  1.00  0.00    -0.744 OA
ENDBRANCH  76  77
ENDBRANCH  55  69
BRANCH  56  81
ATOM     81  C   UNL     1       4.826  -1.384  10.466  1.00  0.00     0.058 A 
ATOM     82  C   UNL     1       5.399  -2.662  10.399  1.00  0.00     0.135 A 
ATOM     83  C   UNL     1       5.695  -0.284  10.555  1.00  0.00     0.135 A 
ATOM     84  F   UNL     1       4.612  -3.747  10.329  1.00  0.00    -0.206 F 
ATOM     85  C   UNL     1       6.779  -2.845  10.420  1.00  0.00     0.059 A 
ATOM     86  C   UNL     1       7.077  -0.439  10.546  1.00  0.00     0.059 A 
ATOM     87  F   UNL     1       5.200   0.962  10.612  1.00  0.00    -0.206 F 
ATOM     88  C   UNL     1       7.610  -1.725  10.487  1.00  0.00     0.060 A 
BRANCH  88  89
ATOM     89  S   UNL     1       9.400  -1.962  10.443  1.00  0.00     0.124 S 
ATOM     90  O   UNL     1       9.672  -2.395  11.809  1.00  0.00    -0.237 OA
ATOM     91  O   UNL     1       9.554  -2.979   9.408  1.00  0.00    -0.237 OA
ATOM     92  O   UNL     1       9.903  -0.638  10.088  1.00  0.00    -0.744 OA
ENDBRANCH  88  89
ENDBRANCH  56  81
BRANCH  68  93
ATOM     93  C   UNL     1      -0.323  -2.651  14.977  1.00  0.00     0.058 A 
ATOM     94  C   UNL     1       0.156  -1.933  16.084  1.00  0.00     0.135 A 
ATOM     95  C   UNL     1      -0.828  -3.942  15.196  1.00  0.00     0.135 A 
ATOM     96  F   UNL     1       0.657  -0.698  15.923  1.00  0.00    -0.206 F 
ATOM     97  C   UNL     1       0.161  -2.487  17.359  1.00  0.00     0.059 A 
ATOM     98  C   UNL     1      -0.854  -4.506  16.467  1.00  0.00     0.059 A 
ATOM     99  F   UNL     1      -1.305  -4.665  14.171  1.00  0.00    -0.206 F 
ATOM    100  C   UNL     1      -0.342  -3.777  17.540  1.00  0.00     0.060 A 
BRANCH 100 101
ATOM    101  S   UNL     1      -0.339  -4.485  19.200  1.00  0.00     0.124 S 
ATOM    102  O   UNL     1       1.062  -4.861  19.355  1.00  0.00    -0.237 OA
ATOM    103  O   UNL     1      -0.791  -3.366  20.021  1.00  0.00    -0.237 OA
ATOM    104  O   UNL     1      -1.280  -5.596  19.095  1.00  0.00    -0.744 OA
ENDBRANCH 100 101
ENDBRANCH  68  93
ENDBRANCH  42  43
ENDBRANCH  35  37
ENDBRANCH  34  35
ENDBRANCH  33  34
ENDBRANCH   1  33
TORSDOF 19
