REMARK SMILES O=C(OCCOC(=O)c1cccc(Nc2nc(-c3ccc(F)cc3F)cs2)c1)c1ccc(-c2c3nc(c(-c4c(F)cc(S(=O)(=O)[O-])cc4F)c4ccc([nH]4)c(-c4c(F)cc(S(=O)(=O)[O-])cc4F)c4nc(c(-c5c(F)cc(S(=O)(=O)[O-])cc5F)c5ccc2[nH]5)C=C4)C=C3)cc1
REMARK SMILES IDX 4 1 3 2 2 3 1 4 29 5 30 6 94 7 31 8 93 9 32 10 33 11 34 12
REMARK SMILES IDX 87 13 35 14 92 15 86 16 88 17 36 18 91 19 85 20 84 21 37 23
REMARK SMILES IDX 71 24 50 25 70 26 51 27 54 28 69 29 89 30 52 31 53 32 68 34
REMARK SMILES IDX 90 35 55 36 38 37 39 38 48 39 40 40 41 41 47 42 49 43 42 44
REMARK SMILES IDX 43 45 44 46 45 47 46 48 72 49 73 50 82 51 74 52 75 53 81 54
REMARK SMILES IDX 83 55 76 56 77 57 78 58 79 59 80 60 56 61 57 62 66 63 58 64
REMARK SMILES IDX 59 65 65 66 67 67 60 68 61 69 62 70 63 71 64 72 5 73 6 74
REMARK SMILES IDX 7 75 8 76 9 77 10 78 28 79 11 80 13 81 12 82 14 83 15 85
REMARK SMILES IDX 16 86 27 87 17 88 26 89 18 90 19 91 24 92 20 93 23 94 25 95
REMARK SMILES IDX 21 96 22 97
REMARK H PARENT 88 22 54 33 14 84
REMARK Flexibility Score: inf
ROOT
ATOM      1  C   UNL     1       4.074   1.452   0.546  1.00  0.00     0.275 C 
ENDROOT
BRANCH   1   2
ATOM      2  O   UNL     1       3.002   1.080  -0.337  1.00  0.00    -0.458 OA
BRANCH   2   3
ATOM      3  C   UNL     1       2.904  -0.001  -1.150  1.00  0.00     0.338 C 
ATOM      4  O   UNL     1       2.072   0.014  -2.056  1.00  0.00    -0.246 OA
BRANCH   3   5
ATOM      5  C   UNL     1       3.631  -1.282  -0.891  1.00  0.00     0.060 A 
ATOM      6  C   UNL     1       4.931  -1.400  -0.397  1.00  0.00     0.016 A 
ATOM      7  C   UNL     1       2.932  -2.466  -1.195  1.00  0.00     0.016 A 
ATOM      8  C   UNL     1       5.487  -2.653  -0.128  1.00  0.00     0.010 A 
ATOM      9  C   UNL     1       3.479  -3.723  -0.920  1.00  0.00     0.010 A 
ATOM     10  C   UNL     1       4.766  -3.821  -0.385  1.00  0.00    -0.014 A 
BRANCH  10  11
ATOM     11  C   UNL     1       5.440  -5.130  -0.256  1.00  0.00     0.031 A 
ATOM     12  C   UNL     1       5.962  -5.783  -1.504  1.00  0.00     0.074 A 
ATOM     13  C   UNL     1       5.654  -5.681   0.954  1.00  0.00     0.049 A 
ATOM     14  N   UNL     1       6.622  -6.901  -1.638  1.00  0.00    -0.248 NA
ATOM     15  C   UNL     1       5.736  -5.060  -2.769  1.00  0.00     0.031 C 
ATOM     16  C   UNL     1       5.251  -5.095   2.233  1.00  0.00     0.029 A 
ATOM     17  N   UNL     1       6.254  -6.862   1.307  1.00  0.00    -0.354 N 
ATOM     18  C   UNL     1       6.930  -6.993  -2.989  1.00  0.00     0.074 A 
ATOM     19  C   UNL     1       6.326  -5.857  -3.646  1.00  0.00     0.031 C 
ATOM     20  C   UNL     1       5.561  -5.946   3.227  1.00  0.00     0.029 A 
ATOM     21  C   UNL     1       6.181  -7.136   2.654  1.00  0.00     0.049 A 
ATOM     22  H   UNL     1       6.694  -7.458   0.659  1.00  0.00     0.167 HD
ATOM     23  C   UNL     1       7.684  -7.925  -3.615  1.00  0.00     0.037 A 
ATOM     24  C   UNL     1       6.546  -8.239   3.333  1.00  0.00     0.037 A 
ATOM     25  C   UNL     1       8.245  -9.068  -2.950  1.00  0.00     0.049 A 
ATOM     26  C   UNL     1       7.201  -9.361   2.581  1.00  0.00     0.074 A 
ATOM     27  C   UNL     1       9.023 -10.081  -3.480  1.00  0.00     0.029 A 
ATOM     28  N   UNL     1       8.068  -9.359  -1.603  1.00  0.00    -0.354 N 
ATOM     29  N   UNL     1       7.510  -9.428   1.307  1.00  0.00    -0.248 NA
ATOM     30  C   UNL     1       7.579 -10.547   3.359  1.00  0.00     0.031 C 
ATOM     31  C   UNL     1       9.279 -11.007  -2.463  1.00  0.00     0.029 A 
ATOM     32  C   UNL     1       8.700 -10.548  -1.289  1.00  0.00     0.049 A 
ATOM     33  H   UNL     1       7.566  -8.800  -0.967  1.00  0.00     0.167 HD
ATOM     34  C   UNL     1       8.162 -10.641   1.139  1.00  0.00     0.074 A 
ATOM     35  C   UNL     1       8.185 -11.285   2.438  1.00  0.00     0.031 C 
ATOM     36  C   UNL     1       8.717 -11.160   0.017  1.00  0.00     0.037 A 
BRANCH  23  37
ATOM     37  C   UNL     1       7.929  -7.731  -5.083  1.00  0.00     0.058 A 
ATOM     38  C   UNL     1       8.781  -6.717  -5.552  1.00  0.00     0.135 A 
ATOM     39  C   UNL     1       7.300  -8.550  -6.032  1.00  0.00     0.135 A 
ATOM     40  F   UNL     1       9.389  -5.889  -4.687  1.00  0.00    -0.206 F 
ATOM     41  C   UNL     1       8.978  -6.503  -6.912  1.00  0.00     0.059 A 
ATOM     42  C   UNL     1       7.499  -8.368  -7.398  1.00  0.00     0.059 A 
ATOM     43  F   UNL     1       6.468  -9.526  -5.637  1.00  0.00    -0.206 F 
ATOM     44  C   UNL     1       8.328  -7.332  -7.828  1.00  0.00     0.060 A 
BRANCH  44  45
ATOM     45  S   UNL     1       8.583  -7.035  -9.591  1.00  0.00     0.124 S 
ATOM     46  O   UNL     1       7.807  -5.816  -9.796  1.00  0.00    -0.237 OA
ATOM     47  O   UNL     1      10.032  -6.884  -9.676  1.00  0.00    -0.237 OA
ATOM     48  O   UNL     1       8.044  -8.236 -10.220  1.00  0.00    -0.744 OA
ENDBRANCH  44  45
ENDBRANCH  23  37
BRANCH  24  49
ATOM     49  C   UNL     1       6.239  -8.371   4.781  1.00  0.00     0.058 A 
ATOM     50  C   UNL     1       7.205  -8.213   5.780  1.00  0.00     0.135 A 
ATOM     51  C   UNL     1       4.936  -8.688   5.185  1.00  0.00     0.135 A 
ATOM     52  F   UNL     1       8.477  -7.945   5.448  1.00  0.00    -0.206 F 
ATOM     53  C   UNL     1       6.884  -8.350   7.131  1.00  0.00     0.059 A 
ATOM     54  C   UNL     1       4.582  -8.807   6.523  1.00  0.00     0.059 A 
ATOM     55  F   UNL     1       3.993  -8.898   4.263  1.00  0.00    -0.206 F 
ATOM     56  C   UNL     1       5.565  -8.640   7.492  1.00  0.00     0.060 A 
BRANCH  56  57
ATOM     57  S   UNL     1       5.126  -8.756   9.240  1.00  0.00     0.124 S 
ATOM     58  O   UNL     1       5.613 -10.088   9.579  1.00  0.00    -0.237 OA
ATOM     59  O   UNL     1       5.863  -7.638   9.820  1.00  0.00    -0.237 OA
ATOM     60  O   UNL     1       3.674  -8.598   9.229  1.00  0.00    -0.744 OA
ENDBRANCH  56  57
ENDBRANCH  24  49
BRANCH  36  61
ATOM     61  C   UNL     1       9.463 -12.452   0.163  1.00  0.00     0.058 A 
ATOM     62  C   UNL     1       8.801 -13.680   0.300  1.00  0.00     0.135 A 
ATOM     63  C   UNL     1      10.866 -12.456   0.118  1.00  0.00     0.135 A 
ATOM     64  F   UNL     1       7.461 -13.723   0.362  1.00  0.00    -0.206 F 
ATOM     65  C   UNL     1       9.509 -14.872   0.404  1.00  0.00     0.059 A 
ATOM     66  C   UNL     1      11.593 -13.637   0.194  1.00  0.00     0.059 A 
ATOM     67  F   UNL     1      11.542 -11.304  -0.018  1.00  0.00    -0.206 F 
ATOM     68  C   UNL     1      10.905 -14.840   0.347  1.00  0.00     0.060 A 
BRANCH  68  69
ATOM     69  S   UNL     1      11.814 -16.395   0.443  1.00  0.00     0.124 S 
ATOM     70  O   UNL     1      11.724 -16.700   1.867  1.00  0.00    -0.237 OA
ATOM     71  O   UNL     1      11.043 -17.264  -0.442  1.00  0.00    -0.237 OA
ATOM     72  O   UNL     1      13.145 -16.040  -0.042  1.00  0.00    -0.744 OA
ENDBRANCH  68  69
ENDBRANCH  36  61
ENDBRANCH  10  11
ENDBRANCH   3   5
ENDBRANCH   2   3
ENDBRANCH   1   2
BRANCH   1  73
ATOM     73  C   UNL     1       3.926   0.951   1.986  1.00  0.00     0.275 C 
BRANCH  73  74
ATOM     74  O   UNL     1       3.415  -0.388   2.075  1.00  0.00    -0.458 OA
BRANCH  74  75
ATOM     75  C   UNL     1       2.075  -0.471   2.275  1.00  0.00     0.338 C 
ATOM     76  O   UNL     1       1.304   0.458   2.460  1.00  0.00    -0.246 OA
BRANCH  75  77
ATOM     77  C   UNL     1       1.624  -1.861   2.080  1.00  0.00     0.062 A 
ATOM     78  C   UNL     1       0.648  -2.090   1.108  1.00  0.00     0.016 A 
ATOM     79  C   UNL     1       2.124  -2.920   2.848  1.00  0.00     0.041 A 
ATOM     80  C   UNL     1       0.233  -3.392   0.846  1.00  0.00     0.003 A 
ATOM     81  C   UNL     1       1.644  -4.228   2.649  1.00  0.00     0.041 A 
ATOM     82  C   UNL     1       0.744  -4.451   1.598  1.00  0.00     0.026 A 
BRANCH  81  83
ATOM     83  N   UNL     1       2.073  -5.255   3.509  1.00  0.00    -0.332 N 
ATOM     84  H   UNL     1       2.701  -4.994   4.221  1.00  0.00     0.169 HD
BRANCH  83  85
ATOM     85  C   UNL     1       1.722  -6.565   3.470  1.00  0.00     0.187 A 
ATOM     86  N   UNL     1       1.677  -7.359   2.418  1.00  0.00    -0.220 NA
ATOM     87  S   UNL     1       1.256  -7.318   4.958  1.00  0.00    -0.105 S 
ATOM     88  C   UNL     1       1.404  -8.658   2.815  1.00  0.00     0.086 A 
ATOM     89  C   UNL     1       1.062  -8.807   4.144  1.00  0.00     0.097 A 
BRANCH  88  90
ATOM     90  C   UNL     1       1.488  -9.799   1.921  1.00  0.00     0.037 A 
ATOM     91  C   UNL     1       0.332 -10.518   1.585  1.00  0.00     0.016 A 
ATOM     92  C   UNL     1       2.730 -10.258   1.458  1.00  0.00     0.135 A 
ATOM     93  C   UNL     1       0.429 -11.679   0.814  1.00  0.00     0.040 A 
ATOM     94  C   UNL     1       2.832 -11.417   0.693  1.00  0.00     0.079 A 
ATOM     95  F   UNL     1       3.861  -9.617   1.782  1.00  0.00    -0.206 F 
ATOM     96  C   UNL     1       1.677 -12.120   0.381  1.00  0.00     0.126 A 
ATOM     97  F   UNL     1       1.757 -13.248  -0.338  1.00  0.00    -0.207 F 
ENDBRANCH  88  90
ENDBRANCH  83  85
ENDBRANCH  81  83
ENDBRANCH  75  77
ENDBRANCH  74  75
ENDBRANCH  73  74
ENDBRANCH   1  73
TORSDOF 17
