REMARK SMILES O=C(Nc1ccc(F)cc1)N[C@H]1CCCCC[C@H]1C(=O)OCCOC(=O)c1ccc(-c2c3nc(c(-c4c(F)cc(S(=O)(=O)[O-])cc4F)c4ccc([nH]4)c(-c4c(F)cc(S(=O)(=O)[O-])cc4F)c4nc(c(-c5c(F)cc(S(=O)(=O)[O-])cc5F)c5ccc2[nH]5)C=C4)C=C3)cc1
REMARK SMILES IDX 22 1 21 2 19 3 20 4 18 5 12 6 11 7 1 8 2 9 3 10 4 13 5 14
REMARK SMILES IDX 10 15 6 16 9 17 7 18 8 19 13 20 14 21 17 23 16 24 15 25
REMARK SMILES IDX 23 27 24 28 25 29 26 30 27 31 28 32 92 33 29 34 91 35 30 36
REMARK SMILES IDX 31 37 32 38 85 39 33 40 90 41 84 42 86 43 34 44 89 45 83 46
REMARK SMILES IDX 82 47 35 49 69 50 48 51 68 52 49 53 52 54 67 55 87 56 50 57
REMARK SMILES IDX 51 58 66 60 88 61 53 62 36 63 37 64 46 65 38 66 39 67 45 68
REMARK SMILES IDX 47 69 40 70 41 71 42 72 43 73 44 74 70 75 71 76 80 77 72 78
REMARK SMILES IDX 73 79 79 80 81 81 74 82 75 83 76 84 77 85 78 86 54 87 55 88
REMARK SMILES IDX 64 89 56 90 57 91 63 92 65 93 58 94 59 95 60 96 61 97 62 98
REMARK H PARENT 3 11 11 12 86 48 52 59
REMARK Flexibility Score: 90.00
ROOT
ATOM      1  C   UNL     1      -1.269   4.366   3.316  1.00  0.00     0.274 C 
ENDROOT
BRANCH   1   2
ATOM      2  O   UNL     1      -0.038   4.175   2.584  1.00  0.00    -0.462 OA
BRANCH   2   3
ATOM      3  C   UNL     1       0.895   3.410   3.196  1.00  0.00     0.311 C 
ATOM      4  O   UNL     1       0.799   3.021   4.359  1.00  0.00    -0.252 OA
BRANCH   3   5
ATOM      5  C   UNL     1       2.086   3.013   2.330  1.00  0.00     0.121 C 
BRANCH   5   6
ATOM      6  C   UNL     1       2.103   3.256   0.793  1.00  0.00     0.098 C 
BRANCH   6   7
ATOM      7  N   UNL     1       0.829   3.008   0.088  1.00  0.00    -0.334 N 
ATOM      8  O   UNL     1       0.575   4.920  -1.115  1.00  0.00    -0.248 OA
ATOM      9  C   UNL     1       0.253   3.754  -0.877  1.00  0.00     0.319 C 
ATOM     10  N   UNL     1      -0.683   3.230  -1.707  1.00  0.00    -0.308 N 
ATOM     11  H   UNL     1      -0.916   3.882  -2.407  1.00  0.00     0.171 HD
ATOM     12  H   UNL     1       0.340   2.197   0.355  1.00  0.00     0.165 HD
BRANCH  10  13
ATOM     13  C   UNL     1      -1.427   2.047  -1.883  1.00  0.00     0.043 A 
ATOM     14  C   UNL     1      -1.463   0.944  -1.037  1.00  0.00     0.029 A 
ATOM     15  C   UNL     1      -2.250   2.014  -3.026  1.00  0.00     0.029 A 
ATOM     16  C   UNL     1      -2.374  -0.103  -1.246  1.00  0.00     0.041 A 
ATOM     17  C   UNL     1      -3.121   0.948  -3.273  1.00  0.00     0.041 A 
ATOM     18  C   UNL     1      -3.199  -0.089  -2.359  1.00  0.00     0.123 A 
ATOM     19  F   UNL     1      -4.069  -1.087  -2.558  1.00  0.00    -0.207 F 
ENDBRANCH  10  13
ENDBRANCH   6   7
BRANCH   6  20
ATOM     20  C   UNL     1       2.948   4.453   0.322  1.00  0.00     0.026 C 
BRANCH  20  21
ATOM     21  C   UNL     1       2.701   5.748   1.087  1.00  0.00     0.002 CG0
ATOM     22  G   UNL     1       3.656   5.909   2.268  1.00  0.00     0.000 G0
ENDBRANCH  20  21
ENDBRANCH   6  20
ENDBRANCH   5   6
BRANCH   5  23
ATOM     23  C   UNL     1       3.379   3.453   3.052  1.00  0.00     0.017 C 
BRANCH  23  24
ATOM     24  C   UNL     1       3.446   4.938   3.424  1.00  0.00     0.001 C 
BRANCH  24  25
ATOM     25  C   UNL     1       3.656   5.909   2.268  1.00  0.00     0.000 CG0
ATOM     26  G   UNL     1       2.701   5.748   1.087  1.00  0.00     0.000 G0
ENDBRANCH  24  25
ENDBRANCH  23  24
ENDBRANCH   5  23
ENDBRANCH   3   5
ENDBRANCH   2   3
ENDBRANCH   1   2
BRANCH   1  27
ATOM     27  C   UNL     1      -2.371   3.391   2.866  1.00  0.00     0.275 C 
BRANCH  27  28
ATOM     28  O   UNL     1      -2.228   2.047   3.382  1.00  0.00    -0.458 OA
BRANCH  28  29
ATOM     29  C   UNL     1      -1.342   1.294   2.701  1.00  0.00     0.338 C 
ATOM     30  O   UNL     1      -0.635   1.674   1.782  1.00  0.00    -0.246 OA
BRANCH  29  31
ATOM     31  C   UNL     1      -1.242  -0.103   3.116  1.00  0.00     0.060 A 
ATOM     32  C   UNL     1       0.051  -0.635   3.212  1.00  0.00     0.016 A 
ATOM     33  C   UNL     1      -2.366  -0.926   3.170  1.00  0.00     0.016 A 
ATOM     34  C   UNL     1       0.227  -2.003   3.348  1.00  0.00     0.010 A 
ATOM     35  C   UNL     1      -2.186  -2.303   3.323  1.00  0.00     0.010 A 
ATOM     36  C   UNL     1      -0.891  -2.843   3.406  1.00  0.00    -0.014 A 
BRANCH  36  37
ATOM     37  C   UNL     1      -0.690  -4.279   3.679  1.00  0.00     0.031 A 
ATOM     38  C   UNL     1      -0.718  -5.293   2.579  1.00  0.00     0.074 A 
ATOM     39  C   UNL     1      -0.443  -4.634   4.953  1.00  0.00     0.049 A 
ATOM     40  N   UNL     1      -0.616  -6.593   2.664  1.00  0.00    -0.248 NA
ATOM     41  C   UNL     1      -0.873  -4.788   1.206  1.00  0.00     0.031 C 
ATOM     42  C   UNL     1      -0.345  -3.698   6.077  1.00  0.00     0.029 A 
ATOM     43  N   UNL     1      -0.228  -5.860   5.517  1.00  0.00    -0.354 N 
ATOM     44  C   UNL     1      -0.695  -7.067   1.361  1.00  0.00     0.074 A 
ATOM     45  C   UNL     1      -0.862  -5.914   0.501  1.00  0.00     0.031 C 
ATOM     46  C   UNL     1      -0.091  -4.387   7.199  1.00  0.00     0.029 A 
ATOM     47  C   UNL     1      -0.052  -5.809   6.878  1.00  0.00     0.049 A 
ATOM     48  H   UNL     1      -0.201  -6.697   5.000  1.00  0.00     0.167 HD
ATOM     49  C   UNL     1      -0.634  -8.351   0.936  1.00  0.00     0.037 A 
ATOM     50  C   UNL     1       0.092  -6.802   7.773  1.00  0.00     0.037 A 
ATOM     51  C   UNL     1      -0.476  -9.482   1.817  1.00  0.00     0.049 A 
ATOM     52  C   UNL     1       0.092  -8.216   7.281  1.00  0.00     0.074 A 
ATOM     53  C   UNL     1      -0.421 -10.827   1.493  1.00  0.00     0.029 A 
ATOM     54  N   UNL     1      -0.346  -9.398   3.196  1.00  0.00    -0.354 N 
ATOM     55  N   UNL     1      -0.023  -8.654   6.050  1.00  0.00    -0.248 NA
ATOM     56  C   UNL     1       0.229  -9.271   8.292  1.00  0.00     0.031 C 
ATOM     57  C   UNL     1      -0.285 -11.557   2.680  1.00  0.00     0.029 A 
ATOM     58  C   UNL     1      -0.227 -10.666   3.740  1.00  0.00     0.049 A 
ATOM     59  H   UNL     1      -0.340  -8.560   3.712  1.00  0.00     0.167 HD
ATOM     60  C   UNL     1       0.022 -10.037   6.135  1.00  0.00     0.074 A 
ATOM     61  C   UNL     1       0.195 -10.363   7.539  1.00  0.00     0.031 C 
ATOM     62  C   UNL     1      -0.075 -10.956   5.144  1.00  0.00     0.037 A 
BRANCH  49  63
ATOM     63  C   UNL     1      -0.756  -8.614  -0.537  1.00  0.00     0.058 A 
ATOM     64  C   UNL     1      -1.947  -9.125  -1.075  1.00  0.00     0.135 A 
ATOM     65  C   UNL     1       0.330  -8.430  -1.407  1.00  0.00     0.135 A 
ATOM     66  F   UNL     1      -3.019  -9.310  -0.288  1.00  0.00    -0.206 F 
ATOM     67  C   UNL     1      -2.053  -9.462  -2.421  1.00  0.00     0.059 A 
ATOM     68  C   UNL     1       0.243  -8.748  -2.760  1.00  0.00     0.059 A 
ATOM     69  F   UNL     1       1.485  -7.923  -0.946  1.00  0.00    -0.206 F 
ATOM     70  C   UNL     1      -0.949  -9.278  -3.255  1.00  0.00     0.060 A 
BRANCH  70  71
ATOM     71  S   UNL     1      -1.105  -9.704  -5.004  1.00  0.00     0.124 S 
ATOM     72  O   UNL     1      -1.077 -11.161  -4.961  1.00  0.00    -0.237 OA
ATOM     73  O   UNL     1      -2.387  -9.101  -5.356  1.00  0.00    -0.237 OA
ATOM     74  O   UNL     1       0.062  -9.068  -5.610  1.00  0.00    -0.744 OA
ENDBRANCH  70  71
ENDBRANCH  49  63
BRANCH  50  75
ATOM     75  C   UNL     1       0.215  -6.466   9.211  1.00  0.00     0.058 A 
ATOM     76  C   UNL     1      -0.889  -5.986   9.933  1.00  0.00     0.135 A 
ATOM     77  C   UNL     1       1.452  -6.531   9.865  1.00  0.00     0.135 A 
ATOM     78  F   UNL     1      -2.091  -5.894   9.342  1.00  0.00    -0.206 F 
ATOM     79  C   UNL     1      -0.764  -5.547  11.245  1.00  0.00     0.059 A 
ATOM     80  C   UNL     1       1.598  -6.115  11.185  1.00  0.00     0.059 A 
ATOM     81  F   UNL     1       2.531  -6.989   9.213  1.00  0.00    -0.206 F 
ATOM     82  C   UNL     1       0.488  -5.603  11.858  1.00  0.00     0.060 A 
BRANCH  82  83
ATOM     83  S   UNL     1       0.648  -4.998  13.552  1.00  0.00     0.124 S 
ATOM     84  O   UNL     1       0.681  -3.555  13.341  1.00  0.00    -0.237 OA
ATOM     85  O   UNL     1      -0.559  -5.520  14.185  1.00  0.00    -0.237 OA
ATOM     86  O   UNL     1       1.898  -5.599  14.004  1.00  0.00    -0.744 OA
ENDBRANCH  82  83
ENDBRANCH  50  75
BRANCH  62  87
ATOM     87  C   UNL     1      -0.007 -12.395   5.554  1.00  0.00     0.058 A 
ATOM     88  C   UNL     1       1.172 -13.134   5.376  1.00  0.00     0.135 A 
ATOM     89  C   UNL     1      -1.124 -13.047   6.097  1.00  0.00     0.135 A 
ATOM     90  F   UNL     1       2.265 -12.550   4.862  1.00  0.00    -0.206 F 
ATOM     91  C   UNL     1       1.240 -14.478   5.723  1.00  0.00     0.059 A 
ATOM     92  C   UNL     1      -1.073 -14.387   6.465  1.00  0.00     0.059 A 
ATOM     93  F   UNL     1      -2.267 -12.372   6.298  1.00  0.00    -0.206 F 
ATOM     94  C   UNL     1       0.111 -15.097   6.263  1.00  0.00     0.060 A 
BRANCH  94  95
ATOM     95  S   UNL     1       0.221 -16.831   6.750  1.00  0.00     0.124 S 
ATOM     96  O   UNL     1       0.082 -17.509   5.466  1.00  0.00    -0.237 OA
ATOM     97  O   UNL     1       1.543 -16.902   7.366  1.00  0.00    -0.237 OA
ATOM     98  O   UNL     1      -0.899 -16.991   7.673  1.00  0.00    -0.744 OA
ENDBRANCH  94  95
ENDBRANCH  62  87
ENDBRANCH  36  37
ENDBRANCH  29  31
ENDBRANCH  28  29
ENDBRANCH  27  28
ENDBRANCH   1  27
TORSDOF 16
