REMARK SMILES C/C=C/c1cncc(-c2ccc([C@@H](C)C(=O)OCCOC(=O)c3ccc(-c4c5nc(c(-c6c(F)cc(S(=O)(=O)[O-])cc6F)c6ccc([nH]6)c(-c6c(F)cc(S(=O)(=O)[O-])cc6F)c6nc(c(-c7c(F)cc(S(=O)(=O)[O-])cc7F)c7ccc4[nH]7)C=C6)C=C5)cc3)cc2)c1
REMARK SMILES IDX 18 1 17 2 15 3 16 4 13 5 14 6 12 7 9 8 10 9 90 10 11 11
REMARK SMILES IDX 89 12 8 13 4 14 5 15 91 16 6 17 7 18 3 19 1 20 2 21 19 22
REMARK SMILES IDX 20 23 21 24 22 25 23 26 24 27 88 28 25 29 87 30 26 31 27 32
REMARK SMILES IDX 28 33 81 34 29 35 86 36 80 37 82 38 30 39 85 40 79 41 78 42
REMARK SMILES IDX 31 44 65 45 44 46 64 47 45 48 48 49 63 50 83 51 46 52 47 53
REMARK SMILES IDX 62 55 84 56 49 57 32 58 33 59 42 60 34 61 35 62 41 63 43 64
REMARK SMILES IDX 36 65 37 66 38 67 39 68 40 69 66 70 67 71 76 72 68 73 69 74
REMARK SMILES IDX 75 75 77 76 70 77 71 78 72 79 73 80 74 81 50 82 51 83 60 84
REMARK SMILES IDX 52 85 53 86 59 87 61 88 54 89 55 90 56 91 57 92 58 93
REMARK H PARENT 82 43 48 54
REMARK Flexibility Score: inf
ROOT
ATOM      1  C   UNL     1       2.316   8.357   8.142  1.00  0.00     0.274 C 
ENDROOT
BRANCH   1   2
ATOM      2  O   UNL     1       1.796   8.688   6.840  1.00  0.00    -0.462 OA
BRANCH   2   3
ATOM      3  C   UNL     1       2.438   9.673   6.161  1.00  0.00     0.313 C 
ATOM      4  O   UNL     1       3.352  10.346   6.627  1.00  0.00    -0.252 OA
BRANCH   3   5
ATOM      5  C   UNL     1       1.880   9.926   4.766  1.00  0.00     0.126 C 
ATOM      6  C   UNL     1       0.951  11.139   4.798  1.00  0.00     0.025 C 
BRANCH   5   7
ATOM      7  C   UNL     1       1.248   8.732   4.065  1.00  0.00    -0.034 A 
ATOM      8  C   UNL     1       0.033   6.593   2.631  1.00  0.00    -0.017 A 
ATOM      9  C   UNL     1      -0.565   7.136   3.780  1.00  0.00     0.009 A 
ATOM     10  C   UNL     1       1.276   7.109   2.241  1.00  0.00     0.009 A 
ATOM     11  C   UNL     1       0.027   8.191   4.482  1.00  0.00     0.005 A 
ATOM     12  C   UNL     1       1.873   8.163   2.945  1.00  0.00     0.005 A 
BRANCH   8  13
ATOM     13  C   UNL     1      -0.663   5.572   1.831  1.00  0.00     0.001 A 
ATOM     14  C   UNL     1      -0.754   3.473   0.598  1.00  0.00    -0.007 A 
ATOM     15  C   UNL     1      -2.074   3.787   0.280  1.00  0.00     0.119 A 
ATOM     16  C   UNL     1      -0.046   4.393   1.382  1.00  0.00     0.020 A 
ATOM     17  N   UNL     1      -2.719   4.901   0.690  1.00  0.00    -0.263 NA
ATOM     18  C   UNL     1      -1.994   5.759   1.445  1.00  0.00     0.119 A 
BRANCH  14  19
ATOM     19  C   UNL     1      -0.165   2.247   0.049  1.00  0.00     0.005 C 
ATOM     20  C   UNL     1       1.187   0.151   0.156  1.00  0.00     0.035 C 
ATOM     21  C   UNL     1       0.636   1.416   0.734  1.00  0.00    -0.030 C 
ENDBRANCH  14  19
ENDBRANCH   8  13
ENDBRANCH   5   7
ENDBRANCH   3   5
ENDBRANCH   2   3
ENDBRANCH   1   2
BRANCH   1  22
ATOM     22  C   UNL     1       3.187   7.101   8.085  1.00  0.00     0.275 C 
BRANCH  22  23
ATOM     23  O   UNL     1       4.410   7.350   7.370  1.00  0.00    -0.458 OA
BRANCH  23  24
ATOM     24  C   UNL     1       4.409   6.960   6.074  1.00  0.00     0.338 C 
ATOM     25  O   UNL     1       3.519   6.387   5.472  1.00  0.00    -0.246 OA
BRANCH  24  26
ATOM     26  C   UNL     1       5.645   7.421   5.428  1.00  0.00     0.060 A 
ATOM     27  C   UNL     1       5.566   8.476   4.517  1.00  0.00     0.016 A 
ATOM     28  C   UNL     1       6.854   6.762   5.650  1.00  0.00     0.016 A 
ATOM     29  C   UNL     1       6.697   8.873   3.808  1.00  0.00     0.010 A 
ATOM     30  C   UNL     1       7.992   7.168   4.947  1.00  0.00     0.010 A 
ATOM     31  C   UNL     1       7.917   8.216   4.012  1.00  0.00    -0.014 A 
BRANCH  31  32
ATOM     32  C   UNL     1       9.106   8.597   3.212  1.00  0.00     0.031 A 
ATOM     33  C   UNL     1       9.591   7.689   2.117  1.00  0.00     0.074 A 
ATOM     34  C   UNL     1       9.742   9.756   3.468  1.00  0.00     0.049 A 
ATOM     35  N   UNL     1      10.660   7.792   1.372  1.00  0.00    -0.248 NA
ATOM     36  C   UNL     1       8.764   6.507   1.824  1.00  0.00     0.031 C 
ATOM     37  C   UNL     1       9.341  10.735   4.480  1.00  0.00     0.029 A 
ATOM     38  N   UNL     1      10.866  10.302   2.903  1.00  0.00    -0.354 N 
ATOM     39  C   UNL     1      10.655   6.676   0.544  1.00  0.00     0.074 A 
ATOM     40  C   UNL     1       9.476   5.906   0.880  1.00  0.00     0.031 C 
ATOM     41  C   UNL     1      10.206  11.763   4.462  1.00  0.00     0.029 A 
ATOM     42  C   UNL     1      11.246  11.494   3.474  1.00  0.00     0.049 A 
ATOM     43  H   UNL     1      11.355   9.881   2.159  1.00  0.00     0.167 HD
ATOM     44  C   UNL     1      11.553   6.328  -0.407  1.00  0.00     0.037 A 
ATOM     45  C   UNL     1      12.327  12.264   3.245  1.00  0.00     0.037 A 
ATOM     46  C   UNL     1      12.706   7.116  -0.756  1.00  0.00     0.049 A 
ATOM     47  C   UNL     1      13.331  11.833   2.210  1.00  0.00     0.074 A 
ATOM     48  C   UNL     1      13.655   6.867  -1.734  1.00  0.00     0.029 A 
ATOM     49  N   UNL     1      13.068   8.306  -0.142  1.00  0.00    -0.354 N 
ATOM     50  N   UNL     1      13.309  10.778   1.430  1.00  0.00    -0.248 NA
ATOM     51  C   UNL     1      14.511  12.690   2.030  1.00  0.00     0.031 C 
ATOM     52  C   UNL     1      14.610   7.889  -1.687  1.00  0.00     0.029 A 
ATOM     53  C   UNL     1      14.236   8.792  -0.705  1.00  0.00     0.049 A 
ATOM     54  H   UNL     1      12.568   8.741   0.586  1.00  0.00     0.167 HD
ATOM     55  C   UNL     1      14.459  10.857   0.653  1.00  0.00     0.074 A 
ATOM     56  C   UNL     1      15.150  12.066   1.050  1.00  0.00     0.031 C 
ATOM     57  C   UNL     1      14.903  10.005  -0.304  1.00  0.00     0.037 A 
BRANCH  44  58
ATOM     58  C   UNL     1      11.346   5.024  -1.122  1.00  0.00     0.058 A 
ATOM     59  C   UNL     1      10.371   4.873  -2.119  1.00  0.00     0.135 A 
ATOM     60  C   UNL     1      12.174   3.925  -0.840  1.00  0.00     0.135 A 
ATOM     61  F   UNL     1       9.543   5.887  -2.414  1.00  0.00    -0.206 F 
ATOM     62  C   UNL     1      10.213   3.671  -2.803  1.00  0.00     0.059 A 
ATOM     63  C   UNL     1      12.047   2.720  -1.524  1.00  0.00     0.059 A 
ATOM     64  F   UNL     1      13.120   4.018   0.108  1.00  0.00    -0.206 F 
ATOM     65  C   UNL     1      11.056   2.600  -2.498  1.00  0.00     0.060 A 
BRANCH  65  66
ATOM     66  S   UNL     1      10.853   1.051  -3.404  1.00  0.00     0.124 S 
ATOM     67  O   UNL     1       9.649   0.508  -2.784  1.00  0.00    -0.237 OA
ATOM     68  O   UNL     1      10.705   1.510  -4.781  1.00  0.00    -0.237 OA
ATOM     69  O   UNL     1      12.087   0.326  -3.118  1.00  0.00    -0.744 OA
ENDBRANCH  65  66
ENDBRANCH  44  58
BRANCH  45  70
ATOM     70  C   UNL     1      12.534  13.512   4.025  1.00  0.00     0.058 A 
ATOM     71  C   UNL     1      12.413  14.771   3.419  1.00  0.00     0.135 A 
ATOM     72  C   UNL     1      12.870  13.470   5.387  1.00  0.00     0.135 A 
ATOM     73  F   UNL     1      12.103  14.861   2.117  1.00  0.00    -0.206 F 
ATOM     74  C   UNL     1      12.636  15.946   4.130  1.00  0.00     0.059 A 
ATOM     75  C   UNL     1      13.075  14.631   6.125  1.00  0.00     0.059 A 
ATOM     76  F   UNL     1      12.987  12.290   6.015  1.00  0.00    -0.206 F 
ATOM     77  C   UNL     1      12.970  15.865   5.483  1.00  0.00     0.060 A 
BRANCH  77  78
ATOM     78  S   UNL     1      13.230  17.393   6.410  1.00  0.00     0.124 S 
ATOM     79  O   UNL     1      14.572  17.769   5.983  1.00  0.00    -0.237 OA
ATOM     80  O   UNL     1      12.145  18.240   5.923  1.00  0.00    -0.237 OA
ATOM     81  O   UNL     1      13.103  16.965   7.800  1.00  0.00    -0.744 OA
ENDBRANCH  77  78
ENDBRANCH  45  70
BRANCH  57  82
ATOM     82  C   UNL     1      16.176  10.369  -1.012  1.00  0.00     0.058 A 
ATOM     83  C   UNL     1      17.428  10.202  -0.403  1.00  0.00     0.135 A 
ATOM     84  C   UNL     1      16.143  10.843  -2.333  1.00  0.00     0.135 A 
ATOM     85  F   UNL     1      17.511   9.759   0.862  1.00  0.00    -0.206 F 
ATOM     86  C   UNL     1      18.607  10.510  -1.074  1.00  0.00     0.059 A 
ATOM     87  C   UNL     1      17.310  11.137  -3.030  1.00  0.00     0.059 A 
ATOM     88  F   UNL     1      14.969  11.011  -2.962  1.00  0.00    -0.206 F 
ATOM     89  C   UNL     1      18.537  10.977  -2.388  1.00  0.00     0.060 A 
BRANCH  89  90
ATOM     90  S   UNL     1      20.073  11.339  -3.266  1.00  0.00     0.124 S 
ATOM     91  O   UNL     1      20.435  12.634  -2.701  1.00  0.00    -0.237 OA
ATOM     92  O   UNL     1      20.928  10.219  -2.882  1.00  0.00    -0.237 OA
ATOM     93  O   UNL     1      19.666  11.355  -4.668  1.00  0.00    -0.744 OA
ENDBRANCH  89  90
ENDBRANCH  57  82
ENDBRANCH  31  32
ENDBRANCH  24  26
ENDBRANCH  23  24
ENDBRANCH  22  23
ENDBRANCH   1  22
TORSDOF 17
