REMARK SMILES Cc1ccc(-c2nnc(S[C@@H](C)C(=O)OCCOC(=O)c3ccc(-c4c5nc(c(-c6c(F)cc(S(=O)(=O)[O-])cc6F)c6ccc([nH]6)c(-c6c(F)cc(S(=O)(=O)[O-])cc6F)c6nc(c(-c7c(F)cc(S(=O)(=O)[O-])cc7F)c7ccc4[nH]7)C=C6)C=C5)cc3)n2C)cc1
REMARK SMILES IDX 16 1 15 2 13 3 14 4 11 5 12 6 10 7 9 8 6 9 7 10 87 11 8 12
REMARK SMILES IDX 88 13 5 14 1 15 2 16 3 17 90 18 4 19 89 20 17 21 18 22 19 23
REMARK SMILES IDX 20 24 21 25 22 26 86 27 23 28 85 29 24 30 25 31 26 32 79 33
REMARK SMILES IDX 27 34 84 35 78 36 80 37 28 38 83 39 77 40 76 41 29 43 63 44
REMARK SMILES IDX 42 45 62 46 43 47 46 48 61 49 81 50 44 51 45 52 60 54 82 55
REMARK SMILES IDX 47 56 30 57 31 58 40 59 32 60 33 61 39 62 41 63 34 64 35 65
REMARK SMILES IDX 36 66 37 67 38 68 64 69 65 70 74 71 66 72 67 73 73 74 75 75
REMARK SMILES IDX 68 76 69 77 70 78 71 79 72 80 48 81 49 82 58 83 50 84 51 85
REMARK SMILES IDX 57 86 59 87 52 88 53 89 54 90 55 91 56 92
REMARK H PARENT 80 42 46 53
REMARK Flexibility Score: inf
ROOT
ATOM      1  C   UNL     1      -4.622  -1.683  -2.705  1.00  0.00     0.274 C 
ENDROOT
BRANCH   1   2
ATOM      2  O   UNL     1      -5.503  -0.815  -1.979  1.00  0.00    -0.461 OA
BRANCH   2   3
ATOM      3  C   UNL     1      -5.195   0.510  -2.054  1.00  0.00     0.319 C 
ATOM      4  O   UNL     1      -4.201   0.937  -2.598  1.00  0.00    -0.251 OA
BRANCH   3   5
ATOM      5  C   UNL     1      -6.208   1.383  -1.329  1.00  0.00     0.161 C 
ATOM      6  C   UNL     1      -6.073   2.881  -1.653  1.00  0.00     0.032 C 
BRANCH   5   7
ATOM      7  S   UNL     1      -6.125   1.211   0.484  1.00  0.00    -0.071 SA
BRANCH   7   8
ATOM      8  C   UNL     1      -4.691   0.310   0.843  1.00  0.00     0.192 A 
ATOM      9  C   UNL     1      -2.609  -0.311   1.162  1.00  0.00     0.164 A 
ATOM     10  N   UNL     1      -3.396  -1.199   1.736  1.00  0.00    -0.129 NA
ATOM     11  N   UNL     1      -3.398   0.656   0.561  1.00  0.00    -0.305 N 
ATOM     12  N   UNL     1      -4.699  -0.791   1.562  1.00  0.00    -0.123 NA
ATOM     13  C   UNL     1      -2.867   1.693  -0.284  1.00  0.00     0.154 C 
BRANCH   9  14
ATOM     14  C   UNL     1      -1.156  -0.358   1.036  1.00  0.00     0.019 A 
ATOM     15  C   UNL     1       2.976  -0.181  -0.151  1.00  0.00     0.044 C 
ATOM     16  C   UNL     1       1.550  -0.263   0.306  1.00  0.00    -0.051 A 
ATOM     17  C   UNL     1       0.810  -1.441   0.134  1.00  0.00     0.004 A 
ATOM     18  C   UNL     1       0.956   0.832   0.935  1.00  0.00     0.004 A 
ATOM     19  C   UNL     1      -0.540  -1.486   0.491  1.00  0.00     0.012 A 
ATOM     20  C   UNL     1      -0.379   0.772   1.324  1.00  0.00     0.012 A 
ENDBRANCH   9  14
ENDBRANCH   7   8
ENDBRANCH   5   7
ENDBRANCH   3   5
ENDBRANCH   2   3
ENDBRANCH   1   2
BRANCH   1  21
ATOM     21  C   UNL     1      -5.413  -2.781  -3.432  1.00  0.00     0.275 C 
BRANCH  21  22
ATOM     22  O   UNL     1      -6.441  -2.415  -4.392  1.00  0.00    -0.458 OA
BRANCH  22  23
ATOM     23  C   UNL     1      -7.022  -1.184  -4.346  1.00  0.00     0.338 C 
ATOM     24  O   UNL     1      -7.939  -0.897  -3.591  1.00  0.00    -0.246 OA
BRANCH  23  25
ATOM     25  C   UNL     1      -6.212  -0.191  -5.108  1.00  0.00     0.060 A 
ATOM     26  C   UNL     1      -6.431   1.187  -4.942  1.00  0.00     0.016 A 
ATOM     27  C   UNL     1      -5.046  -0.643  -5.715  1.00  0.00     0.016 A 
ATOM     28  C   UNL     1      -5.406   2.099  -5.232  1.00  0.00     0.010 A 
ATOM     29  C   UNL     1      -3.992   0.226  -5.828  1.00  0.00     0.010 A 
ATOM     30  C   UNL     1      -4.154   1.604  -5.596  1.00  0.00    -0.014 A 
BRANCH  30  31
ATOM     31  C   UNL     1      -2.973   2.396  -5.948  1.00  0.00     0.031 A 
ATOM     32  C   UNL     1      -2.150   3.192  -5.009  1.00  0.00     0.074 A 
ATOM     33  C   UNL     1      -2.598   2.210  -7.234  1.00  0.00     0.049 A 
ATOM     34  N   UNL     1      -1.175   3.943  -5.391  1.00  0.00    -0.248 NA
ATOM     35  C   UNL     1      -2.312   3.226  -3.563  1.00  0.00     0.031 C 
ATOM     36  C   UNL     1      -1.403   2.601  -7.956  1.00  0.00     0.029 A 
ATOM     37  N   UNL     1      -3.450   1.733  -8.238  1.00  0.00    -0.354 N 
ATOM     38  C   UNL     1      -0.465   4.382  -4.292  1.00  0.00     0.074 A 
ATOM     39  C   UNL     1      -1.228   3.910  -3.164  1.00  0.00     0.031 C 
ATOM     40  C   UNL     1      -1.720   2.689  -9.263  1.00  0.00     0.029 A 
ATOM     41  C   UNL     1      -3.161   2.481  -9.378  1.00  0.00     0.049 A 
ATOM     42  H   UNL     1      -4.117   1.014  -8.155  1.00  0.00     0.167 HD
ATOM     43  C   UNL     1       0.717   5.032  -4.514  1.00  0.00     0.037 A 
ATOM     44  C   UNL     1      -4.105   3.402  -9.745  1.00  0.00     0.037 A 
ATOM     45  C   UNL     1       0.805   5.392  -5.932  1.00  0.00     0.049 A 
ATOM     46  C   UNL     1      -3.608   4.824  -9.562  1.00  0.00     0.074 A 
ATOM     47  C   UNL     1       1.393   4.826  -7.049  1.00  0.00     0.029 A 
ATOM     48  N   UNL     1      -0.100   6.322  -6.406  1.00  0.00    -0.354 N 
ATOM     49  N   UNL     1      -2.517   5.141  -8.916  1.00  0.00    -0.248 NA
ATOM     50  C   UNL     1      -4.298   6.003 -10.079  1.00  0.00     0.031 C 
ATOM     51  C   UNL     1       0.741   5.364  -8.202  1.00  0.00     0.029 A 
ATOM     52  C   UNL     1      -0.216   6.270  -7.779  1.00  0.00     0.049 A 
ATOM     53  H   UNL     1      -0.600   6.947  -5.833  1.00  0.00     0.167 HD
ATOM     54  C   UNL     1      -2.322   6.491  -8.958  1.00  0.00     0.074 A 
ATOM     55  C   UNL     1      -3.485   6.995  -9.670  1.00  0.00     0.031 C 
ATOM     56  C   UNL     1      -1.226   7.101  -8.421  1.00  0.00     0.037 A 
BRANCH  43  57
ATOM     57  C   UNL     1       1.866   5.256  -3.544  1.00  0.00     0.058 A 
ATOM     58  C   UNL     1       3.163   5.524  -4.053  1.00  0.00     0.135 A 
ATOM     59  C   UNL     1       1.809   5.156  -2.139  1.00  0.00     0.135 A 
ATOM     60  F   UNL     1       3.381   5.691  -5.365  1.00  0.00    -0.206 F 
ATOM     61  C   UNL     1       4.306   5.604  -3.254  1.00  0.00     0.059 A 
ATOM     62  C   UNL     1       2.946   5.221  -1.317  1.00  0.00     0.059 A 
ATOM     63  F   UNL     1       0.650   5.009  -1.490  1.00  0.00    -0.206 F 
ATOM     64  C   UNL     1       4.195   5.425  -1.886  1.00  0.00     0.060 A 
BRANCH  64  65
ATOM     65  S   UNL     1       5.696   5.445  -0.887  1.00  0.00     0.124 S 
ATOM     66  O   UNL     1       6.441   4.316  -1.438  1.00  0.00    -0.237 OA
ATOM     67  O   UNL     1       6.242   6.767  -1.174  1.00  0.00    -0.237 OA
ATOM     68  O   UNL     1       5.201   5.254   0.474  1.00  0.00    -0.744 OA
ENDBRANCH  64  65
ENDBRANCH  43  57
BRANCH  44  69
ATOM     69  C   UNL     1      -5.514   2.896  -9.529  1.00  0.00     0.058 A 
ATOM     70  C   UNL     1      -5.856   1.625 -10.062  1.00  0.00     0.135 A 
ATOM     71  C   UNL     1      -6.387   3.414  -8.562  1.00  0.00     0.135 A 
ATOM     72  F   UNL     1      -5.071   1.056 -10.994  1.00  0.00    -0.206 F 
ATOM     73  C   UNL     1      -6.909   0.857  -9.566  1.00  0.00     0.059 A 
ATOM     74  C   UNL     1      -7.477   2.673  -8.075  1.00  0.00     0.059 A 
ATOM     75  F   UNL     1      -6.148   4.610  -8.003  1.00  0.00    -0.206 F 
ATOM     76  C   UNL     1      -7.698   1.377  -8.547  1.00  0.00     0.060 A 
BRANCH  76  77
ATOM     77  S   UNL     1      -8.905   0.278  -7.758  1.00  0.00     0.124 S 
ATOM     78  O   UNL     1      -9.930   0.168  -8.790  1.00  0.00    -0.237 OA
ATOM     79  O   UNL     1      -8.114  -0.928  -7.523  1.00  0.00    -0.237 OA
ATOM     80  O   UNL     1      -9.291   1.014  -6.558  1.00  0.00    -0.744 OA
ENDBRANCH  76  77
ENDBRANCH  44  69
BRANCH  56  81
ATOM     81  C   UNL     1      -1.007   8.581  -8.483  1.00  0.00     0.058 A 
ATOM     82  C   UNL     1      -1.102   9.295  -9.685  1.00  0.00     0.135 A 
ATOM     83  C   UNL     1      -0.568   9.303  -7.352  1.00  0.00     0.135 A 
ATOM     84  F   UNL     1      -1.459   8.678 -10.823  1.00  0.00    -0.206 F 
ATOM     85  C   UNL     1      -0.826  10.658  -9.753  1.00  0.00     0.059 A 
ATOM     86  C   UNL     1      -0.222  10.646  -7.411  1.00  0.00     0.059 A 
ATOM     87  F   UNL     1      -0.494   8.730  -6.141  1.00  0.00    -0.206 F 
ATOM     88  C   UNL     1      -0.385  11.323  -8.610  1.00  0.00     0.060 A 
BRANCH  88  89
ATOM     89  S   UNL     1      -0.027  13.085  -8.693  1.00  0.00     0.124 S 
ATOM     90  O   UNL     1       0.577  13.225 -10.014  1.00  0.00    -0.237 OA
ATOM     91  O   UNL     1      -1.362  13.655  -8.544  1.00  0.00    -0.237 OA
ATOM     92  O   UNL     1       0.879  13.299  -7.569  1.00  0.00    -0.744 OA
ENDBRANCH  88  89
ENDBRANCH  56  81
ENDBRANCH  30  31
ENDBRANCH  23  25
ENDBRANCH  22  23
ENDBRANCH  21  22
ENDBRANCH   1  21
TORSDOF 17
