REMARK SMILES CC[C@@H](C(=O)OCCOC(=O)c1ccc(-c2c3nc(c(-c4c(F)cc(S(=O)(=O)[O-])cc4F)c4ccc([nH]4)c(-c4c(F)cc(S(=O)(=O)[O-])cc4F)c4nc(c(-c5c(F)cc(S(=O)(=O)[O-])cc5F)c5ccc2[nH]5)C=C4)C=C3)cc1)N1CCN(Cc2cccc(C)c2)C(=O)C1=O
REMARK SMILES IDX 7 1 6 2 4 3 5 4 3 5 2 6 1 7 78 8 79 9 92 10 80 11 90 12
REMARK SMILES IDX 93 13 81 14 91 15 82 16 83 17 84 18 89 19 85 20 87 21 86 22
REMARK SMILES IDX 88 23 8 24 9 25 10 26 11 27 12 28 13 29 77 30 14 31 76 32
REMARK SMILES IDX 15 33 16 34 17 35 70 36 18 37 75 38 69 39 71 40 19 41 74 42
REMARK SMILES IDX 68 43 67 44 20 46 54 47 33 48 53 49 34 50 37 51 52 52 72 53
REMARK SMILES IDX 35 54 36 55 51 57 73 58 38 59 21 60 22 61 31 62 23 63 24 64
REMARK SMILES IDX 30 65 32 66 25 67 26 68 27 69 28 70 29 71 55 72 56 73 65 74
REMARK SMILES IDX 57 75 58 76 64 77 66 78 59 79 60 80 61 81 62 82 63 83 39 84
REMARK SMILES IDX 40 85 49 86 41 87 42 88 48 89 50 90 43 91 44 92 45 93 46 94
REMARK SMILES IDX 47 95
REMARK H PARENT 71 45 37 56
REMARK Flexibility Score: inf
ROOT
ATOM      1  C   UNL     1       0.037   3.911   0.400  1.00  0.00     0.274 C 
ENDROOT
BRANCH   1   2
ATOM      2  O   UNL     1       0.604   2.605   0.633  1.00  0.00    -0.461 OA
BRANCH   2   3
ATOM      3  C   UNL     1       0.623   2.164   1.920  1.00  0.00     0.328 C 
ATOM      4  O   UNL     1       0.248   2.860   2.859  1.00  0.00    -0.250 OA
BRANCH   3   5
ATOM      5  C   UNL     1       1.281   0.751   2.064  1.00  0.00     0.195 C 
BRANCH   5   6
ATOM      6  C   UNL     1       0.711  -0.253   1.038  1.00  0.00     0.034 C 
ATOM      7  C   UNL     1       1.010   0.022  -0.429  1.00  0.00     0.007 C 
ENDBRANCH   5   6
BRANCH   5   8
ATOM      8  N   UNL     1       1.176   0.286   3.493  1.00  0.00    -0.319 N 
ATOM      9  C   UNL     1       1.700   1.137   4.543  1.00  0.00     0.142 C 
ATOM     10  C   UNL     1       0.789  -0.993   3.921  1.00  0.00     0.312 C 
ATOM     11  C   UNL     1       0.676   1.286   5.647  1.00  0.00     0.142 C 
ATOM     12  C   UNL     1       0.317  -1.146   5.409  1.00  0.00     0.312 C 
ATOM     13  O   UNL     1       0.763  -1.986   3.206  1.00  0.00    -0.263 OA
ATOM     14  N   UNL     1       0.269   0.001   6.209  1.00  0.00    -0.328 N 
ATOM     15  O   UNL     1      -0.045  -2.251   5.800  1.00  0.00    -0.263 OA
BRANCH  14  16
ATOM     16  C   UNL     1      -0.481  -0.074   7.484  1.00  0.00     0.155 C 
BRANCH  16  17
ATOM     17  C   UNL     1      -0.087   0.953   8.512  1.00  0.00    -0.028 A 
ATOM     18  C   UNL     1       0.493   0.570   9.719  1.00  0.00     0.005 A 
ATOM     19  C   UNL     1      -0.239   2.322   8.247  1.00  0.00     0.009 A 
ATOM     20  C   UNL     1       1.028   1.538  10.566  1.00  0.00     0.001 A 
ATOM     21  C   UNL     1       0.378   3.294   9.034  1.00  0.00    -0.051 A 
ATOM     22  C   UNL     1       1.010   2.889  10.205  1.00  0.00     0.003 A 
ATOM     23  C   UNL     1       0.361   4.733   8.616  1.00  0.00     0.044 C 
ENDBRANCH  16  17
ENDBRANCH  14  16
ENDBRANCH   5   8
ENDBRANCH   3   5
ENDBRANCH   2   3
ENDBRANCH   1   2
BRANCH   1  24
ATOM     24  C   UNL     1      -1.489   3.883   0.236  1.00  0.00     0.275 C 
BRANCH  24  25
ATOM     25  O   UNL     1      -2.177   3.691   1.491  1.00  0.00    -0.458 OA
BRANCH  25  26
ATOM     26  C   UNL     1      -2.525   2.412   1.773  1.00  0.00     0.338 C 
ATOM     27  O   UNL     1      -2.353   1.451   1.030  1.00  0.00    -0.246 OA
BRANCH  26  28
ATOM     28  C   UNL     1      -3.005   2.268   3.172  1.00  0.00     0.060 A 
ATOM     29  C   UNL     1      -2.704   1.075   3.831  1.00  0.00     0.016 A 
ATOM     30  C   UNL     1      -3.751   3.244   3.844  1.00  0.00     0.016 A 
ATOM     31  C   UNL     1      -3.108   0.880   5.157  1.00  0.00     0.010 A 
ATOM     32  C   UNL     1      -4.176   3.030   5.175  1.00  0.00     0.010 A 
ATOM     33  C   UNL     1      -3.840   1.855   5.865  1.00  0.00    -0.014 A 
BRANCH  33  34
ATOM     34  C   UNL     1      -4.281   1.547   7.274  1.00  0.00     0.031 A 
ATOM     35  C   UNL     1      -5.153   0.342   7.516  1.00  0.00     0.074 A 
ATOM     36  C   UNL     1      -3.910   2.273   8.355  1.00  0.00     0.049 A 
ATOM     37  N   UNL     1      -5.484  -0.230   8.645  1.00  0.00    -0.248 NA
ATOM     38  C   UNL     1      -5.777  -0.262   6.328  1.00  0.00     0.031 C 
ATOM     39  C   UNL     1      -3.219   3.554   8.311  1.00  0.00     0.029 A 
ATOM     40  N   UNL     1      -4.006   2.009   9.714  1.00  0.00    -0.354 N 
ATOM     41  C   UNL     1      -6.420  -1.201   8.314  1.00  0.00     0.074 A 
ATOM     42  C   UNL     1      -6.527  -1.209   6.870  1.00  0.00     0.031 C 
ATOM     43  C   UNL     1      -2.837   3.889   9.556  1.00  0.00     0.029 A 
ATOM     44  C   UNL     1      -3.232   2.853  10.499  1.00  0.00     0.049 A 
ATOM     45  H   UNL     1      -4.569   1.292  10.086  1.00  0.00     0.167 HD
ATOM     46  C   UNL     1      -7.193  -1.949   9.136  1.00  0.00     0.037 A 
ATOM     47  C   UNL     1      -2.846   2.767  11.799  1.00  0.00     0.037 A 
ATOM     48  C   UNL     1      -7.148  -1.906  10.574  1.00  0.00     0.049 A 
ATOM     49  C   UNL     1      -3.526   1.736  12.671  1.00  0.00     0.074 A 
ATOM     50  C   UNL     1      -7.952  -2.580  11.479  1.00  0.00     0.029 A 
ATOM     51  N   UNL     1      -6.269  -1.139  11.320  1.00  0.00    -0.354 N 
ATOM     52  N   UNL     1      -4.358   0.782  12.330  1.00  0.00    -0.248 NA
ATOM     53  C   UNL     1      -3.278   1.818  14.122  1.00  0.00     0.031 C 
ATOM     54  C   UNL     1      -7.592  -2.183  12.771  1.00  0.00     0.029 A 
ATOM     55  C   UNL     1      -6.519  -1.316  12.673  1.00  0.00     0.049 A 
ATOM     56  H   UNL     1      -5.570  -0.556  10.946  1.00  0.00     0.167 HD
ATOM     57  C   UNL     1      -4.771   0.200  13.524  1.00  0.00     0.074 A 
ATOM     58  C   UNL     1      -4.003   0.812  14.584  1.00  0.00     0.031 C 
ATOM     59  C   UNL     1      -5.759  -0.703  13.729  1.00  0.00     0.037 A 
BRANCH  46  60
ATOM     60  C   UNL     1      -8.268  -2.772   8.489  1.00  0.00     0.058 A 
ATOM     61  C   UNL     1      -7.992  -3.953   7.786  1.00  0.00     0.135 A 
ATOM     62  C   UNL     1      -9.605  -2.351   8.576  1.00  0.00     0.135 A 
ATOM     63  F   UNL     1      -6.726  -4.376   7.645  1.00  0.00    -0.206 F 
ATOM     64  C   UNL     1      -9.007  -4.681   7.175  1.00  0.00     0.059 A 
ATOM     65  C   UNL     1     -10.638  -3.078   7.999  1.00  0.00     0.059 A 
ATOM     66  F   UNL     1      -9.918  -1.218   9.225  1.00  0.00    -0.206 F 
ATOM     67  C   UNL     1     -10.327  -4.235   7.288  1.00  0.00     0.060 A 
BRANCH  67  68
ATOM     68  S   UNL     1     -11.635  -5.191   6.495  1.00  0.00     0.124 S 
ATOM     69  O   UNL     1     -11.404  -4.888   5.086  1.00  0.00    -0.237 OA
ATOM     70  O   UNL     1     -11.321  -6.554   6.911  1.00  0.00    -0.237 OA
ATOM     71  O   UNL     1     -12.857  -4.631   7.064  1.00  0.00    -0.744 OA
ENDBRANCH  67  68
ENDBRANCH  46  60
BRANCH  47  72
ATOM     72  C   UNL     1      -1.746   3.607  12.402  1.00  0.00     0.058 A 
ATOM     73  C   UNL     1      -0.659   2.980  13.055  1.00  0.00     0.135 A 
ATOM     74  C   UNL     1      -1.733   5.009  12.402  1.00  0.00     0.135 A 
ATOM     75  F   UNL     1      -0.604   1.640  13.136  1.00  0.00    -0.206 F 
ATOM     76  C   UNL     1       0.382   3.692  13.651  1.00  0.00     0.059 A 
ATOM     77  C   UNL     1      -0.676   5.746  12.947  1.00  0.00     0.059 A 
ATOM     78  F   UNL     1      -2.757   5.696  11.873  1.00  0.00    -0.206 F 
ATOM     79  C   UNL     1       0.376   5.080  13.573  1.00  0.00     0.060 A 
BRANCH  79  80
ATOM     80  S   UNL     1       1.786   5.996  14.235  1.00  0.00     0.124 S 
ATOM     81  O   UNL     1       1.517   5.963  15.668  1.00  0.00    -0.237 OA
ATOM     82  O   UNL     1       2.917   5.194  13.778  1.00  0.00    -0.237 OA
ATOM     83  O   UNL     1       1.660   7.303  13.596  1.00  0.00    -0.744 OA
ENDBRANCH  79  80
ENDBRANCH  47  72
BRANCH  59  84
ATOM     84  C   UNL     1      -6.101  -1.043  15.155  1.00  0.00     0.058 A 
ATOM     85  C   UNL     1      -6.685  -0.093  16.013  1.00  0.00     0.135 A 
ATOM     86  C   UNL     1      -5.878  -2.331  15.664  1.00  0.00     0.135 A 
ATOM     87  F   UNL     1      -6.923   1.155  15.579  1.00  0.00    -0.206 F 
ATOM     88  C   UNL     1      -6.996  -0.397  17.334  1.00  0.00     0.059 A 
ATOM     89  C   UNL     1      -6.211  -2.666  16.974  1.00  0.00     0.059 A 
ATOM     90  F   UNL     1      -5.336  -3.281  14.887  1.00  0.00    -0.206 F 
ATOM     91  C   UNL     1      -6.754  -1.687  17.806  1.00  0.00     0.060 A 
BRANCH  91  92
ATOM     92  S   UNL     1      -7.173  -2.070  19.520  1.00  0.00     0.124 S 
ATOM     93  O   UNL     1      -6.127  -1.358  20.246  1.00  0.00    -0.237 OA
ATOM     94  O   UNL     1      -8.519  -1.517  19.644  1.00  0.00    -0.237 OA
ATOM     95  O   UNL     1      -7.093  -3.527  19.572  1.00  0.00    -0.744 OA
ENDBRANCH  91  92
ENDBRANCH  59  84
ENDBRANCH  33  34
ENDBRANCH  26  28
ENDBRANCH  25  26
ENDBRANCH  24  25
ENDBRANCH   1  24
TORSDOF 18
