REMARK SMILES O=C(C[NH+]1CC(c2nc(-c3cccs3)no2)C1)OCCOC(=O)c1ccc(-c2c3nc(c(-c4c(F)cc(S(=O)(=O)[O-])cc4F)c4ccc([nH]4)c(-c4c(F)cc(S(=O)(=O)[O-])cc4F)c4nc(c(-c5c(F)cc(S(=O)(=O)[O-])cc5F)c5ccc2[nH]5)C=C4)C=C3)cc1
REMARK SMILES IDX 19 1 18 2 2 3 1 4 3 5 4 6 5 7 17 8 6 10 7 11 8 12 16 13 9 14
REMARK SMILES IDX 15 15 10 16 11 17 14 18 12 19 13 20 20 21 21 22 22 23 23 24
REMARK SMILES IDX 24 25 25 26 89 27 26 28 88 29 27 30 28 31 29 32 82 33 30 34
REMARK SMILES IDX 87 35 81 36 83 37 31 38 86 39 80 40 79 41 32 43 66 44 45 45
REMARK SMILES IDX 65 46 46 47 49 48 64 49 84 50 47 51 48 52 63 54 85 55 50 56
REMARK SMILES IDX 33 57 34 58 43 59 35 60 36 61 42 62 44 63 37 64 38 65 39 66
REMARK SMILES IDX 40 67 41 68 67 69 68 70 77 71 69 72 70 73 76 74 78 75 71 76
REMARK SMILES IDX 72 77 73 78 74 79 75 80 51 81 52 82 61 83 53 84 54 85 60 86
REMARK SMILES IDX 62 87 55 88 56 89 57 90 58 91 59 92
REMARK H PARENT 4 9 83 42 49 53
REMARK Flexibility Score: inf
ROOT
ATOM      1  C   UNL     1       4.615  -0.432  -0.771  1.00  0.00     0.274 C 
ENDROOT
BRANCH   1   2
ATOM      2  O   UNL     1       3.296  -0.948  -0.503  1.00  0.00    -0.458 OA
BRANCH   2   3
ATOM      3  C   UNL     1       2.452  -0.487   0.445  1.00  0.00     0.361 C 
ATOM      4  O   UNL     1       1.313  -0.952   0.522  1.00  0.00    -0.245 OA
BRANCH   3   5
ATOM      5  C   UNL     1       2.920   0.570   1.440  1.00  0.00     0.386 C 
BRANCH   5   6
ATOM      6  N   UNL     1       3.963   0.088   2.366  1.00  0.00    -0.324 N 
ATOM      7  C   UNL     1       3.830   0.782   3.680  1.00  0.00     0.282 C 
ATOM      8  C   UNL     1       3.551  -1.166   3.024  1.00  0.00     0.282 C 
ATOM      9  H   UNL     1       4.818   0.135   1.811  1.00  0.00     0.348 HD
ATOM     10  C   UNL     1       4.042  -0.578   4.375  1.00  0.00     0.188 C 
BRANCH  10  11
ATOM     11  C   UNL     1       3.067  -0.982   5.455  1.00  0.00     0.241 A 
ATOM     12  N   UNL     1       3.326  -1.952   6.301  1.00  0.00    -0.190 NA
ATOM     13  O   UNL     1       1.767  -0.562   5.505  1.00  0.00    -0.338 OA
ATOM     14  C   UNL     1       2.083  -2.219   6.830  1.00  0.00     0.212 A 
ATOM     15  N   UNL     1       1.117  -1.389   6.417  1.00  0.00    -0.056 NA
BRANCH  14  16
ATOM     16  C   UNL     1       1.844  -3.427   7.674  1.00  0.00     0.075 A 
ATOM     17  C   UNL     1       2.852  -4.285   8.063  1.00  0.00     0.024 A 
ATOM     18  S   UNL     1       0.313  -3.955   8.206  1.00  0.00    -0.140 S 
ATOM     19  C   UNL     1       2.352  -5.408   8.785  1.00  0.00     0.012 A 
ATOM     20  C   UNL     1       0.982  -5.359   8.922  1.00  0.00     0.065 A 
ENDBRANCH  14  16
ENDBRANCH  10  11
ENDBRANCH   5   6
ENDBRANCH   3   5
ENDBRANCH   2   3
ENDBRANCH   1   2
BRANCH   1  21
ATOM     21  C   UNL     1       4.582   0.555  -1.936  1.00  0.00     0.275 C 
BRANCH  21  22
ATOM     22  O   UNL     1       4.028   1.807  -1.494  1.00  0.00    -0.458 OA
BRANCH  22  23
ATOM     23  C   UNL     1       2.720   2.018  -1.786  1.00  0.00     0.338 C 
ATOM     24  O   UNL     1       2.010   1.317  -2.486  1.00  0.00    -0.246 OA
BRANCH  23  25
ATOM     25  C   UNL     1       2.216   3.132  -0.947  1.00  0.00     0.060 A 
ATOM     26  C   UNL     1       0.910   3.042  -0.451  1.00  0.00     0.016 A 
ATOM     27  C   UNL     1       3.025   4.220  -0.597  1.00  0.00     0.016 A 
ATOM     28  C   UNL     1       0.403   4.052   0.370  1.00  0.00     0.010 A 
ATOM     29  C   UNL     1       2.516   5.229   0.226  1.00  0.00     0.010 A 
ATOM     30  C   UNL     1       1.194   5.163   0.695  1.00  0.00    -0.014 A 
BRANCH  30  31
ATOM     31  C   UNL     1       0.593   6.309   1.421  1.00  0.00     0.031 A 
ATOM     32  C   UNL     1       0.101   7.493   0.633  1.00  0.00     0.074 A 
ATOM     33  C   UNL     1       0.459   6.287   2.760  1.00  0.00     0.049 A 
ATOM     34  N   UNL     1      -0.502   8.574   1.055  1.00  0.00    -0.248 NA
ATOM     35  C   UNL     1       0.318   7.452  -0.822  1.00  0.00     0.031 C 
ATOM     36  C   UNL     1       0.900   5.205   3.640  1.00  0.00     0.029 A 
ATOM     37  N   UNL     1      -0.086   7.213   3.614  1.00  0.00    -0.354 N 
ATOM     38  C   UNL     1      -0.761   9.329  -0.082  1.00  0.00     0.074 A 
ATOM     39  C   UNL     1      -0.201   8.609  -1.206  1.00  0.00     0.031 C 
ATOM     40  C   UNL     1       0.615   5.534   4.913  1.00  0.00     0.029 A 
ATOM     41  C   UNL     1      -0.022   6.850   4.939  1.00  0.00     0.049 A 
ATOM     42  H   UNL     1      -0.487   8.058   3.307  1.00  0.00     0.167 HD
ATOM     43  C   UNL     1      -1.425  10.504  -0.186  1.00  0.00     0.037 A 
ATOM     44  C   UNL     1      -0.429   7.506   6.043  1.00  0.00     0.037 A 
ATOM     45  C   UNL     1      -1.969  11.234   0.928  1.00  0.00     0.049 A 
ATOM     46  C   UNL     1      -1.121   8.839   5.905  1.00  0.00     0.074 A 
ATOM     47  C   UNL     1      -2.665  12.431   0.917  1.00  0.00     0.029 A 
ATOM     48  N   UNL     1      -1.874  10.840   2.254  1.00  0.00    -0.354 N 
ATOM     49  N   UNL     1      -1.405   9.515   4.816  1.00  0.00    -0.248 NA
ATOM     50  C   UNL     1      -1.562   9.492   7.147  1.00  0.00     0.031 C 
ATOM     51  C   UNL     1      -2.959  12.779   2.240  1.00  0.00     0.029 A 
ATOM     52  C   UNL     1      -2.483  11.779   3.071  1.00  0.00     0.049 A 
ATOM     53  H   UNL     1      -1.438  10.015   2.569  1.00  0.00     0.167 HD
ATOM     54  C   UNL     1      -2.079  10.657   5.242  1.00  0.00     0.074 A 
ATOM     55  C   UNL     1      -2.174  10.573   6.684  1.00  0.00     0.031 C 
ATOM     56  C   UNL     1      -2.573  11.683   4.506  1.00  0.00     0.037 A 
BRANCH  43  57
ATOM     57  C   UNL     1      -1.610  11.072  -1.564  1.00  0.00     0.058 A 
ATOM     58  C   UNL     1      -2.533  10.513  -2.463  1.00  0.00     0.135 A 
ATOM     59  C   UNL     1      -0.897  12.208  -1.975  1.00  0.00     0.135 A 
ATOM     60  F   UNL     1      -3.224   9.413  -2.124  1.00  0.00    -0.206 F 
ATOM     61  C   UNL     1      -2.732  11.053  -3.728  1.00  0.00     0.059 A 
ATOM     62  C   UNL     1      -1.095  12.778  -3.229  1.00  0.00     0.059 A 
ATOM     63  F   UNL     1       0.002  12.776  -1.155  1.00  0.00    -0.206 F 
ATOM     64  C   UNL     1      -2.009  12.187  -4.102  1.00  0.00     0.060 A 
BRANCH  64  65
ATOM     65  S   UNL     1      -2.294  12.889  -5.740  1.00  0.00     0.124 S 
ATOM     66  O   UNL     1      -1.621  11.914  -6.594  1.00  0.00    -0.237 OA
ATOM     67  O   UNL     1      -3.751  12.905  -5.825  1.00  0.00    -0.237 OA
ATOM     68  O   UNL     1      -1.658  14.200  -5.664  1.00  0.00    -0.744 OA
ENDBRANCH  64  65
ENDBRANCH  43  57
BRANCH  44  69
ATOM     69  C   UNL     1      -0.194   6.924   7.392  1.00  0.00     0.058 A 
ATOM     70  C   UNL     1      -1.256   6.456   8.179  1.00  0.00     0.135 A 
ATOM     71  C   UNL     1       1.098   6.872   7.937  1.00  0.00     0.135 A 
ATOM     72  F   UNL     1      -2.510   6.496   7.705  1.00  0.00    -0.206 F 
ATOM     73  C   UNL     1      -1.052   5.986   9.473  1.00  0.00     0.059 A 
ATOM     74  C   UNL     1       1.330   6.385   9.219  1.00  0.00     0.059 A 
ATOM     75  F   UNL     1       2.149   7.296   7.218  1.00  0.00    -0.206 F 
ATOM     76  C   UNL     1       0.246   5.962   9.986  1.00  0.00     0.060 A 
BRANCH  76  77
ATOM     77  S   UNL     1       0.510   5.347  11.664  1.00  0.00     0.124 S 
ATOM     78  O   UNL     1       0.076   6.486  12.464  1.00  0.00    -0.237 OA
ATOM     79  O   UNL     1      -0.354   4.172  11.704  1.00  0.00    -0.237 OA
ATOM     80  O   UNL     1       1.942   5.063  11.692  1.00  0.00    -0.744 OA
ENDBRANCH  76  77
ENDBRANCH  44  69
BRANCH  56  81
ATOM     81  C   UNL     1      -3.283  12.785   5.245  1.00  0.00     0.058 A 
ATOM     82  C   UNL     1      -2.583  13.716   6.027  1.00  0.00     0.135 A 
ATOM     83  C   UNL     1      -4.677  12.926   5.148  1.00  0.00     0.135 A 
ATOM     84  F   UNL     1      -1.250  13.625   6.155  1.00  0.00    -0.206 F 
ATOM     85  C   UNL     1      -3.243  14.729   6.717  1.00  0.00     0.059 A 
ATOM     86  C   UNL     1      -5.355  13.946   5.809  1.00  0.00     0.059 A 
ATOM     87  F   UNL     1      -5.393  12.071   4.402  1.00  0.00    -0.206 F 
ATOM     88  C   UNL     1      -4.631  14.832   6.606  1.00  0.00     0.060 A 
BRANCH  88  89
ATOM     89  S   UNL     1      -5.479  16.153   7.498  1.00  0.00     0.124 S 
ATOM     90  O   UNL     1      -5.495  15.625   8.858  1.00  0.00    -0.237 OA
ATOM     91  O   UNL     1      -4.603  17.299   7.274  1.00  0.00    -0.237 OA
ATOM     92  O   UNL     1      -6.778  16.229   6.837  1.00  0.00    -0.744 OA
ENDBRANCH  88  89
ENDBRANCH  56  81
ENDBRANCH  30  31
ENDBRANCH  23  25
ENDBRANCH  22  23
ENDBRANCH  21  22
ENDBRANCH   1  21
TORSDOF 17
