REMARK SMILES Cc1ccc(-c2nc(NC(=O)[C@H]3[C@@H](C(=O)OCCOC(=O)c4ccc(-c5c6nc(c(-c7c(F)cc(S(=O)(=O)[O-])cc7F)c7ccc([nH]7)c(-c7c(F)cc(S(=O)(=O)[O-])cc7F)c7nc(c(-c8c(F)cc(S(=O)(=O)[O-])cc8F)c8ccc5[nH]8)C=C7)C=C6)cc4)[C@@H]4CC[C@H]3O4)sc2C)cc1
REMARK SMILES IDX 17 1 16 2 14 3 15 4 13 5 12 6 91 7 88 8 90 9 92 10 89 11
REMARK SMILES IDX 10 12 9 13 11 15 8 16 6 17 7 18 94 19 93 20 95 21 5 22 1 23
REMARK SMILES IDX 2 24 3 25 97 26 4 27 96 28 18 29 19 30 20 31 21 32 22 33
REMARK SMILES IDX 23 34 87 35 24 36 86 37 25 38 26 39 27 40 80 41 28 42 85 43
REMARK SMILES IDX 79 44 81 45 29 46 84 47 78 48 77 49 30 51 64 52 43 53 63 54
REMARK SMILES IDX 44 55 47 56 62 57 82 58 45 59 46 60 61 62 83 63 48 64 31 65
REMARK SMILES IDX 32 66 41 67 33 68 34 69 40 70 42 71 35 72 36 73 37 74 38 75
REMARK SMILES IDX 39 76 65 77 66 78 75 79 67 80 68 81 74 82 76 83 69 84 70 85
REMARK SMILES IDX 71 86 72 87 73 88 49 89 50 90 59 91 51 92 52 93 58 94 60 95
REMARK SMILES IDX 53 96 54 97 55 98 56 99 57 100
REMARK H PARENT 9 14 81 50 47 61
REMARK Flexibility Score: inf
ROOT
ATOM      1  C   UNL     1      -5.066   1.151  -2.268  1.00  0.00     0.274 C 
ENDROOT
BRANCH   1   2
ATOM      2  O   UNL     1      -4.942   0.294  -0.725  1.00  0.00    -0.462 OA
BRANCH   2   3
ATOM      3  C   UNL     1      -5.719   0.070   0.513  1.00  0.00     0.312 C 
ATOM      4  O   UNL     1      -5.425   0.632   1.571  1.00  0.00    -0.252 OA
BRANCH   3   5
ATOM      5  C   UNL     1      -6.878  -1.121   0.538  1.00  0.00     0.143 C 
ATOM      6  C   UNL     1      -7.025  -1.575  -0.863  1.00  0.00     0.124 C 
ATOM      7  C   UNL     1      -8.455  -1.995  -1.097  1.00  0.00     0.132 C 
ATOM      8  C   UNL     1      -8.447  -1.063   0.874  1.00  0.00     0.133 C 
ATOM      9  C   UNL     1      -8.870  -3.149  -0.202  1.00  0.00     0.035 C 
ATOM     10  O   UNL     1      -9.088  -0.882  -0.444  1.00  0.00    -0.373 OA
ATOM     11  C   UNL     1      -9.170  -2.403   1.096  1.00  0.00     0.036 C 
BRANCH   6  12
ATOM     12  C   UNL     1      -6.847  -0.386  -1.738  1.00  0.00     0.232 C 
ATOM     13  N   UNL     1      -7.121   0.983  -1.105  1.00  0.00    -0.302 N 
ATOM     14  H   UNL     1      -7.924   0.877  -0.546  1.00  0.00     0.172 HD
ATOM     15  O   UNL     1      -6.509  -0.743  -2.870  1.00  0.00    -0.274 OA
BRANCH  13  16
ATOM     16  C   UNL     1      -6.671   2.495  -0.962  1.00  0.00     0.190 A 
ATOM     17  C   UNL     1      -6.575   4.593  -0.075  1.00  0.00     0.086 A 
ATOM     18  N   UNL     1      -6.081   3.224   0.009  1.00  0.00    -0.220 NA
ATOM     19  C   UNL     1      -7.750   4.610  -0.805  1.00  0.00     0.031 A 
ATOM     20  S   UNL     1      -7.321   3.662  -2.100  1.00  0.00    -0.101 S 
ATOM     21  C   UNL     1      -8.964   5.405  -0.977  1.00  0.00     0.059 C 
BRANCH  17  22
ATOM     22  C   UNL     1      -6.075   5.905   0.405  1.00  0.00     0.001 A 
ATOM     23  C   UNL     1      -6.188  10.030   1.776  1.00  0.00     0.044 C 
ATOM     24  C   UNL     1      -5.966   8.626   1.282  1.00  0.00    -0.051 A 
ATOM     25  C   UNL     1      -6.265   8.336  -0.041  1.00  0.00     0.004 A 
ATOM     26  C   UNL     1      -5.575   7.564   2.118  1.00  0.00     0.004 A 
ATOM     27  C   UNL     1      -6.273   7.008  -0.471  1.00  0.00     0.010 A 
ATOM     28  C   UNL     1      -5.640   6.207   1.691  1.00  0.00     0.010 A 
ENDBRANCH  17  22
ENDBRANCH  13  16
ENDBRANCH   6  12
ENDBRANCH   3   5
ENDBRANCH   2   3
ENDBRANCH   1   2
BRANCH   1  29
ATOM     29  C   UNL     1      -6.565   1.450  -3.415  1.00  0.00     0.275 C 
BRANCH  29  30
ATOM     30  O   UNL     1      -8.347   1.414  -3.032  1.00  0.00    -0.458 OA
BRANCH  30  31
ATOM     31  C   UNL     1      -9.679   1.607  -2.329  1.00  0.00     0.338 C 
ATOM     32  O   UNL     1     -10.676   1.245  -2.956  1.00  0.00    -0.246 OA
BRANCH  31  33
ATOM     33  C   UNL     1      -9.980   2.111  -0.778  1.00  0.00     0.060 A 
ATOM     34  C   UNL     1     -11.094   2.719  -0.175  1.00  0.00     0.016 A 
ATOM     35  C   UNL     1      -9.093   1.843   0.223  1.00  0.00     0.016 A 
ATOM     36  C   UNL     1     -11.070   3.188   1.237  1.00  0.00     0.010 A 
ATOM     37  C   UNL     1      -8.900   2.457   1.429  1.00  0.00     0.010 A 
ATOM     38  C   UNL     1      -9.903   3.120   2.022  1.00  0.00    -0.014 A 
BRANCH  38  39
ATOM     39  C   UNL     1      -9.365   3.790   3.226  1.00  0.00     0.031 A 
ATOM     40  C   UNL     1      -8.653   3.071   4.349  1.00  0.00     0.074 A 
ATOM     41  C   UNL     1      -8.991   5.069   2.978  1.00  0.00     0.049 A 
ATOM     42  N   UNL     1      -8.628   3.482   5.575  1.00  0.00    -0.248 NA
ATOM     43  C   UNL     1      -7.817   1.867   4.187  1.00  0.00     0.031 C 
ATOM     44  C   UNL     1      -8.176   6.033   3.697  1.00  0.00     0.029 A 
ATOM     45  N   UNL     1      -9.367   5.799   1.849  1.00  0.00    -0.354 N 
ATOM     46  C   UNL     1      -7.535   2.882   6.194  1.00  0.00     0.074 A 
ATOM     47  C   UNL     1      -7.188   1.767   5.360  1.00  0.00     0.031 C 
ATOM     48  C   UNL     1      -8.484   7.270   3.231  1.00  0.00     0.029 A 
ATOM     49  C   UNL     1      -9.506   7.145   2.185  1.00  0.00     0.049 A 
ATOM     50  H   UNL     1      -9.513   5.421   0.952  1.00  0.00     0.167 HD
ATOM     51  C   UNL     1      -6.817   3.523   7.172  1.00  0.00     0.037 A 
ATOM     52  C   UNL     1     -10.793   7.602   2.202  1.00  0.00     0.037 A 
ATOM     53  C   UNL     1      -7.231   4.947   7.239  1.00  0.00     0.049 A 
ATOM     54  C   UNL     1     -11.287   7.513   3.643  1.00  0.00     0.074 A 
ATOM     55  C   UNL     1      -6.618   6.172   7.025  1.00  0.00     0.029 A 
ATOM     56  N   UNL     1      -8.591   5.247   7.240  1.00  0.00    -0.354 N 
ATOM     57  N   UNL     1     -10.536   6.998   4.586  1.00  0.00    -0.248 NA
ATOM     58  C   UNL     1     -12.524   8.031   4.211  1.00  0.00     0.031 C 
ATOM     59  C   UNL     1      -7.641   7.172   6.845  1.00  0.00     0.029 A 
ATOM     60  C   UNL     1      -8.883   6.561   6.932  1.00  0.00     0.049 A 
ATOM     61  H   UNL     1      -9.284   4.579   7.443  1.00  0.00     0.167 HD
ATOM     62  C   UNL     1     -11.022   7.228   5.820  1.00  0.00     0.074 A 
ATOM     63  C   UNL     1     -12.334   7.799   5.532  1.00  0.00     0.031 C 
ATOM     64  C   UNL     1     -10.294   6.984   6.955  1.00  0.00     0.037 A 
BRANCH  51  65
ATOM     65  C   UNL     1      -5.563   2.913   7.840  1.00  0.00     0.058 A 
ATOM     66  C   UNL     1      -4.601   3.701   8.508  1.00  0.00     0.135 A 
ATOM     67  C   UNL     1      -5.286   1.520   7.912  1.00  0.00     0.135 A 
ATOM     68  F   UNL     1      -4.768   5.022   8.655  1.00  0.00    -0.206 F 
ATOM     69  C   UNL     1      -3.437   3.177   9.102  1.00  0.00     0.059 A 
ATOM     70  C   UNL     1      -4.101   0.976   8.440  1.00  0.00     0.059 A 
ATOM     71  F   UNL     1      -6.199   0.610   7.541  1.00  0.00    -0.206 F 
ATOM     72  C   UNL     1      -3.179   1.813   9.046  1.00  0.00     0.060 A 
BRANCH  72  73
ATOM     73  S   UNL     1      -1.698   1.149   9.846  1.00  0.00     0.124 S 
ATOM     74  O   UNL     1      -0.630   1.932   9.233  1.00  0.00    -0.237 OA
ATOM     75  O   UNL     1      -1.961   1.430  11.254  1.00  0.00    -0.237 OA
ATOM     76  O   UNL     1      -1.714  -0.266   9.482  1.00  0.00    -0.744 OA
ENDBRANCH  72  73
ENDBRANCH  51  65
BRANCH  52  77
ATOM     77  C   UNL     1     -11.435   7.492   0.822  1.00  0.00     0.058 A 
ATOM     78  C   UNL     1     -10.821   8.248  -0.217  1.00  0.00     0.135 A 
ATOM     79  C   UNL     1     -12.273   6.458   0.364  1.00  0.00     0.135 A 
ATOM     80  F   UNL     1      -9.980   9.246   0.106  1.00  0.00    -0.206 F 
ATOM     81  C   UNL     1     -10.907   7.925  -1.585  1.00  0.00     0.059 A 
ATOM     82  C   UNL     1     -12.366   6.102  -1.012  1.00  0.00     0.059 A 
ATOM     83  F   UNL     1     -12.943   5.700   1.244  1.00  0.00    -0.206 F 
ATOM     84  C   UNL     1     -11.637   6.809  -1.977  1.00  0.00     0.060 A 
BRANCH  84  85
ATOM     85  S   UNL     1     -11.303   6.088  -3.641  1.00  0.00     0.124 S 
ATOM     86  O   UNL     1     -12.232   6.814  -4.495  1.00  0.00    -0.237 OA
ATOM     87  O   UNL     1      -9.889   6.402  -3.852  1.00  0.00    -0.237 OA
ATOM     88  O   UNL     1     -11.589   4.673  -3.431  1.00  0.00    -0.744 OA
ENDBRANCH  84  85
ENDBRANCH  52  77
BRANCH  64  89
ATOM     89  C   UNL     1     -10.906   7.133   8.299  1.00  0.00     0.058 A 
ATOM     90  C   UNL     1     -11.555   8.301   8.699  1.00  0.00     0.135 A 
ATOM     91  C   UNL     1     -10.764   6.103   9.254  1.00  0.00     0.135 A 
ATOM     92  F   UNL     1     -11.663   9.349   7.866  1.00  0.00    -0.206 F 
ATOM     93  C   UNL     1     -12.125   8.405   9.960  1.00  0.00     0.059 A 
ATOM     94  C   UNL     1     -11.238   6.224  10.542  1.00  0.00     0.059 A 
ATOM     95  F   UNL     1     -10.212   4.920   8.951  1.00  0.00    -0.206 F 
ATOM     96  C   UNL     1     -11.969   7.354  10.865  1.00  0.00     0.060 A 
BRANCH  96  97
ATOM     97  S   UNL     1     -12.782   7.412  12.461  1.00  0.00     0.124 S 
ATOM     98  O   UNL     1     -12.806   8.841  12.758  1.00  0.00    -0.237 OA
ATOM     99  O   UNL     1     -14.071   6.810  12.139  1.00  0.00    -0.237 OA
ATOM    100  O   UNL     1     -11.904   6.614  13.311  1.00  0.00    -0.744 OA
ENDBRANCH  96  97
ENDBRANCH  64  89
ENDBRANCH  38  39
ENDBRANCH  31  33
ENDBRANCH  30  31
ENDBRANCH  29  30
ENDBRANCH   1  29
TORSDOF 17
