REMARK SMILES CCCC1(CCC)CN(c2cncc(C(=O)OCCOC(=O)c3ccc(-c4c5nc(c(-c6c(F)cc(S(=O)(=O)[O-])cc6F)c6ccc([nH]6)c(-c6c(F)cc(S(=O)(=O)[O-])cc6F)c6nc(c(-c7c(F)cc(S(=O)(=O)[O-])cc7F)c7ccc4[nH]7)C=C6)C=C5)cc3)c2)C1
REMARK SMILES IDX 18 1 17 2 15 3 16 4 14 5 10 6 11 7 89 8 12 9 13 10 9 11 4 12
REMARK SMILES IDX 8 13 90 14 3 15 2 16 1 17 5 18 6 19 7 20 19 21 20 22 21 23
REMARK SMILES IDX 22 24 23 25 24 26 88 27 25 28 87 29 26 30 27 31 28 32 81 33
REMARK SMILES IDX 29 34 86 35 80 36 82 37 30 38 85 39 79 40 78 41 31 43 65 44
REMARK SMILES IDX 44 45 64 46 45 47 48 48 63 49 83 50 46 51 47 52 62 54 84 55
REMARK SMILES IDX 49 56 32 57 33 58 42 59 34 60 35 61 41 62 43 63 36 64 37 65
REMARK SMILES IDX 38 66 39 67 40 68 66 69 67 70 76 71 68 72 69 73 75 74 77 75
REMARK SMILES IDX 70 76 71 77 72 78 73 79 74 80 50 81 51 82 60 83 52 84 53 85
REMARK SMILES IDX 59 86 61 87 54 88 55 89 56 90 57 91 58 92
REMARK H PARENT 82 42 48 53
REMARK Flexibility Score: inf
ROOT
ATOM      1  C   UNL     1      -2.249  -1.650   8.056  1.00  0.00     0.275 C 
ENDROOT
BRANCH   1   2
ATOM      2  O   UNL     1      -1.407  -2.224   7.038  1.00  0.00    -0.458 OA
BRANCH   2   3
ATOM      3  C   UNL     1      -0.099  -2.414   7.354  1.00  0.00     0.339 C 
ATOM      4  O   UNL     1       0.442  -2.148   8.408  1.00  0.00    -0.246 OA
BRANCH   3   5
ATOM      5  C   UNL     1       0.581  -3.101   6.238  1.00  0.00     0.080 A 
ATOM      6  C   UNL     1       0.835  -3.576   3.888  1.00  0.00     0.056 A 
ATOM      7  C   UNL     1       1.775  -4.539   4.239  1.00  0.00     0.136 A 
ATOM      8  C   UNL     1       0.214  -2.873   4.921  1.00  0.00     0.044 A 
ATOM      9  N   UNL     1       2.198  -4.748   5.507  1.00  0.00    -0.262 NA
ATOM     10  C   UNL     1       1.616  -3.995   6.472  1.00  0.00     0.126 A 
BRANCH   6  11
ATOM     11  N   UNL     1       0.516  -3.223   2.579  1.00  0.00    -0.369 N 
ATOM     12  C   UNL     1       0.391  -2.559   0.629  1.00  0.00     0.005 C 
ATOM     13  C   UNL     1       0.560  -3.942   1.355  1.00  0.00     0.125 C 
ATOM     14  C   UNL     1       0.879  -1.976   1.978  1.00  0.00     0.125 C 
BRANCH  12  15
ATOM     15  C   UNL     1       1.381  -2.545  -0.546  1.00  0.00     0.010 C 
BRANCH  15  16
ATOM     16  C   UNL     1       1.529  -1.233  -1.300  1.00  0.00    -0.003 C 
ATOM     17  C   UNL     1       1.935  -0.044  -0.445  1.00  0.00     0.004 C 
ENDBRANCH  15  16
ENDBRANCH  12  15
BRANCH  12  18
ATOM     18  C   UNL     1      -1.099  -2.298   0.290  1.00  0.00     0.010 C 
BRANCH  18  19
ATOM     19  C   UNL     1      -1.581  -0.840   0.378  1.00  0.00    -0.003 C 
ATOM     20  C   UNL     1      -1.704  -0.109  -0.950  1.00  0.00     0.004 C 
ENDBRANCH  18  19
ENDBRANCH  12  18
ENDBRANCH   6  11
ENDBRANCH   3   5
ENDBRANCH   2   3
ENDBRANCH   1   2
BRANCH   1  21
ATOM     21  C   UNL     1      -3.178  -2.699   8.671  1.00  0.00     0.275 C 
BRANCH  21  22
ATOM     22  O   UNL     1      -2.421  -3.670   9.418  1.00  0.00    -0.458 OA
BRANCH  22  23
ATOM     23  C   UNL     1      -2.295  -4.877   8.820  1.00  0.00     0.338 C 
ATOM     24  O   UNL     1      -2.799  -5.239   7.770  1.00  0.00    -0.246 OA
BRANCH  23  25
ATOM     25  C   UNL     1      -1.313  -5.699   9.543  1.00  0.00     0.060 A 
ATOM     26  C   UNL     1       0.021  -5.508   9.214  1.00  0.00     0.016 A 
ATOM     27  C   UNL     1      -1.679  -6.760  10.363  1.00  0.00     0.016 A 
ATOM     28  C   UNL     1       0.987  -6.428   9.595  1.00  0.00     0.010 A 
ATOM     29  C   UNL     1      -0.684  -7.623  10.851  1.00  0.00     0.010 A 
ATOM     30  C   UNL     1       0.658  -7.491  10.442  1.00  0.00    -0.014 A 
BRANCH  30  31
ATOM     31  C   UNL     1       1.725  -8.451  10.858  1.00  0.00     0.031 A 
ATOM     32  C   UNL     1       1.581  -9.928  10.585  1.00  0.00     0.074 A 
ATOM     33  C   UNL     1       2.852  -7.992  11.447  1.00  0.00     0.049 A 
ATOM     34  N   UNL     1       2.343 -10.918  10.976  1.00  0.00    -0.248 NA
ATOM     35  C   UNL     1       0.423 -10.352   9.782  1.00  0.00     0.031 C 
ATOM     36  C   UNL     1       3.142  -6.585  11.740  1.00  0.00     0.029 A 
ATOM     37  N   UNL     1       3.971  -8.652  11.895  1.00  0.00    -0.354 N 
ATOM     38  C   UNL     1       1.729 -12.080  10.520  1.00  0.00     0.074 A 
ATOM     39  C   UNL     1       0.526 -11.673   9.826  1.00  0.00     0.031 C 
ATOM     40  C   UNL     1       4.368  -6.484  12.273  1.00  0.00     0.029 A 
ATOM     41  C   UNL     1       4.912  -7.822  12.462  1.00  0.00     0.049 A 
ATOM     42  H   UNL     1       4.088  -9.627  11.819  1.00  0.00     0.167 HD
ATOM     43  C   UNL     1       2.133 -13.366  10.667  1.00  0.00     0.037 A 
ATOM     44  C   UNL     1       6.059  -8.098  13.112  1.00  0.00     0.037 A 
ATOM     45  C   UNL     1       3.365 -13.757  11.309  1.00  0.00     0.049 A 
ATOM     46  C   UNL     1       6.471  -9.532  13.284  1.00  0.00     0.074 A 
ATOM     47  C   UNL     1       3.882 -15.031  11.468  1.00  0.00     0.029 A 
ATOM     48  N   UNL     1       4.273 -12.884  11.892  1.00  0.00    -0.354 N 
ATOM     49  N   UNL     1       5.867 -10.618  12.861  1.00  0.00    -0.248 NA
ATOM     50  C   UNL     1       7.709  -9.783  14.032  1.00  0.00     0.031 C 
ATOM     51  C   UNL     1       5.070 -14.935  12.200  1.00  0.00     0.029 A 
ATOM     52  C   UNL     1       5.329 -13.595  12.440  1.00  0.00     0.049 A 
ATOM     53  H   UNL     1       4.181 -11.904  11.913  1.00  0.00     0.167 HD
ATOM     54  C   UNL     1       6.660 -11.679  13.281  1.00  0.00     0.074 A 
ATOM     55  C   UNL     1       7.800 -11.103  13.965  1.00  0.00     0.031 C 
ATOM     56  C   UNL     1       6.458 -13.011  13.122  1.00  0.00     0.037 A 
BRANCH  43  57
ATOM     57  C   UNL     1       1.224 -14.459  10.168  1.00  0.00     0.058 A 
ATOM     58  C   UNL     1       1.028 -14.713   8.802  1.00  0.00     0.135 A 
ATOM     59  C   UNL     1       0.588 -15.314  11.086  1.00  0.00     0.135 A 
ATOM     60  F   UNL     1       1.598 -13.922   7.878  1.00  0.00    -0.206 F 
ATOM     61  C   UNL     1       0.221 -15.760   8.364  1.00  0.00     0.059 A 
ATOM     62  C   UNL     1      -0.198 -16.385  10.671  1.00  0.00     0.059 A 
ATOM     63  F   UNL     1       0.738 -15.119  12.406  1.00  0.00    -0.206 F 
ATOM     64  C   UNL     1      -0.384 -16.594   9.306  1.00  0.00     0.060 A 
BRANCH  64  65
ATOM     65  S   UNL     1      -1.405 -17.964   8.722  1.00  0.00     0.124 S 
ATOM     66  O   UNL     1      -2.569 -17.258   8.196  1.00  0.00    -0.237 OA
ATOM     67  O   UNL     1      -0.542 -18.592   7.726  1.00  0.00    -0.237 OA
ATOM     68  O   UNL     1      -1.642 -18.753   9.927  1.00  0.00    -0.744 OA
ENDBRANCH  64  65
ENDBRANCH  43  57
BRANCH  44  69
ATOM     69  C   UNL     1       6.863  -6.992  13.705  1.00  0.00     0.058 A 
ATOM     70  C   UNL     1       8.147  -6.684  13.234  1.00  0.00     0.135 A 
ATOM     71  C   UNL     1       6.354  -6.214  14.760  1.00  0.00     0.135 A 
ATOM     72  F   UNL     1       8.686  -7.403  12.237  1.00  0.00    -0.206 F 
ATOM     73  C   UNL     1       8.904  -5.659  13.795  1.00  0.00     0.059 A 
ATOM     74  C   UNL     1       7.075  -5.161  15.311  1.00  0.00     0.059 A 
ATOM     75  F   UNL     1       5.126  -6.457  15.244  1.00  0.00    -0.206 F 
ATOM     76  C   UNL     1       8.357  -4.901  14.831  1.00  0.00     0.060 A 
BRANCH  76  77
ATOM     77  S   UNL     1       9.330  -3.548  15.527  1.00  0.00     0.124 S 
ATOM     78  O   UNL     1      10.343  -4.275  16.284  1.00  0.00    -0.237 OA
ATOM     79  O   UNL     1       9.799  -2.859  14.329  1.00  0.00    -0.237 OA
ATOM     80  O   UNL     1       8.355  -2.809  16.325  1.00  0.00    -0.744 OA
ENDBRANCH  76  77
ENDBRANCH  44  69
BRANCH  56  81
ATOM     81  C   UNL     1       7.510 -13.935  13.671  1.00  0.00     0.058 A 
ATOM     82  C   UNL     1       7.692 -14.111  15.053  1.00  0.00     0.135 A 
ATOM     83  C   UNL     1       8.334 -14.670  12.804  1.00  0.00     0.135 A 
ATOM     84  F   UNL     1       6.937 -13.427  15.927  1.00  0.00    -0.206 F 
ATOM     85  C   UNL     1       8.677 -14.956  15.554  1.00  0.00     0.059 A 
ATOM     86  C   UNL     1       9.303 -15.546  13.283  1.00  0.00     0.059 A 
ATOM     87  F   UNL     1       8.197 -14.548  11.474  1.00  0.00    -0.206 F 
ATOM     88  C   UNL     1       9.478 -15.669  14.660  1.00  0.00     0.060 A 
BRANCH  88  89
ATOM     89  S   UNL     1      10.745 -16.770  15.324  1.00  0.00     0.124 S 
ATOM     90  O   UNL     1      11.733 -15.817  15.819  1.00  0.00    -0.237 OA
ATOM     91  O   UNL     1      10.010 -17.510  16.346  1.00  0.00    -0.237 OA
ATOM     92  O   UNL     1      11.156 -17.555  14.164  1.00  0.00    -0.744 OA
ENDBRANCH  88  89
ENDBRANCH  56  81
ENDBRANCH  30  31
ENDBRANCH  23  25
ENDBRANCH  22  23
ENDBRANCH  21  22
ENDBRANCH   1  21
TORSDOF 19
