REMARK SMILES C[C@@H](CCO)SCc1cccc(/C=C/C(=O)OCCOC(=O)c2ccc(-c3c4nc(c(-c5c(F)cc(S(=O)(=O)[O-])cc5F)c5ccc([nH]5)c(-c5c(F)cc(S(=O)(=O)[O-])cc5F)c5nc(c(-c6c(F)cc(S(=O)(=O)[O-])cc6F)c6ccc3[nH]6)C=C5)C=C4)cc2)c1
REMARK SMILES IDX 15 1 16 2 14 3 13 4 12 5 8 6 9 7 89 8 10 9 11 10 7 11 6 12
REMARK SMILES IDX 2 13 1 14 3 15 4 16 5 17 17 19 18 20 19 21 20 22 21 23 22 24
REMARK SMILES IDX 23 25 24 26 88 27 25 28 87 29 26 30 27 31 28 32 81 33 29 34
REMARK SMILES IDX 86 35 80 36 82 37 30 38 85 39 79 40 78 41 31 43 65 44 44 45
REMARK SMILES IDX 64 46 45 47 48 48 63 49 83 50 46 51 47 52 62 54 84 55 49 56
REMARK SMILES IDX 32 57 33 58 42 59 34 60 35 61 41 62 43 63 36 64 37 65 38 66
REMARK SMILES IDX 39 67 40 68 66 69 67 70 76 71 68 72 69 73 75 74 77 75 70 76
REMARK SMILES IDX 71 77 72 78 73 79 74 80 50 81 51 82 60 83 52 84 53 85 59 86
REMARK SMILES IDX 61 87 54 88 55 89 56 90 57 91 58 92
REMARK H PARENT 5 18 82 42 48 53
REMARK Flexibility Score: inf
ROOT
ATOM      1  C   UNL     1      -0.860   7.952   3.027  1.00  0.00     0.330 C 
ATOM      2  O   UNL     1      -0.019   8.660   3.562  1.00  0.00    -0.247 OA
ENDROOT
BRANCH   1   3
ATOM      3  C   UNL     1      -0.829   6.483   3.184  1.00  0.00     0.094 C 
ATOM      4  C   UNL     1      -1.738   5.626   2.692  1.00  0.00     0.015 C 
BRANCH   4   5
ATOM      5  C   UNL     1      -1.723   4.192   3.015  1.00  0.00    -0.025 A 
ATOM      6  C   UNL     1      -1.912   1.856   2.291  1.00  0.00    -0.037 A 
ATOM      7  C   UNL     1      -1.811   1.457   3.630  1.00  0.00     0.004 A 
ATOM      8  C   UNL     1      -1.933   3.239   2.009  1.00  0.00     0.012 A 
ATOM      9  C   UNL     1      -1.611   2.395   4.641  1.00  0.00     0.001 A 
ATOM     10  C   UNL     1      -1.555   3.752   4.333  1.00  0.00     0.008 A 
BRANCH   6  11
ATOM     11  C   UNL     1      -2.062   0.875   1.149  1.00  0.00     0.105 C 
BRANCH  11  12
ATOM     12  S   UNL     1      -1.355  -0.793   1.376  1.00  0.00    -0.154 SA
BRANCH  12  13
ATOM     13  C   UNL     1       0.460  -0.553   1.101  1.00  0.00     0.046 C 
ATOM     14  C   UNL     1       0.784  -0.206  -0.347  1.00  0.00     0.019 C 
BRANCH  13  15
ATOM     15  C   UNL     1       1.179   0.246   2.204  1.00  0.00     0.042 C 
BRANCH  15  16
ATOM     16  C   UNL     1       1.787   1.608   1.880  1.00  0.00     0.157 C 
BRANCH  16  17
ATOM     17  O   UNL     1       1.020   2.373   0.973  1.00  0.00    -0.396 OA
ATOM     18  H   UNL     1       0.960   1.906   0.124  1.00  0.00     0.210 HD
ENDBRANCH  16  17
ENDBRANCH  15  16
ENDBRANCH  13  15
ENDBRANCH  12  13
ENDBRANCH  11  12
ENDBRANCH   6  11
ENDBRANCH   4   5
ENDBRANCH   1   3
BRANCH   1  19
ATOM     19  O   UNL     1      -1.926   8.378   2.311  1.00  0.00    -0.459 OA
BRANCH  19  20
ATOM     20  C   UNL     1      -2.154   9.800   2.314  1.00  0.00     0.275 C 
BRANCH  20  21
ATOM     21  C   UNL     1      -3.329  10.167   3.226  1.00  0.00     0.275 C 
BRANCH  21  22
ATOM     22  O   UNL     1      -3.034   9.921   4.614  1.00  0.00    -0.458 OA
BRANCH  22  23
ATOM     23  C   UNL     1      -3.381   8.690   5.063  1.00  0.00     0.338 C 
ATOM     24  O   UNL     1      -3.921   7.804   4.423  1.00  0.00    -0.246 OA
BRANCH  23  25
ATOM     25  C   UNL     1      -2.910   8.500   6.448  1.00  0.00     0.060 A 
ATOM     26  C   UNL     1      -2.159   7.355   6.728  1.00  0.00     0.016 A 
ATOM     27  C   UNL     1      -3.264   9.380   7.474  1.00  0.00     0.016 A 
ATOM     28  C   UNL     1      -1.770   7.076   8.036  1.00  0.00     0.010 A 
ATOM     29  C   UNL     1      -2.871   9.098   8.789  1.00  0.00     0.010 A 
ATOM     30  C   UNL     1      -2.135   7.937   9.081  1.00  0.00    -0.014 A 
BRANCH  30  31
ATOM     31  C   UNL     1      -1.770   7.584  10.476  1.00  0.00     0.031 A 
ATOM     32  C   UNL     1      -2.806   7.023  11.411  1.00  0.00     0.074 A 
ATOM     33  C   UNL     1      -0.496   7.726  10.889  1.00  0.00     0.049 A 
ATOM     34  N   UNL     1      -2.673   6.631  12.652  1.00  0.00    -0.248 NA
ATOM     35  C   UNL     1      -4.170   6.885  10.879  1.00  0.00     0.031 C 
ATOM     36  C   UNL     1       0.601   8.246  10.072  1.00  0.00     0.029 A 
ATOM     37  N   UNL     1       0.090   7.440  12.096  1.00  0.00    -0.354 N 
ATOM     38  C   UNL     1      -3.933   6.204  13.054  1.00  0.00     0.074 A 
ATOM     39  C   UNL     1      -4.824   6.410  11.931  1.00  0.00     0.031 C 
ATOM     40  C   UNL     1       1.730   8.234  10.799  1.00  0.00     0.029 A 
ATOM     41  C   UNL     1       1.433   7.731  12.138  1.00  0.00     0.049 A 
ATOM     42  H   UNL     1      -0.403   7.062  12.859  1.00  0.00     0.167 HD
ATOM     43  C   UNL     1      -4.310   5.680  14.246  1.00  0.00     0.037 A 
ATOM     44  C   UNL     1       2.322   7.613  13.144  1.00  0.00     0.037 A 
ATOM     45  C   UNL     1      -3.422   5.471  15.361  1.00  0.00     0.049 A 
ATOM     46  C   UNL     1       1.872   7.053  14.466  1.00  0.00     0.074 A 
ATOM     47  C   UNL     1      -3.710   4.931  16.604  1.00  0.00     0.029 A 
ATOM     48  N   UNL     1      -2.073   5.795  15.372  1.00  0.00    -0.354 N 
ATOM     49  N   UNL     1       0.681   6.633  14.822  1.00  0.00    -0.248 NA
ATOM     50  C   UNL     1       2.889   6.943  15.521  1.00  0.00     0.031 C 
ATOM     51  C   UNL     1      -2.543   4.961  17.377  1.00  0.00     0.029 A 
ATOM     52  C   UNL     1      -1.518   5.481  16.603  1.00  0.00     0.049 A 
ATOM     53  H   UNL     1      -1.581   6.189  14.616  1.00  0.00     0.167 HD
ATOM     54  C   UNL     1       0.810   6.192  16.134  1.00  0.00     0.074 A 
ATOM     55  C   UNL     1       2.198   6.382  16.504  1.00  0.00     0.031 C 
ATOM     56  C   UNL     1      -0.135   5.676  16.959  1.00  0.00     0.037 A 
BRANCH  43  57
ATOM     57  C   UNL     1      -5.758   5.310  14.412  1.00  0.00     0.058 A 
ATOM     58  C   UNL     1      -6.306   4.179  13.787  1.00  0.00     0.135 A 
ATOM     59  C   UNL     1      -6.601   6.079  15.231  1.00  0.00     0.135 A 
ATOM     60  F   UNL     1      -5.548   3.417  12.982  1.00  0.00    -0.206 F 
ATOM     61  C   UNL     1      -7.646   3.838  13.946  1.00  0.00     0.059 A 
ATOM     62  C   UNL     1      -7.938   5.744  15.422  1.00  0.00     0.059 A 
ATOM     63  F   UNL     1      -6.127   7.170  15.852  1.00  0.00    -0.206 F 
ATOM     64  C   UNL     1      -8.455   4.629  14.762  1.00  0.00     0.060 A 
BRANCH  64  65
ATOM     65  S   UNL     1     -10.193   4.180  14.956  1.00  0.00     0.124 S 
ATOM     66  O   UNL     1     -10.749   4.611  13.677  1.00  0.00    -0.237 OA
ATOM     67  O   UNL     1     -10.124   2.737  15.162  1.00  0.00    -0.237 OA
ATOM     68  O   UNL     1     -10.617   4.955  16.118  1.00  0.00    -0.744 OA
ENDBRANCH  64  65
ENDBRANCH  43  57
BRANCH  44  69
ATOM     69  C   UNL     1       3.732   8.034  12.937  1.00  0.00     0.058 A 
ATOM     70  C   UNL     1       4.765   7.090  12.849  1.00  0.00     0.135 A 
ATOM     71  C   UNL     1       4.071   9.390  12.813  1.00  0.00     0.135 A 
ATOM     72  F   UNL     1       4.490   5.782  12.971  1.00  0.00    -0.206 F 
ATOM     73  C   UNL     1       6.088   7.474  12.657  1.00  0.00     0.059 A 
ATOM     74  C   UNL     1       5.383   9.798  12.597  1.00  0.00     0.059 A 
ATOM     75  F   UNL     1       3.116  10.331  12.879  1.00  0.00    -0.206 F 
ATOM     76  C   UNL     1       6.386   8.832  12.530  1.00  0.00     0.060 A 
BRANCH  76  77
ATOM     77  S   UNL     1       8.098   9.321  12.226  1.00  0.00     0.124 S 
ATOM     78  O   UNL     1       8.686   9.168  13.552  1.00  0.00    -0.237 OA
ATOM     79  O   UNL     1       8.524   8.350  11.223  1.00  0.00    -0.237 OA
ATOM     80  O   UNL     1       7.973  10.693  11.744  1.00  0.00    -0.744 OA
ENDBRANCH  76  77
ENDBRANCH  44  69
BRANCH  56  81
ATOM     81  C   UNL     1       0.308   5.257  18.333  1.00  0.00     0.058 A 
ATOM     82  C   UNL     1       0.609   6.198  19.330  1.00  0.00     0.135 A 
ATOM     83  C   UNL     1       0.414   3.896  18.663  1.00  0.00     0.135 A 
ATOM     84  F   UNL     1       0.529   7.511  19.065  1.00  0.00    -0.206 F 
ATOM     85  C   UNL     1       1.031   5.805  20.596  1.00  0.00     0.059 A 
ATOM     86  C   UNL     1       0.811   3.480  19.930  1.00  0.00     0.059 A 
ATOM     87  F   UNL     1       0.127   2.955  17.749  1.00  0.00    -0.206 F 
ATOM     88  C   UNL     1       1.134   4.443  20.885  1.00  0.00     0.060 A 
BRANCH  88  89
ATOM     89  S   UNL     1       1.676   3.941  22.533  1.00  0.00     0.124 S 
ATOM     90  O   UNL     1       3.116   4.159  22.447  1.00  0.00    -0.237 OA
ATOM     91  O   UNL     1       0.947   4.862  23.400  1.00  0.00    -0.237 OA
ATOM     92  O   UNL     1       1.254   2.546  22.617  1.00  0.00    -0.744 OA
ENDBRANCH  88  89
ENDBRANCH  56  81
ENDBRANCH  30  31
ENDBRANCH  23  25
ENDBRANCH  22  23
ENDBRANCH  21  22
ENDBRANCH  20  21
ENDBRANCH  19  20
ENDBRANCH   1  19
TORSDOF 21
