REMARK SMILES C[C@]([NH3+])(C(=O)N1[C@@H](C(=O)OCCOC(=O)c2ccc(-c3c4nc(c(-c5c(F)cc(S(=O)(=O)[O-])cc5F)c5ccc([nH]5)c(-c5c(F)cc(S(=O)(=O)[O-])cc5F)c5nc(c(-c6c(F)cc(S(=O)(=O)[O-])cc6F)c6ccc3[nH]6)C=C5)C=C4)cc2)C[C@H]2CCCC[C@@H]21)C(F)(F)F
REMARK SMILES IDX 11 1 10 2 8 3 9 4 7 5 6 6 88 7 82 8 83 9 87 10 84 11 86 12
REMARK SMILES IDX 85 13 4 14 5 15 2 16 1 17 89 18 90 19 91 20 92 21 3 22 12 26
REMARK SMILES IDX 13 27 14 28 15 29 16 30 17 31 81 32 18 33 80 34 19 35 20 36
REMARK SMILES IDX 21 37 74 38 22 39 79 40 73 41 75 42 23 43 78 44 72 45 71 46
REMARK SMILES IDX 24 48 58 49 37 50 57 51 38 52 41 53 56 54 76 55 39 56 40 57
REMARK SMILES IDX 55 59 77 60 42 61 25 62 26 63 35 64 27 65 28 66 34 67 36 68
REMARK SMILES IDX 29 69 30 70 31 71 32 72 33 73 59 74 60 75 69 76 61 77 62 78
REMARK SMILES IDX 68 79 70 80 63 81 64 82 65 83 66 84 67 85 43 86 44 87 53 88
REMARK SMILES IDX 45 89 46 90 52 91 54 92 47 93 48 94 49 95 50 96 51 97
REMARK H PARENT 3 23 3 24 3 25 75 47 41 58
REMARK Flexibility Score: inf
ROOT
ATOM      1  C   UNL     1      -3.646  -1.950   2.405  1.00  0.00     0.274 C 
ENDROOT
BRANCH   1   2
ATOM      2  O   UNL     1      -3.148  -2.108   1.062  1.00  0.00    -0.461 OA
BRANCH   2   3
ATOM      3  C   UNL     1      -2.229  -1.212   0.608  1.00  0.00     0.329 C 
ATOM      4  O   UNL     1      -1.845  -0.247   1.259  1.00  0.00    -0.250 OA
BRANCH   3   5
ATOM      5  C   UNL     1      -1.727  -1.549  -0.825  1.00  0.00     0.196 C 
ATOM      6  N   UNL     1      -1.905  -0.370  -1.699  1.00  0.00    -0.320 N 
ATOM      7  C   UNL     1      -3.054  -0.587  -2.551  1.00  0.00     0.089 C 
ATOM      8  C   UNL     1      -2.532  -2.677  -1.516  1.00  0.00     0.043 C 
ATOM      9  C   UNL     1      -2.893  -2.077  -2.865  1.00  0.00     0.014 C 
ATOM     10  C   UNL     1      -3.155   0.171  -3.872  1.00  0.00     0.025 C 
ATOM     11  C   UNL     1      -4.125  -2.631  -3.554  1.00  0.00     0.006 C 
ATOM     12  C   UNL     1      -4.358  -0.348  -4.671  1.00  0.00     0.002 C 
ATOM     13  C   UNL     1      -4.347  -1.870  -4.864  1.00  0.00     0.000 C 
BRANCH   6  14
ATOM     14  C   UNL     1      -1.270   0.856  -1.570  1.00  0.00     0.294 C 
ATOM     15  O   UNL     1      -1.914   1.888  -1.780  1.00  0.00    -0.267 OA
BRANCH  14  16
ATOM     16  C   UNL     1       0.279   0.889  -1.446  1.00  0.00     0.267 C 
ATOM     17  C   UNL     1       0.858   0.396  -2.784  1.00  0.00     0.100 C 
BRANCH  16  18
ATOM     18  C   UNL     1       0.695   2.372  -1.241  1.00  0.00     0.453 C 
ATOM     19  F   UNL     1       0.177   2.896  -0.108  1.00  0.00    -0.164 F 
ATOM     20  F   UNL     1       2.049   2.442  -1.108  1.00  0.00    -0.164 F 
ATOM     21  F   UNL     1       0.373   3.171  -2.280  1.00  0.00    -0.164 F 
ENDBRANCH  16  18
BRANCH  16  22
ATOM     22  N   UNL     1       0.802  -0.041  -0.383  1.00  0.00    -0.337 N 
ATOM     23  H   UNL     1       0.443   0.247   0.527  1.00  0.00     0.345 HD
ATOM     24  H   UNL     1       1.821  -0.007  -0.373  1.00  0.00     0.345 HD
ATOM     25  H   UNL     1       0.495  -0.993  -0.583  1.00  0.00     0.345 HD
ENDBRANCH  16  22
ENDBRANCH  14  16
ENDBRANCH   6  14
ENDBRANCH   3   5
ENDBRANCH   2   3
ENDBRANCH   1   2
BRANCH   1  26
ATOM     26  C   UNL     1      -3.266  -3.169   3.251  1.00  0.00     0.275 C 
BRANCH  26  27
ATOM     27  O   UNL     1      -1.846  -3.216   3.482  1.00  0.00    -0.458 OA
BRANCH  27  28
ATOM     28  C   UNL     1      -1.139  -3.869   2.528  1.00  0.00     0.338 C 
ATOM     29  O   UNL     1      -1.579  -4.474   1.566  1.00  0.00    -0.246 OA
BRANCH  28  30
ATOM     30  C   UNL     1       0.292  -3.577   2.694  1.00  0.00     0.060 A 
ATOM     31  C   UNL     1       0.906  -2.856   1.672  1.00  0.00     0.016 A 
ATOM     32  C   UNL     1       1.042  -4.056   3.767  1.00  0.00     0.016 A 
ATOM     33  C   UNL     1       2.272  -2.617   1.697  1.00  0.00     0.010 A 
ATOM     34  C   UNL     1       2.421  -3.805   3.801  1.00  0.00     0.010 A 
ATOM     35  C   UNL     1       3.043  -3.091   2.760  1.00  0.00    -0.014 A 
BRANCH  35  36
ATOM     36  C   UNL     1       4.509  -2.884   2.716  1.00  0.00     0.031 A 
ATOM     37  C   UNL     1       5.413  -4.042   2.409  1.00  0.00     0.074 A 
ATOM     38  C   UNL     1       5.017  -1.644   2.855  1.00  0.00     0.049 A 
ATOM     39  N   UNL     1       6.719  -4.088   2.392  1.00  0.00    -0.248 NA
ATOM     40  C   UNL     1       4.760  -5.315   2.064  1.00  0.00     0.031 C 
ATOM     41  C   UNL     1       4.230  -0.425   3.054  1.00  0.00     0.029 A 
ATOM     42  N   UNL     1       6.315  -1.201   2.832  1.00  0.00    -0.354 N 
ATOM     43  C   UNL     1       7.047  -5.399   2.074  1.00  0.00     0.074 A 
ATOM     44  C   UNL     1       5.802  -6.117   1.898  1.00  0.00     0.031 C 
ATOM     45  C   UNL     1       5.061   0.628   3.115  1.00  0.00     0.029 A 
ATOM     46  C   UNL     1       6.438   0.154   3.027  1.00  0.00     0.049 A 
ATOM     47  H   UNL     1       7.085  -1.798   2.689  1.00  0.00     0.167 HD
ATOM     48  C   UNL     1       8.276  -5.952   1.947  1.00  0.00     0.037 A 
ATOM     49  C   UNL     1       7.540   0.919   3.156  1.00  0.00     0.037 A 
ATOM     50  C   UNL     1       9.508  -5.223   2.098  1.00  0.00     0.049 A 
ATOM     51  C   UNL     1       8.893   0.265   3.094  1.00  0.00     0.074 A 
ATOM     52  C   UNL     1      10.805  -5.695   2.003  1.00  0.00     0.029 A 
ATOM     53  N   UNL     1       9.595  -3.865   2.370  1.00  0.00    -0.354 N 
ATOM     54  N   UNL     1       9.192  -0.990   2.855  1.00  0.00    -0.248 NA
ATOM     55  C   UNL     1      10.059   1.126   3.341  1.00  0.00     0.031 C 
ATOM     56  C   UNL     1      11.677  -4.628   2.253  1.00  0.00     0.029 A 
ATOM     57  C   UNL     1      10.922  -3.485   2.465  1.00  0.00     0.049 A 
ATOM     58  H   UNL     1       8.825  -3.261   2.480  1.00  0.00     0.167 HD
ATOM     59  C   UNL     1      10.579  -1.067   2.908  1.00  0.00     0.074 A 
ATOM     60  C   UNL     1      11.061   0.270   3.189  1.00  0.00     0.031 C 
ATOM     61  C   UNL     1      11.381  -2.147   2.740  1.00  0.00     0.037 A 
BRANCH  48  62
ATOM     62  C   UNL     1       8.346  -7.428   1.684  1.00  0.00     0.058 A 
ATOM     63  C   UNL     1       8.065  -7.975   0.423  1.00  0.00     0.135 A 
ATOM     64  C   UNL     1       8.719  -8.308   2.713  1.00  0.00     0.135 A 
ATOM     65  F   UNL     1       7.682  -7.179  -0.588  1.00  0.00    -0.206 F 
ATOM     66  C   UNL     1       8.129  -9.347   0.197  1.00  0.00     0.059 A 
ATOM     67  C   UNL     1       8.809  -9.680   2.505  1.00  0.00     0.059 A 
ATOM     68  F   UNL     1       8.992  -7.835   3.940  1.00  0.00    -0.206 F 
ATOM     69  C   UNL     1       8.498 -10.191   1.246  1.00  0.00     0.060 A 
BRANCH  69  70
ATOM     70  S   UNL     1       8.569 -11.970   0.944  1.00  0.00     0.124 S 
ATOM     71  O   UNL     1       7.151 -12.317   0.921  1.00  0.00    -0.237 OA
ATOM     72  O   UNL     1       9.259 -12.043  -0.340  1.00  0.00    -0.237 OA
ATOM     73  O   UNL     1       9.322 -12.479   2.086  1.00  0.00    -0.744 OA
ENDBRANCH  69  70
ENDBRANCH  48  62
BRANCH  49  74
ATOM     74  C   UNL     1       7.410   2.379   3.402  1.00  0.00     0.058 A 
ATOM     75  C   UNL     1       7.790   3.314   2.429  1.00  0.00     0.135 A 
ATOM     76  C   UNL     1       6.904   2.869   4.617  1.00  0.00     0.135 A 
ATOM     77  F   UNL     1       8.292   2.895   1.257  1.00  0.00    -0.206 F 
ATOM     78  C   UNL     1       7.684   4.683   2.653  1.00  0.00     0.059 A 
ATOM     79  C   UNL     1       6.765   4.231   4.856  1.00  0.00     0.059 A 
ATOM     80  F   UNL     1       6.519   2.014   5.578  1.00  0.00    -0.206 F 
ATOM     81  C   UNL     1       7.169   5.132   3.871  1.00  0.00     0.060 A 
BRANCH  81  82
ATOM     82  S   UNL     1       6.996   6.909   4.142  1.00  0.00     0.124 S 
ATOM     83  O   UNL     1       8.375   7.299   4.410  1.00  0.00    -0.237 OA
ATOM     84  O   UNL     1       6.439   7.364   2.872  1.00  0.00    -0.237 OA
ATOM     85  O   UNL     1       6.085   6.986   5.281  1.00  0.00    -0.744 OA
ENDBRANCH  81  82
ENDBRANCH  49  74
BRANCH  61  86
ATOM     86  C   UNL     1      12.864  -1.923   2.825  1.00  0.00     0.058 A 
ATOM     87  C   UNL     1      13.508  -1.736   4.057  1.00  0.00     0.135 A 
ATOM     88  C   UNL     1      13.654  -1.949   1.665  1.00  0.00     0.135 A 
ATOM     89  F   UNL     1      12.795  -1.696   5.194  1.00  0.00    -0.206 F 
ATOM     90  C   UNL     1      14.887  -1.567   4.136  1.00  0.00     0.059 A 
ATOM     91  C   UNL     1      15.036  -1.803   1.722  1.00  0.00     0.059 A 
ATOM     92  F   UNL     1      13.085  -2.133   0.464  1.00  0.00    -0.206 F 
ATOM     93  C   UNL     1      15.642  -1.603   2.962  1.00  0.00     0.060 A 
BRANCH  93  94
ATOM     94  S   UNL     1      17.435  -1.423   3.077  1.00  0.00     0.124 S 
ATOM     95  O   UNL     1      17.573   0.015   3.280  1.00  0.00    -0.237 OA
ATOM     96  O   UNL     1      17.763  -2.260   4.227  1.00  0.00    -0.237 OA
ATOM     97  O   UNL     1      17.909  -1.924   1.790  1.00  0.00    -0.744 OA
ENDBRANCH  93  94
ENDBRANCH  61  86
ENDBRANCH  35  36
ENDBRANCH  28  30
ENDBRANCH  27  28
ENDBRANCH  26  27
ENDBRANCH   1  26
TORSDOF 18
