REMARK SMILES NC(=O)C[C@@H](NC(=O)[C@@H]1CCCN1C(=O)C1CC1)C(=O)OCCOC(=O)c1ccc(-c2c3nc(c(-c4c(F)cc(S(=O)(=O)[O-])cc4F)c4ccc([nH]4)c(-c4c(F)cc(S(=O)(=O)[O-])cc4F)c4nc(c(-c5c(F)cc(S(=O)(=O)[O-])cc5F)c5ccc2[nH]5)C=C4)C=C3)cc1
REMARK SMILES IDX 22 1 21 2 19 3 20 4 5 5 4 6 2 7 1 8 3 11 6 12 7 13 8 15 9 16
REMARK SMILES IDX 10 17 13 18 11 19 12 20 14 21 15 22 16 23 17 24 18 25 23 26
REMARK SMILES IDX 24 27 25 28 26 29 27 30 28 31 92 32 29 33 91 34 30 35 31 36
REMARK SMILES IDX 32 37 85 38 33 39 90 40 84 41 86 42 34 43 89 44 83 45 82 46
REMARK SMILES IDX 35 48 69 49 48 50 68 51 49 52 52 53 67 54 87 55 50 56 51 57
REMARK SMILES IDX 66 59 88 60 53 61 36 62 37 63 46 64 38 65 39 66 45 67 47 68
REMARK SMILES IDX 40 69 41 70 42 71 43 72 44 73 70 74 71 75 80 76 72 77 73 78
REMARK SMILES IDX 79 79 81 80 74 81 75 82 76 83 77 84 78 85 54 86 55 87 64 88
REMARK SMILES IDX 56 89 57 90 63 91 65 92 58 93 59 94 60 95 61 96 62 97
REMARK H PARENT 1 9 1 10 6 14 86 47 52 58
REMARK Flexibility Score: inf
ROOT
ATOM      1  C   UNL     1       2.816  -6.215  -0.874  1.00  0.00     0.274 C 
ENDROOT
BRANCH   1   2
ATOM      2  O   UNL     1       2.272  -4.898  -0.639  1.00  0.00    -0.461 OA
BRANCH   2   3
ATOM      3  C   UNL     1       2.228  -4.062  -1.711  1.00  0.00     0.329 C 
ATOM      4  O   UNL     1       2.569  -4.381  -2.849  1.00  0.00    -0.250 OA
BRANCH   3   5
ATOM      5  C   UNL     1       1.968  -2.596  -1.343  1.00  0.00     0.201 C 
BRANCH   5   6
ATOM      6  C   UNL     1       1.257  -2.377  -0.014  1.00  0.00     0.136 C 
BRANCH   6   7
ATOM      7  C   UNL     1       0.484  -1.087  -0.067  1.00  0.00     0.220 C 
ATOM      8  N   UNL     1       1.192   0.033   0.246  1.00  0.00    -0.370 N 
ATOM      9  H   UNL     1       0.751   0.913   0.233  1.00  0.00     0.159 HD
ATOM     10  H   UNL     1       2.144  -0.038   0.486  1.00  0.00     0.159 HD
ATOM     11  O   UNL     1      -0.691  -1.019  -0.407  1.00  0.00    -0.275 OA
ENDBRANCH   6   7
ENDBRANCH   5   6
BRANCH   5  12
ATOM     12  N   UNL     1       3.271  -1.947  -1.582  1.00  0.00    -0.340 N 
ATOM     13  C   UNL     1       4.342  -2.187  -0.742  1.00  0.00     0.243 C 
ATOM     14  H   UNL     1       3.378  -1.338  -2.348  1.00  0.00     0.164 HD
ATOM     15  O   UNL     1       4.203  -2.303   0.473  1.00  0.00    -0.273 OA
BRANCH  13  16
ATOM     16  C   UNL     1       5.669  -2.501  -1.480  1.00  0.00     0.174 C 
ATOM     17  C   UNL     1       5.558  -3.941  -2.013  1.00  0.00     0.037 C 
ATOM     18  N   UNL     1       6.795  -2.552  -0.553  1.00  0.00    -0.330 N 
ATOM     19  C   UNL     1       6.869  -4.611  -1.658  1.00  0.00     0.024 C 
ATOM     20  C   UNL     1       7.231  -3.924  -0.356  1.00  0.00     0.120 C 
BRANCH  18  21
ATOM     21  C   UNL     1       7.404  -1.540   0.156  1.00  0.00     0.226 C 
ATOM     22  O   UNL     1       8.154  -1.800   1.097  1.00  0.00    -0.275 OA
BRANCH  21  23
ATOM     23  C   UNL     1       7.289  -0.101  -0.210  1.00  0.00     0.079 C 
ATOM     24  C   UNL     1       6.526   0.587  -1.305  1.00  0.00     0.014 C 
ATOM     25  C   UNL     1       6.055   0.704   0.115  1.00  0.00     0.014 C 
ENDBRANCH  21  23
ENDBRANCH  18  21
ENDBRANCH  13  16
ENDBRANCH   5  12
ENDBRANCH   3   5
ENDBRANCH   2   3
ENDBRANCH   1   2
BRANCH   1  26
ATOM     26  C   UNL     1       1.743  -7.280  -1.099  1.00  0.00     0.275 C 
BRANCH  26  27
ATOM     27  O   UNL     1       1.078  -7.080  -2.355  1.00  0.00    -0.458 OA
BRANCH  27  28
ATOM     28  C   UNL     1       0.066  -6.184  -2.308  1.00  0.00     0.338 C 
ATOM     29  O   UNL     1      -0.397  -5.656  -1.304  1.00  0.00    -0.246 OA
BRANCH  28  30
ATOM     30  C   UNL     1      -0.263  -5.735  -3.667  1.00  0.00     0.060 A 
ATOM     31  C   UNL     1      -0.411  -4.356  -3.868  1.00  0.00     0.016 A 
ATOM     32  C   UNL     1      -0.465  -6.638  -4.711  1.00  0.00     0.016 A 
ATOM     33  C   UNL     1      -0.784  -3.867  -5.108  1.00  0.00     0.010 A 
ATOM     34  C   UNL     1      -0.883  -6.152  -5.947  1.00  0.00     0.010 A 
ATOM     35  C   UNL     1      -1.075  -4.771  -6.131  1.00  0.00    -0.014 A 
BRANCH  35  36
ATOM     36  C   UNL     1      -1.819  -4.287  -7.306  1.00  0.00     0.031 A 
ATOM     37  C   UNL     1      -3.312  -4.434  -7.286  1.00  0.00     0.074 A 
ATOM     38  C   UNL     1      -1.173  -3.712  -8.332  1.00  0.00     0.049 A 
ATOM     39  N   UNL     1      -4.178  -4.226  -8.238  1.00  0.00    -0.248 NA
ATOM     40  C   UNL     1      -3.908  -4.885  -6.015  1.00  0.00     0.031 C 
ATOM     41  C   UNL     1       0.266  -3.453  -8.385  1.00  0.00     0.029 A 
ATOM     42  N   UNL     1      -1.645  -3.254  -9.531  1.00  0.00    -0.354 N 
ATOM     43  C   UNL     1      -5.415  -4.549  -7.693  1.00  0.00     0.074 A 
ATOM     44  C   UNL     1      -5.190  -4.973  -6.331  1.00  0.00     0.031 C 
ATOM     45  C   UNL     1       0.564  -2.906  -9.576  1.00  0.00     0.029 A 
ATOM     46  C   UNL     1      -0.653  -2.826 -10.379  1.00  0.00     0.049 A 
ATOM     47  H   UNL     1      -2.602  -3.234  -9.764  1.00  0.00     0.167 HD
ATOM     48  C   UNL     1      -6.627  -4.500  -8.291  1.00  0.00     0.037 A 
ATOM     49  C   UNL     1      -0.728  -2.459 -11.672  1.00  0.00     0.037 A 
ATOM     50  C   UNL     1      -6.811  -4.069  -9.650  1.00  0.00     0.049 A 
ATOM     51  C   UNL     1      -2.078  -2.475 -12.340  1.00  0.00     0.074 A 
ATOM     52  C   UNL     1      -7.982  -3.979 -10.378  1.00  0.00     0.029 A 
ATOM     53  N   UNL     1      -5.782  -3.658 -10.489  1.00  0.00    -0.354 N 
ATOM     54  N   UNL     1      -3.244  -2.808 -11.833  1.00  0.00    -0.248 NA
ATOM     55  C   UNL     1      -2.127  -2.076 -13.751  1.00  0.00     0.031 C 
ATOM     56  C   UNL     1      -7.655  -3.556 -11.671  1.00  0.00     0.029 A 
ATOM     57  C   UNL     1      -6.287  -3.331 -11.733  1.00  0.00     0.049 A 
ATOM     58  H   UNL     1      -4.832  -3.606 -10.233  1.00  0.00     0.167 HD
ATOM     59  C   UNL     1      -4.169  -2.639 -12.856  1.00  0.00     0.074 A 
ATOM     60  C   UNL     1      -3.426  -2.163 -14.008  1.00  0.00     0.031 C 
ATOM     61  C   UNL     1      -5.509  -2.854 -12.851  1.00  0.00     0.037 A 
BRANCH  48  62
ATOM     62  C   UNL     1      -7.814  -4.972  -7.499  1.00  0.00     0.058 A 
ATOM     63  C   UNL     1      -8.324  -4.244  -6.411  1.00  0.00     0.135 A 
ATOM     64  C   UNL     1      -8.450  -6.179  -7.831  1.00  0.00     0.135 A 
ATOM     65  F   UNL     1      -7.739  -3.098  -6.031  1.00  0.00    -0.206 F 
ATOM     66  C   UNL     1      -9.405  -4.709  -5.666  1.00  0.00     0.059 A 
ATOM     67  C   UNL     1      -9.549  -6.649  -7.118  1.00  0.00     0.059 A 
ATOM     68  F   UNL     1      -7.998  -6.922  -8.853  1.00  0.00    -0.206 F 
ATOM     69  C   UNL     1     -10.010  -5.914  -6.027  1.00  0.00     0.060 A 
BRANCH  69  70
ATOM     70  S   UNL     1     -11.412  -6.505  -5.054  1.00  0.00     0.124 S 
ATOM     71  O   UNL     1     -10.753  -6.936  -3.825  1.00  0.00    -0.237 OA
ATOM     72  O   UNL     1     -12.241  -5.309  -4.942  1.00  0.00    -0.237 OA
ATOM     73  O   UNL     1     -11.969  -7.575  -5.875  1.00  0.00    -0.744 OA
ENDBRANCH  69  70
ENDBRANCH  48  62
BRANCH  49  74
ATOM     74  C   UNL     1       0.507  -2.087 -12.411  1.00  0.00     0.058 A 
ATOM     75  C   UNL     1       0.739  -0.766 -12.820  1.00  0.00     0.135 A 
ATOM     76  C   UNL     1       1.499  -3.041 -12.694  1.00  0.00     0.135 A 
ATOM     77  F   UNL     1      -0.180   0.181 -12.581  1.00  0.00    -0.206 F 
ATOM     78  C   UNL     1       1.907  -0.403 -13.486  1.00  0.00     0.059 A 
ATOM     79  C   UNL     1       2.685  -2.698 -13.335  1.00  0.00     0.059 A 
ATOM     80  F   UNL     1       1.332  -4.317 -12.314  1.00  0.00    -0.206 F 
ATOM     81  C   UNL     1       2.877  -1.376 -13.733  1.00  0.00     0.060 A 
BRANCH  81  82
ATOM     82  S   UNL     1       4.417  -0.880 -14.536  1.00  0.00     0.124 S 
ATOM     83  O   UNL     1       3.973  -0.647 -15.905  1.00  0.00    -0.237 OA
ATOM     84  O   UNL     1       4.790   0.308 -13.774  1.00  0.00    -0.237 OA
ATOM     85  O   UNL     1       5.286  -2.038 -14.341  1.00  0.00    -0.744 OA
ENDBRANCH  81  82
ENDBRANCH  49  74
BRANCH  61  86
ATOM     86  C   UNL     1      -6.255  -2.543 -14.117  1.00  0.00     0.058 A 
ATOM     87  C   UNL     1      -6.177  -3.378 -15.241  1.00  0.00     0.135 A 
ATOM     88  C   UNL     1      -7.111  -1.432 -14.176  1.00  0.00     0.135 A 
ATOM     89  F   UNL     1      -5.368  -4.449 -15.234  1.00  0.00    -0.206 F 
ATOM     90  C   UNL     1      -6.910  -3.110 -16.392  1.00  0.00     0.059 A 
ATOM     91  C   UNL     1      -7.874  -1.161 -15.305  1.00  0.00     0.059 A 
ATOM     92  F   UNL     1      -7.229  -0.611 -13.120  1.00  0.00    -0.206 F 
ATOM     93  C   UNL     1      -7.758  -2.000 -16.412  1.00  0.00     0.060 A 
BRANCH  93  94
ATOM     94  S   UNL     1      -8.734  -1.687 -17.897  1.00  0.00     0.124 S 
ATOM     95  O   UNL     1      -7.718  -1.180 -18.814  1.00  0.00    -0.237 OA
ATOM     96  O   UNL     1      -9.265  -3.011 -18.207  1.00  0.00    -0.237 OA
ATOM     97  O   UNL     1      -9.724  -0.710 -17.453  1.00  0.00    -0.744 OA
ENDBRANCH  93  94
ENDBRANCH  61  86
ENDBRANCH  35  36
ENDBRANCH  28  30
ENDBRANCH  27  28
ENDBRANCH  26  27
ENDBRANCH   1  26
TORSDOF 20
