REMARK SMILES Cc1cccc(C(=O)Nc2ccc(C(=O)NNC(=O)c3ccccc3C(=O)OCCOC(=O)c3ccc(-c4c5nc(c(-c6c(F)cc(S(=O)(=O)[O-])cc6F)c6ccc([nH]6)c(-c6c(F)cc(S(=O)(=O)[O-])cc6F)c6nc(c(-c7c(F)cc(S(=O)(=O)[O-])cc7F)c7ccc4[nH]7)C=C6)C=C5)cc3)cc2)c1
REMARK SMILES IDX 29 1 28 2 26 3 27 4 25 5 20 6 21 7 22 8 24 9 23 10 18 11
REMARK SMILES IDX 17 12 19 14 16 15 14 16 15 17 13 19 10 20 11 21 101 22 12 23
REMARK SMILES IDX 100 24 9 25 7 26 8 27 6 29 1 30 2 31 3 32 102 33 4 34 5 35
REMARK SMILES IDX 30 36 31 37 32 38 33 39 34 40 35 41 99 42 36 43 98 44 37 45
REMARK SMILES IDX 38 46 39 47 92 48 40 49 97 50 91 51 93 52 41 53 96 54 90 55
REMARK SMILES IDX 89 56 42 58 76 59 55 60 75 61 56 62 59 63 74 64 94 65 57 66
REMARK SMILES IDX 58 67 73 69 95 70 60 71 43 72 44 73 53 74 45 75 46 76 52 77
REMARK SMILES IDX 54 78 47 79 48 80 49 81 50 82 51 83 77 84 78 85 87 86 79 87
REMARK SMILES IDX 80 88 86 89 88 90 81 91 82 92 83 93 84 94 85 95 61 96 62 97
REMARK SMILES IDX 71 98 63 99 64 100 70 101 72 102 65 103 66 104 67 105 68 106
REMARK SMILES IDX 69 107
REMARK H PARENT 17 13 16 18 9 28 93 57 59 68
REMARK Flexibility Score: inf
ROOT
ATOM      1  C   UNL     1       3.359   1.474   2.085  1.00  0.00     0.275 C 
ENDROOT
BRANCH   1   2
ATOM      2  O   UNL     1       3.782   0.915   0.580  1.00  0.00    -0.458 OA
BRANCH   2   3
ATOM      3  C   UNL     1       4.441   1.374  -0.531  1.00  0.00     0.339 C 
ATOM      4  O   UNL     1       4.733   2.555  -0.663  1.00  0.00    -0.246 OA
BRANCH   3   5
ATOM      5  C   UNL     1       4.876   0.325  -1.657  1.00  0.00     0.072 A 
ATOM      6  C   UNL     1       5.100   0.627  -3.033  1.00  0.00     0.056 A 
ATOM      7  C   UNL     1       5.856  -0.235  -3.891  1.00  0.00     0.015 A 
ATOM      8  C   UNL     1       6.468  -1.376  -3.411  1.00  0.00     0.001 A 
ATOM      9  C   UNL     1       5.362  -0.939  -1.285  1.00  0.00     0.016 A 
ATOM     10  C   UNL     1       6.208  -1.731  -2.103  1.00  0.00     0.001 A 
BRANCH   6  11
ATOM     11  C   UNL     1       4.678   1.850  -3.748  1.00  0.00     0.270 C 
ATOM     12  N   UNL     1       3.637   2.554  -3.219  1.00  0.00    -0.263 N 
ATOM     13  H   UNL     1       2.892   2.124  -2.740  1.00  0.00     0.191 HD
ATOM     14  O   UNL     1       5.262   2.222  -4.764  1.00  0.00    -0.267 OA
BRANCH  12  15
ATOM     15  N   UNL     1       3.714   3.944  -3.414  1.00  0.00    -0.263 N 
ATOM     16  C   UNL     1       3.311   4.791  -2.407  1.00  0.00     0.269 C 
ATOM     17  O   UNL     1       3.937   5.804  -2.119  1.00  0.00    -0.267 OA
ATOM     18  H   UNL     1       4.053   4.308  -4.263  1.00  0.00     0.191 HD
BRANCH  16  19
ATOM     19  C   UNL     1       2.059   4.446  -1.682  1.00  0.00     0.041 A 
ATOM     20  C   UNL     1      -0.254   3.787  -0.269  1.00  0.00     0.041 A 
ATOM     21  C   UNL     1      -0.109   3.365  -1.591  1.00  0.00     0.027 A 
ATOM     22  C   UNL     1       0.715   4.610   0.315  1.00  0.00     0.027 A 
ATOM     23  C   UNL     1       1.041   3.705  -2.300  1.00  0.00     0.016 A 
ATOM     24  C   UNL     1       1.888   4.911  -0.377  1.00  0.00     0.016 A 
BRANCH  20  25
ATOM     25  N   UNL     1      -1.357   3.431   0.510  1.00  0.00    -0.322 N 
ATOM     26  C   UNL     1      -2.119   2.284   0.536  1.00  0.00     0.255 C 
ATOM     27  O   UNL     1      -3.249   2.356   1.028  1.00  0.00    -0.269 OA
ATOM     28  H   UNL     1      -1.639   4.121   1.154  1.00  0.00     0.170 HD
BRANCH  26  29
ATOM     29  C   UNL     1      -1.595   0.938   0.127  1.00  0.00     0.040 A 
ATOM     30  C   UNL     1       1.596  -0.907  -0.848  1.00  0.00     0.044 C 
ATOM     31  C   UNL     1       0.165  -0.641  -0.493  1.00  0.00    -0.050 A 
ATOM     32  C   UNL     1      -0.766  -1.679  -0.516  1.00  0.00     0.003 A 
ATOM     33  C   UNL     1      -0.243   0.643  -0.096  1.00  0.00     0.017 A 
ATOM     34  C   UNL     1      -2.101  -1.423  -0.223  1.00  0.00     0.001 A 
ATOM     35  C   UNL     1      -2.516  -0.121   0.071  1.00  0.00     0.014 A 
ENDBRANCH  26  29
ENDBRANCH  20  25
ENDBRANCH  16  19
ENDBRANCH  12  15
ENDBRANCH   6  11
ENDBRANCH   3   5
ENDBRANCH   2   3
ENDBRANCH   1   2
BRANCH   1  36
ATOM     36  C   UNL     1       4.079   0.871   3.779  1.00  0.00     0.275 C 
BRANCH  36  37
ATOM     37  O   UNL     1       5.885   0.808   4.273  1.00  0.00    -0.458 OA
BRANCH  37  38
ATOM     38  C   UNL     1       7.458   0.395   3.744  1.00  0.00     0.338 C 
ATOM     39  O   UNL     1       8.230   0.248   4.707  1.00  0.00    -0.246 OA
BRANCH  38  40
ATOM     40  C   UNL     1       8.349   0.490   2.088  1.00  0.00     0.060 A 
ATOM     41  C   UNL     1       9.555   1.220   2.057  1.00  0.00     0.016 A 
ATOM     42  C   UNL     1       7.830   0.593   0.699  1.00  0.00     0.016 A 
ATOM     43  C   UNL     1       9.806   2.297   1.008  1.00  0.00     0.010 A 
ATOM     44  C   UNL     1       8.145   1.509  -0.379  1.00  0.00     0.010 A 
ATOM     45  C   UNL     1       8.954   2.576  -0.115  1.00  0.00    -0.014 A 
BRANCH  45  46
ATOM     46  C   UNL     1       8.463   3.961  -0.651  1.00  0.00     0.031 A 
ATOM     47  C   UNL     1       8.601   4.450  -2.053  1.00  0.00     0.074 A 
ATOM     48  C   UNL     1       7.520   4.789  -0.079  1.00  0.00     0.049 A 
ATOM     49  N   UNL     1       9.114   5.598  -2.374  1.00  0.00    -0.248 NA
ATOM     50  C   UNL     1       7.818   3.857  -3.128  1.00  0.00     0.031 C 
ATOM     51  C   UNL     1       7.112   6.173  -0.401  1.00  0.00     0.029 A 
ATOM     52  N   UNL     1       6.796   4.643   1.081  1.00  0.00    -0.354 N 
ATOM     53  C   UNL     1       8.444   6.050  -3.519  1.00  0.00     0.074 A 
ATOM     54  C   UNL     1       7.769   4.864  -4.014  1.00  0.00     0.031 C 
ATOM     55  C   UNL     1       6.760   6.816   0.732  1.00  0.00     0.029 A 
ATOM     56  C   UNL     1       6.806   5.857   1.803  1.00  0.00     0.049 A 
ATOM     57  H   UNL     1       6.341   3.818   1.366  1.00  0.00     0.167 HD
ATOM     58  C   UNL     1       8.335   7.401  -3.805  1.00  0.00     0.037 A 
ATOM     59  C   UNL     1       7.536   5.857   2.960  1.00  0.00     0.037 A 
ATOM     60  C   UNL     1       8.716   8.240  -2.640  1.00  0.00     0.049 A 
ATOM     61  C   UNL     1       8.962   6.410   2.583  1.00  0.00     0.074 A 
ATOM     62  C   UNL     1       8.117   9.221  -1.858  1.00  0.00     0.029 A 
ATOM     63  N   UNL     1       9.883   7.943  -1.981  1.00  0.00    -0.354 N 
ATOM     64  N   UNL     1       9.168   7.380   1.715  1.00  0.00    -0.248 NA
ATOM     65  C   UNL     1      10.247   5.839   3.025  1.00  0.00     0.031 C 
ATOM     66  C   UNL     1       8.897   9.383  -0.663  1.00  0.00     0.029 A 
ATOM     67  C   UNL     1       9.963   8.504  -0.729  1.00  0.00     0.049 A 
ATOM     68  H   UNL     1      10.593   7.381  -2.367  1.00  0.00     0.167 HD
ATOM     69  C   UNL     1      10.494   7.348   1.294  1.00  0.00     0.074 A 
ATOM     70  C   UNL     1      11.136   6.415   2.196  1.00  0.00     0.031 C 
ATOM     71  C   UNL     1      10.981   7.966   0.165  1.00  0.00     0.037 A 
BRANCH  58  72
ATOM     72  C   UNL     1       7.761   8.069  -5.068  1.00  0.00     0.058 A 
ATOM     73  C   UNL     1       7.856   9.478  -5.236  1.00  0.00     0.135 A 
ATOM     74  C   UNL     1       7.206   7.415  -6.187  1.00  0.00     0.135 A 
ATOM     75  F   UNL     1       8.451  10.258  -4.322  1.00  0.00    -0.206 F 
ATOM     76  C   UNL     1       7.400  10.165  -6.370  1.00  0.00     0.059 A 
ATOM     77  C   UNL     1       6.734   8.081  -7.329  1.00  0.00     0.059 A 
ATOM     78  F   UNL     1       7.135   6.088  -6.277  1.00  0.00    -0.206 F 
ATOM     79  C   UNL     1       6.831   9.458  -7.415  1.00  0.00     0.060 A 
BRANCH  79  80
ATOM     80  S   UNL     1       6.284  10.341  -8.889  1.00  0.00     0.124 S 
ATOM     81  O   UNL     1       5.235  11.205  -8.356  1.00  0.00    -0.237 OA
ATOM     82  O   UNL     1       7.505  11.016  -9.318  1.00  0.00    -0.237 OA
ATOM     83  O   UNL     1       5.820   9.276  -9.774  1.00  0.00    -0.744 OA
ENDBRANCH  79  80
ENDBRANCH  58  72
BRANCH  59  84
ATOM     84  C   UNL     1       7.137   4.544   3.694  1.00  0.00     0.058 A 
ATOM     85  C   UNL     1       5.794   4.208   3.851  1.00  0.00     0.135 A 
ATOM     86  C   UNL     1       7.779   3.422   3.302  1.00  0.00     0.135 A 
ATOM     87  F   UNL     1       4.976   5.081   4.468  1.00  0.00    -0.206 F 
ATOM     88  C   UNL     1       5.171   2.957   3.286  1.00  0.00     0.059 A 
ATOM     89  C   UNL     1       7.049   2.406   2.492  1.00  0.00     0.059 A 
ATOM     90  F   UNL     1       9.108   3.479   3.199  1.00  0.00    -0.206 F 
ATOM     91  C   UNL     1       5.774   1.857   2.415  1.00  0.00     0.060 A 
BRANCH  91  92
ATOM     92  S   UNL     1       5.434  -0.496   2.296  1.00  0.00     0.124 S 
ATOM     93  O   UNL     1       5.563  -1.163   3.600  1.00  0.00    -0.237 OA
ATOM     94  O   UNL     1       4.089  -0.780   1.823  1.00  0.00    -0.237 OA
ATOM     95  O   UNL     1       6.422  -1.149   1.445  1.00  0.00    -0.744 OA
ENDBRANCH  91  92
ENDBRANCH  59  84
BRANCH  71  96
ATOM     96  C   UNL     1      12.463   8.021  -0.250  1.00  0.00     0.058 A 
ATOM     97  C   UNL     1      13.480   8.275   0.687  1.00  0.00     0.135 A 
ATOM     98  C   UNL     1      12.906   8.017  -1.602  1.00  0.00     0.135 A 
ATOM     99  F   UNL     1      13.200   8.343   1.998  1.00  0.00    -0.206 F 
ATOM    100  C   UNL     1      14.815   8.507   0.318  1.00  0.00     0.059 A 
ATOM    101  C   UNL     1      14.215   8.301  -1.996  1.00  0.00     0.059 A 
ATOM    102  F   UNL     1      12.095   7.707  -2.622  1.00  0.00    -0.206 F 
ATOM    103  C   UNL     1      15.170   8.540  -1.028  1.00  0.00     0.060 A 
BRANCH 103 104
ATOM    104  S   UNL     1      16.856   8.962  -1.515  1.00  0.00     0.124 S 
ATOM    105  O   UNL     1      17.233   9.962  -0.520  1.00  0.00    -0.237 OA
ATOM    106  O   UNL     1      17.528   7.672  -1.400  1.00  0.00    -0.237 OA
ATOM    107  O   UNL     1      16.700   9.472  -2.873  1.00  0.00    -0.744 OA
ENDBRANCH 103 104
ENDBRANCH  71  96
ENDBRANCH  45  46
ENDBRANCH  38  40
ENDBRANCH  37  38
ENDBRANCH  36  37
ENDBRANCH   1  36
TORSDOF 19
