REMARK SMILES C[NH+]1CCC2(CC1)OC[C@H](C(=O)OCCOC(=O)c1ccc(-c3c4nc(c(-c5c(F)cc(S(=O)(=O)[O-])cc5F)c5ccc([nH]5)c(-c5c(F)cc(S(=O)(=O)[O-])cc5F)c5nc(c(-c6c(F)cc(S(=O)(=O)[O-])cc6F)c6ccc3[nH]6)C=C5)C=C4)cc1)N2C(=O)c1cc(C(F)(F)F)cc(C(F)(F)F)c1
REMARK SMILES IDX 14 1 13 2 11 3 12 4 10 5 1 6 2 7 3 8 7 9 4 11 6 12 5 13 8 14
REMARK SMILES IDX 85 15 9 16 86 17 87 18 88 19 89 20 101 21 90 22 96 23 95 24
REMARK SMILES IDX 91 25 92 26 93 27 94 28 97 29 98 30 99 31 100 32 15 33 16 34
REMARK SMILES IDX 17 35 18 36 19 37 20 38 84 39 21 40 83 41 22 42 23 43 24 44
REMARK SMILES IDX 77 45 25 46 82 47 76 48 78 49 26 50 81 51 75 52 74 53 27 55
REMARK SMILES IDX 61 56 40 57 60 58 41 59 44 60 59 61 79 62 42 63 43 64 58 66
REMARK SMILES IDX 80 67 45 68 28 69 29 70 38 71 30 72 31 73 37 74 39 75 32 76
REMARK SMILES IDX 33 77 34 78 35 79 36 80 62 81 63 82 72 83 64 84 65 85 71 86
REMARK SMILES IDX 73 87 66 88 67 89 68 90 69 91 70 92 46 93 47 94 56 95 48 96
REMARK SMILES IDX 49 97 55 98 57 99 50 100 51 101 52 102 53 103 54 104
REMARK H PARENT 2 10 78 54 44 65
REMARK Flexibility Score: inf
ROOT
ATOM      1  C   UNL     1      -5.069   4.501  -1.653  1.00  0.00     0.274 C 
ENDROOT
BRANCH   1   2
ATOM      2  O   UNL     1      -3.727   4.799  -2.088  1.00  0.00    -0.460 OA
BRANCH   2   3
ATOM      3  C   UNL     1      -2.854   3.748  -2.084  1.00  0.00     0.331 C 
ATOM      4  O   UNL     1      -3.170   2.597  -1.805  1.00  0.00    -0.250 OA
BRANCH   3   5
ATOM      5  C   UNL     1      -1.458   4.181  -2.543  1.00  0.00     0.224 C 
ATOM      6  C   UNL     1       1.329  -0.237   1.163  1.00  0.00     0.332 C 
ATOM      7  N   UNL     1       0.910   0.614   0.056  1.00  0.00    -0.337 N 
ATOM      8  C   UNL     1      -0.462   1.076   0.170  1.00  0.00     0.267 C 
ATOM      9  C   UNL     1       1.966   1.490  -0.434  1.00  0.00     0.267 C 
ATOM     10  H   UNL     1       0.797   0.050  -0.787  1.00  0.00     0.347 HD
ATOM     11  C   UNL     1      -0.626   2.571   0.094  1.00  0.00     0.120 C 
ATOM     12  C   UNL     1       1.625   2.907  -0.901  1.00  0.00     0.120 C 
ATOM     13  C   UNL     1       0.140   3.216  -1.067  1.00  0.00     0.155 C 
ATOM     14  O   UNL     1       0.022   4.648  -0.759  1.00  0.00    -0.352 OA
ATOM     15  N   UNL     1      -0.460   3.117  -2.410  1.00  0.00    -0.293 N 
ATOM     16  C   UNL     1      -0.862   5.277  -1.700  1.00  0.00     0.200 C 
BRANCH  15  17
ATOM     17  C   UNL     1       0.110   2.679  -3.609  1.00  0.00     0.256 C 
ATOM     18  O   UNL     1      -0.068   3.305  -4.659  1.00  0.00    -0.269 OA
BRANCH  17  19
ATOM     19  C   UNL     1       0.893   1.428  -3.754  1.00  0.00     0.041 A 
ATOM     20  C   UNL     1       1.881   1.370  -4.751  1.00  0.00     0.027 A 
ATOM     21  C   UNL     1       0.577   0.264  -3.063  1.00  0.00     0.027 A 
ATOM     22  C   UNL     1       2.595   0.186  -5.006  1.00  0.00     0.057 A 
ATOM     23  C   UNL     1       1.349  -0.900  -3.216  1.00  0.00     0.057 A 
ATOM     24  C   UNL     1       2.343  -0.936  -4.206  1.00  0.00     0.026 A 
BRANCH  22  25
ATOM     25  C   UNL     1       3.612   0.141  -6.122  1.00  0.00     0.416 C 
ATOM     26  F   UNL     1       3.059   0.369  -7.343  1.00  0.00    -0.166 F 
ATOM     27  F   UNL     1       4.576   1.094  -5.966  1.00  0.00    -0.166 F 
ATOM     28  F   UNL     1       4.275  -1.042  -6.213  1.00  0.00    -0.166 F 
ENDBRANCH  22  25
BRANCH  23  29
ATOM     29  C   UNL     1       1.194  -2.060  -2.259  1.00  0.00     0.416 C 
ATOM     30  F   UNL     1       1.339  -3.263  -2.866  1.00  0.00    -0.166 F 
ATOM     31  F   UNL     1       2.143  -2.029  -1.281  1.00  0.00    -0.166 F 
ATOM     32  F   UNL     1      -0.006  -2.088  -1.618  1.00  0.00    -0.166 F 
ENDBRANCH  23  29
ENDBRANCH  17  19
ENDBRANCH  15  17
ENDBRANCH   3   5
ENDBRANCH   2   3
ENDBRANCH   1   2
BRANCH   1  33
ATOM     33  C   UNL     1      -6.024   4.192  -2.813  1.00  0.00     0.275 C 
BRANCH  33  34
ATOM     34  O   UNL     1      -5.708   2.943  -3.455  1.00  0.00    -0.458 OA
BRANCH  34  35
ATOM     35  C   UNL     1      -4.937   3.053  -4.562  1.00  0.00     0.338 C 
ATOM     36  O   UNL     1      -4.570   4.097  -5.088  1.00  0.00    -0.246 OA
BRANCH  35  37
ATOM     37  C   UNL     1      -4.397   1.736  -4.942  1.00  0.00     0.060 A 
ATOM     38  C   UNL     1      -3.009   1.623  -4.960  1.00  0.00     0.016 A 
ATOM     39  C   UNL     1      -5.192   0.652  -5.326  1.00  0.00     0.016 A 
ATOM     40  C   UNL     1      -2.400   0.430  -5.325  1.00  0.00     0.010 A 
ATOM     41  C   UNL     1      -4.576  -0.547  -5.727  1.00  0.00     0.010 A 
ATOM     42  C   UNL     1      -3.175  -0.662  -5.724  1.00  0.00    -0.014 A 
BRANCH  42  43
ATOM     43  C   UNL     1      -2.455  -1.856  -6.227  1.00  0.00     0.031 A 
ATOM     44  C   UNL     1      -2.037  -1.899  -7.669  1.00  0.00     0.074 A 
ATOM     45  C   UNL     1      -2.033  -2.806  -5.372  1.00  0.00     0.049 A 
ATOM     46  N   UNL     1      -1.345  -2.810  -8.301  1.00  0.00    -0.248 NA
ATOM     47  C   UNL     1      -2.437  -0.755  -8.504  1.00  0.00     0.031 C 
ATOM     48  C   UNL     1      -2.283  -2.807  -3.932  1.00  0.00     0.029 A 
ATOM     49  N   UNL     1      -1.261  -3.923  -5.580  1.00  0.00    -0.354 N 
ATOM     50  C   UNL     1      -1.255  -2.370  -9.615  1.00  0.00     0.074 A 
ATOM     51  C   UNL     1      -1.934  -1.093  -9.683  1.00  0.00     0.031 C 
ATOM     52  C   UNL     1      -1.640  -3.852  -3.380  1.00  0.00     0.029 A 
ATOM     53  C   UNL     1      -0.946  -4.603  -4.424  1.00  0.00     0.049 A 
ATOM     54  H   UNL     1      -0.961  -4.211  -6.472  1.00  0.00     0.167 HD
ATOM     55  C   UNL     1      -0.687  -2.992 -10.675  1.00  0.00     0.037 A 
ATOM     56  C   UNL     1      -0.170  -5.690  -4.233  1.00  0.00     0.037 A 
ATOM     57  C   UNL     1      -0.030  -4.270 -10.605  1.00  0.00     0.049 A 
ATOM     58  C   UNL     1       0.454  -6.360  -5.432  1.00  0.00     0.074 A 
ATOM     59  C   UNL     1       0.459  -5.048 -11.640  1.00  0.00     0.029 A 
ATOM     60  N   UNL     1       0.239  -4.953  -9.429  1.00  0.00    -0.354 N 
ATOM     61  N   UNL     1       0.446  -5.982  -6.689  1.00  0.00    -0.248 NA
ATOM     62  C   UNL     1       1.166  -7.625  -5.191  1.00  0.00     0.031 C 
ATOM     63  C   UNL     1       1.002  -6.215 -11.090  1.00  0.00     0.029 A 
ATOM     64  C   UNL     1       0.885  -6.145  -9.711  1.00  0.00     0.049 A 
ATOM     65  H   UNL     1       0.006  -4.637  -8.526  1.00  0.00     0.167 HD
ATOM     66  C   UNL     1       1.133  -6.970  -7.387  1.00  0.00     0.074 A 
ATOM     67  C   UNL     1       1.593  -7.933  -6.408  1.00  0.00     0.031 C 
ATOM     68  C   UNL     1       1.336  -7.090  -8.722  1.00  0.00     0.037 A 
BRANCH  55  69
ATOM     69  C   UNL     1      -0.845  -2.337 -12.015  1.00  0.00     0.058 A 
ATOM     70  C   UNL     1      -0.067  -1.237 -12.403  1.00  0.00     0.135 A 
ATOM     71  C   UNL     1      -1.803  -2.819 -12.921  1.00  0.00     0.135 A 
ATOM     72  F   UNL     1       0.844  -0.722 -11.562  1.00  0.00    -0.206 F 
ATOM     73  C   UNL     1      -0.248  -0.623 -13.639  1.00  0.00     0.059 A 
ATOM     74  C   UNL     1      -1.988  -2.234 -14.168  1.00  0.00     0.059 A 
ATOM     75  F   UNL     1      -2.579  -3.864 -12.591  1.00  0.00    -0.206 F 
ATOM     76  C   UNL     1      -1.216  -1.126 -14.512  1.00  0.00     0.060 A 
BRANCH  76  77
ATOM     77  S   UNL     1      -1.458  -0.313 -16.106  1.00  0.00     0.124 S 
ATOM     78  O   UNL     1      -2.185   0.889 -15.712  1.00  0.00    -0.237 OA
ATOM     79  O   UNL     1      -0.089  -0.104 -16.565  1.00  0.00    -0.237 OA
ATOM     80  O   UNL     1      -2.229  -1.289 -16.871  1.00  0.00    -0.744 OA
ENDBRANCH  76  77
ENDBRANCH  55  69
BRANCH  56  81
ATOM     81  C   UNL     1       0.081  -6.227  -2.864  1.00  0.00     0.058 A 
ATOM     82  C   UNL     1       1.376  -6.229  -2.317  1.00  0.00     0.135 A 
ATOM     83  C   UNL     1      -0.948  -6.781  -2.089  1.00  0.00     0.135 A 
ATOM     84  F   UNL     1       2.405  -5.735  -3.023  1.00  0.00    -0.206 F 
ATOM     85  C   UNL     1       1.643  -6.771  -1.062  1.00  0.00     0.059 A 
ATOM     86  C   UNL     1      -0.710  -7.309  -0.823  1.00  0.00     0.059 A 
ATOM     87  F   UNL     1      -2.204  -6.811  -2.560  1.00  0.00    -0.206 F 
ATOM     88  C   UNL     1       0.592  -7.314  -0.324  1.00  0.00     0.060 A 
BRANCH  88  89
ATOM     89  S   UNL     1       0.930  -8.003   1.311  1.00  0.00     0.124 S 
ATOM     90  O   UNL     1       1.412  -9.337   0.972  1.00  0.00    -0.237 OA
ATOM     91  O   UNL     1       1.928  -7.081   1.844  1.00  0.00    -0.237 OA
ATOM     92  O   UNL     1      -0.373  -7.949   1.968  1.00  0.00    -0.744 OA
ENDBRANCH  88  89
ENDBRANCH  56  81
BRANCH  68  93
ATOM     93  C   UNL     1       2.061  -8.315  -9.205  1.00  0.00     0.058 A 
ATOM     94  C   UNL     1       1.432  -9.570  -9.220  1.00  0.00     0.135 A 
ATOM     95  C   UNL     1       3.366  -8.227  -9.714  1.00  0.00     0.135 A 
ATOM     96  F   UNL     1       0.185  -9.707  -8.742  1.00  0.00    -0.206 F 
ATOM     97  C   UNL     1       2.079 -10.701  -9.706  1.00  0.00     0.059 A 
ATOM     98  C   UNL     1       4.024  -9.342 -10.225  1.00  0.00     0.059 A 
ATOM     99  F   UNL     1       4.007  -7.048  -9.731  1.00  0.00    -0.206 F 
ATOM    100  C   UNL     1       3.375 -10.577 -10.209  1.00  0.00     0.060 A 
BRANCH 100 101
ATOM    101  S   UNL     1       4.188 -12.044 -10.879  1.00  0.00     0.124 S 
ATOM    102  O   UNL     1       4.574 -12.749  -9.661  1.00  0.00    -0.237 OA
ATOM    103  O   UNL     1       3.122 -12.665 -11.660  1.00  0.00    -0.237 OA
ATOM    104  O   UNL     1       5.289 -11.493 -11.663  1.00  0.00    -0.744 OA
ENDBRANCH 100 101
ENDBRANCH  68  93
ENDBRANCH  42  43
ENDBRANCH  35  37
ENDBRANCH  34  35
ENDBRANCH  33  34
ENDBRANCH   1  33
TORSDOF 18
