REMARK SMILES CCOC(=O)C1=NN(c2ccc([N+](=O)[O-])cc2C(F)(F)F)[C@@](C)(C(=O)OCCOC(=O)c2ccc(-c3c4nc(c(-c5c(F)cc(S(=O)(=O)[O-])cc5F)c5ccc([nH]5)c(-c5c(F)cc(S(=O)(=O)[O-])cc5F)c5nc(c(-c6c(F)cc(S(=O)(=O)[O-])cc6F)c6ccc3[nH]6)C=C5)C=C4)cc2)C1
REMARK SMILES IDX 27 1 26 2 24 3 25 4 22 5 6 6 7 7 98 8 8 9 23 10 4 11 5 12
REMARK SMILES IDX 3 13 2 14 1 15 9 16 10 17 17 18 11 19 16 20 12 21 18 22
REMARK SMILES IDX 19 23 20 24 21 25 13 26 14 27 15 28 28 29 29 30 30 31 31 32
REMARK SMILES IDX 32 33 33 34 97 35 34 36 96 37 35 38 36 39 37 40 90 41 38 42
REMARK SMILES IDX 95 43 89 44 91 45 39 46 94 47 88 48 87 49 40 51 74 52 53 53
REMARK SMILES IDX 73 54 54 55 57 56 72 57 92 58 55 59 56 60 71 62 93 63 58 64
REMARK SMILES IDX 41 65 42 66 51 67 43 68 44 69 50 70 52 71 45 72 46 73 47 74
REMARK SMILES IDX 48 75 49 76 75 77 76 78 85 79 77 80 78 81 84 82 86 83 79 84
REMARK SMILES IDX 80 85 81 86 82 87 83 88 59 89 60 90 69 91 61 92 62 93 68 94
REMARK SMILES IDX 70 95 63 96 64 97 65 98 66 99 67 100
REMARK H PARENT 91 50 57 61
REMARK Flexibility Score: inf
ROOT
ATOM      1  C   UNL     1       6.707  -5.515  -4.454  1.00  0.00     0.274 C 
ENDROOT
BRANCH   1   2
ATOM      2  O   UNL     1       5.490  -5.760  -3.714  1.00  0.00    -0.460 OA
BRANCH   2   3
ATOM      3  C   UNL     1       5.466  -5.293  -2.436  1.00  0.00     0.334 C 
ATOM      4  O   UNL     1       6.408  -4.698  -1.915  1.00  0.00    -0.249 OA
BRANCH   3   5
ATOM      5  C   UNL     1       4.197  -5.655  -1.640  1.00  0.00     0.163 C 
ATOM      6  C   UNL     1       2.564  -4.052  -1.959  1.00  0.00     0.149 C 
ATOM      7  N   UNL     1       2.221  -5.006  -2.766  1.00  0.00    -0.169 NA
ATOM      8  C   UNL     1       3.630  -4.383  -0.965  1.00  0.00     0.108 C 
ATOM      9  N   UNL     1       3.041  -6.058  -2.473  1.00  0.00    -0.247 N 
ATOM     10  C   UNL     1       4.649  -6.682  -0.607  1.00  0.00     0.050 C 
BRANCH   6  11
ATOM     11  C   UNL     1       1.893  -2.706  -1.988  1.00  0.00     0.354 C 
ATOM     12  O   UNL     1       1.968  -1.979  -2.963  1.00  0.00    -0.245 OA
BRANCH  11  13
ATOM     13  O   UNL     1       1.207  -2.515  -0.844  1.00  0.00    -0.461 OA
BRANCH  13  14
ATOM     14  C   UNL     1       0.384  -1.339  -0.802  1.00  0.00     0.230 C 
ATOM     15  C   UNL     1       0.693  -0.566   0.465  1.00  0.00     0.049 C 
ENDBRANCH  13  14
ENDBRANCH  11  13
ENDBRANCH   6  11
BRANCH   9  16
ATOM     16  C   UNL     1       2.719  -7.265  -3.062  1.00  0.00     0.073 A 
ATOM     17  C   UNL     1       2.794  -7.359  -4.469  1.00  0.00     0.036 A 
ATOM     18  C   UNL     1       2.152  -8.345  -2.358  1.00  0.00     0.088 A 
ATOM     19  C   UNL     1       2.382  -8.498  -5.167  1.00  0.00     0.088 A 
ATOM     20  C   UNL     1       1.778  -9.516  -3.058  1.00  0.00     0.101 A 
ATOM     21  C   UNL     1       1.884  -9.582  -4.451  1.00  0.00     0.270 A 
BRANCH  18  22
ATOM     22  C   UNL     1       1.850  -8.312  -0.879  1.00  0.00     0.418 C 
ATOM     23  F   UNL     1       0.710  -8.995  -0.566  1.00  0.00    -0.166 F 
ATOM     24  F   UNL     1       2.833  -8.918  -0.153  1.00  0.00    -0.166 F 
ATOM     25  F   UNL     1       1.683  -7.076  -0.336  1.00  0.00    -0.166 F 
ENDBRANCH  18  22
BRANCH  21  26
ATOM     26  N   UNL     1       1.432 -10.785  -5.158  1.00  0.00     0.062 N 
ATOM     27  O   UNL     1       1.351 -10.735  -6.394  1.00  0.00    -0.258 OA
ATOM     28  O   UNL     1       1.165 -11.786  -4.476  1.00  0.00    -0.258 OA
ENDBRANCH  21  26
ENDBRANCH   9  16
ENDBRANCH   3   5
ENDBRANCH   2   3
ENDBRANCH   1   2
BRANCH   1  29
ATOM     29  C   UNL     1       6.582  -4.266  -5.326  1.00  0.00     0.275 C 
BRANCH  29  30
ATOM     30  O   UNL     1       6.358  -3.128  -4.481  1.00  0.00    -0.458 OA
BRANCH  30  31
ATOM     31  C   UNL     1       5.597  -2.138  -5.008  1.00  0.00     0.338 C 
ATOM     32  O   UNL     1       5.197  -2.073  -6.158  1.00  0.00    -0.246 OA
BRANCH  31  33
ATOM     33  C   UNL     1       5.289  -1.134  -3.959  1.00  0.00     0.060 A 
ATOM     34  C   UNL     1       5.224  -1.502  -2.616  1.00  0.00     0.016 A 
ATOM     35  C   UNL     1       4.963   0.174  -4.319  1.00  0.00     0.016 A 
ATOM     36  C   UNL     1       4.705  -0.626  -1.664  1.00  0.00     0.010 A 
ATOM     37  C   UNL     1       4.554   1.091  -3.338  1.00  0.00     0.010 A 
ATOM     38  C   UNL     1       4.357   0.689  -2.006  1.00  0.00    -0.014 A 
BRANCH  38  39
ATOM     39  C   UNL     1       3.712   1.587  -0.995  1.00  0.00     0.031 A 
ATOM     40  C   UNL     1       2.383   2.248  -1.294  1.00  0.00     0.074 A 
ATOM     41  C   UNL     1       4.258   1.764   0.229  1.00  0.00     0.049 A 
ATOM     42  N   UNL     1       1.731   3.146  -0.597  1.00  0.00    -0.248 NA
ATOM     43  C   UNL     1       1.699   1.854  -2.536  1.00  0.00     0.031 C 
ATOM     44  C   UNL     1       5.512   1.169   0.696  1.00  0.00     0.029 A 
ATOM     45  N   UNL     1       3.809   2.471   1.320  1.00  0.00    -0.354 N 
ATOM     46  C   UNL     1       0.607   3.476  -1.348  1.00  0.00     0.074 A 
ATOM     47  C   UNL     1       0.658   2.674  -2.551  1.00  0.00     0.031 C 
ATOM     48  C   UNL     1       5.688   1.465   1.993  1.00  0.00     0.029 A 
ATOM     49  C   UNL     1       4.619   2.358   2.426  1.00  0.00     0.049 A 
ATOM     50  H   UNL     1       2.984   3.009   1.310  1.00  0.00     0.167 HD
ATOM     51  C   UNL     1      -0.381   4.359  -1.065  1.00  0.00     0.037 A 
ATOM     52  C   UNL     1       4.544   2.932   3.644  1.00  0.00     0.037 A 
ATOM     53  C   UNL     1      -0.485   5.106   0.162  1.00  0.00     0.049 A 
ATOM     54  C   UNL     1       3.441   3.909   3.935  1.00  0.00     0.074 A 
ATOM     55  C   UNL     1      -1.453   6.026   0.532  1.00  0.00     0.029 A 
ATOM     56  N   UNL     1       0.391   5.001   1.231  1.00  0.00    -0.354 N 
ATOM     57  N   UNL     1       2.447   4.282   3.166  1.00  0.00    -0.248 NA
ATOM     58  C   UNL     1       3.471   4.568   5.248  1.00  0.00     0.031 C 
ATOM     59  C   UNL     1      -1.151   6.490   1.819  1.00  0.00     0.029 A 
ATOM     60  C   UNL     1      -0.014   5.836   2.260  1.00  0.00     0.049 A 
ATOM     61  H   UNL     1       1.185   4.419   1.255  1.00  0.00     0.167 HD
ATOM     62  C   UNL     1       1.742   5.232   3.896  1.00  0.00     0.074 A 
ATOM     63  C   UNL     1       2.399   5.345   5.182  1.00  0.00     0.031 C 
ATOM     64  C   UNL     1       0.658   5.957   3.527  1.00  0.00     0.037 A 
BRANCH  51  65
ATOM     65  C   UNL     1      -1.429   4.591  -2.118  1.00  0.00     0.058 A 
ATOM     66  C   UNL     1      -2.456   3.666  -2.360  1.00  0.00     0.135 A 
ATOM     67  C   UNL     1      -1.427   5.781  -2.864  1.00  0.00     0.135 A 
ATOM     68  F   UNL     1      -2.490   2.504  -1.688  1.00  0.00    -0.206 F 
ATOM     69  C   UNL     1      -3.436   3.905  -3.319  1.00  0.00     0.059 A 
ATOM     70  C   UNL     1      -2.409   6.051  -3.812  1.00  0.00     0.059 A 
ATOM     71  F   UNL     1      -0.466   6.698  -2.670  1.00  0.00    -0.206 F 
ATOM     72  C   UNL     1      -3.404   5.101  -4.040  1.00  0.00     0.060 A 
BRANCH  72  73
ATOM     73  S   UNL     1      -4.692   5.410  -5.268  1.00  0.00     0.124 S 
ATOM     74  O   UNL     1      -4.263   4.544  -6.362  1.00  0.00    -0.237 OA
ATOM     75  O   UNL     1      -5.901   4.992  -4.566  1.00  0.00    -0.237 OA
ATOM     76  O   UNL     1      -4.583   6.843  -5.521  1.00  0.00    -0.744 OA
ENDBRANCH  72  73
ENDBRANCH  51  65
BRANCH  52  77
ATOM     77  C   UNL     1       5.580   2.635   4.669  1.00  0.00     0.058 A 
ATOM     78  C   UNL     1       5.271   1.886   5.814  1.00  0.00     0.135 A 
ATOM     79  C   UNL     1       6.902   3.081   4.515  1.00  0.00     0.135 A 
ATOM     80  F   UNL     1       4.017   1.453   6.014  1.00  0.00    -0.206 F 
ATOM     81  C   UNL     1       6.237   1.587   6.770  1.00  0.00     0.059 A 
ATOM     82  C   UNL     1       7.890   2.771   5.442  1.00  0.00     0.059 A 
ATOM     83  F   UNL     1       7.248   3.796   3.434  1.00  0.00    -0.206 F 
ATOM     84  C   UNL     1       7.546   2.028   6.571  1.00  0.00     0.060 A 
BRANCH  84  85
ATOM     85  S   UNL     1       8.821   1.567   7.764  1.00  0.00     0.124 S 
ATOM     86  O   UNL     1       8.634   2.578   8.798  1.00  0.00    -0.237 OA
ATOM     87  O   UNL     1       8.437   0.206   8.124  1.00  0.00    -0.237 OA
ATOM     88  O   UNL     1      10.053   1.675   6.987  1.00  0.00    -0.744 OA
ENDBRANCH  84  85
ENDBRANCH  52  77
BRANCH  64  89
ATOM     89  C   UNL     1       0.126   6.937   4.533  1.00  0.00     0.058 A 
ATOM     90  C   UNL     1       0.793   8.144   4.798  1.00  0.00     0.135 A 
ATOM     91  C   UNL     1      -1.047   6.661   5.252  1.00  0.00     0.135 A 
ATOM     92  F   UNL     1       1.922   8.450   4.141  1.00  0.00    -0.206 F 
ATOM     93  C   UNL     1       0.337   9.026   5.772  1.00  0.00     0.059 A 
ATOM     94  C   UNL     1      -1.532   7.539   6.216  1.00  0.00     0.059 A 
ATOM     95  F   UNL     1      -1.726   5.525   5.028  1.00  0.00    -0.206 F 
ATOM     96  C   UNL     1      -0.820   8.708   6.486  1.00  0.00     0.060 A 
BRANCH  96  97
ATOM     97  S   UNL     1      -1.394   9.842   7.768  1.00  0.00     0.124 S 
ATOM     98  O   UNL     1      -0.520   9.488   8.881  1.00  0.00    -0.237 OA
ATOM     99  O   UNL     1      -1.155  11.150   7.166  1.00  0.00    -0.237 OA
ATOM    100  O   UNL     1      -2.799   9.482   7.931  1.00  0.00    -0.744 OA
ENDBRANCH  96  97
ENDBRANCH  64  89
ENDBRANCH  38  39
ENDBRANCH  31  33
ENDBRANCH  30  31
ENDBRANCH  29  30
ENDBRANCH   1  29
TORSDOF 20
