REMARK SMILES CC(C)NC(=O)c1cccc(NC(=O)[C@@H]2[C@H](C(=O)OCCOC(=O)c3ccc(-c4c5nc(c(-c6c(F)cc(S(=O)(=O)[O-])cc6F)c6ccc([nH]6)c(-c6c(F)cc(S(=O)(=O)[O-])cc6F)c6nc(c(-c7c(F)cc(S(=O)(=O)[O-])cc7F)c7ccc4[nH]7)C=C6)C=C5)cc3)C2(C)C)c1
REMARK SMILES IDX 20 1 19 2 17 3 18 4 16 5 15 6 91 7 92 8 93 9 13 10 12 11
REMARK SMILES IDX 14 13 11 14 7 15 8 16 94 17 9 18 10 19 5 20 4 21 6 23 2 24
REMARK SMILES IDX 1 25 3 26 21 27 22 28 23 29 24 30 25 31 26 32 90 33 27 34
REMARK SMILES IDX 89 35 28 36 29 37 30 38 83 39 31 40 88 41 82 42 84 43 32 44
REMARK SMILES IDX 87 45 81 46 80 47 33 49 67 50 46 51 66 52 47 53 50 54 65 55
REMARK SMILES IDX 85 56 48 57 49 58 64 60 86 61 51 62 34 63 35 64 44 65 36 66
REMARK SMILES IDX 37 67 43 68 45 69 38 70 39 71 40 72 41 73 42 74 68 75 69 76
REMARK SMILES IDX 78 77 70 78 71 79 77 80 79 81 72 82 73 83 74 84 75 85 76 86
REMARK SMILES IDX 52 87 53 88 62 89 54 90 55 91 61 92 63 93 56 94 57 95 58 96
REMARK SMILES IDX 59 97 60 98
REMARK H PARENT 12 12 4 22 84 48 50 59
REMARK Flexibility Score: inf
ROOT
ATOM      1  C   UNL     1       4.223   0.727  11.018  1.00  0.00     0.274 C 
ENDROOT
BRANCH   1   2
ATOM      2  O   UNL     1       3.898   1.520   9.867  1.00  0.00    -0.462 OA
BRANCH   2   3
ATOM      3  C   UNL     1       2.583   1.520   9.501  1.00  0.00     0.310 C 
ATOM      4  O   UNL     1       1.715   0.794   9.956  1.00  0.00    -0.252 OA
BRANCH   3   5
ATOM      5  C   UNL     1       2.299   2.714   8.680  1.00  0.00     0.118 C 
ATOM      6  C   UNL     1       2.478   2.732   7.194  1.00  0.00     0.100 C 
ATOM      7  C   UNL     1       1.088   2.953   7.793  1.00  0.00    -0.009 C 
ATOM      8  C   UNL     1       0.527   4.347   7.637  1.00  0.00     0.013 C 
ATOM      9  C   UNL     1       0.014   1.891   7.715  1.00  0.00     0.013 C 
BRANCH   6  10
ATOM     10  C   UNL     1       2.695   1.595   6.282  1.00  0.00     0.228 C 
ATOM     11  N   UNL     1       3.031   1.842   4.969  1.00  0.00    -0.326 N 
ATOM     12  H   UNL     1       3.178   1.028   4.436  1.00  0.00     0.169 HD
ATOM     13  O   UNL     1       2.633   0.437   6.683  1.00  0.00    -0.274 OA
BRANCH  11  14
ATOM     14  C   UNL     1       3.207   3.039   4.242  1.00  0.00     0.041 A 
ATOM     15  C   UNL     1       4.172   4.100   2.286  1.00  0.00     0.041 A 
ATOM     16  C   UNL     1       3.772   5.359   2.731  1.00  0.00     0.014 A 
ATOM     17  C   UNL     1       3.933   2.952   3.054  1.00  0.00     0.040 A 
ATOM     18  C   UNL     1       3.022   5.451   3.893  1.00  0.00     0.003 A 
ATOM     19  C   UNL     1       2.708   4.292   4.610  1.00  0.00     0.026 A 
BRANCH  15  20
ATOM     20  C   UNL     1       4.824   4.006   0.969  1.00  0.00     0.251 C 
ATOM     21  N   UNL     1       4.260   3.213   0.001  1.00  0.00    -0.350 N 
ATOM     22  H   UNL     1       4.768   3.152  -0.840  1.00  0.00     0.164 HD
ATOM     23  O   UNL     1       5.831   4.665   0.735  1.00  0.00    -0.269 OA
BRANCH  21  24
ATOM     24  C   UNL     1       3.015   2.446   0.036  1.00  0.00     0.076 C 
ATOM     25  C   UNL     1       2.053   2.943  -1.036  1.00  0.00     0.030 C 
ATOM     26  C   UNL     1       3.329   0.964  -0.136  1.00  0.00     0.030 C 
ENDBRANCH  21  24
ENDBRANCH  15  20
ENDBRANCH  11  14
ENDBRANCH   6  10
ENDBRANCH   3   5
ENDBRANCH   2   3
ENDBRANCH   1   2
BRANCH   1  27
ATOM     27  C   UNL     1       4.171   1.565  12.304  1.00  0.00     0.275 C 
BRANCH  27  28
ATOM     28  O   UNL     1       2.832   2.011  12.602  1.00  0.00    -0.458 OA
BRANCH  28  29
ATOM     29  C   UNL     1       2.536   3.272  12.198  1.00  0.00     0.338 C 
ATOM     30  O   UNL     1       3.312   4.068  11.690  1.00  0.00    -0.246 OA
BRANCH  29  31
ATOM     31  C   UNL     1       1.078   3.521  12.275  1.00  0.00     0.060 A 
ATOM     32  C   UNL     1       0.500   4.239  11.224  1.00  0.00     0.016 A 
ATOM     33  C   UNL     1       0.283   3.096  13.342  1.00  0.00     0.016 A 
ATOM     34  C   UNL     1      -0.868   4.493  11.203  1.00  0.00     0.010 A 
ATOM     35  C   UNL     1      -1.090   3.389  13.344  1.00  0.00     0.010 A 
ATOM     36  C   UNL     1      -1.671   4.084  12.270  1.00  0.00    -0.014 A 
BRANCH  36  37
ATOM     37  C   UNL     1      -3.088   4.514  12.278  1.00  0.00     0.031 A 
ATOM     38  C   UNL     1      -3.438   5.843  12.883  1.00  0.00     0.074 A 
ATOM     39  C   UNL     1      -4.030   3.783  11.656  1.00  0.00     0.049 A 
ATOM     40  N   UNL     1      -4.601   6.434  12.969  1.00  0.00    -0.248 NA
ATOM     41  C   UNL     1      -2.322   6.619  13.447  1.00  0.00     0.031 C 
ATOM     42  C   UNL     1      -3.792   2.527  10.945  1.00  0.00     0.029 A 
ATOM     43  N   UNL     1      -5.377   4.001  11.512  1.00  0.00    -0.354 N 
ATOM     44  C   UNL     1      -4.359   7.652  13.591  1.00  0.00     0.074 A 
ATOM     45  C   UNL     1      -2.941   7.710  13.874  1.00  0.00     0.031 C 
ATOM     46  C   UNL     1      -4.959   2.079  10.450  1.00  0.00     0.029 A 
ATOM     47  C   UNL     1      -6.029   2.998  10.835  1.00  0.00     0.049 A 
ATOM     48  H   UNL     1      -5.834   4.801  11.861  1.00  0.00     0.167 HD
ATOM     49  C   UNL     1      -5.241   8.631  13.900  1.00  0.00     0.037 A 
ATOM     50  C   UNL     1      -7.343   2.833  10.577  1.00  0.00     0.037 A 
ATOM     51  C   UNL     1      -6.655   8.557  13.643  1.00  0.00     0.049 A 
ATOM     52  C   UNL     1      -8.322   3.883  11.037  1.00  0.00     0.074 A 
ATOM     53  C   UNL     1      -7.636   9.482  13.951  1.00  0.00     0.029 A 
ATOM     54  N   UNL     1      -7.292   7.489  13.026  1.00  0.00    -0.354 N 
ATOM     55  N   UNL     1      -8.085   5.025  11.640  1.00  0.00    -0.248 NA
ATOM     56  C   UNL     1      -9.747   3.623  10.785  1.00  0.00     0.031 C 
ATOM     57  C   UNL     1      -8.872   8.954  13.562  1.00  0.00     0.029 A 
ATOM     58  C   UNL     1      -8.656   7.722  12.966  1.00  0.00     0.049 A 
ATOM     59  H   UNL     1      -6.840   6.685  12.682  1.00  0.00     0.167 HD
ATOM     60  C   UNL     1      -9.327   5.629  11.815  1.00  0.00     0.074 A 
ATOM     61  C   UNL     1     -10.311   4.731  11.247  1.00  0.00     0.031 C 
ATOM     62  C   UNL     1      -9.624   6.821  12.390  1.00  0.00     0.037 A 
BRANCH  49  63
ATOM     63  C   UNL     1      -4.700   9.844  14.601  1.00  0.00     0.058 A 
ATOM     64  C   UNL     1      -3.934  10.808  13.926  1.00  0.00     0.135 A 
ATOM     65  C   UNL     1      -4.954  10.045  15.967  1.00  0.00     0.135 A 
ATOM     66  F   UNL     1      -3.643  10.651  12.625  1.00  0.00    -0.206 F 
ATOM     67  C   UNL     1      -3.415  11.915  14.589  1.00  0.00     0.059 A 
ATOM     68  C   UNL     1      -4.465  11.156  16.645  1.00  0.00     0.059 A 
ATOM     69  F   UNL     1      -5.676   9.149  16.658  1.00  0.00    -0.206 F 
ATOM     70  C   UNL     1      -3.682  12.078  15.950  1.00  0.00     0.060 A 
BRANCH  70  71
ATOM     71  S   UNL     1      -2.987  13.509  16.803  1.00  0.00     0.124 S 
ATOM     72  O   UNL     1      -1.581  13.133  16.903  1.00  0.00    -0.237 OA
ATOM     73  O   UNL     1      -3.287  14.599  15.880  1.00  0.00    -0.237 OA
ATOM     74  O   UNL     1      -3.720  13.542  18.065  1.00  0.00    -0.744 OA
ENDBRANCH  70  71
ENDBRANCH  49  63
BRANCH  50  75
ATOM     75  C   UNL     1      -7.817   1.610   9.875  1.00  0.00     0.058 A 
ATOM     76  C   UNL     1      -8.354   1.673   8.581  1.00  0.00     0.135 A 
ATOM     77  C   UNL     1      -7.755   0.351  10.495  1.00  0.00     0.135 A 
ATOM     78  F   UNL     1      -8.451   2.854   7.952  1.00  0.00    -0.206 F 
ATOM     79  C   UNL     1      -8.824   0.535   7.931  1.00  0.00     0.059 A 
ATOM     80  C   UNL     1      -8.194  -0.803   9.856  1.00  0.00     0.059 A 
ATOM     81  F   UNL     1      -7.247   0.236  11.732  1.00  0.00    -0.206 F 
ATOM     82  C   UNL     1      -8.738  -0.700   8.577  1.00  0.00     0.060 A 
BRANCH  82  83
ATOM     83  S   UNL     1      -9.312  -2.176   7.709  1.00  0.00     0.124 S 
ATOM     84  O   UNL     1     -10.760  -2.015   7.781  1.00  0.00    -0.237 OA
ATOM     85  O   UNL     1      -8.716  -2.008   6.388  1.00  0.00    -0.237 OA
ATOM     86  O   UNL     1      -8.758  -3.269   8.504  1.00  0.00    -0.744 OA
ENDBRANCH  82  83
ENDBRANCH  50  75
BRANCH  62  87
ATOM     87  C   UNL     1     -11.066   7.247  12.406  1.00  0.00     0.058 A 
ATOM     88  C   UNL     1     -12.002   6.659  13.271  1.00  0.00     0.135 A 
ATOM     89  C   UNL     1     -11.503   8.304  11.589  1.00  0.00     0.135 A 
ATOM     90  F   UNL     1     -11.638   5.642  14.068  1.00  0.00    -0.206 F 
ATOM     91  C   UNL     1     -13.324   7.091  13.313  1.00  0.00     0.059 A 
ATOM     92  C   UNL     1     -12.813   8.769  11.633  1.00  0.00     0.059 A 
ATOM     93  F   UNL     1     -10.646   8.909  10.752  1.00  0.00    -0.206 F 
ATOM     94  C   UNL     1     -13.720   8.149  12.492  1.00  0.00     0.060 A 
BRANCH  94  95
ATOM     95  S   UNL     1     -15.428   8.729  12.586  1.00  0.00     0.124 S 
ATOM     96  O   UNL     1     -16.136   7.676  11.867  1.00  0.00    -0.237 OA
ATOM     97  O   UNL     1     -15.662   8.782  14.026  1.00  0.00    -0.237 OA
ATOM     98  O   UNL     1     -15.383  10.026  11.917  1.00  0.00    -0.744 OA
ENDBRANCH  94  95
ENDBRANCH  62  87
ENDBRANCH  36  37
ENDBRANCH  29  31
ENDBRANCH  28  29
ENDBRANCH  27  28
ENDBRANCH   1  27
TORSDOF 18
