REMARK SMILES Cc1nsc(N(C)C(=O)[C@@H](C)NC(N)=O)c1C(=O)OCCOC(=O)c1ccc(-c2c3nc(c(-c4c(F)cc(S(=O)(=O)[O-])cc4F)c4ccc([nH]4)c(-c4c(F)cc(S(=O)(=O)[O-])cc4F)c4nc(c(-c5c(F)cc(S(=O)(=O)[O-])cc5F)c5ccc2[nH]5)C=C4)C=C3)cc1
REMARK SMILES IDX 20 1 19 2 17 3 18 4 16 5 1 6 2 7 3 8 4 9 5 10 6 11 7 12 8 13
REMARK SMILES IDX 9 14 10 15 11 16 12 17 13 18 14 20 15 21 21 24 22 25 23 26
REMARK SMILES IDX 24 27 25 28 26 29 90 30 27 31 89 32 28 33 29 34 30 35 83 36
REMARK SMILES IDX 31 37 88 38 82 39 84 40 32 41 87 42 81 43 80 44 33 46 67 47
REMARK SMILES IDX 46 48 66 49 47 50 50 51 65 52 85 53 48 54 49 55 64 57 86 58
REMARK SMILES IDX 51 59 34 60 35 61 44 62 36 63 37 64 43 65 45 66 38 67 39 68
REMARK SMILES IDX 40 69 41 70 42 71 68 72 69 73 78 74 70 75 71 76 77 77 79 78
REMARK SMILES IDX 72 79 73 80 74 81 75 82 76 83 52 84 53 85 62 86 54 87 55 88
REMARK SMILES IDX 61 89 63 90 56 91 57 92 58 93 59 94 60 95
REMARK H PARENT 12 19 14 22 14 23 84 45 50 56
REMARK Flexibility Score: inf
ROOT
ATOM      1  C   UNL     1       0.969   4.061   0.127  1.00  0.00     0.275 C 
ENDROOT
BRANCH   1   2
ATOM      2  O   UNL     1       0.820   2.732  -0.377  1.00  0.00    -0.458 OA
BRANCH   2   3
ATOM      3  C   UNL     1      -0.365   2.433  -0.982  1.00  0.00     0.343 C 
ATOM      4  O   UNL     1      -1.437   2.951  -0.718  1.00  0.00    -0.246 OA
BRANCH   3   5
ATOM      5  C   UNL     1      -0.202   1.310  -1.888  1.00  0.00     0.117 A 
ATOM      6  C   UNL     1       0.863  -0.250  -0.058  1.00  0.00     0.069 C 
ATOM      7  C   UNL     1       0.335   0.043  -1.424  1.00  0.00     0.068 A 
ATOM      8  N   UNL     1       0.348  -0.949  -2.308  1.00  0.00    -0.195 NA
ATOM      9  S   UNL     1      -0.165  -0.371  -3.751  1.00  0.00    -0.017 S 
ATOM     10  C   UNL     1      -0.479   1.261  -3.259  1.00  0.00     0.133 A 
BRANCH  10  11
ATOM     11  N   UNL     1      -0.889   2.177  -4.289  1.00  0.00    -0.303 N 
ATOM     12  C   UNL     1      -1.199   1.691  -5.637  1.00  0.00     0.154 C 
BRANCH  11  13
ATOM     13  C   UNL     1      -0.804   3.559  -4.035  1.00  0.00     0.249 C 
ATOM     14  O   UNL     1      -0.364   4.018  -2.977  1.00  0.00    -0.272 OA
BRANCH  13  15
ATOM     15  C   UNL     1      -1.214   4.617  -5.109  1.00  0.00     0.170 C 
ATOM     16  C   UNL     1      -0.387   4.636  -6.391  1.00  0.00     0.041 C 
BRANCH  15  17
ATOM     17  N   UNL     1      -2.649   4.662  -5.384  1.00  0.00    -0.327 N 
ATOM     18  C   UNL     1      -3.409   5.741  -5.051  1.00  0.00     0.312 C 
ATOM     19  H   UNL     1      -3.077   3.892  -5.822  1.00  0.00     0.166 HD
ATOM     20  N   UNL     1      -4.705   5.607  -5.415  1.00  0.00    -0.352 N 
ATOM     21  O   UNL     1      -3.014   6.757  -4.501  1.00  0.00    -0.249 OA
ATOM     22  H   UNL     1      -5.009   4.782  -5.858  1.00  0.00     0.161 HD
ATOM     23  H   UNL     1      -5.344   6.334  -5.236  1.00  0.00     0.161 HD
ENDBRANCH  15  17
ENDBRANCH  13  15
ENDBRANCH  11  13
ENDBRANCH  10  11
ENDBRANCH   3   5
ENDBRANCH   2   3
ENDBRANCH   1   2
BRANCH   1  24
ATOM     24  C   UNL     1       2.262   4.623  -0.442  1.00  0.00     0.275 C 
BRANCH  24  25
ATOM     25  O   UNL     1       2.143   4.887  -1.839  1.00  0.00    -0.458 OA
BRANCH  25  26
ATOM     26  C   UNL     1       2.516   3.911  -2.698  1.00  0.00     0.338 C 
ATOM     27  O   UNL     1       2.690   2.726  -2.455  1.00  0.00    -0.246 OA
BRANCH  26  28
ATOM     28  C   UNL     1       2.885   4.556  -3.973  1.00  0.00     0.060 A 
ATOM     29  C   UNL     1       3.347   3.764  -5.030  1.00  0.00     0.016 A 
ATOM     30  C   UNL     1       2.939   5.957  -4.048  1.00  0.00     0.016 A 
ATOM     31  C   UNL     1       3.964   4.382  -6.109  1.00  0.00     0.010 A 
ATOM     32  C   UNL     1       3.578   6.567  -5.103  1.00  0.00     0.010 A 
ATOM     33  C   UNL     1       4.128   5.775  -6.103  1.00  0.00    -0.014 A 
BRANCH  33  34
ATOM     34  C   UNL     1       4.752   6.433  -7.238  1.00  0.00     0.031 A 
ATOM     35  C   UNL     1       3.893   6.434  -8.450  1.00  0.00     0.074 A 
ATOM     36  C   UNL     1       5.919   7.106  -7.159  1.00  0.00     0.049 A 
ATOM     37  N   UNL     1       4.067   5.748  -9.529  1.00  0.00    -0.248 NA
ATOM     38  C   UNL     1       2.599   7.136  -8.401  1.00  0.00     0.031 C 
ATOM     39  C   UNL     1       6.719   7.415  -5.970  1.00  0.00     0.029 A 
ATOM     40  N   UNL     1       6.614   7.726  -8.153  1.00  0.00    -0.354 N 
ATOM     41  C   UNL     1       3.044   6.122 -10.395  1.00  0.00     0.074 A 
ATOM     42  C   UNL     1       2.081   6.827  -9.592  1.00  0.00     0.031 C 
ATOM     43  C   UNL     1       7.668   8.331  -6.286  1.00  0.00     0.029 A 
ATOM     44  C   UNL     1       7.642   8.562  -7.721  1.00  0.00     0.049 A 
ATOM     45  H   UNL     1       6.405   7.594  -9.106  1.00  0.00     0.167 HD
ATOM     46  C   UNL     1       3.204   6.015 -11.743  1.00  0.00     0.037 A 
ATOM     47  C   UNL     1       8.404   9.383  -8.493  1.00  0.00     0.037 A 
ATOM     48  C   UNL     1       4.331   5.171 -12.056  1.00  0.00     0.049 A 
ATOM     49  C   UNL     1       8.326   8.856  -9.880  1.00  0.00     0.074 A 
ATOM     50  C   UNL     1       4.652   3.846 -11.835  1.00  0.00     0.029 A 
ATOM     51  N   UNL     1       5.513   5.801 -12.361  1.00  0.00    -0.354 N 
ATOM     52  N   UNL     1       8.817   7.702 -10.239  1.00  0.00    -0.248 NA
ATOM     53  C   UNL     1       7.290   9.391 -10.748  1.00  0.00     0.031 C 
ATOM     54  C   UNL     1       6.051   3.848 -11.554  1.00  0.00     0.029 A 
ATOM     55  C   UNL     1       6.521   5.155 -11.695  1.00  0.00     0.049 A 
ATOM     56  H   UNL     1       5.617   6.579 -12.955  1.00  0.00     0.167 HD
ATOM     57  C   UNL     1       7.867   7.165 -11.096  1.00  0.00     0.074 A 
ATOM     58  C   UNL     1       6.991   8.286 -11.437  1.00  0.00     0.031 C 
ATOM     59  C   UNL     1       7.717   5.813 -11.217  1.00  0.00     0.037 A 
BRANCH  46  60
ATOM     60  C   UNL     1       2.626   6.967 -12.766  1.00  0.00     0.058 A 
ATOM     61  C   UNL     1       2.815   6.686 -14.137  1.00  0.00     0.135 A 
ATOM     62  C   UNL     1       2.179   8.273 -12.471  1.00  0.00     0.135 A 
ATOM     63  F   UNL     1       3.227   5.472 -14.537  1.00  0.00    -0.206 F 
ATOM     64  C   UNL     1       2.669   7.656 -15.128  1.00  0.00     0.059 A 
ATOM     65  C   UNL     1       1.980   9.242 -13.450  1.00  0.00     0.059 A 
ATOM     66  F   UNL     1       2.000   8.703 -11.217  1.00  0.00    -0.206 F 
ATOM     67  C   UNL     1       2.268   8.938 -14.771  1.00  0.00     0.060 A 
BRANCH  67  68
ATOM     68  S   UNL     1       2.166  10.212 -16.039  1.00  0.00     0.124 S 
ATOM     69  O   UNL     1       3.570  10.380 -16.397  1.00  0.00    -0.237 OA
ATOM     70  O   UNL     1       1.323   9.569 -17.041  1.00  0.00    -0.237 OA
ATOM     71  O   UNL     1       1.552  11.335 -15.338  1.00  0.00    -0.744 OA
ENDBRANCH  67  68
ENDBRANCH  46  60
BRANCH  47  72
ATOM     72  C   UNL     1       8.873  10.770  -8.206  1.00  0.00     0.058 A 
ATOM     73  C   UNL     1       9.815  11.414  -9.033  1.00  0.00     0.135 A 
ATOM     74  C   UNL     1       8.174  11.600  -7.309  1.00  0.00     0.135 A 
ATOM     75  F   UNL     1      10.516  10.707  -9.933  1.00  0.00    -0.206 F 
ATOM     76  C   UNL     1      10.008  12.802  -9.014  1.00  0.00     0.059 A 
ATOM     77  C   UNL     1       8.351  12.985  -7.269  1.00  0.00     0.059 A 
ATOM     78  F   UNL     1       7.222  11.098  -6.508  1.00  0.00    -0.206 F 
ATOM     79  C   UNL     1       9.251  13.584  -8.143  1.00  0.00     0.060 A 
BRANCH  79  80
ATOM     80  S   UNL     1       9.353  15.390  -8.243  1.00  0.00     0.124 S 
ATOM     81  O   UNL     1      10.686  15.649  -7.710  1.00  0.00    -0.237 OA
ATOM     82  O   UNL     1       9.180  15.633  -9.672  1.00  0.00    -0.237 OA
ATOM     83  O   UNL     1       8.246  15.839  -7.402  1.00  0.00    -0.744 OA
ENDBRANCH  79  80
ENDBRANCH  47  72
BRANCH  59  84
ATOM     84  C   UNL     1       8.794   4.928 -10.643  1.00  0.00     0.058 A 
ATOM     85  C   UNL     1       9.096   4.810  -9.274  1.00  0.00     0.135 A 
ATOM     86  C   UNL     1       9.454   4.054 -11.520  1.00  0.00     0.135 A 
ATOM     87  F   UNL     1       8.440   5.534  -8.357  1.00  0.00    -0.206 F 
ATOM     88  C   UNL     1      10.043   3.895  -8.806  1.00  0.00     0.059 A 
ATOM     89  C   UNL     1      10.377   3.115 -11.073  1.00  0.00     0.059 A 
ATOM     90  F   UNL     1       9.164   4.074 -12.831  1.00  0.00    -0.206 F 
ATOM     91  C   UNL     1      10.679   3.051  -9.715  1.00  0.00     0.060 A 
BRANCH  91  92
ATOM     92  S   UNL     1      11.861   1.826  -9.110  1.00  0.00     0.124 S 
ATOM     93  O   UNL     1      12.989   2.660  -8.710  1.00  0.00    -0.237 OA
ATOM     94  O   UNL     1      11.127   1.187  -8.021  1.00  0.00    -0.237 OA
ATOM     95  O   UNL     1      12.096   0.975 -10.274  1.00  0.00    -0.744 OA
ENDBRANCH  91  92
ENDBRANCH  59  84
ENDBRANCH  33  34
ENDBRANCH  26  28
ENDBRANCH  25  26
ENDBRANCH  24  25
ENDBRANCH   1  24
TORSDOF 18
