REMARK SMILES Cc1cc(Cl)cc2c1O[C@H](C(F)(F)F)C(C(=O)OCCOC(=O)c1ccc(-c3c4nc(c(-c5c(F)cc(S(=O)(=O)[O-])cc5F)c5ccc([nH]5)c(-c5c(F)cc(S(=O)(=O)[O-])cc5F)c5nc(c(-c6c(F)cc(S(=O)(=O)[O-])cc6F)c6ccc3[nH]6)C=C5)C=C4)cc1)=C2
REMARK SMILES IDX 20 1 19 2 18 3 16 4 17 5 15 6 1 7 2 8 3 9 8 10 4 11 7 12
REMARK SMILES IDX 9 13 5 14 6 15 90 16 10 17 11 18 12 19 13 20 14 21 21 22
REMARK SMILES IDX 22 23 23 24 24 25 25 26 89 27 26 28 88 29 27 30 28 31 29 32
REMARK SMILES IDX 82 33 30 34 87 35 81 36 83 37 31 38 86 39 80 40 79 41 32 43
REMARK SMILES IDX 66 44 45 45 65 46 46 47 49 48 64 49 84 50 47 51 48 52 63 54
REMARK SMILES IDX 85 55 50 56 33 57 34 58 43 59 35 60 36 61 42 62 44 63 37 64
REMARK SMILES IDX 38 65 39 66 40 67 41 68 67 69 68 70 77 71 69 72 70 73 76 74
REMARK SMILES IDX 78 75 71 76 72 77 73 78 74 79 75 80 51 81 52 82 61 83 53 84
REMARK SMILES IDX 54 85 60 86 62 87 55 88 56 89 57 90 58 91 59 92
REMARK H PARENT 83 42 49 53
REMARK Flexibility Score: inf
ROOT
ATOM      1  C   UNL     1      -4.839   0.166  -7.246  1.00  0.00     0.275 C 
ENDROOT
BRANCH   1   2
ATOM      2  C   UNL     1      -3.595  -0.703  -7.054  1.00  0.00     0.275 C 
BRANCH   2   3
ATOM      3  O   UNL     1      -3.003  -0.499  -5.753  1.00  0.00    -0.459 OA
BRANCH   3   4
ATOM      4  C   UNL     1      -1.889   0.268  -5.738  1.00  0.00     0.338 C 
ATOM      5  O   UNL     1      -1.334   0.762  -6.708  1.00  0.00    -0.246 OA
BRANCH   4   6
ATOM      6  C   UNL     1      -1.393   0.449  -4.362  1.00  0.00     0.087 C 
ATOM      7  C   UNL     1       0.989  -0.182   0.175  1.00  0.00     0.048 C 
ATOM      8  C   UNL     1       0.562   0.965  -0.695  1.00  0.00    -0.007 A 
ATOM      9  C   UNL     1       0.929   2.266  -0.308  1.00  0.00     0.027 A 
ATOM     10  C   UNL     1      -0.151   0.781  -1.890  1.00  0.00     0.131 A 
ATOM     11  C   UNL     1       0.579   3.364  -1.090  1.00  0.00     0.042 A 
ATOM     12  C   UNL     1      -0.483   1.889  -2.674  1.00  0.00     0.019 A 
ATOM     13  O   UNL     1      -0.507  -0.496  -2.231  1.00  0.00    -0.475 OA
ATOM     14  Cl  UNL     1       1.045   4.946  -0.605  1.00  0.00    -0.084 Cl
ATOM     15  C   UNL     1      -0.129   3.183  -2.270  1.00  0.00     0.032 A 
ATOM     16  C   UNL     1      -1.148   1.695  -3.946  1.00  0.00     0.027 C 
ATOM     17  C   UNL     1      -1.038  -0.764  -3.559  1.00  0.00     0.316 C 
BRANCH  17  18
ATOM     18  C   UNL     1      -0.050  -1.671  -4.309  1.00  0.00     0.430 C 
ATOM     19  F   UNL     1       0.275  -2.760  -3.569  1.00  0.00    -0.167 F 
ATOM     20  F   UNL     1      -0.581  -2.142  -5.464  1.00  0.00    -0.167 F 
ATOM     21  F   UNL     1       1.101  -1.035  -4.620  1.00  0.00    -0.167 F 
ENDBRANCH  17  18
ENDBRANCH   4   6
ENDBRANCH   3   4
ENDBRANCH   2   3
ENDBRANCH   1   2
BRANCH   1  22
ATOM     22  O   UNL     1      -4.480   1.558  -7.300  1.00  0.00    -0.458 OA
BRANCH  22  23
ATOM     23  C   UNL     1      -4.729   2.255  -6.168  1.00  0.00     0.338 C 
ATOM     24  O   UNL     1      -5.250   1.841  -5.147  1.00  0.00    -0.246 OA
BRANCH  23  25
ATOM     25  C   UNL     1      -4.188   3.618  -6.276  1.00  0.00     0.060 A 
ATOM     26  C   UNL     1      -2.810   3.781  -6.253  1.00  0.00     0.016 A 
ATOM     27  C   UNL     1      -5.023   4.726  -6.162  1.00  0.00     0.016 A 
ATOM     28  C   UNL     1      -2.263   5.014  -5.917  1.00  0.00     0.010 A 
ATOM     29  C   UNL     1      -4.458   5.998  -5.999  1.00  0.00     0.010 A 
ATOM     30  C   UNL     1      -3.072   6.153  -5.810  1.00  0.00    -0.014 A 
BRANCH  30  31
ATOM     31  C   UNL     1      -2.469   7.479  -5.471  1.00  0.00     0.031 A 
ATOM     32  C   UNL     1      -3.009   8.293  -4.317  1.00  0.00     0.074 A 
ATOM     33  C   UNL     1      -1.415   7.948  -6.173  1.00  0.00     0.049 A 
ATOM     34  N   UNL     1      -2.750   9.533  -3.987  1.00  0.00    -0.248 NA
ATOM     35  C   UNL     1      -3.980   7.634  -3.427  1.00  0.00     0.031 C 
ATOM     36  C   UNL     1      -0.749   7.249  -7.277  1.00  0.00     0.029 A 
ATOM     37  N   UNL     1      -0.701   9.117  -6.057  1.00  0.00    -0.354 N 
ATOM     38  C   UNL     1      -3.561   9.818  -2.892  1.00  0.00     0.074 A 
ATOM     39  C   UNL     1      -4.336   8.627  -2.624  1.00  0.00     0.031 C 
ATOM     40  C   UNL     1       0.308   7.964  -7.685  1.00  0.00     0.029 A 
ATOM     41  C   UNL     1       0.326   9.230  -6.967  1.00  0.00     0.049 A 
ATOM     42  H   UNL     1      -0.905   9.807  -5.386  1.00  0.00     0.167 HD
ATOM     43  C   UNL     1      -3.645  10.965  -2.175  1.00  0.00     0.037 A 
ATOM     44  C   UNL     1       1.158  10.254  -7.240  1.00  0.00     0.037 A 
ATOM     45  C   UNL     1      -2.822  12.124  -2.413  1.00  0.00     0.049 A 
ATOM     46  C   UNL     1       1.000  11.538  -6.479  1.00  0.00     0.074 A 
ATOM     47  C   UNL     1      -2.824  13.333  -1.740  1.00  0.00     0.029 A 
ATOM     48  N   UNL     1      -1.839  12.213  -3.388  1.00  0.00    -0.354 N 
ATOM     49  N   UNL     1       0.178  11.814  -5.495  1.00  0.00    -0.248 NA
ATOM     50  C   UNL     1       1.859  12.659  -6.883  1.00  0.00     0.031 C 
ATOM     51  C   UNL     1      -1.875  14.168  -2.336  1.00  0.00     0.029 A 
ATOM     52  C   UNL     1      -1.244  13.463  -3.349  1.00  0.00     0.049 A 
ATOM     53  H   UNL     1      -1.599  11.493  -4.016  1.00  0.00     0.167 HD
ATOM     54  C   UNL     1       0.425  13.139  -5.157  1.00  0.00     0.074 A 
ATOM     55  C   UNL     1       1.490  13.600  -6.024  1.00  0.00     0.031 C 
ATOM     56  C   UNL     1      -0.183  13.906  -4.219  1.00  0.00     0.037 A 
BRANCH  43  57
ATOM     57  C   UNL     1      -4.670  11.042  -1.073  1.00  0.00     0.058 A 
ATOM     58  C   UNL     1      -4.529  10.332   0.129  1.00  0.00     0.135 A 
ATOM     59  C   UNL     1      -5.785  11.889  -1.201  1.00  0.00     0.135 A 
ATOM     60  F   UNL     1      -3.493   9.496   0.302  1.00  0.00    -0.206 F 
ATOM     61  C   UNL     1      -5.463  10.444   1.156  1.00  0.00     0.059 A 
ATOM     62  C   UNL     1      -6.716  12.038  -0.177  1.00  0.00     0.059 A 
ATOM     63  F   UNL     1      -5.973  12.593  -2.329  1.00  0.00    -0.206 F 
ATOM     64  C   UNL     1      -6.552  11.303   0.995  1.00  0.00     0.060 A 
BRANCH  64  65
ATOM     65  S   UNL     1      -7.744  11.445   2.344  1.00  0.00     0.124 S 
ATOM     66  O   UNL     1      -8.374  10.128   2.317  1.00  0.00    -0.237 OA
ATOM     67  O   UNL     1      -6.884  11.712   3.492  1.00  0.00    -0.237 OA
ATOM     68  O   UNL     1      -8.598  12.554   1.931  1.00  0.00    -0.744 OA
ENDBRANCH  64  65
ENDBRANCH  43  57
BRANCH  44  69
ATOM     69  C   UNL     1       2.178  10.114  -8.316  1.00  0.00     0.058 A 
ATOM     70  C   UNL     1       3.547  10.093  -8.014  1.00  0.00     0.135 A 
ATOM     71  C   UNL     1       1.807   9.964  -9.664  1.00  0.00     0.135 A 
ATOM     72  F   UNL     1       3.955  10.246  -6.745  1.00  0.00    -0.206 F 
ATOM     73  C   UNL     1       4.510   9.928  -9.004  1.00  0.00     0.059 A 
ATOM     74  C   UNL     1       2.749   9.765 -10.667  1.00  0.00     0.059 A 
ATOM     75  F   UNL     1       0.509   9.968 -10.009  1.00  0.00    -0.206 F 
ATOM     76  C   UNL     1       4.100   9.755 -10.328  1.00  0.00     0.060 A 
BRANCH  76  77
ATOM     77  S   UNL     1       5.358   9.482 -11.595  1.00  0.00     0.124 S 
ATOM     78  O   UNL     1       5.998  10.791 -11.660  1.00  0.00    -0.237 OA
ATOM     79  O   UNL     1       6.154   8.409 -11.007  1.00  0.00    -0.237 OA
ATOM     80  O   UNL     1       4.577   9.103 -12.769  1.00  0.00    -0.744 OA
ENDBRANCH  76  77
ENDBRANCH  44  69
BRANCH  56  81
ATOM     81  C   UNL     1       0.293  15.323  -4.071  1.00  0.00     0.058 A 
ATOM     82  C   UNL     1      -0.017  16.303  -5.026  1.00  0.00     0.135 A 
ATOM     83  C   UNL     1       1.007  15.721  -2.929  1.00  0.00     0.135 A 
ATOM     84  F   UNL     1      -0.688  15.972  -6.141  1.00  0.00    -0.206 F 
ATOM     85  C   UNL     1       0.375  17.626  -4.861  1.00  0.00     0.059 A 
ATOM     86  C   UNL     1       1.384  17.044  -2.729  1.00  0.00     0.059 A 
ATOM     87  F   UNL     1       1.322  14.823  -1.981  1.00  0.00    -0.206 F 
ATOM     88  C   UNL     1       1.068  17.989  -3.704  1.00  0.00     0.060 A 
BRANCH  88  89
ATOM     89  S   UNL     1       1.524  19.721  -3.483  1.00  0.00     0.124 S 
ATOM     90  O   UNL     1       2.553  19.889  -4.505  1.00  0.00    -0.237 OA
ATOM     91  O   UNL     1       0.261  20.408  -3.737  1.00  0.00    -0.237 OA
ATOM     92  O   UNL     1       1.996  19.777  -2.103  1.00  0.00    -0.744 OA
ENDBRANCH  88  89
ENDBRANCH  56  81
ENDBRANCH  30  31
ENDBRANCH  23  25
ENDBRANCH  22  23
ENDBRANCH   1  22
TORSDOF 15
