REMARK SMILES Cc1occc1C(=O)N1[C@@H](C(=O)OCCOC(=O)c2ccc(-c3c4nc(c(-c5c(F)cc(S(=O)(=O)[O-])cc5F)c5ccc([nH]5)c(-c5c(F)cc(S(=O)(=O)[O-])cc5F)c5nc(c(-c6c(F)cc(S(=O)(=O)[O-])cc6F)c6ccc3[nH]6)C=C5)C=C4)cc2)C[C@@H]2CCCC[C@H]21
REMARK SMILES IDX 15 1 14 2 13 3 11 4 12 5 10 6 9 7 91 8 85 9 86 10 90 11
REMARK SMILES IDX 87 12 89 13 88 14 7 15 8 16 6 17 1 18 2 19 3 20 4 21 5 22
REMARK SMILES IDX 16 23 17 24 18 25 19 26 20 27 84 28 21 29 83 30 22 31 23 32
REMARK SMILES IDX 24 33 77 34 25 35 82 36 76 37 78 38 26 39 81 40 75 41 74 42
REMARK SMILES IDX 27 44 61 45 40 46 60 47 41 48 44 49 59 50 79 51 42 52 43 53
REMARK SMILES IDX 58 55 80 56 45 57 28 58 29 59 38 60 30 61 31 62 37 63 39 64
REMARK SMILES IDX 32 65 33 66 34 67 35 68 36 69 62 70 63 71 72 72 64 73 65 74
REMARK SMILES IDX 71 75 73 76 66 77 67 78 68 79 69 80 70 81 46 82 47 83 56 84
REMARK SMILES IDX 48 85 49 86 55 87 57 88 50 89 51 90 52 91 53 92 54 93
REMARK H PARENT 78 43 44 54
REMARK Flexibility Score: inf
ROOT
ATOM      1  C   UNL     1       1.038  -1.765  -4.636  1.00  0.00     0.275 C 
ENDROOT
BRANCH   1   2
ATOM      2  C   UNL     1       0.568  -3.080  -4.031  1.00  0.00     0.274 C 
BRANCH   2   3
ATOM      3  O   UNL     1       0.814  -3.076  -2.609  1.00  0.00    -0.461 OA
BRANCH   3   4
ATOM      4  C   UNL     1       1.683  -4.019  -2.158  1.00  0.00     0.329 C 
ATOM      5  O   UNL     1       2.224  -4.859  -2.872  1.00  0.00    -0.250 OA
BRANCH   4   6
ATOM      6  C   UNL     1       1.828  -4.029  -0.631  1.00  0.00     0.196 C 
ATOM      7  N   UNL     1       1.455  -2.835   0.168  1.00  0.00    -0.321 N 
ATOM      8  C   UNL     1       2.330  -2.844   1.342  1.00  0.00     0.089 C 
ATOM      9  C   UNL     1       3.278  -4.365  -0.209  1.00  0.00     0.043 C 
ATOM     10  C   UNL     1       3.664  -3.201   0.693  1.00  0.00     0.014 C 
ATOM     11  C   UNL     1       2.483  -1.642   2.262  1.00  0.00     0.025 C 
ATOM     12  C   UNL     1       4.777  -3.463   1.691  1.00  0.00     0.006 C 
ATOM     13  C   UNL     1       3.598  -1.894   3.290  1.00  0.00     0.002 C 
ATOM     14  C   UNL     1       4.926  -2.253   2.615  1.00  0.00     0.000 C 
BRANCH   7  15
ATOM     15  C   UNL     1       0.099  -2.545   0.250  1.00  0.00     0.258 C 
ATOM     16  O   UNL     1      -0.734  -3.448   0.150  1.00  0.00    -0.269 OA
BRANCH  15  17
ATOM     17  C   UNL     1      -0.347  -1.153   0.350  1.00  0.00     0.081 A 
ATOM     18  C   UNL     1       1.673   0.526  -0.137  1.00  0.00     0.088 C 
ATOM     19  C   UNL     1       0.307   0.063   0.184  1.00  0.00     0.113 A 
ATOM     20  O   UNL     1      -0.575   1.099   0.328  1.00  0.00    -0.469 OA
ATOM     21  C   UNL     1      -1.801   0.574   0.531  1.00  0.00     0.196 A 
ATOM     22  C   UNL     1      -1.725  -0.792   0.550  1.00  0.00     0.056 A 
ENDBRANCH  15  17
ENDBRANCH   7  15
ENDBRANCH   4   6
ENDBRANCH   3   4
ENDBRANCH   2   3
ENDBRANCH   1   2
BRANCH   1  23
ATOM     23  O   UNL     1       2.402  -1.548  -4.239  1.00  0.00    -0.458 OA
BRANCH  23  24
ATOM     24  C   UNL     1       2.633  -0.402  -3.563  1.00  0.00     0.338 C 
ATOM     25  O   UNL     1       1.854   0.531  -3.415  1.00  0.00    -0.246 OA
BRANCH  24  26
ATOM     26  C   UNL     1       3.994  -0.410  -2.991  1.00  0.00     0.060 A 
ATOM     27  C   UNL     1       4.582  -1.586  -2.520  1.00  0.00     0.016 A 
ATOM     28  C   UNL     1       4.669   0.805  -2.855  1.00  0.00     0.016 A 
ATOM     29  C   UNL     1       5.825  -1.539  -1.884  1.00  0.00     0.010 A 
ATOM     30  C   UNL     1       5.950   0.834  -2.298  1.00  0.00     0.010 A 
ATOM     31  C   UNL     1       6.544  -0.337  -1.799  1.00  0.00    -0.014 A 
BRANCH  31  32
ATOM     32  C   UNL     1       7.929  -0.293  -1.248  1.00  0.00     0.031 A 
ATOM     33  C   UNL     1       8.282   0.637  -0.117  1.00  0.00     0.074 A 
ATOM     34  C   UNL     1       8.898  -1.048  -1.806  1.00  0.00     0.049 A 
ATOM     35  N   UNL     1       9.463   1.000   0.316  1.00  0.00    -0.248 NA
ATOM     36  C   UNL     1       7.162   1.249   0.616  1.00  0.00     0.031 C 
ATOM     37  C   UNL     1       8.705  -2.015  -2.890  1.00  0.00     0.029 A 
ATOM     38  N   UNL     1      10.246  -1.114  -1.546  1.00  0.00    -0.354 N 
ATOM     39  C   UNL     1       9.233   1.923   1.331  1.00  0.00     0.074 A 
ATOM     40  C   UNL     1       7.796   2.056   1.457  1.00  0.00     0.031 C 
ATOM     41  C   UNL     1       9.876  -2.599  -3.176  1.00  0.00     0.029 A 
ATOM     42  C   UNL     1      10.923  -1.980  -2.372  1.00  0.00     0.049 A 
ATOM     43  H   UNL     1      10.685  -0.591  -0.837  1.00  0.00     0.167 HD
ATOM     44  C   UNL     1      10.138   2.600   2.080  1.00  0.00     0.037 A 
ATOM     45  C   UNL     1      12.241  -2.216  -2.519  1.00  0.00     0.037 A 
ATOM     46  C   UNL     1      11.566   2.433   1.979  1.00  0.00     0.049 A 
ATOM     47  C   UNL     1      13.226  -1.427  -1.709  1.00  0.00     0.074 A 
ATOM     48  C   UNL     1      12.561   3.065   2.708  1.00  0.00     0.029 A 
ATOM     49  N   UNL     1      12.205   1.566   1.106  1.00  0.00    -0.354 N 
ATOM     50  N   UNL     1      12.994  -0.508  -0.804  1.00  0.00    -0.248 NA
ATOM     51  C   UNL     1      14.650  -1.682  -1.965  1.00  0.00     0.031 C 
ATOM     52  C   UNL     1      13.802   2.600   2.255  1.00  0.00     0.029 A 
ATOM     53  C   UNL     1      13.579   1.655   1.267  1.00  0.00     0.049 A 
ATOM     54  H   UNL     1      11.749   0.974   0.465  1.00  0.00     0.167 HD
ATOM     55  C   UNL     1      14.244  -0.069  -0.385  1.00  0.00     0.074 A 
ATOM     56  C   UNL     1      15.228  -0.839  -1.119  1.00  0.00     0.031 C 
ATOM     57  C   UNL     1      14.547   0.893   0.521  1.00  0.00     0.037 A 
BRANCH  44  58
ATOM     58  C   UNL     1       9.617   3.614   3.060  1.00  0.00     0.058 A 
ATOM     59  C   UNL     1       9.034   3.237   4.278  1.00  0.00     0.135 A 
ATOM     60  C   UNL     1       9.754   4.987   2.795  1.00  0.00     0.135 A 
ATOM     61  F   UNL     1       8.867   1.938   4.574  1.00  0.00    -0.206 F 
ATOM     62  C   UNL     1       8.586   4.185   5.194  1.00  0.00     0.059 A 
ATOM     63  C   UNL     1       9.331   5.953   3.704  1.00  0.00     0.059 A 
ATOM     64  F   UNL     1      10.307   5.401   1.645  1.00  0.00    -0.206 F 
ATOM     65  C   UNL     1       8.736   5.542   4.896  1.00  0.00     0.060 A 
BRANCH  65  66
ATOM     66  S   UNL     1       8.156   6.763   6.093  1.00  0.00     0.124 S 
ATOM     67  O   UNL     1       6.714   6.721   5.873  1.00  0.00    -0.237 OA
ATOM     68  O   UNL     1       8.619   6.208   7.360  1.00  0.00    -0.237 OA
ATOM     69  O   UNL     1       8.820   7.993   5.671  1.00  0.00    -0.744 OA
ENDBRANCH  65  66
ENDBRANCH  44  58
BRANCH  45  70
ATOM     70  C   UNL     1      12.695  -3.214  -3.520  1.00  0.00     0.058 A 
ATOM     71  C   UNL     1      13.193  -4.460  -3.115  1.00  0.00     0.135 A 
ATOM     72  C   UNL     1      12.582  -2.966  -4.897  1.00  0.00     0.135 A 
ATOM     73  F   UNL     1      13.330  -4.735  -1.810  1.00  0.00    -0.206 F 
ATOM     74  C   UNL     1      13.552  -5.433  -4.042  1.00  0.00     0.059 A 
ATOM     75  C   UNL     1      12.912  -3.932  -5.841  1.00  0.00     0.059 A 
ATOM     76  F   UNL     1      12.099  -1.792  -5.332  1.00  0.00    -0.206 F 
ATOM     77  C   UNL     1      13.398  -5.163  -5.403  1.00  0.00     0.060 A 
BRANCH  77  78
ATOM     78  S   UNL     1      13.767  -6.464  -6.600  1.00  0.00     0.124 S 
ATOM     79  O   UNL     1      15.218  -6.369  -6.697  1.00  0.00    -0.237 OA
ATOM     80  O   UNL     1      13.247  -7.656  -5.936  1.00  0.00    -0.237 OA
ATOM     81  O   UNL     1      13.022  -6.045  -7.784  1.00  0.00    -0.744 OA
ENDBRANCH  77  78
ENDBRANCH  45  70
BRANCH  57  82
ATOM     82  C   UNL     1      16.002   1.161   0.770  1.00  0.00     0.058 A 
ATOM     83  C   UNL     1      16.770   1.912  -0.132  1.00  0.00     0.135 A 
ATOM     84  C   UNL     1      16.627   0.688   1.934  1.00  0.00     0.135 A 
ATOM     85  F   UNL     1      16.218   2.377  -1.265  1.00  0.00    -0.206 F 
ATOM     86  C   UNL     1      18.116   2.172   0.103  1.00  0.00     0.059 A 
ATOM     87  C   UNL     1      17.967   0.950   2.198  1.00  0.00     0.059 A 
ATOM     88  F   UNL     1      15.932  -0.032   2.829  1.00  0.00    -0.206 F 
ATOM     89  C   UNL     1      18.706   1.685   1.270  1.00  0.00     0.060 A 
BRANCH  89  90
ATOM     90  S   UNL     1      20.448   2.048   1.580  1.00  0.00     0.124 S 
ATOM     91  O   UNL     1      21.108   1.091   0.698  1.00  0.00    -0.237 OA
ATOM     92  O   UNL     1      20.553   3.450   1.187  1.00  0.00    -0.237 OA
ATOM     93  O   UNL     1      20.597   1.792   3.010  1.00  0.00    -0.744 OA
ENDBRANCH  89  90
ENDBRANCH  57  82
ENDBRANCH  31  32
ENDBRANCH  24  26
ENDBRANCH  23  24
ENDBRANCH   1  23
TORSDOF 16
