REMARK SMILES O=C(Cc1ccn[nH]1)Nc1sc2c(c1C(=O)OCCOC(=O)c1ccc(-c3c4nc(c(-c5c(F)cc(S(=O)(=O)[O-])cc5F)c5ccc([nH]5)c(-c5c(F)cc(S(=O)(=O)[O-])cc5F)c5nc(c(-c6c(F)cc(S(=O)(=O)[O-])cc6F)c6ccc3[nH]6)C=C5)C=C4)cc1)CCC2
REMARK SMILES IDX 18 1 17 2 15 3 16 4 14 5 10 6 11 7 12 8 13 9 91 10 89 11
REMARK SMILES IDX 90 12 9 13 1 14 2 15 3 17 4 18 5 19 8 20 6 21 7 22 19 24
REMARK SMILES IDX 20 25 21 26 22 27 23 28 24 29 88 30 25 31 87 32 26 33 27 34
REMARK SMILES IDX 28 35 81 36 29 37 86 38 80 39 82 40 30 41 85 42 79 43 78 44
REMARK SMILES IDX 31 46 65 47 44 48 64 49 45 50 48 51 63 52 83 53 46 54 47 55
REMARK SMILES IDX 62 57 84 58 49 59 32 60 33 61 42 62 34 63 35 64 41 65 43 66
REMARK SMILES IDX 36 67 37 68 38 69 39 70 40 71 66 72 67 73 76 74 68 75 69 76
REMARK SMILES IDX 75 77 77 78 70 79 71 80 72 81 73 82 74 83 50 84 51 85 60 86
REMARK SMILES IDX 52 87 53 88 59 89 61 90 54 91 55 92 56 93 57 94 58 95
REMARK H PARENT 9 16 8 23 82 45 48 56
REMARK Flexibility Score: inf
ROOT
ATOM      1  C   UNL     1      -0.781  -2.667  -3.193  1.00  0.00     0.275 C 
ENDROOT
BRANCH   1   2
ATOM      2  O   UNL     1      -0.198  -3.178  -1.978  1.00  0.00    -0.458 OA
BRANCH   2   3
ATOM      3  C   UNL     1       0.990  -2.614  -1.573  1.00  0.00     0.341 C 
ATOM      4  O   UNL     1       1.577  -1.753  -2.208  1.00  0.00    -0.246 OA
BRANCH   3   5
ATOM      5  C   UNL     1       1.522  -3.223  -0.349  1.00  0.00     0.098 A 
ATOM      6  C   UNL     1       2.686  -2.804   0.294  1.00  0.00     0.110 A 
ATOM      7  S   UNL     1       3.215  -3.847   1.546  1.00  0.00    -0.122 S 
ATOM      8  C   UNL     1       1.807  -4.735   1.401  1.00  0.00     0.011 A 
ATOM      9  C   UNL     1       1.004  -4.346   0.364  1.00  0.00    -0.017 A 
ATOM     10  C   UNL     1       1.301  -5.894   2.169  1.00  0.00     0.047 C 
ATOM     11  C   UNL     1      -0.182  -5.234   0.253  1.00  0.00     0.038 C 
ATOM     12  C   UNL     1      -0.140  -6.034   1.593  1.00  0.00     0.010 C 
BRANCH   6  13
ATOM     13  N   UNL     1       3.487  -1.699   0.094  1.00  0.00    -0.317 N 
ATOM     14  O   UNL     1       2.174  -0.406   1.490  1.00  0.00    -0.274 OA
ATOM     15  C   UNL     1       3.087  -0.502   0.674  1.00  0.00     0.230 C 
ATOM     16  H   UNL     1       4.312  -1.756  -0.440  1.00  0.00     0.170 HD
BRANCH  15  17
ATOM     17  C   UNL     1       3.922   0.699   0.257  1.00  0.00     0.155 C 
BRANCH  17  18
ATOM     18  C   UNL     1       4.658   1.268   1.421  1.00  0.00     0.044 A 
ATOM     19  C   UNL     1       5.549   0.713   2.316  1.00  0.00     0.045 A 
ATOM     20  N   UNL     1       4.503   2.573   1.821  1.00  0.00    -0.282 N 
ATOM     21  C   UNL     1       5.889   1.762   3.187  1.00  0.00     0.135 A 
ATOM     22  N   UNL     1       5.298   2.907   2.852  1.00  0.00    -0.184 NA
ATOM     23  H   UNL     1       3.874   3.200   1.396  1.00  0.00     0.190 HD
ENDBRANCH  17  18
ENDBRANCH  15  17
ENDBRANCH   6  13
ENDBRANCH   3   5
ENDBRANCH   2   3
ENDBRANCH   1   2
BRANCH   1  24
ATOM     24  C   UNL     1      -1.776  -1.531  -2.964  1.00  0.00     0.275 C 
BRANCH  24  25
ATOM     25  O   UNL     1      -1.128  -0.331  -2.552  1.00  0.00    -0.458 OA
BRANCH  25  26
ATOM     26  C   UNL     1      -0.966  -0.252  -1.213  1.00  0.00     0.338 C 
ATOM     27  O   UNL     1      -1.174  -1.144  -0.404  1.00  0.00    -0.246 OA
BRANCH  26  28
ATOM     28  C   UNL     1      -0.615   1.109  -0.817  1.00  0.00     0.060 A 
ATOM     29  C   UNL     1      -0.174   1.270   0.498  1.00  0.00     0.016 A 
ATOM     30  C   UNL     1      -0.940   2.203  -1.629  1.00  0.00     0.016 A 
ATOM     31  C   UNL     1      -0.167   2.522   1.059  1.00  0.00     0.010 A 
ATOM     32  C   UNL     1      -0.964   3.457  -1.060  1.00  0.00     0.010 A 
ATOM     33  C   UNL     1      -0.646   3.582   0.295  1.00  0.00    -0.014 A 
BRANCH  33  34
ATOM     34  C   UNL     1      -0.809   4.855   0.965  1.00  0.00     0.031 A 
ATOM     35  C   UNL     1       0.475   5.553   1.221  1.00  0.00     0.074 A 
ATOM     36  C   UNL     1      -2.052   5.319   1.204  1.00  0.00     0.049 A 
ATOM     37  N   UNL     1       0.973   5.920   2.356  1.00  0.00    -0.248 NA
ATOM     38  C   UNL     1       1.414   5.693   0.092  1.00  0.00     0.031 C 
ATOM     39  C   UNL     1      -3.324   4.731   0.766  1.00  0.00     0.029 A 
ATOM     40  N   UNL     1      -2.436   6.503   1.749  1.00  0.00    -0.354 N 
ATOM     41  C   UNL     1       2.163   6.574   2.045  1.00  0.00     0.074 A 
ATOM     42  C   UNL     1       2.485   6.210   0.693  1.00  0.00     0.031 C 
ATOM     43  C   UNL     1      -4.290   5.673   0.820  1.00  0.00     0.029 A 
ATOM     44  C   UNL     1      -3.733   6.882   1.391  1.00  0.00     0.049 A 
ATOM     45  H   UNL     1      -1.859   7.041   2.338  1.00  0.00     0.167 HD
ATOM     46  C   UNL     1       2.624   7.596   2.817  1.00  0.00     0.037 A 
ATOM     47  C   UNL     1      -4.196   8.161   1.421  1.00  0.00     0.037 A 
ATOM     48  C   UNL     1       2.072   7.531   4.147  1.00  0.00     0.049 A 
ATOM     49  C   UNL     1      -3.300   8.907   2.357  1.00  0.00     0.074 A 
ATOM     50  C   UNL     1       2.066   6.564   5.135  1.00  0.00     0.029 A 
ATOM     51  N   UNL     1       1.062   8.405   4.475  1.00  0.00    -0.354 N 
ATOM     52  N   UNL     1      -3.228   8.652   3.640  1.00  0.00    -0.248 NA
ATOM     53  C   UNL     1      -2.120   9.546   1.784  1.00  0.00     0.031 C 
ATOM     54  C   UNL     1       0.754   6.615   5.689  1.00  0.00     0.029 A 
ATOM     55  C   UNL     1       0.072   7.665   5.074  1.00  0.00     0.049 A 
ATOM     56  H   UNL     1       1.050   9.375   4.311  1.00  0.00     0.167 HD
ATOM     57  C   UNL     1      -1.872   8.700   3.937  1.00  0.00     0.074 A 
ATOM     58  C   UNL     1      -1.242   9.299   2.761  1.00  0.00     0.031 C 
ATOM     59  C   UNL     1      -1.332   7.988   4.972  1.00  0.00     0.037 A 
BRANCH  46  60
ATOM     60  C   UNL     1       3.242   8.852   2.245  1.00  0.00     0.058 A 
ATOM     61  C   UNL     1       3.785   9.814   3.120  1.00  0.00     0.135 A 
ATOM     62  C   UNL     1       3.071   9.281   0.907  1.00  0.00     0.135 A 
ATOM     63  F   UNL     1       3.982   9.526   4.416  1.00  0.00    -0.206 F 
ATOM     64  C   UNL     1       4.063  11.121   2.715  1.00  0.00     0.059 A 
ATOM     65  C   UNL     1       3.393  10.559   0.471  1.00  0.00     0.059 A 
ATOM     66  F   UNL     1       2.494   8.521  -0.030  1.00  0.00    -0.206 F 
ATOM     67  C   UNL     1       3.849  11.486   1.389  1.00  0.00     0.060 A 
BRANCH  67  68
ATOM     68  S   UNL     1       4.113  13.192   0.880  1.00  0.00     0.124 S 
ATOM     69  O   UNL     1       3.032  13.875   1.581  1.00  0.00    -0.237 OA
ATOM     70  O   UNL     1       5.462  13.448   1.375  1.00  0.00    -0.237 OA
ATOM     71  O   UNL     1       3.986  13.132  -0.573  1.00  0.00    -0.744 OA
ENDBRANCH  67  68
ENDBRANCH  46  60
BRANCH  47  72
ATOM     72  C   UNL     1      -5.015   8.830   0.367  1.00  0.00     0.058 A 
ATOM     73  C   UNL     1      -5.562  10.111   0.569  1.00  0.00     0.135 A 
ATOM     74  C   UNL     1      -5.065   8.347  -0.959  1.00  0.00     0.135 A 
ATOM     75  F   UNL     1      -5.546  10.663   1.792  1.00  0.00    -0.206 F 
ATOM     76  C   UNL     1      -6.076  10.882  -0.484  1.00  0.00     0.059 A 
ATOM     77  C   UNL     1      -5.585   9.087  -2.018  1.00  0.00     0.059 A 
ATOM     78  F   UNL     1      -4.521   7.169  -1.297  1.00  0.00    -0.206 F 
ATOM     79  C   UNL     1      -6.063  10.367  -1.781  1.00  0.00     0.060 A 
BRANCH  79  80
ATOM     80  S   UNL     1      -6.544  11.414  -3.176  1.00  0.00     0.124 S 
ATOM     81  O   UNL     1      -7.982  11.553  -2.969  1.00  0.00    -0.237 OA
ATOM     82  O   UNL     1      -5.747  12.614  -2.950  1.00  0.00    -0.237 OA
ATOM     83  O   UNL     1      -6.157  10.623  -4.342  1.00  0.00    -0.744 OA
ENDBRANCH  79  80
ENDBRANCH  47  72
BRANCH  59  84
ATOM     84  C   UNL     1      -2.252   7.312   5.956  1.00  0.00     0.058 A 
ATOM     85  C   UNL     1      -3.174   6.303   5.626  1.00  0.00     0.135 A 
ATOM     86  C   UNL     1      -2.065   7.584   7.320  1.00  0.00     0.135 A 
ATOM     87  F   UNL     1      -3.326   5.898   4.357  1.00  0.00    -0.206 F 
ATOM     88  C   UNL     1      -3.916   5.635   6.605  1.00  0.00     0.059 A 
ATOM     89  C   UNL     1      -2.767   6.909   8.313  1.00  0.00     0.059 A 
ATOM     90  F   UNL     1      -1.149   8.488   7.707  1.00  0.00    -0.206 F 
ATOM     91  C   UNL     1      -3.707   5.949   7.948  1.00  0.00     0.060 A 
BRANCH  91  92
ATOM     92  S   UNL     1      -4.641   5.069   9.219  1.00  0.00     0.124 S 
ATOM     93  O   UNL     1      -5.994   5.576   9.010  1.00  0.00    -0.237 OA
ATOM     94  O   UNL     1      -4.426   3.670   8.862  1.00  0.00    -0.237 OA
ATOM     95  O   UNL     1      -4.005   5.491  10.465  1.00  0.00    -0.744 OA
ENDBRANCH  91  92
ENDBRANCH  59  84
ENDBRANCH  33  34
ENDBRANCH  26  28
ENDBRANCH  25  26
ENDBRANCH  24  25
ENDBRANCH   1  24
TORSDOF 17
