REMARK SMILES C[C@H]1CN(C(=O)Nc2ccc(C(=O)OCCOC(=O)c3ccc(-c4c5nc(c(-c6c(F)cc(S(=O)(=O)[O-])cc6F)c6ccc([nH]6)c(-c6c(F)cc(S(=O)(=O)[O-])cc6F)c6nc(c(-c7c(F)cc(S(=O)(=O)[O-])cc7F)c7ccc4[nH]7)C=C6)C=C5)cc3)cc2Br)C[C@@H]1C
REMARK SMILES IDX 16 1 15 2 14 3 12 4 13 5 11 6 8 7 9 8 87 9 10 10 86 11 88 12
REMARK SMILES IDX 7 13 1 14 2 15 3 16 90 17 4 18 89 19 91 20 5 21 6 22 17 24
REMARK SMILES IDX 18 25 19 26 20 27 21 28 85 29 22 30 84 31 23 32 24 33 25 34
REMARK SMILES IDX 78 35 26 36 83 37 77 38 79 39 27 40 82 41 76 42 75 43 28 45
REMARK SMILES IDX 62 46 41 47 61 48 42 49 45 50 60 51 80 52 43 53 44 54 59 56
REMARK SMILES IDX 81 57 46 58 29 59 30 60 39 61 31 62 32 63 38 64 40 65 33 66
REMARK SMILES IDX 34 67 35 68 36 69 37 70 63 71 64 72 73 73 65 74 66 75 72 76
REMARK SMILES IDX 74 77 67 78 68 79 69 80 70 81 71 82 47 83 48 84 57 85 49 86
REMARK SMILES IDX 50 87 56 88 58 89 51 90 52 91 53 92 54 93 55 94
REMARK H PARENT 7 23 79 44 45 55
REMARK Flexibility Score: inf
ROOT
ATOM      1  C   UNL     1      -4.447   5.163   0.208  1.00  0.00     0.275 C 
ENDROOT
BRANCH   1   2
ATOM      2  C   UNL     1      -3.155   4.463  -0.217  1.00  0.00     0.275 C 
BRANCH   2   3
ATOM      3  O   UNL     1      -3.294   3.033  -0.115  1.00  0.00    -0.458 OA
BRANCH   3   4
ATOM      4  C   UNL     1      -2.725   2.474   0.978  1.00  0.00     0.338 C 
ATOM      5  O   UNL     1      -2.048   3.055   1.813  1.00  0.00    -0.246 OA
BRANCH   4   6
ATOM      6  C   UNL     1      -3.045   1.028   1.088  1.00  0.00     0.061 A 
ATOM      7  C   UNL     1      -3.211  -1.742   1.322  1.00  0.00     0.057 A 
ATOM      8  C   UNL     1      -2.905  -0.984   2.449  1.00  0.00     0.028 A 
ATOM      9  C   UNL     1      -3.601  -1.112   0.125  1.00  0.00     0.042 A 
ATOM     10  C   UNL     1      -2.767   0.393   2.312  1.00  0.00     0.018 A 
ATOM     11  C   UNL     1      -3.533   0.281   0.012  1.00  0.00     0.033 A 
ATOM     12  Br  UNL     1      -4.105  -2.110  -1.411  1.00  0.00    -0.049 Br
BRANCH   7  13
ATOM     13  N   UNL     1      -2.926  -3.106   1.396  1.00  0.00    -0.307 N 
ATOM     14  C   UNL     1       0.563  -1.492  -1.955  1.00  0.00     0.010 C 
ATOM     15  C   UNL     1       0.867  -1.607  -0.458  1.00  0.00     0.010 C 
ATOM     16  C   UNL     1      -0.427  -1.709   0.344  1.00  0.00     0.125 C 
ATOM     17  C   UNL     1       1.574  -2.917  -0.097  1.00  0.00     0.010 C 
ATOM     18  N   UNL     1      -0.746  -3.132   0.411  1.00  0.00    -0.324 N 
ATOM     19  C   UNL     1       0.412  -3.916  -0.007  1.00  0.00     0.125 C 
ATOM     20  C   UNL     1       2.308  -2.796   1.243  1.00  0.00     0.010 C 
ATOM     21  C   UNL     1      -1.844  -3.784   0.917  1.00  0.00     0.321 C 
ATOM     22  O   UNL     1      -1.863  -5.014   1.022  1.00  0.00    -0.248 OA
ATOM     23  H   UNL     1      -3.599  -3.655   1.859  1.00  0.00     0.171 HD
ENDBRANCH   7  13
ENDBRANCH   4   6
ENDBRANCH   3   4
ENDBRANCH   2   3
ENDBRANCH   1   2
BRANCH   1  24
ATOM     24  O   UNL     1      -4.708   4.969   1.612  1.00  0.00    -0.458 OA
BRANCH  24  25
ATOM     25  C   UNL     1      -5.618   4.009   1.899  1.00  0.00     0.338 C 
ATOM     26  O   UNL     1      -6.246   3.327   1.106  1.00  0.00    -0.246 OA
BRANCH  25  27
ATOM     27  C   UNL     1      -5.689   3.794   3.352  1.00  0.00     0.060 A 
ATOM     28  C   UNL     1      -4.823   2.862   3.913  1.00  0.00     0.016 A 
ATOM     29  C   UNL     1      -6.703   4.355   4.123  1.00  0.00     0.016 A 
ATOM     30  C   UNL     1      -5.009   2.412   5.215  1.00  0.00     0.010 A 
ATOM     31  C   UNL     1      -6.840   3.963   5.464  1.00  0.00     0.010 A 
ATOM     32  C   UNL     1      -6.021   2.957   6.014  1.00  0.00    -0.014 A 
BRANCH  32  33
ATOM     33  C   UNL     1      -6.253   2.419   7.385  1.00  0.00     0.031 A 
ATOM     34  C   UNL     1      -7.581   1.796   7.739  1.00  0.00     0.074 A 
ATOM     35  C   UNL     1      -5.266   2.441   8.306  1.00  0.00     0.049 A 
ATOM     36  N   UNL     1      -8.024   1.396   8.904  1.00  0.00    -0.248 NA
ATOM     37  C   UNL     1      -8.541   1.611   6.640  1.00  0.00     0.031 C 
ATOM     38  C   UNL     1      -3.916   2.966   8.091  1.00  0.00     0.029 A 
ATOM     39  N   UNL     1      -5.242   2.000   9.607  1.00  0.00    -0.354 N 
ATOM     40  C   UNL     1      -9.330   0.967   8.689  1.00  0.00     0.074 A 
ATOM     41  C   UNL     1      -9.610   1.163   7.283  1.00  0.00     0.031 C 
ATOM     42  C   UNL     1      -3.189   2.786   9.204  1.00  0.00     0.029 A 
ATOM     43  C   UNL     1      -4.038   2.208  10.239  1.00  0.00     0.049 A 
ATOM     44  H   UNL     1      -6.014   1.575  10.046  1.00  0.00     0.167 HD
ATOM     45  C   UNL     1     -10.214   0.457   9.582  1.00  0.00     0.037 A 
ATOM     46  C   UNL     1      -3.666   1.995  11.517  1.00  0.00     0.037 A 
ATOM     47  C   UNL     1      -9.912   0.209  10.969  1.00  0.00     0.049 A 
ATOM     48  C   UNL     1      -4.666   1.438  12.491  1.00  0.00     0.074 A 
ATOM     49  C   UNL     1     -10.738  -0.316  11.949  1.00  0.00     0.029 A 
ATOM     50  N   UNL     1      -8.685   0.450  11.570  1.00  0.00    -0.354 N 
ATOM     51  N   UNL     1      -5.915   1.094  12.283  1.00  0.00    -0.248 NA
ATOM     52  C   UNL     1      -4.212   1.254  13.876  1.00  0.00     0.031 C 
ATOM     53  C   UNL     1     -10.020  -0.362  13.150  1.00  0.00     0.029 A 
ATOM     54  C   UNL     1      -8.733   0.090  12.908  1.00  0.00     0.049 A 
ATOM     55  H   UNL     1      -7.896   0.821  11.113  1.00  0.00     0.167 HD
ATOM     56  C   UNL     1      -6.390   0.637  13.508  1.00  0.00     0.074 A 
ATOM     57  C   UNL     1      -5.289   0.730  14.444  1.00  0.00     0.031 C 
ATOM     58  C   UNL     1      -7.628   0.185  13.828  1.00  0.00     0.037 A 
BRANCH  45  59
ATOM     59  C   UNL     1     -11.607   0.163   9.094  1.00  0.00     0.058 A 
ATOM     60  C   UNL     1     -11.890  -0.919   8.246  1.00  0.00     0.135 A 
ATOM     61  C   UNL     1     -12.683   0.965   9.511  1.00  0.00     0.135 A 
ATOM     62  F   UNL     1     -10.898  -1.708   7.803  1.00  0.00    -0.206 F 
ATOM     63  C   UNL     1     -13.185  -1.179   7.805  1.00  0.00     0.059 A 
ATOM     64  C   UNL     1     -13.989   0.708   9.105  1.00  0.00     0.059 A 
ATOM     65  F   UNL     1     -12.471   2.012  10.323  1.00  0.00    -0.206 F 
ATOM     66  C   UNL     1     -14.228  -0.357   8.238  1.00  0.00     0.060 A 
BRANCH  66  67
ATOM     67  S   UNL     1     -15.902  -0.704   7.658  1.00  0.00     0.124 S 
ATOM     68  O   UNL     1     -15.835  -0.233   6.278  1.00  0.00    -0.237 OA
ATOM     69  O   UNL     1     -16.001  -2.150   7.830  1.00  0.00    -0.237 OA
ATOM     70  O   UNL     1     -16.742   0.088   8.551  1.00  0.00    -0.744 OA
ENDBRANCH  66  67
ENDBRANCH  45  59
BRANCH  46  71
ATOM     71  C   UNL     1      -2.287   2.344  11.956  1.00  0.00     0.058 A 
ATOM     72  C   UNL     1      -1.363   1.348  12.306  1.00  0.00     0.135 A 
ATOM     73  C   UNL     1      -1.863   3.680  12.022  1.00  0.00     0.135 A 
ATOM     74  F   UNL     1      -1.725   0.056  12.271  1.00  0.00    -0.206 F 
ATOM     75  C   UNL     1      -0.072   1.664  12.716  1.00  0.00     0.059 A 
ATOM     76  C   UNL     1      -0.568   4.019  12.399  1.00  0.00     0.059 A 
ATOM     77  F   UNL     1      -2.704   4.671  11.686  1.00  0.00    -0.206 F 
ATOM     78  C   UNL     1       0.318   3.004  12.755  1.00  0.00     0.060 A 
BRANCH  78  79
ATOM     79  S   UNL     1       2.014   3.404  13.229  1.00  0.00     0.124 S 
ATOM     80  O   UNL     1       1.969   3.206  14.673  1.00  0.00    -0.237 OA
ATOM     81  O   UNL     1       2.785   2.421  12.473  1.00  0.00    -0.237 OA
ATOM     82  O   UNL     1       2.168   4.785  12.784  1.00  0.00    -0.744 OA
ENDBRANCH  78  79
ENDBRANCH  46  71
BRANCH  58  83
ATOM     83  C   UNL     1      -7.843  -0.280  15.242  1.00  0.00     0.058 A 
ATOM     84  C   UNL     1      -7.923   0.623  16.313  1.00  0.00     0.135 A 
ATOM     85  C   UNL     1      -7.985  -1.648  15.524  1.00  0.00     0.135 A 
ATOM     86  F   UNL     1      -7.788   1.941  16.097  1.00  0.00    -0.206 F 
ATOM     87  C   UNL     1      -8.100   0.184  17.621  1.00  0.00     0.059 A 
ATOM     88  C   UNL     1      -8.189  -2.108  16.822  1.00  0.00     0.059 A 
ATOM     89  F   UNL     1      -7.928  -2.553  14.534  1.00  0.00    -0.206 F 
ATOM     90  C   UNL     1      -8.226  -1.185  17.866  1.00  0.00     0.060 A 
BRANCH  90  91
ATOM     91  S   UNL     1      -8.457  -1.746  19.567  1.00  0.00     0.124 S 
ATOM     92  O   UNL     1      -7.107  -1.613  20.104  1.00  0.00    -0.237 OA
ATOM     93  O   UNL     1      -9.441  -0.797  20.080  1.00  0.00    -0.237 OA
ATOM     94  O   UNL     1      -8.939  -3.115  19.410  1.00  0.00    -0.744 OA
ENDBRANCH  90  91
ENDBRANCH  58  83
ENDBRANCH  32  33
ENDBRANCH  25  27
ENDBRANCH  24  25
ENDBRANCH   1  24
TORSDOF 15
