REMARK SMILES Cc1c(C)c2c(c(C)c1O)CC[C@@](C)(C(=O)OCCOC(=O)c1ccc(-c3c4nc(c(-c5c(F)cc(S(=O)(=O)[O-])cc5F)c5ccc([nH]5)c(-c5c(F)cc(S(=O)(=O)[O-])cc5F)c5nc(c(-c6c(F)cc(S(=O)(=O)[O-])cc6F)c6ccc3[nH]6)C=C5)C=C4)cc1)O2
REMARK SMILES IDX 19 1 18 2 17 3 15 4 16 5 13 6 1 7 2 8 3 9 9 10 4 11 5 12
REMARK SMILES IDX 7 13 6 14 89 15 8 16 11 17 12 18 14 19 10 20 20 22 21 23
REMARK SMILES IDX 22 24 23 25 24 26 88 27 25 28 87 29 26 30 27 31 28 32 81 33
REMARK SMILES IDX 29 34 86 35 80 36 82 37 30 38 85 39 79 40 78 41 31 43 65 44
REMARK SMILES IDX 44 45 64 46 45 47 48 48 63 49 83 50 46 51 47 52 62 54 84 55
REMARK SMILES IDX 49 56 32 57 33 58 42 59 34 60 35 61 41 62 43 63 36 64 37 65
REMARK SMILES IDX 38 66 39 67 40 68 66 69 67 70 76 71 68 72 69 73 75 74 77 75
REMARK SMILES IDX 70 76 71 77 72 78 73 79 74 80 50 81 51 82 60 83 52 84 53 85
REMARK SMILES IDX 59 86 61 87 54 88 55 89 56 90 57 91 58 92
REMARK H PARENT 10 21 82 42 48 53
REMARK Flexibility Score: inf
ROOT
ATOM      1  C   UNL     1      -1.121  -1.454  -9.619  1.00  0.00     0.275 C 
ENDROOT
BRANCH   1   2
ATOM      2  C   UNL     1      -2.396  -0.882  -8.998  1.00  0.00     0.274 C 
BRANCH   2   3
ATOM      3  O   UNL     1      -2.097   0.051  -7.940  1.00  0.00    -0.459 OA
BRANCH   3   4
ATOM      4  C   UNL     1      -2.198  -0.421  -6.662  1.00  0.00     0.350 C 
ATOM      5  O   UNL     1      -2.565  -1.558  -6.387  1.00  0.00    -0.247 OA
BRANCH   4   6
ATOM      6  C   UNL     1      -1.871   0.666  -5.609  1.00  0.00     0.203 C 
ATOM      7  C   UNL     1       0.942   0.126  -0.083  1.00  0.00     0.049 C 
ATOM      8  C   UNL     1       0.466   0.801  -1.347  1.00  0.00    -0.002 A 
ATOM      9  C   UNL     1      -0.242   0.088  -2.346  1.00  0.00    -0.002 A 
ATOM     10  C   UNL     1       0.720   2.170  -1.551  1.00  0.00     0.122 A 
ATOM     11  C   UNL     1      -0.595  -1.363  -2.126  1.00  0.00     0.049 C 
ATOM     12  C   UNL     1      -0.607   0.741  -3.546  1.00  0.00     0.127 A 
ATOM     13  C   UNL     1       0.344   2.827  -2.734  1.00  0.00    -0.002 A 
ATOM     14  C   UNL     1      -0.262   2.083  -3.769  1.00  0.00     0.001 A 
ATOM     15  O   UNL     1      -1.299  -0.006  -4.470  1.00  0.00    -0.475 OA
ATOM     16  C   UNL     1       0.617   4.300  -2.911  1.00  0.00     0.049 C 
ATOM     17  C   UNL     1      -0.551   2.728  -5.097  1.00  0.00     0.044 C 
ATOM     18  C   UNL     1      -0.885   1.696  -6.158  1.00  0.00     0.065 C 
ATOM     19  C   UNL     1      -3.225   1.263  -5.200  1.00  0.00     0.069 C 
BRANCH  10  20
ATOM     20  O   UNL     1       1.350   2.928  -0.597  1.00  0.00    -0.507 OA
ATOM     21  H   UNL     1       1.620   2.536   0.210  1.00  0.00     0.293 HD
ENDBRANCH  10  20
ENDBRANCH   4   6
ENDBRANCH   3   4
ENDBRANCH   2   3
ENDBRANCH   1   2
BRANCH   1  22
ATOM     22  O   UNL     1      -0.454  -2.328  -8.693  1.00  0.00    -0.458 OA
BRANCH  22  23
ATOM     23  C   UNL     1       0.669  -1.834  -8.120  1.00  0.00     0.338 C 
ATOM     24  O   UNL     1       1.210  -0.766  -8.343  1.00  0.00    -0.246 OA
BRANCH  23  25
ATOM     25  C   UNL     1       1.105  -2.770  -7.074  1.00  0.00     0.060 A 
ATOM     26  C   UNL     1       0.570  -2.616  -5.800  1.00  0.00     0.016 A 
ATOM     27  C   UNL     1       2.071  -3.747  -7.320  1.00  0.00     0.016 A 
ATOM     28  C   UNL     1       1.004  -3.427  -4.762  1.00  0.00     0.010 A 
ATOM     29  C   UNL     1       2.484  -4.586  -6.274  1.00  0.00     0.010 A 
ATOM     30  C   UNL     1       1.962  -4.423  -4.980  1.00  0.00    -0.014 A 
BRANCH  30  31
ATOM     31  C   UNL     1       2.420  -5.225  -3.814  1.00  0.00     0.031 A 
ATOM     32  C   UNL     1       3.816  -5.051  -3.284  1.00  0.00     0.074 A 
ATOM     33  C   UNL     1       1.545  -6.016  -3.160  1.00  0.00     0.049 A 
ATOM     34  N   UNL     1       4.396  -5.654  -2.278  1.00  0.00    -0.248 NA
ATOM     35  C   UNL     1       4.671  -4.067  -3.967  1.00  0.00     0.031 C 
ATOM     36  C   UNL     1       0.141  -6.206  -3.531  1.00  0.00     0.029 A 
ATOM     37  N   UNL     1       1.690  -6.776  -2.025  1.00  0.00    -0.354 N 
ATOM     38  C   UNL     1       5.688  -5.143  -2.223  1.00  0.00     0.074 A 
ATOM     39  C   UNL     1       5.814  -4.193  -3.306  1.00  0.00     0.031 C 
ATOM     40  C   UNL     1      -0.457  -6.982  -2.614  1.00  0.00     0.029 A 
ATOM     41  C   UNL     1       0.532  -7.402  -1.626  1.00  0.00     0.049 A 
ATOM     42  H   UNL     1       2.544  -6.865  -1.543  1.00  0.00     0.167 HD
ATOM     43  C   UNL     1       6.675  -5.436  -1.344  1.00  0.00     0.037 A 
ATOM     44  C   UNL     1       0.293  -8.233  -0.591  1.00  0.00     0.037 A 
ATOM     45  C   UNL     1       6.532  -6.357  -0.246  1.00  0.00     0.049 A 
ATOM     46  C   UNL     1       1.425  -8.596   0.332  1.00  0.00     0.074 A 
ATOM     47  C   UNL     1       7.482  -6.732   0.688  1.00  0.00     0.029 A 
ATOM     48  N   UNL     1       5.366  -7.037   0.072  1.00  0.00    -0.354 N 
ATOM     49  N   UNL     1       2.656  -8.145   0.336  1.00  0.00    -0.248 NA
ATOM     50  C   UNL     1       1.146  -9.595   1.373  1.00  0.00     0.031 C 
ATOM     51  C   UNL     1       6.901  -7.667   1.550  1.00  0.00     0.029 A 
ATOM     52  C   UNL     1       5.577  -7.842   1.179  1.00  0.00     0.049 A 
ATOM     53  H   UNL     1       4.515  -6.958  -0.415  1.00  0.00     0.167 HD
ATOM     54  C   UNL     1       3.296  -8.799   1.383  1.00  0.00     0.074 A 
ATOM     55  C   UNL     1       2.314  -9.666   1.999  1.00  0.00     0.031 C 
ATOM     56  C   UNL     1       4.585  -8.692   1.788  1.00  0.00     0.037 A 
BRANCH  43  57
ATOM     57  C   UNL     1       8.009  -4.775  -1.543  1.00  0.00     0.058 A 
ATOM     58  C   UNL     1       8.222  -3.426  -1.222  1.00  0.00     0.135 A 
ATOM     59  C   UNL     1       9.104  -5.518  -2.015  1.00  0.00     0.135 A 
ATOM     60  F   UNL     1       7.205  -2.668  -0.782  1.00  0.00    -0.206 F 
ATOM     61  C   UNL     1       9.469  -2.831  -1.380  1.00  0.00     0.059 A 
ATOM     62  C   UNL     1      10.366  -4.949  -2.158  1.00  0.00     0.059 A 
ATOM     63  F   UNL     1       8.954  -6.812  -2.337  1.00  0.00    -0.206 F 
ATOM     64  C   UNL     1      10.536  -3.601  -1.848  1.00  0.00     0.060 A 
BRANCH  64  65
ATOM     65  S   UNL     1      12.150  -2.815  -2.037  1.00  0.00     0.124 S 
ATOM     66  O   UNL     1      11.924  -1.960  -3.198  1.00  0.00    -0.237 OA
ATOM     67  O   UNL     1      12.311  -2.123  -0.762  1.00  0.00    -0.237 OA
ATOM     68  O   UNL     1      13.054  -3.940  -2.254  1.00  0.00    -0.744 OA
ENDBRANCH  64  65
ENDBRANCH  43  57
BRANCH  44  69
ATOM     69  C   UNL     1      -1.071  -8.791  -0.387  1.00  0.00     0.058 A 
ATOM     70  C   UNL     1      -1.858  -8.399   0.706  1.00  0.00     0.135 A 
ATOM     71  C   UNL     1      -1.628  -9.704  -1.298  1.00  0.00     0.135 A 
ATOM     72  F   UNL     1      -1.367  -7.540   1.612  1.00  0.00    -0.206 F 
ATOM     73  C   UNL     1      -3.149  -8.888   0.887  1.00  0.00     0.059 A 
ATOM     74  C   UNL     1      -2.924 -10.187  -1.151  1.00  0.00     0.059 A 
ATOM     75  F   UNL     1      -0.919 -10.108  -2.363  1.00  0.00    -0.206 F 
ATOM     76  C   UNL     1      -3.676  -9.777  -0.051  1.00  0.00     0.060 A 
BRANCH  76  77
ATOM     77  S   UNL     1      -5.375 -10.355   0.157  1.00  0.00     0.124 S 
ATOM     78  O   UNL     1      -5.235 -11.278   1.278  1.00  0.00    -0.237 OA
ATOM     79  O   UNL     1      -6.089  -9.113   0.438  1.00  0.00    -0.237 OA
ATOM     80  O   UNL     1      -5.682 -10.968  -1.131  1.00  0.00    -0.744 OA
ENDBRANCH  76  77
ENDBRANCH  44  69
BRANCH  56  81
ATOM     81  C   UNL     1       5.025  -9.520   2.962  1.00  0.00     0.058 A 
ATOM     82  C   UNL     1       5.314 -10.884   2.821  1.00  0.00     0.135 A 
ATOM     83  C   UNL     1       5.285  -8.914   4.202  1.00  0.00     0.135 A 
ATOM     84  F   UNL     1       5.074 -11.510   1.658  1.00  0.00    -0.206 F 
ATOM     85  C   UNL     1       5.860 -11.620   3.867  1.00  0.00     0.059 A 
ATOM     86  C   UNL     1       5.849  -9.626   5.255  1.00  0.00     0.059 A 
ATOM     87  F   UNL     1       5.030  -7.608   4.383  1.00  0.00    -0.206 F 
ATOM     88  C   UNL     1       6.138 -10.978   5.076  1.00  0.00     0.060 A 
BRANCH  88  89
ATOM     89  S   UNL     1       6.939 -11.924   6.390  1.00  0.00     0.124 S 
ATOM     90  O   UNL     1       5.858 -12.802   6.823  1.00  0.00    -0.237 OA
ATOM     91  O   UNL     1       8.038 -12.572   5.680  1.00  0.00    -0.237 OA
ATOM     92  O   UNL     1       7.340 -10.900   7.351  1.00  0.00    -0.744 OA
ENDBRANCH  88  89
ENDBRANCH  56  81
ENDBRANCH  30  31
ENDBRANCH  23  25
ENDBRANCH  22  23
ENDBRANCH   1  22
TORSDOF 15
