REMARK SMILES CN(c1ccc(C(=O)OCCOC(=O)c2ccc(-c3c4nc(c(-c5c(F)cc(S(=O)(=O)[O-])cc5F)c5ccc([nH]5)c(-c5c(F)cc(S(=O)(=O)[O-])cc5F)c5nc(c(-c6c(F)cc(S(=O)(=O)[O-])cc6F)c6ccc3[nH]6)C=C5)C=C4)cc2)cc1)S(C)(=O)=O
REMARK SMILES IDX 11 1 10 2 9 3 7 4 8 5 6 6 3 7 4 8 82 9 5 10 81 11 2 12 1 13
REMARK SMILES IDX 83 14 84 15 85 16 86 17 12 18 13 19 14 20 15 21 16 22 80 23
REMARK SMILES IDX 17 24 79 25 18 26 19 27 20 28 73 29 21 30 78 31 72 32 74 33
REMARK SMILES IDX 22 34 77 35 71 36 70 37 23 39 57 40 36 41 56 42 37 43 40 44
REMARK SMILES IDX 55 45 75 46 38 47 39 48 54 50 76 51 41 52 24 53 25 54 34 55
REMARK SMILES IDX 26 56 27 57 33 58 35 59 28 60 29 61 30 62 31 63 32 64 58 65
REMARK SMILES IDX 59 66 68 67 60 68 61 69 67 70 69 71 62 72 63 73 64 74 65 75
REMARK SMILES IDX 66 76 42 77 43 78 52 79 44 80 45 81 51 82 53 83 46 84 47 85
REMARK SMILES IDX 48 86 49 87 50 88
REMARK H PARENT 74 38 40 49
REMARK Flexibility Score: inf
ROOT
ATOM      1  C   UNL     1      -5.509   3.686   5.535  1.00  0.00     0.275 C 
ENDROOT
BRANCH   1   2
ATOM      2  C   UNL     1      -4.798   4.383   4.372  1.00  0.00     0.275 C 
BRANCH   2   3
ATOM      3  O   UNL     1      -4.019   3.461   3.578  1.00  0.00    -0.458 OA
BRANCH   3   4
ATOM      4  C   UNL     1      -2.678   3.500   3.790  1.00  0.00     0.338 C 
ATOM      5  O   UNL     1      -2.095   4.244   4.563  1.00  0.00    -0.246 OA
BRANCH   4   6
ATOM      6  C   UNL     1      -1.970   2.438   3.029  1.00  0.00     0.060 A 
ATOM      7  C   UNL     1      -0.572   0.361   1.739  1.00  0.00     0.051 A 
ATOM      8  C   UNL     1      -0.130   0.844   2.967  1.00  0.00     0.028 A 
ATOM      9  C   UNL     1      -1.662   0.988   1.116  1.00  0.00     0.028 A 
ATOM     10  C   UNL     1      -0.816   1.882   3.597  1.00  0.00     0.018 A 
ATOM     11  C   UNL     1      -2.378   2.006   1.766  1.00  0.00     0.018 A 
BRANCH   7  12
ATOM     12  N   UNL     1       0.156  -0.647   1.015  1.00  0.00    -0.274 N 
ATOM     13  C   UNL     1       0.988  -0.182  -0.115  1.00  0.00     0.163 C 
BRANCH  12  14
ATOM     14  S   UNL     1       0.772  -1.985   1.895  1.00  0.00     0.231 S 
ATOM     15  C   UNL     1       0.230  -3.321   0.859  1.00  0.00     0.183 C 
ATOM     16  O   UNL     1       2.220  -1.941   1.840  1.00  0.00    -0.207 OA
ATOM     17  O   UNL     1       0.065  -2.126   3.147  1.00  0.00    -0.207 OA
ENDBRANCH  12  14
ENDBRANCH   7  12
ENDBRANCH   4   6
ENDBRANCH   3   4
ENDBRANCH   2   3
ENDBRANCH   1   2
BRANCH   1  18
ATOM     18  O   UNL     1      -4.565   3.193   6.505  1.00  0.00    -0.458 OA
BRANCH  18  19
ATOM     19  C   UNL     1      -4.379   1.854   6.481  1.00  0.00     0.338 C 
ATOM     20  O   UNL     1      -4.939   1.046   5.758  1.00  0.00    -0.246 OA
BRANCH  19  21
ATOM     21  C   UNL     1      -3.300   1.459   7.398  1.00  0.00     0.060 A 
ATOM     22  C   UNL     1      -1.999   1.598   6.940  1.00  0.00     0.016 A 
ATOM     23  C   UNL     1      -3.552   0.748   8.568  1.00  0.00     0.016 A 
ATOM     24  C   UNL     1      -0.961   0.905   7.553  1.00  0.00     0.010 A 
ATOM     25  C   UNL     1      -2.480   0.169   9.268  1.00  0.00     0.010 A 
ATOM     26  C   UNL     1      -1.173   0.194   8.744  1.00  0.00    -0.014 A 
BRANCH  26  27
ATOM     27  C   UNL     1      -0.033  -0.520   9.403  1.00  0.00     0.031 A 
ATOM     28  C   UNL     1      -0.128  -1.991   9.747  1.00  0.00     0.074 A 
ATOM     29  C   UNL     1       1.115   0.141   9.672  1.00  0.00     0.049 A 
ATOM     30  N   UNL     1       0.701  -2.736  10.437  1.00  0.00    -0.248 NA
ATOM     31  C   UNL     1      -1.318  -2.716   9.273  1.00  0.00     0.031 C 
ATOM     32  C   UNL     1       1.368   1.554   9.374  1.00  0.00     0.029 A 
ATOM     33  N   UNL     1       2.293  -0.283  10.241  1.00  0.00    -0.354 N 
ATOM     34  C   UNL     1       0.112  -3.995  10.522  1.00  0.00     0.074 A 
ATOM     35  C   UNL     1      -1.157  -3.907   9.833  1.00  0.00     0.031 C 
ATOM     36  C   UNL     1       2.631   1.860   9.699  1.00  0.00     0.029 A 
ATOM     37  C   UNL     1       3.247   0.705  10.337  1.00  0.00     0.049 A 
ATOM     38  H   UNL     1       2.439  -1.206  10.550  1.00  0.00     0.167 HD
ATOM     39  C   UNL     1       0.587  -5.121  11.114  1.00  0.00     0.037 A 
ATOM     40  C   UNL     1       4.464   0.711  10.915  1.00  0.00     0.037 A 
ATOM     41  C   UNL     1       1.878  -5.215  11.753  1.00  0.00     0.049 A 
ATOM     42  C   UNL     1       4.951  -0.535  11.599  1.00  0.00     0.074 A 
ATOM     43  C   UNL     1       2.459  -6.316  12.361  1.00  0.00     0.029 A 
ATOM     44  N   UNL     1       2.794  -4.178  11.857  1.00  0.00    -0.354 N 
ATOM     45  N   UNL     1       4.361  -1.701  11.703  1.00  0.00    -0.248 NA
ATOM     46  C   UNL     1       6.261  -0.459  12.258  1.00  0.00     0.031 C 
ATOM     47  C   UNL     1       3.699  -5.929  12.881  1.00  0.00     0.029 A 
ATOM     48  C   UNL     1       3.922  -4.605  12.542  1.00  0.00     0.049 A 
ATOM     49  H   UNL     1       2.662  -3.271  11.498  1.00  0.00     0.167 HD
ATOM     50  C   UNL     1       5.235  -2.505  12.425  1.00  0.00     0.074 A 
ATOM     51  C   UNL     1       6.404  -1.697  12.709  1.00  0.00     0.031 C 
ATOM     52  C   UNL     1       5.081  -3.792  12.821  1.00  0.00     0.037 A 
BRANCH  39  53
ATOM     53  C   UNL     1      -0.301  -6.341  11.132  1.00  0.00     0.058 A 
ATOM     54  C   UNL     1      -0.593  -7.076   9.971  1.00  0.00     0.135 A 
ATOM     55  C   UNL     1      -0.834  -6.810  12.346  1.00  0.00     0.135 A 
ATOM     56  F   UNL     1      -0.123  -6.674   8.780  1.00  0.00    -0.206 F 
ATOM     57  C   UNL     1      -1.404  -8.209  10.008  1.00  0.00     0.059 A 
ATOM     58  C   UNL     1      -1.619  -7.959  12.411  1.00  0.00     0.059 A 
ATOM     59  F   UNL     1      -0.586  -6.155  13.491  1.00  0.00    -0.206 F 
ATOM     60  C   UNL     1      -1.912  -8.643  11.234  1.00  0.00     0.060 A 
BRANCH  60  61
ATOM     61  S   UNL     1      -2.957 -10.116  11.265  1.00  0.00     0.124 S 
ATOM     62  O   UNL     1      -4.175  -9.624  10.627  1.00  0.00    -0.237 OA
ATOM     63  O   UNL     1      -2.175 -11.070  10.485  1.00  0.00    -0.237 OA
ATOM     64  O   UNL     1      -3.076 -10.422  12.687  1.00  0.00    -0.744 OA
ENDBRANCH  60  61
ENDBRANCH  39  53
BRANCH  40  65
ATOM     65  C   UNL     1       5.285   1.955  10.910  1.00  0.00     0.058 A 
ATOM     66  C   UNL     1       6.491   2.027  10.198  1.00  0.00     0.135 A 
ATOM     67  C   UNL     1       4.868   3.104  11.603  1.00  0.00     0.135 A 
ATOM     68  F   UNL     1       6.941   0.954   9.530  1.00  0.00    -0.206 F 
ATOM     69  C   UNL     1       7.260   3.187  10.182  1.00  0.00     0.059 A 
ATOM     70  C   UNL     1       5.601   4.286  11.572  1.00  0.00     0.059 A 
ATOM     71  F   UNL     1       3.716   3.095  12.292  1.00  0.00    -0.206 F 
ATOM     72  C   UNL     1       6.802   4.314  10.868  1.00  0.00     0.060 A 
BRANCH  72  73
ATOM     73  S   UNL     1       7.782   5.829  10.800  1.00  0.00     0.124 S 
ATOM     74  O   UNL     1       8.921   5.480  11.642  1.00  0.00    -0.237 OA
ATOM     75  O   UNL     1       8.057   5.953   9.372  1.00  0.00    -0.237 OA
ATOM     76  O   UNL     1       6.880   6.838  11.347  1.00  0.00    -0.744 OA
ENDBRANCH  72  73
ENDBRANCH  40  65
BRANCH  52  77
ATOM     77  C   UNL     1       6.223  -4.417  13.576  1.00  0.00     0.058 A 
ATOM     78  C   UNL     1       6.544  -4.031  14.887  1.00  0.00     0.135 A 
ATOM     79  C   UNL     1       6.999  -5.427  12.983  1.00  0.00     0.135 A 
ATOM     80  F   UNL     1       5.841  -3.065  15.499  1.00  0.00    -0.206 F 
ATOM     81  C   UNL     1       7.617  -4.596  15.569  1.00  0.00     0.059 A 
ATOM     82  C   UNL     1       8.055  -6.029  13.659  1.00  0.00     0.059 A 
ATOM     83  F   UNL     1       6.730  -5.842  11.735  1.00  0.00    -0.206 F 
ATOM     84  C   UNL     1       8.368  -5.594  14.946  1.00  0.00     0.060 A 
BRANCH  84  85
ATOM     85  S   UNL     1       9.752  -6.324  15.845  1.00  0.00     0.124 S 
ATOM     86  O   UNL     1      10.728  -5.240  15.815  1.00  0.00    -0.237 OA
ATOM     87  O   UNL     1       9.161  -6.608  17.149  1.00  0.00    -0.237 OA
ATOM     88  O   UNL     1      10.094  -7.499  15.050  1.00  0.00    -0.744 OA
ENDBRANCH  84  85
ENDBRANCH  52  77
ENDBRANCH  26  27
ENDBRANCH  19  21
ENDBRANCH  18  19
ENDBRANCH   1  18
TORSDOF 16
