REMARK SMILES CC(C)C(=O)Nc1ccc(NC(=O)[C@@H]2[C@@H](C(=O)OCCOC(=O)c3ccc(-c4c5nc(c(-c6c(F)cc(S(=O)(=O)[O-])cc6F)c6ccc([nH]6)c(-c6c(F)cc(S(=O)(=O)[O-])cc6F)c6nc(c(-c7c(F)cc(S(=O)(=O)[O-])cc7F)c7ccc4[nH]7)C=C6)C=C5)cc3)C2(C)C)cc1Cl
REMARK SMILES IDX 19 1 18 2 16 3 17 4 15 5 14 6 90 7 91 8 92 9 12 10 11 11
REMARK SMILES IDX 13 13 10 14 7 15 8 16 94 17 9 18 93 19 95 20 6 21 4 22 5 23
REMARK SMILES IDX 2 25 1 26 3 27 20 28 21 29 22 30 23 31 24 32 25 33 89 34
REMARK SMILES IDX 26 35 88 36 27 37 28 38 29 39 82 40 30 41 87 42 81 43 83 44
REMARK SMILES IDX 31 45 86 46 80 47 79 48 32 50 66 51 45 52 65 53 46 54 49 55
REMARK SMILES IDX 64 56 84 57 47 58 48 59 63 61 85 62 50 63 33 64 34 65 43 66
REMARK SMILES IDX 35 67 36 68 42 69 44 70 37 71 38 72 39 73 40 74 41 75 67 76
REMARK SMILES IDX 68 77 77 78 69 79 70 80 76 81 78 82 71 83 72 84 73 85 74 86
REMARK SMILES IDX 75 87 51 88 52 89 61 90 53 91 54 92 60 93 62 94 55 95 56 96
REMARK SMILES IDX 57 97 58 98 59 99
REMARK H PARENT 11 12 6 24 83 49 49 60
REMARK Flexibility Score: inf
ROOT
ATOM      1  C   UNL     1       1.262   3.795  10.697  1.00  0.00     0.274 C 
ENDROOT
BRANCH   1   2
ATOM      2  O   UNL     1       0.640   3.564   9.419  1.00  0.00    -0.462 OA
BRANCH   2   3
ATOM      3  C   UNL     1       0.579   2.266   9.034  1.00  0.00     0.310 C 
ATOM      4  O   UNL     1       1.190   1.347   9.562  1.00  0.00    -0.252 OA
BRANCH   3   5
ATOM      5  C   UNL     1      -0.385   1.985   7.945  1.00  0.00     0.118 C 
ATOM      6  C   UNL     1      -0.241   2.589   6.565  1.00  0.00     0.100 C 
ATOM      7  C   UNL     1      -1.495   2.879   7.407  1.00  0.00    -0.009 C 
ATOM      8  C   UNL     1      -1.683   4.314   7.864  1.00  0.00     0.013 C 
ATOM      9  C   UNL     1      -2.806   2.185   7.095  1.00  0.00     0.013 C 
BRANCH   6  10
ATOM     10  C   UNL     1      -0.169   1.617   5.442  1.00  0.00     0.228 C 
ATOM     11  N   UNL     1      -0.721   1.858   4.209  1.00  0.00    -0.326 N 
ATOM     12  H   UNL     1      -0.560   1.131   3.565  1.00  0.00     0.169 HD
ATOM     13  O   UNL     1       0.430   0.558   5.612  1.00  0.00    -0.274 OA
BRANCH  11  14
ATOM     14  C   UNL     1      -1.466   2.915   3.671  1.00  0.00     0.042 A 
ATOM     15  C   UNL     1      -3.315   4.761   2.625  1.00  0.00     0.060 A 
ATOM     16  C   UNL     1      -2.635   5.033   3.810  1.00  0.00     0.030 A 
ATOM     17  C   UNL     1      -2.879   3.683   1.852  1.00  0.00     0.066 A 
ATOM     18  C   UNL     1      -1.699   4.125   4.309  1.00  0.00     0.028 A 
ATOM     19  C   UNL     1      -2.007   2.732   2.396  1.00  0.00     0.048 A 
ATOM     20  Cl  UNL     1      -3.135   3.629   0.141  1.00  0.00    -0.082 Cl
BRANCH  15  21
ATOM     21  N   UNL     1      -4.324   5.660   2.261  1.00  0.00    -0.325 N 
ATOM     22  C   UNL     1      -5.628   5.462   1.911  1.00  0.00     0.226 C 
ATOM     23  O   UNL     1      -6.251   6.470   1.549  1.00  0.00    -0.274 OA
ATOM     24  H   UNL     1      -4.043   6.604   2.258  1.00  0.00     0.169 HD
BRANCH  22  25
ATOM     25  C   UNL     1      -6.386   4.134   2.060  1.00  0.00     0.072 C 
ATOM     26  C   UNL     1      -6.164   3.119   0.954  1.00  0.00     0.018 C 
ATOM     27  C   UNL     1      -6.288   3.502   3.445  1.00  0.00     0.018 C 
ENDBRANCH  22  25
ENDBRANCH  15  21
ENDBRANCH  11  14
ENDBRANCH   6  10
ENDBRANCH   3   5
ENDBRANCH   2   3
ENDBRANCH   1   2
BRANCH   1  28
ATOM     28  C   UNL     1       0.199   3.942  11.790  1.00  0.00     0.275 C 
BRANCH  28  29
ATOM     29  O   UNL     1      -0.524   2.710  11.984  1.00  0.00    -0.458 OA
BRANCH  29  30
ATOM     30  C   UNL     1      -1.793   2.690  11.513  1.00  0.00     0.338 C 
ATOM     31  O   UNL     1      -2.400   3.600  10.974  1.00  0.00    -0.246 OA
BRANCH  30  32
ATOM     32  C   UNL     1      -2.364   1.344  11.665  1.00  0.00     0.060 A 
ATOM     33  C   UNL     1      -2.459   0.532  10.536  1.00  0.00     0.016 A 
ATOM     34  C   UNL     1      -2.914   0.933  12.879  1.00  0.00     0.016 A 
ATOM     35  C   UNL     1      -3.109  -0.696  10.604  1.00  0.00     0.010 A 
ATOM     36  C   UNL     1      -3.557  -0.308  12.952  1.00  0.00     0.010 A 
ATOM     37  C   UNL     1      -3.671  -1.125  11.811  1.00  0.00    -0.014 A 
BRANCH  37  38
ATOM     38  C   UNL     1      -4.423  -2.403  11.854  1.00  0.00     0.031 A 
ATOM     39  C   UNL     1      -5.920  -2.384  11.995  1.00  0.00     0.074 A 
ATOM     40  C   UNL     1      -3.768  -3.572  11.728  1.00  0.00     0.049 A 
ATOM     41  N   UNL     1      -6.750  -3.385  12.137  1.00  0.00    -0.248 NA
ATOM     42  C   UNL     1      -6.568  -1.063  11.973  1.00  0.00     0.031 C 
ATOM     43  C   UNL     1      -2.325  -3.714  11.530  1.00  0.00     0.029 A 
ATOM     44  N   UNL     1      -4.230  -4.864  11.745  1.00  0.00    -0.354 N 
ATOM     45  C   UNL     1      -8.013  -2.817  12.251  1.00  0.00     0.074 A 
ATOM     46  C   UNL     1      -7.840  -1.382  12.171  1.00  0.00     0.031 C 
ATOM     47  C   UNL     1      -2.021  -5.018  11.438  1.00  0.00     0.029 A 
ATOM     48  C   UNL     1      -3.236  -5.806  11.623  1.00  0.00     0.049 A 
ATOM     49  H   UNL     1      -5.183  -5.095  11.837  1.00  0.00     0.167 HD
ATOM     50  C   UNL     1      -9.207  -3.439  12.406  1.00  0.00     0.037 A 
ATOM     51  C   UNL     1      -3.293  -7.150  11.686  1.00  0.00     0.037 A 
ATOM     52  C   UNL     1      -9.370  -4.869  12.462  1.00  0.00     0.049 A 
ATOM     53  C   UNL     1      -4.624  -7.816  11.908  1.00  0.00     0.074 A 
ATOM     54  C   UNL     1     -10.537  -5.598  12.613  1.00  0.00     0.029 A 
ATOM     55  N   UNL     1      -8.335  -5.789  12.364  1.00  0.00    -0.354 N 
ATOM     56  N   UNL     1      -5.808  -7.266  12.040  1.00  0.00    -0.248 NA
ATOM     57  C   UNL     1      -4.628  -9.282  12.000  1.00  0.00     0.031 C 
ATOM     58  C   UNL     1     -10.204  -6.957  12.644  1.00  0.00     0.029 A 
ATOM     59  C   UNL     1      -8.834  -7.077  12.468  1.00  0.00     0.049 A 
ATOM     60  H   UNL     1      -7.386  -5.559  12.239  1.00  0.00     0.167 HD
ATOM     61  C   UNL     1      -6.700  -8.319  12.212  1.00  0.00     0.074 A 
ATOM     62  C   UNL     1      -5.920  -9.539  12.154  1.00  0.00     0.031 C 
ATOM     63  C   UNL     1      -8.042  -8.280  12.402  1.00  0.00     0.037 A 
BRANCH  50  64
ATOM     64  C   UNL     1     -10.426  -2.573  12.563  1.00  0.00     0.058 A 
ATOM     65  C   UNL     1     -10.981  -1.869  11.483  1.00  0.00     0.135 A 
ATOM     66  C   UNL     1     -11.062  -2.466  13.810  1.00  0.00     0.135 A 
ATOM     67  F   UNL     1     -10.403  -1.922  10.273  1.00  0.00    -0.206 F 
ATOM     68  C   UNL     1     -12.108  -1.067  11.640  1.00  0.00     0.059 A 
ATOM     69  C   UNL     1     -12.204  -1.689  13.986  1.00  0.00     0.059 A 
ATOM     70  F   UNL     1     -10.572  -3.118  14.877  1.00  0.00    -0.206 F 
ATOM     71  C   UNL     1     -12.710  -0.981  12.897  1.00  0.00     0.060 A 
BRANCH  71  72
ATOM     72  S   UNL     1     -14.166   0.069  13.089  1.00  0.00     0.124 S 
ATOM     73  O   UNL     1     -13.569   1.401  13.062  1.00  0.00    -0.237 OA
ATOM     74  O   UNL     1     -14.968  -0.289  11.924  1.00  0.00    -0.237 OA
ATOM     75  O   UNL     1     -14.717  -0.344  14.376  1.00  0.00    -0.744 OA
ENDBRANCH  71  72
ENDBRANCH  50  64
BRANCH  51  76
ATOM     76  C   UNL     1      -2.046  -7.952  11.566  1.00  0.00     0.058 A 
ATOM     77  C   UNL     1      -1.801  -8.748  10.439  1.00  0.00     0.135 A 
ATOM     78  C   UNL     1      -1.069  -7.926  12.574  1.00  0.00     0.135 A 
ATOM     79  F   UNL     1      -2.710  -8.816   9.454  1.00  0.00    -0.206 F 
ATOM     80  C   UNL     1      -0.635  -9.499  10.317  1.00  0.00     0.059 A 
ATOM     81  C   UNL     1       0.115  -8.647  12.463  1.00  0.00     0.059 A 
ATOM     82  F   UNL     1      -1.251  -7.172  13.669  1.00  0.00    -0.206 F 
ATOM     83  C   UNL     1       0.319  -9.440  11.335  1.00  0.00     0.060 A 
BRANCH  83  84
ATOM     84  S   UNL     1       1.851 -10.378  11.147  1.00  0.00     0.124 S 
ATOM     85  O   UNL     1       1.398 -11.736  11.422  1.00  0.00    -0.237 OA
ATOM     86  O   UNL     1       2.219 -10.095   9.764  1.00  0.00    -0.237 OA
ATOM     87  O   UNL     1       2.729  -9.789  12.154  1.00  0.00    -0.744 OA
ENDBRANCH  83  84
ENDBRANCH  51  76
BRANCH  63  88
ATOM     88  C   UNL     1      -8.757  -9.595  12.532  1.00  0.00     0.058 A 
ATOM     89  C   UNL     1      -8.673 -10.366  13.701  1.00  0.00     0.135 A 
ATOM     90  C   UNL     1      -9.576 -10.064  11.492  1.00  0.00     0.135 A 
ATOM     91  F   UNL     1      -7.898  -9.965  14.721  1.00  0.00    -0.206 F 
ATOM     92  C   UNL     1      -9.361 -11.569  13.828  1.00  0.00     0.059 A 
ATOM     93  C   UNL     1     -10.291 -11.252  11.606  1.00  0.00     0.059 A 
ATOM     94  F   UNL     1      -9.697  -9.358  10.357  1.00  0.00    -0.206 F 
ATOM     95  C   UNL     1     -10.168 -12.003  12.774  1.00  0.00     0.060 A 
BRANCH  95  96
ATOM     96  S   UNL     1     -11.083 -13.548  12.962  1.00  0.00     0.124 S 
ATOM     97  O   UNL     1     -10.029 -14.539  12.775  1.00  0.00    -0.237 OA
ATOM     98  O   UNL     1     -11.614 -13.436  14.317  1.00  0.00    -0.237 OA
ATOM     99  O   UNL     1     -12.081 -13.483  11.898  1.00  0.00    -0.744 OA
ENDBRANCH  95  96
ENDBRANCH  63  88
ENDBRANCH  37  38
ENDBRANCH  30  32
ENDBRANCH  29  30
ENDBRANCH  28  29
ENDBRANCH   1  28
TORSDOF 18
