REMARK SMILES O=C(CCc1cc2n(n1)CCCN(S(=O)(=O)CCC(F)(F)F)C2)OCCOC(=O)c1ccc(-c2c3nc(c(-c4c(F)cc(S(=O)(=O)[O-])cc4F)c4ccc([nH]4)c(-c4c(F)cc(S(=O)(=O)[O-])cc4F)c4nc(c(-c5c(F)cc(S(=O)(=O)[O-])cc5F)c5ccc2[nH]5)C=C4)C=C3)cc1
REMARK SMILES IDX 1 1 2 2 3 3 4 4 5 5 6 6 9 7 7 8 8 9 23 10 13 11 12 12 14 14
REMARK SMILES IDX 15 15 16 16 17 17 18 18 19 19 20 20 21 21 22 22 10 23 11 24
REMARK SMILES IDX 24 26 25 27 26 28 27 29 28 30 29 31 30 32 31 33 95 34 32 35
REMARK SMILES IDX 94 36 33 37 34 38 35 39 88 40 36 41 93 42 87 43 89 44 37 45
REMARK SMILES IDX 92 46 86 47 85 48 38 50 72 51 51 52 71 53 52 54 55 55 70 56
REMARK SMILES IDX 90 57 53 58 54 59 69 61 91 62 56 63 39 64 40 65 49 66 41 67
REMARK SMILES IDX 42 68 48 69 50 70 43 71 44 72 45 73 46 74 47 75 73 76 74 77
REMARK SMILES IDX 83 78 75 79 76 80 82 81 84 82 77 83 78 84 79 85 80 86 81 87
REMARK SMILES IDX 57 88 58 89 67 90 59 91 60 92 66 93 68 94 61 95 62 96 63 97
REMARK SMILES IDX 64 98 65 99
REMARK H PARENT 89 49 55 60
REMARK Flexibility Score: 90.00
ROOT
ATOM      1  O   UNL     1       1.274   0.697   1.924  1.00  0.00    -0.252 OA
ATOM      2  C   UNL     1       2.051   0.339   1.042  1.00  0.00     0.306 C 
ENDROOT
BRANCH   2   3
ATOM      3  C   UNL     1       3.065   1.302   0.456  1.00  0.00     0.129 C 
BRANCH   3   4
ATOM      4  C   UNL     1       4.118   1.790   1.448  1.00  0.00     0.070 C 
BRANCH   4   5
ATOM      5  C   UNL     1       5.318   0.900   1.573  1.00  0.00     0.063 A 
ATOM      6  C   UNL     1       5.797  -0.098   0.689  1.00  0.00     0.050 A 
ATOM      7  N   UNL     1       6.088   0.950   2.669  1.00  0.00    -0.178 NA
ATOM      8  C   UNL     1       6.552  -0.920   1.501  1.00  0.00     0.054 A 
ATOM      9  N   UNL     1       6.953  -0.066   2.486  1.00  0.00    -0.268 N 
BRANCH   8  10
ATOM     10  C   UNL     1       6.914  -2.361   1.398  1.00  0.00     0.157 C 
BRANCH  10  11
ATOM     11  N   UNL     1       6.763  -3.132   2.681  1.00  0.00    -0.196 NA
BRANCH  11  12
ATOM     12  C   UNL     1       6.814  -2.379   3.959  1.00  0.00     0.104 CG0
ATOM     13  G   UNL     1       8.123  -1.601   4.052  1.00  0.00     0.000 G0
ENDBRANCH  11  12
BRANCH  11  14
ATOM     14  S   UNL     1       5.739  -4.471   2.611  1.00  0.00     0.214 S 
ATOM     15  O   UNL     1       4.424  -4.022   3.012  1.00  0.00    -0.212 OA
ATOM     16  O   UNL     1       5.935  -5.138   1.342  1.00  0.00    -0.212 OA
BRANCH  14  17
ATOM     17  C   UNL     1       6.340  -5.584   3.881  1.00  0.00     0.163 C 
BRANCH  17  18
ATOM     18  C   UNL     1       7.636  -6.312   3.563  1.00  0.00     0.133 C 
BRANCH  18  19
ATOM     19  C   UNL     1       8.840  -5.415   3.413  1.00  0.00     0.390 C 
ATOM     20  F   UNL     1       8.924  -4.550   4.447  1.00  0.00    -0.171 F 
ATOM     21  F   UNL     1       9.971  -6.157   3.424  1.00  0.00    -0.171 F 
ATOM     22  F   UNL     1       8.836  -4.718   2.266  1.00  0.00    -0.171 F 
ENDBRANCH  18  19
ENDBRANCH  17  18
ENDBRANCH  14  17
ENDBRANCH  11  14
ENDBRANCH  10  11
ENDBRANCH   8  10
BRANCH   9  23
ATOM     23  C   UNL     1       8.072  -0.239   3.378  1.00  0.00     0.146 C 
BRANCH  23  24
ATOM     24  C   UNL     1       8.123  -1.601   4.052  1.00  0.00     0.040 CG0
ATOM     25  G   UNL     1       6.814  -2.379   3.959  1.00  0.00     0.000 G0
ENDBRANCH  23  24
ENDBRANCH   9  23
ENDBRANCH   4   5
ENDBRANCH   3   4
ENDBRANCH   2   3
BRANCH   2  26
ATOM     26  O   UNL     1       1.895  -0.860   0.426  1.00  0.00    -0.462 OA
BRANCH  26  27
ATOM     27  C   UNL     1       2.978  -1.805   0.373  1.00  0.00     0.274 C 
BRANCH  27  28
ATOM     28  C   UNL     1       3.433  -2.141  -1.050  1.00  0.00     0.275 C 
BRANCH  28  29
ATOM     29  O   UNL     1       3.663  -0.973  -1.831  1.00  0.00    -0.458 OA
BRANCH  29  30
ATOM     30  C   UNL     1       2.548  -0.459  -2.414  1.00  0.00     0.338 C 
ATOM     31  O   UNL     1       1.417  -0.869  -2.307  1.00  0.00    -0.246 OA
BRANCH  30  32
ATOM     32  C   UNL     1       2.947   0.665  -3.281  1.00  0.00     0.060 A 
ATOM     33  C   UNL     1       1.955   1.177  -4.118  1.00  0.00     0.016 A 
ATOM     34  C   UNL     1       4.286   1.075  -3.392  1.00  0.00     0.016 A 
ATOM     35  C   UNL     1       2.341   1.923  -5.208  1.00  0.00     0.010 A 
ATOM     36  C   UNL     1       4.669   1.836  -4.476  1.00  0.00     0.010 A 
ATOM     37  C   UNL     1       3.704   2.160  -5.423  1.00  0.00    -0.014 A 
BRANCH  37  38
ATOM     38  C   UNL     1       4.080   2.732  -6.699  1.00  0.00     0.031 A 
ATOM     39  C   UNL     1       3.628   4.129  -6.895  1.00  0.00     0.074 A 
ATOM     40  C   UNL     1       4.786   2.035  -7.610  1.00  0.00     0.049 A 
ATOM     41  N   UNL     1       2.735   4.570  -7.716  1.00  0.00    -0.248 NA
ATOM     42  C   UNL     1       4.125   5.135  -5.944  1.00  0.00     0.031 C 
ATOM     43  C   UNL     1       5.501   0.764  -7.454  1.00  0.00     0.029 A 
ATOM     44  N   UNL     1       5.061   2.379  -8.894  1.00  0.00    -0.354 N 
ATOM     45  C   UNL     1       2.690   5.947  -7.524  1.00  0.00     0.074 A 
ATOM     46  C   UNL     1       3.447   6.217  -6.328  1.00  0.00     0.031 C 
ATOM     47  C   UNL     1       6.305   0.569  -8.526  1.00  0.00     0.029 A 
ATOM     48  C   UNL     1       6.046   1.613  -9.502  1.00  0.00     0.049 A 
ATOM     49  H   UNL     1       4.599   3.115  -9.357  1.00  0.00     0.167 HD
ATOM     50  C   UNL     1       2.195   6.789  -8.470  1.00  0.00     0.037 A 
ATOM     51  C   UNL     1       6.639   1.883 -10.693  1.00  0.00     0.037 A 
ATOM     52  C   UNL     1       1.354   6.093  -9.409  1.00  0.00     0.049 A 
ATOM     53  C   UNL     1       5.720   2.791 -11.436  1.00  0.00     0.074 A 
ATOM     54  C   UNL     1       0.160   5.406  -9.298  1.00  0.00     0.029 A 
ATOM     55  N   UNL     1       1.902   5.694 -10.604  1.00  0.00    -0.354 N 
ATOM     56  N   UNL     1       4.539   2.431 -11.866  1.00  0.00    -0.248 NA
ATOM     57  C   UNL     1       5.910   4.224 -11.269  1.00  0.00     0.031 C 
ATOM     58  C   UNL     1       0.299   4.282 -10.163  1.00  0.00     0.029 A 
ATOM     59  C   UNL     1       1.537   4.383 -10.800  1.00  0.00     0.049 A 
ATOM     60  H   UNL     1       2.452   6.244 -11.208  1.00  0.00     0.167 HD
ATOM     61  C   UNL     1       3.721   3.530 -11.636  1.00  0.00     0.074 A 
ATOM     62  C   UNL     1       4.637   4.625 -11.322  1.00  0.00     0.031 C 
ATOM     63  C   UNL     1       2.374   3.395 -11.449  1.00  0.00     0.037 A 
BRANCH  50  64
ATOM     64  C   UNL     1       2.720   8.181  -8.700  1.00  0.00     0.058 A 
ATOM     65  C   UNL     1       2.015   9.077  -9.526  1.00  0.00     0.135 A 
ATOM     66  C   UNL     1       4.027   8.581  -8.338  1.00  0.00     0.135 A 
ATOM     67  F   UNL     1       0.775   8.786  -9.949  1.00  0.00    -0.206 F 
ATOM     68  C   UNL     1       2.585  10.264  -9.993  1.00  0.00     0.059 A 
ATOM     69  C   UNL     1       4.593   9.782  -8.747  1.00  0.00     0.059 A 
ATOM     70  F   UNL     1       4.852   7.782  -7.650  1.00  0.00    -0.206 F 
ATOM     71  C   UNL     1       3.879  10.601  -9.605  1.00  0.00     0.060 A 
BRANCH  71  72
ATOM     72  S   UNL     1       4.654  12.079 -10.281  1.00  0.00     0.124 S 
ATOM     73  O   UNL     1       4.823  11.706 -11.681  1.00  0.00    -0.237 OA
ATOM     74  O   UNL     1       3.648  13.100 -10.007  1.00  0.00    -0.237 OA
ATOM     75  O   UNL     1       5.886  12.198  -9.506  1.00  0.00    -0.744 OA
ENDBRANCH  71  72
ENDBRANCH  50  64
BRANCH  51  76
ATOM     76  C   UNL     1       8.090   1.773 -11.008  1.00  0.00     0.058 A 
ATOM     77  C   UNL     1       8.562   1.845 -12.330  1.00  0.00     0.135 A 
ATOM     78  C   UNL     1       9.066   1.880  -9.995  1.00  0.00     0.135 A 
ATOM     79  F   UNL     1       7.700   1.782 -13.356  1.00  0.00    -0.206 F 
ATOM     80  C   UNL     1       9.915   2.051 -12.630  1.00  0.00     0.059 A 
ATOM     81  C   UNL     1      10.418   2.078 -10.269  1.00  0.00     0.059 A 
ATOM     82  F   UNL     1       8.720   1.888  -8.699  1.00  0.00    -0.206 F 
ATOM     83  C   UNL     1      10.834   2.185 -11.589  1.00  0.00     0.060 A 
BRANCH  83  84
ATOM     84  S   UNL     1      12.552   2.615 -11.962  1.00  0.00     0.124 S 
ATOM     85  O   UNL     1      13.039   1.392 -12.591  1.00  0.00    -0.237 OA
ATOM     86  O   UNL     1      12.398   3.767 -12.843  1.00  0.00    -0.237 OA
ATOM     87  O   UNL     1      13.120   2.909 -10.649  1.00  0.00    -0.744 OA
ENDBRANCH  83  84
ENDBRANCH  51  76
BRANCH  63  88
ATOM     88  C   UNL     1       1.742   2.051 -11.726  1.00  0.00     0.058 A 
ATOM     89  C   UNL     1       2.018   0.878 -10.997  1.00  0.00     0.135 A 
ATOM     90  C   UNL     1       0.692   1.989 -12.654  1.00  0.00     0.135 A 
ATOM     91  F   UNL     1       2.934   0.876 -10.019  1.00  0.00    -0.206 F 
ATOM     92  C   UNL     1       1.307  -0.307 -11.208  1.00  0.00     0.059 A 
ATOM     93  C   UNL     1      -0.049   0.827 -12.860  1.00  0.00     0.059 A 
ATOM     94  F   UNL     1       0.336   3.088 -13.339  1.00  0.00    -0.206 F 
ATOM     95  C   UNL     1       0.271  -0.322 -12.141  1.00  0.00     0.060 A 
BRANCH  95  96
ATOM     96  S   UNL     1      -0.700  -1.830 -12.361  1.00  0.00     0.124 S 
ATOM     97  O   UNL     1       0.247  -2.709 -13.039  1.00  0.00    -0.237 OA
ATOM     98  O   UNL     1      -1.033  -2.197 -10.988  1.00  0.00    -0.237 OA
ATOM     99  O   UNL     1      -1.833  -1.391 -13.171  1.00  0.00    -0.744 OA
ENDBRANCH  95  96
ENDBRANCH  63  88
ENDBRANCH  37  38
ENDBRANCH  30  32
ENDBRANCH  29  30
ENDBRANCH  28  29
ENDBRANCH  27  28
ENDBRANCH  26  27
ENDBRANCH   2  26
TORSDOF 20
