REMARK SMILES Cc1c(NCc2ccccn2)cccc1C(=O)N1CCOC[C@@H]1CC(=O)OCCOC(=O)c1ccc(-c2c3nc(c(-c4c(F)cc(S(=O)(=O)[O-])cc4F)c4ccc([nH]4)c(-c4c(F)cc(S(=O)(=O)[O-])cc4F)c4nc(c(-c5c(F)cc(S(=O)(=O)[O-])cc5F)c5ccc2[nH]5)C=C4)C=C3)cc1
REMARK SMILES IDX 27 1 25 2 26 3 24 4 23 5 18 6 19 7 20 8 22 9 21 10 16 11
REMARK SMILES IDX 17 12 15 13 1 14 2 15 3 16 12 17 14 18 13 19 4 20 5 22 6 23
REMARK SMILES IDX 7 24 11 25 8 26 10 27 9 28 28 29 29 30 30 31 31 32 32 33
REMARK SMILES IDX 33 34 34 35 98 36 35 37 97 38 36 39 37 40 38 41 91 42 39 43
REMARK SMILES IDX 96 44 90 45 92 46 40 47 95 48 89 49 88 50 41 52 75 53 54 54
REMARK SMILES IDX 74 55 55 56 58 57 73 58 93 59 56 60 57 61 72 63 94 64 59 65
REMARK SMILES IDX 42 66 43 67 52 68 44 69 45 70 51 71 53 72 46 73 47 74 48 75
REMARK SMILES IDX 49 76 50 77 76 78 77 79 86 80 78 81 79 82 85 83 87 84 80 85
REMARK SMILES IDX 81 86 82 87 83 88 84 89 60 90 61 91 70 92 62 93 63 94 69 95
REMARK SMILES IDX 71 96 64 97 65 98 66 99 67 100 68 101
REMARK H PARENT 4 21 92 51 58 62
REMARK Flexibility Score: inf
ROOT
ATOM      1  O   UNL     1       0.161   1.341   1.611  1.00  0.00    -0.462 OA
ENDROOT
BRANCH   1   2
ATOM      2  C   UNL     1       1.475   1.603   1.384  1.00  0.00     0.308 C 
ATOM      3  O   UNL     1       2.277   0.742   1.519  1.00  0.00    -0.252 OA
BRANCH   2   4
ATOM      4  C   UNL     1       1.864   3.017   0.939  1.00  0.00     0.150 C 
BRANCH   4   5
ATOM      5  C   UNL     1       3.029   2.916  -0.042  1.00  0.00     0.122 C 
ATOM      6  N   UNL     1       2.626   2.088  -1.190  1.00  0.00    -0.330 N 
ATOM      7  C   UNL     1       3.718   1.662  -2.059  1.00  0.00     0.148 C 
ATOM      8  C   UNL     1       4.942   1.155  -1.260  1.00  0.00     0.181 C 
ATOM      9  C   UNL     1       4.358   2.406   0.636  1.00  0.00     0.185 C 
ATOM     10  O   UNL     1       5.383   2.175  -0.355  1.00  0.00    -0.377 OA
BRANCH   6  11
ATOM     11  C   UNL     1       1.282   2.067  -1.573  1.00  0.00     0.254 C 
ATOM     12  O   UNL     1       0.704   3.114  -1.867  1.00  0.00    -0.269 OA
BRANCH  11  13
ATOM     13  C   UNL     1       0.446   0.814  -1.270  1.00  0.00     0.045 A 
ATOM     14  C   UNL     1       2.390  -0.755  -0.631  1.00  0.00     0.047 C 
ATOM     15  C   UNL     1       0.935  -0.457  -0.849  1.00  0.00    -0.015 A 
ATOM     16  C   UNL     1       0.045  -1.504  -0.479  1.00  0.00     0.038 A 
ATOM     17  C   UNL     1      -1.332  -1.267  -0.508  1.00  0.00     0.026 A 
ATOM     18  C   UNL     1      -0.949   1.032  -1.164  1.00  0.00     0.014 A 
ATOM     19  C   UNL     1      -1.823   0.009  -0.782  1.00  0.00     0.003 A 
BRANCH  16  20
ATOM     20  N   UNL     1       0.577  -2.678   0.038  1.00  0.00    -0.379 N 
ATOM     21  H   UNL     1       1.437  -2.603   0.512  1.00  0.00     0.160 HD
BRANCH  20  22
ATOM     22  C   UNL     1      -0.004  -3.993  -0.049  1.00  0.00     0.169 C 
BRANCH  22  23
ATOM     23  C   UNL     1       0.399  -4.705  -1.325  1.00  0.00     0.059 A 
ATOM     24  C   UNL     1       0.831  -4.021  -2.467  1.00  0.00     0.026 A 
ATOM     25  N   UNL     1       0.270  -6.054  -1.308  1.00  0.00    -0.259 NA
ATOM     26  C   UNL     1       1.097  -4.731  -3.631  1.00  0.00     0.004 A 
ATOM     27  C   UNL     1       0.538  -6.717  -2.451  1.00  0.00     0.111 A 
ATOM     28  C   UNL     1       0.934  -6.107  -3.628  1.00  0.00     0.020 A 
ENDBRANCH  22  23
ENDBRANCH  20  22
ENDBRANCH  16  20
ENDBRANCH  11  13
ENDBRANCH   6  11
ENDBRANCH   4   5
ENDBRANCH   2   4
ENDBRANCH   1   2
BRANCH   1  29
ATOM     29  C   UNL     1      -0.192   0.140   2.395  1.00  0.00     0.274 C 
BRANCH  29  30
ATOM     30  C   UNL     1       0.885  -0.677   3.198  1.00  0.00     0.275 C 
BRANCH  30  31
ATOM     31  O   UNL     1       1.584  -0.048   4.320  1.00  0.00    -0.458 OA
BRANCH  31  32
ATOM     32  C   UNL     1       2.542   0.924   4.059  1.00  0.00     0.338 C 
ATOM     33  O   UNL     1       3.625   0.661   3.578  1.00  0.00    -0.246 OA
BRANCH  32  34
ATOM     34  C   UNL     1       1.892   2.289   4.189  1.00  0.00     0.060 A 
ATOM     35  C   UNL     1       2.253   3.630   3.919  1.00  0.00     0.016 A 
ATOM     36  C   UNL     1       0.567   2.117   4.284  1.00  0.00     0.016 A 
ATOM     37  C   UNL     1       1.213   4.639   3.880  1.00  0.00     0.010 A 
ATOM     38  C   UNL     1      -0.142   2.906   3.482  1.00  0.00     0.010 A 
ATOM     39  C   UNL     1      -0.078   4.155   3.929  1.00  0.00    -0.014 A 
BRANCH  39  40
ATOM     40  C   UNL     1      -1.516   4.340   4.207  1.00  0.00     0.031 A 
ATOM     41  C   UNL     1      -2.226   4.871   2.948  1.00  0.00     0.074 A 
ATOM     42  C   UNL     1      -1.906   3.522   5.307  1.00  0.00     0.049 A 
ATOM     43  N   UNL     1      -2.912   5.958   2.830  1.00  0.00    -0.248 NA
ATOM     44  C   UNL     1      -1.979   4.346   1.552  1.00  0.00     0.031 C 
ATOM     45  C   UNL     1      -3.110   3.073   6.048  1.00  0.00     0.029 A 
ATOM     46  N   UNL     1      -0.960   2.963   6.231  1.00  0.00    -0.354 N 
ATOM     47  C   UNL     1      -3.666   5.795   1.660  1.00  0.00     0.074 A 
ATOM     48  C   UNL     1      -2.822   5.051   0.781  1.00  0.00     0.031 C 
ATOM     49  C   UNL     1      -2.818   3.050   7.384  1.00  0.00     0.029 A 
ATOM     50  C   UNL     1      -1.382   3.220   7.532  1.00  0.00     0.049 A 
ATOM     51  H   UNL     1      -0.141   2.475   5.983  1.00  0.00     0.167 HD
ATOM     52  C   UNL     1      -5.036   5.754   1.753  1.00  0.00     0.037 A 
ATOM     53  C   UNL     1      -0.646   4.178   8.149  1.00  0.00     0.037 A 
ATOM     54  C   UNL     1      -5.355   5.640   3.188  1.00  0.00     0.049 A 
ATOM     55  C   UNL     1      -1.397   5.475   7.843  1.00  0.00     0.074 A 
ATOM     56  C   UNL     1      -5.722   4.581   3.994  1.00  0.00     0.029 A 
ATOM     57  N   UNL     1      -4.839   6.591   4.051  1.00  0.00    -0.354 N 
ATOM     58  N   UNL     1      -2.269   5.622   6.871  1.00  0.00    -0.248 NA
ATOM     59  C   UNL     1      -1.296   6.667   8.660  1.00  0.00     0.031 C 
ATOM     60  C   UNL     1      -5.379   4.930   5.346  1.00  0.00     0.029 A 
ATOM     61  C   UNL     1      -4.734   6.159   5.359  1.00  0.00     0.049 A 
ATOM     62  H   UNL     1      -4.572   7.493   3.759  1.00  0.00     0.167 HD
ATOM     63  C   UNL     1      -2.947   6.791   6.987  1.00  0.00     0.074 A 
ATOM     64  C   UNL     1      -2.154   7.477   8.013  1.00  0.00     0.031 C 
ATOM     65  C   UNL     1      -4.124   7.092   6.324  1.00  0.00     0.037 A 
BRANCH  52  66
ATOM     66  C   UNL     1      -6.086   5.538   0.656  1.00  0.00     0.058 A 
ATOM     67  C   UNL     1      -7.438   5.361   1.037  1.00  0.00     0.135 A 
ATOM     68  C   UNL     1      -5.893   5.608  -0.747  1.00  0.00     0.135 A 
ATOM     69  F   UNL     1      -7.800   5.323   2.326  1.00  0.00    -0.206 F 
ATOM     70  C   UNL     1      -8.496   5.239   0.135  1.00  0.00     0.059 A 
ATOM     71  C   UNL     1      -6.952   5.483  -1.682  1.00  0.00     0.059 A 
ATOM     72  F   UNL     1      -4.677   5.831  -1.269  1.00  0.00    -0.206 F 
ATOM     73  C   UNL     1      -8.254   5.304  -1.226  1.00  0.00     0.060 A 
BRANCH  73  74
ATOM     74  S   UNL     1      -9.683   5.186  -2.330  1.00  0.00     0.124 S 
ATOM     75  O   UNL     1     -10.230   3.877  -1.983  1.00  0.00    -0.237 OA
ATOM     76  O   UNL     1     -10.487   6.332  -1.917  1.00  0.00    -0.237 OA
ATOM     77  O   UNL     1      -9.100   5.281  -3.665  1.00  0.00    -0.744 OA
ENDBRANCH  73  74
ENDBRANCH  52  66
BRANCH  53  78
ATOM     78  C   UNL     1       0.839   3.842   7.950  1.00  0.00     0.058 A 
ATOM     79  C   UNL     1       1.286   2.506   8.213  1.00  0.00     0.135 A 
ATOM     80  C   UNL     1       1.720   4.620   7.196  1.00  0.00     0.135 A 
ATOM     81  F   UNL     1       0.508   1.667   8.923  1.00  0.00    -0.206 F 
ATOM     82  C   UNL     1       2.450   1.954   7.661  1.00  0.00     0.059 A 
ATOM     83  C   UNL     1       2.960   4.120   6.740  1.00  0.00     0.059 A 
ATOM     84  F   UNL     1       1.344   5.838   6.781  1.00  0.00    -0.206 F 
ATOM     85  C   UNL     1       3.315   2.783   6.958  1.00  0.00     0.060 A 
BRANCH  85  86
ATOM     86  S   UNL     1       4.837   2.084   6.217  1.00  0.00     0.124 S 
ATOM     87  O   UNL     1       5.848   2.506   7.176  1.00  0.00    -0.237 OA
ATOM     88  O   UNL     1       4.553   0.652   6.208  1.00  0.00    -0.237 OA
ATOM     89  O   UNL     1       4.913   2.748   4.920  1.00  0.00    -0.744 OA
ENDBRANCH  85  86
ENDBRANCH  53  78
BRANCH  65  90
ATOM     90  C   UNL     1      -4.801   8.435   6.519  1.00  0.00     0.058 A 
ATOM     91  C   UNL     1      -4.687   9.140   7.718  1.00  0.00     0.135 A 
ATOM     92  C   UNL     1      -5.607   9.072   5.541  1.00  0.00     0.135 A 
ATOM     93  F   UNL     1      -4.305   8.530   8.850  1.00  0.00    -0.206 F 
ATOM     94  C   UNL     1      -5.039  10.473   7.833  1.00  0.00     0.059 A 
ATOM     95  C   UNL     1      -6.078  10.368   5.672  1.00  0.00     0.059 A 
ATOM     96  F   UNL     1      -6.029   8.475   4.422  1.00  0.00    -0.206 F 
ATOM     97  C   UNL     1      -5.736  11.081   6.801  1.00  0.00     0.060 A 
BRANCH  97  98
ATOM     98  S   UNL     1      -6.345  12.741   7.059  1.00  0.00     0.124 S 
ATOM     99  O   UNL     1      -6.992  12.613   8.362  1.00  0.00    -0.237 OA
ATOM    100  O   UNL     1      -5.107  13.514   7.039  1.00  0.00    -0.237 OA
ATOM    101  O   UNL     1      -7.245  12.958   5.933  1.00  0.00    -0.744 OA
ENDBRANCH  97  98
ENDBRANCH  65  90
ENDBRANCH  39  40
ENDBRANCH  32  34
ENDBRANCH  31  32
ENDBRANCH  30  31
ENDBRANCH  29  30
ENDBRANCH   1  29
TORSDOF 20
