REMARK SMILES C[C@H](COc1ccccc1C(=O)OCCOC(=O)c1ccc(-c2c3nc(c(-c4c(F)cc(S(=O)(=O)[O-])cc4F)c4ccc([nH]4)c(-c4c(F)cc(S(=O)(=O)[O-])cc4F)c4nc(c(-c5c(F)cc(S(=O)(=O)[O-])cc5F)c5ccc2[nH]5)C=C4)C=C3)cc1)C(N)=O
REMARK SMILES IDX 14 1 13 2 11 3 12 4 10 5 5 6 6 7 7 8 9 9 8 10 4 11 3 12 2 13
REMARK SMILES IDX 1 14 85 15 86 16 87 17 15 20 16 21 17 22 18 23 19 24 20 25
REMARK SMILES IDX 84 26 21 27 83 28 22 29 23 30 24 31 77 32 25 33 82 34 76 35
REMARK SMILES IDX 78 36 26 37 81 38 75 39 74 40 27 42 61 43 40 44 60 45 41 46
REMARK SMILES IDX 44 47 59 48 79 49 42 50 43 51 58 53 80 54 45 55 28 56 29 57
REMARK SMILES IDX 38 58 30 59 31 60 37 61 39 62 32 63 33 64 34 65 35 66 36 67
REMARK SMILES IDX 62 68 63 69 72 70 64 71 65 72 71 73 73 74 66 75 67 76 68 77
REMARK SMILES IDX 69 78 70 79 46 80 47 81 56 82 48 83 49 84 55 85 57 86 50 87
REMARK SMILES IDX 51 88 52 89 53 90 54 91
REMARK H PARENT 86 18 86 19 78 41 44 52
REMARK Flexibility Score: inf
ROOT
ATOM      1  C   UNL     1      -0.531   3.297   1.133  1.00  0.00     0.275 C 
ENDROOT
BRANCH   1   2
ATOM      2  O   UNL     1      -0.209   2.641  -0.116  1.00  0.00    -0.458 OA
BRANCH   2   3
ATOM      3  C   UNL     1      -1.214   1.898  -0.651  1.00  0.00     0.342 C 
ATOM      4  O   UNL     1      -2.347   1.825  -0.201  1.00  0.00    -0.246 OA
BRANCH   3   5
ATOM      5  C   UNL     1      -0.850   1.300  -1.961  1.00  0.00     0.102 A 
ATOM      6  C   UNL     1       0.310   0.561  -2.219  1.00  0.00     0.133 A 
ATOM      7  C   UNL     1       0.539   0.048  -3.505  1.00  0.00     0.047 A 
ATOM      8  C   UNL     1      -0.377   0.278  -4.534  1.00  0.00     0.004 A 
ATOM      9  C   UNL     1      -1.782   1.488  -2.997  1.00  0.00     0.019 A 
ATOM     10  C   UNL     1      -1.535   1.007  -4.282  1.00  0.00     0.001 A 
BRANCH   6  11
ATOM     11  O   UNL     1       1.318   0.425  -1.309  1.00  0.00    -0.492 OA
BRANCH  11  12
ATOM     12  C   UNL     1       1.254  -0.781  -0.533  1.00  0.00     0.242 C 
BRANCH  12  13
ATOM     13  C   UNL     1       1.143  -0.440   0.968  1.00  0.00     0.113 C 
ATOM     14  C   UNL     1       1.992   0.785   1.335  1.00  0.00     0.022 C 
BRANCH  13  15
ATOM     15  C   UNL     1      -0.331  -0.393   1.358  1.00  0.00     0.223 C 
ATOM     16  N   UNL     1      -0.665   0.186   2.541  1.00  0.00    -0.369 N 
ATOM     17  O   UNL     1      -1.210  -0.960   0.713  1.00  0.00    -0.275 OA
ATOM     18  H   UNL     1       0.023   0.646   3.075  1.00  0.00     0.159 HD
ATOM     19  H   UNL     1      -1.594   0.147   2.864  1.00  0.00     0.159 HD
ENDBRANCH  13  15
ENDBRANCH  12  13
ENDBRANCH  11  12
ENDBRANCH   6  11
ENDBRANCH   3   5
ENDBRANCH   2   3
ENDBRANCH   1   2
BRANCH   1  20
ATOM     20  C   UNL     1       0.239   4.610   1.301  1.00  0.00     0.275 C 
BRANCH  20  21
ATOM     21  O   UNL     1      -0.459   5.649   0.603  1.00  0.00    -0.458 OA
BRANCH  21  22
ATOM     22  C   UNL     1      -0.139   5.753  -0.703  1.00  0.00     0.338 C 
ATOM     23  O   UNL     1       0.885   5.369  -1.256  1.00  0.00    -0.246 OA
BRANCH  22  24
ATOM     24  C   UNL     1      -1.376   6.101  -1.401  1.00  0.00     0.060 A 
ATOM     25  C   UNL     1      -2.016   5.063  -2.081  1.00  0.00     0.016 A 
ATOM     26  C   UNL     1      -1.931   7.375  -1.352  1.00  0.00     0.016 A 
ATOM     27  C   UNL     1      -3.224   5.281  -2.723  1.00  0.00     0.010 A 
ATOM     28  C   UNL     1      -3.146   7.599  -2.002  1.00  0.00     0.010 A 
ATOM     29  C   UNL     1      -3.795   6.554  -2.691  1.00  0.00    -0.014 A 
BRANCH  29  30
ATOM     30  C   UNL     1      -5.029   6.827  -3.457  1.00  0.00     0.031 A 
ATOM     31  C   UNL     1      -4.936   7.710  -4.663  1.00  0.00     0.074 A 
ATOM     32  C   UNL     1      -6.202   6.289  -3.075  1.00  0.00     0.049 A 
ATOM     33  N   UNL     1      -5.887   8.300  -5.332  1.00  0.00    -0.248 NA
ATOM     34  C   UNL     1      -3.581   7.974  -5.175  1.00  0.00     0.031 C 
ATOM     35  C   UNL     1      -6.381   5.336  -1.978  1.00  0.00     0.029 A 
ATOM     36  N   UNL     1      -7.470   6.481  -3.560  1.00  0.00    -0.354 N 
ATOM     37  C   UNL     1      -5.245   9.053  -6.309  1.00  0.00     0.074 A 
ATOM     38  C   UNL     1      -3.824   8.837  -6.150  1.00  0.00     0.031 C 
ATOM     39  C   UNL     1      -7.685   5.035  -1.866  1.00  0.00     0.029 A 
ATOM     40  C   UNL     1      -8.438   5.836  -2.825  1.00  0.00     0.049 A 
ATOM     41  H   UNL     1      -7.668   7.025  -4.356  1.00  0.00     0.167 HD
ATOM     42  C   UNL     1      -5.806   9.859  -7.239  1.00  0.00     0.037 A 
ATOM     43  C   UNL     1      -9.780   5.939  -2.879  1.00  0.00     0.037 A 
ATOM     44  C   UNL     1      -7.229  10.024  -7.383  1.00  0.00     0.049 A 
ATOM     45  C   UNL     1     -10.382   6.897  -3.871  1.00  0.00     0.074 A 
ATOM     46  C   UNL     1      -7.921  10.810  -8.284  1.00  0.00     0.029 A 
ATOM     47  N   UNL     1      -8.178   9.380  -6.599  1.00  0.00    -0.354 N 
ATOM     48  N   UNL     1      -9.774   7.659  -4.753  1.00  0.00    -0.248 NA
ATOM     49  C   UNL     1     -11.843   7.035  -3.861  1.00  0.00     0.031 C 
ATOM     50  C   UNL     1      -9.288  10.674  -8.017  1.00  0.00     0.029 A 
ATOM     51  C   UNL     1      -9.450   9.767  -6.979  1.00  0.00     0.049 A 
ATOM     52  H   UNL     1      -7.975   8.740  -5.878  1.00  0.00     0.167 HD
ATOM     53  C   UNL     1     -10.778   8.366  -5.403  1.00  0.00     0.074 A 
ATOM     54  C   UNL     1     -12.034   7.920  -4.830  1.00  0.00     0.031 C 
ATOM     55  C   UNL     1     -10.677   9.304  -6.378  1.00  0.00     0.037 A 
BRANCH  42  56
ATOM     56  C   UNL     1      -4.884  10.655  -8.120  1.00  0.00     0.058 A 
ATOM     57  C   UNL     1      -4.115  10.059  -9.132  1.00  0.00     0.135 A 
ATOM     58  C   UNL     1      -4.771  12.045  -7.948  1.00  0.00     0.135 A 
ATOM     59  F   UNL     1      -4.163   8.732  -9.325  1.00  0.00    -0.206 F 
ATOM     60  C   UNL     1      -3.250  10.808  -9.925  1.00  0.00     0.059 A 
ATOM     61  C   UNL     1      -3.932  12.817  -8.746  1.00  0.00     0.059 A 
ATOM     62  F   UNL     1      -5.476  12.666  -6.989  1.00  0.00    -0.206 F 
ATOM     63  C   UNL     1      -3.164  12.187  -9.723  1.00  0.00     0.060 A 
BRANCH  63  64
ATOM     64  S   UNL     1      -2.037  13.146 -10.758  1.00  0.00     0.124 S 
ATOM     65  O   UNL     1      -0.739  12.751 -10.220  1.00  0.00    -0.237 OA
ATOM     66  O   UNL     1      -2.344  12.650 -12.096  1.00  0.00    -0.237 OA
ATOM     67  O   UNL     1      -2.429  14.528 -10.500  1.00  0.00    -0.744 OA
ENDBRANCH  63  64
ENDBRANCH  42  56
BRANCH  43  68
ATOM     68  C   UNL     1     -10.627   5.176  -1.922  1.00  0.00     0.058 A 
ATOM     69  C   UNL     1     -11.460   4.136  -2.359  1.00  0.00     0.135 A 
ATOM     70  C   UNL     1     -10.604   5.455  -0.545  1.00  0.00     0.135 A 
ATOM     71  F   UNL     1     -11.531   3.839  -3.666  1.00  0.00    -0.206 F 
ATOM     72  C   UNL     1     -12.239   3.401  -1.469  1.00  0.00     0.059 A 
ATOM     73  C   UNL     1     -11.352   4.717   0.367  1.00  0.00     0.059 A 
ATOM     74  F   UNL     1      -9.821   6.436  -0.070  1.00  0.00    -0.206 F 
ATOM     75  C   UNL     1     -12.174   3.696  -0.106  1.00  0.00     0.060 A 
BRANCH  75  76
ATOM     76  S   UNL     1     -13.145   2.700   1.047  1.00  0.00     0.124 S 
ATOM     77  O   UNL     1     -14.494   3.193   0.797  1.00  0.00    -0.237 OA
ATOM     78  O   UNL     1     -12.867   1.342   0.591  1.00  0.00    -0.237 OA
ATOM     79  O   UNL     1     -12.578   3.044   2.348  1.00  0.00    -0.744 OA
ENDBRANCH  75  76
ENDBRANCH  43  68
BRANCH  55  80
ATOM     80  C   UNL     1     -11.959   9.898  -6.885  1.00  0.00     0.058 A 
ATOM     81  C   UNL     1     -12.677  10.837  -6.130  1.00  0.00     0.135 A 
ATOM     82  C   UNL     1     -12.441   9.567  -8.161  1.00  0.00     0.135 A 
ATOM     83  F   UNL     1     -12.260  11.178  -4.900  1.00  0.00    -0.206 F 
ATOM     84  C   UNL     1     -13.842  11.417  -6.617  1.00  0.00     0.059 A 
ATOM     85  C   UNL     1     -13.590  10.155  -8.678  1.00  0.00     0.059 A 
ATOM     86  F   UNL     1     -11.783   8.680  -8.924  1.00  0.00    -0.206 F 
ATOM     87  C   UNL     1     -14.289  11.072  -7.894  1.00  0.00     0.060 A 
BRANCH  87  88
ATOM     88  S   UNL     1     -15.779  11.865  -8.532  1.00  0.00     0.124 S 
ATOM     89  O   UNL     1     -16.821  11.190  -7.766  1.00  0.00    -0.237 OA
ATOM     90  O   UNL     1     -15.554  13.268  -8.198  1.00  0.00    -0.237 OA
ATOM     91  O   UNL     1     -15.746  11.553  -9.958  1.00  0.00    -0.744 OA
ENDBRANCH  87  88
ENDBRANCH  55  80
ENDBRANCH  29  30
ENDBRANCH  22  24
ENDBRANCH  21  22
ENDBRANCH  20  21
ENDBRANCH   1  20
TORSDOF 18
