REMARK SMILES O=C(OCCOC(=O)[C@H]1CC2(CC[NH+](C(=O)C3CC3)CC2)CN1C(=O)CCn1cccn1)c1ccc(-c2c3nc(c(-c4c(F)cc(S(=O)(=O)[O-])cc4F)c4ccc([nH]4)c(-c4c(F)cc(S(=O)(=O)[O-])cc4F)c4nc(c(-c5c(F)cc(S(=O)(=O)[O-])cc5F)c5ccc2[nH]5)C=C4)C=C3)cc1
REMARK SMILES IDX 5 1 4 2 3 3 2 4 1 5 33 6 34 7 98 8 35 9 97 10 36 11 37 12
REMARK SMILES IDX 38 13 91 14 39 15 96 16 90 17 92 18 40 19 95 20 89 21 88 22
REMARK SMILES IDX 41 24 75 25 54 26 74 27 55 28 58 29 73 30 93 31 56 32 57 33
REMARK SMILES IDX 72 35 94 36 59 37 42 38 43 39 52 40 44 41 45 42 51 43 53 44
REMARK SMILES IDX 46 45 47 46 48 47 49 48 50 49 76 50 77 51 86 52 78 53 79 54
REMARK SMILES IDX 85 55 87 56 80 57 81 58 82 59 83 60 84 61 60 62 61 63 70 64
REMARK SMILES IDX 62 65 63 66 69 67 71 68 64 69 65 70 66 71 67 72 68 73 6 74
REMARK SMILES IDX 7 75 8 76 9 77 10 78 23 79 11 80 22 81 12 82 21 83 13 84
REMARK SMILES IDX 20 85 14 86 24 88 25 89 26 90 27 91 28 92 29 93 32 94 30 95
REMARK SMILES IDX 31 96 15 97 16 98 17 99 18 100 19 101
REMARK H PARENT 92 23 58 34 14 87
REMARK Flexibility Score: inf
ROOT
ATOM      1  C   UNL     1      -0.074   0.612   2.291  1.00  0.00     0.274 C 
ENDROOT
BRANCH   1   2
ATOM      2  C   UNL     1      -1.111   2.221   2.572  1.00  0.00     0.275 C 
BRANCH   2   3
ATOM      3  O   UNL     1      -0.207   3.818   2.288  1.00  0.00    -0.458 OA
BRANCH   3   4
ATOM      4  C   UNL     1       1.352   3.959   1.374  1.00  0.00     0.338 C 
ATOM      5  O   UNL     1       1.125   5.004   0.692  1.00  0.00    -0.246 OA
BRANCH   4   6
ATOM      6  C   UNL     1       3.044   2.910   1.861  1.00  0.00     0.060 A 
ATOM      7  C   UNL     1       3.462   1.793   2.739  1.00  0.00     0.016 A 
ATOM      8  C   UNL     1       4.382   3.389   1.781  1.00  0.00     0.016 A 
ATOM      9  C   UNL     1       4.524   1.811   3.714  1.00  0.00     0.010 A 
ATOM     10  C   UNL     1       5.050   3.900   2.865  1.00  0.00     0.010 A 
ATOM     11  C   UNL     1       5.262   2.971   3.833  1.00  0.00    -0.014 A 
BRANCH  11  12
ATOM     12  C   UNL     1       6.598   3.090   4.403  1.00  0.00     0.031 A 
ATOM     13  C   UNL     1       7.636   2.569   3.441  1.00  0.00     0.074 A 
ATOM     14  C   UNL     1       6.914   4.053   5.292  1.00  0.00     0.049 A 
ATOM     15  N   UNL     1       8.129   1.370   3.386  1.00  0.00    -0.248 NA
ATOM     16  C   UNL     1       7.885   3.340   2.190  1.00  0.00     0.031 C 
ATOM     17  C   UNL     1       6.039   5.052   5.909  1.00  0.00     0.029 A 
ATOM     18  N   UNL     1       8.147   4.418   5.723  1.00  0.00    -0.354 N 
ATOM     19  C   UNL     1       8.967   1.406   2.271  1.00  0.00     0.074 A 
ATOM     20  C   UNL     1       8.390   2.385   1.409  1.00  0.00     0.031 C 
ATOM     21  C   UNL     1       6.800   6.005   6.498  1.00  0.00     0.029 A 
ATOM     22  C   UNL     1       8.204   5.641   6.380  1.00  0.00     0.049 A 
ATOM     23  H   UNL     1       8.944   3.858   5.580  1.00  0.00     0.167 HD
ATOM     24  C   UNL     1      10.284   1.046   2.341  1.00  0.00     0.037 A 
ATOM     25  C   UNL     1       9.337   6.308   6.728  1.00  0.00     0.037 A 
ATOM     26  C   UNL     1      10.542   0.377   3.602  1.00  0.00     0.049 A 
ATOM     27  C   UNL     1      10.463   5.332   6.628  1.00  0.00     0.074 A 
ATOM     28  C   UNL     1       9.940  -0.657   4.296  1.00  0.00     0.029 A 
ATOM     29  N   UNL     1      11.294   1.060   4.532  1.00  0.00    -0.354 N 
ATOM     30  N   UNL     1      10.594   4.281   7.392  1.00  0.00    -0.248 NA
ATOM     31  C   UNL     1      11.209   5.277   5.377  1.00  0.00     0.031 C 
ATOM     32  C   UNL     1       9.965  -0.247   5.662  1.00  0.00     0.029 A 
ATOM     33  C   UNL     1      10.668   0.955   5.745  1.00  0.00     0.049 A 
ATOM     34  H   UNL     1      12.135   1.540   4.356  1.00  0.00     0.167 HD
ATOM     35  C   UNL     1      11.060   3.280   6.551  1.00  0.00     0.074 A 
ATOM     36  C   UNL     1      11.528   3.979   5.357  1.00  0.00     0.031 C 
ATOM     37  C   UNL     1      10.734   1.971   6.776  1.00  0.00     0.037 A 
BRANCH  24  38
ATOM     38  C   UNL     1      11.421   1.685   1.533  1.00  0.00     0.058 A 
ATOM     39  C   UNL     1      12.719   1.155   1.703  1.00  0.00     0.135 A 
ATOM     40  C   UNL     1      11.379   2.915   0.831  1.00  0.00     0.135 A 
ATOM     41  F   UNL     1      12.896  -0.037   2.296  1.00  0.00    -0.206 F 
ATOM     42  C   UNL     1      13.874   1.859   1.360  1.00  0.00     0.059 A 
ATOM     43  C   UNL     1      12.517   3.613   0.441  1.00  0.00     0.059 A 
ATOM     44  F   UNL     1      10.254   3.564   0.525  1.00  0.00    -0.206 F 
ATOM     45  C   UNL     1      13.759   3.105   0.760  1.00  0.00     0.060 A 
BRANCH  45  46
ATOM     46  S   UNL     1      15.235   4.080   0.439  1.00  0.00     0.124 S 
ATOM     47  O   UNL     1      15.647   4.422   1.795  1.00  0.00    -0.237 OA
ATOM     48  O   UNL     1      16.077   3.121  -0.268  1.00  0.00    -0.237 OA
ATOM     49  O   UNL     1      14.735   5.187  -0.371  1.00  0.00    -0.744 OA
ENDBRANCH  45  46
ENDBRANCH  24  38
BRANCH  25  50
ATOM     50  C   UNL     1       9.577   7.770   6.884  1.00  0.00     0.058 A 
ATOM     51  C   UNL     1      10.761   8.250   7.477  1.00  0.00     0.135 A 
ATOM     52  C   UNL     1       8.789   8.732   6.223  1.00  0.00     0.135 A 
ATOM     53  F   UNL     1      11.584   7.407   8.121  1.00  0.00    -0.206 F 
ATOM     54  C   UNL     1      11.168   9.585   7.369  1.00  0.00     0.059 A 
ATOM     55  C   UNL     1       9.165  10.072   6.116  1.00  0.00     0.059 A 
ATOM     56  F   UNL     1       7.667   8.383   5.578  1.00  0.00    -0.206 F 
ATOM     57  C   UNL     1      10.372  10.486   6.666  1.00  0.00     0.060 A 
BRANCH  57  58
ATOM     58  S   UNL     1      10.979  12.164   6.365  1.00  0.00     0.124 S 
ATOM     59  O   UNL     1      10.910  12.754   7.698  1.00  0.00    -0.237 OA
ATOM     60  O   UNL     1      12.321  11.919   5.847  1.00  0.00    -0.237 OA
ATOM     61  O   UNL     1      10.029  12.700   5.395  1.00  0.00    -0.744 OA
ENDBRANCH  57  58
ENDBRANCH  25  50
BRANCH  37  62
ATOM     62  C   UNL     1      10.200   1.590   8.133  1.00  0.00     0.058 A 
ATOM     63  C   UNL     1       9.010   2.080   8.700  1.00  0.00     0.135 A 
ATOM     64  C   UNL     1      10.867   0.573   8.834  1.00  0.00     0.135 A 
ATOM     65  F   UNL     1       8.244   2.964   8.049  1.00  0.00    -0.206 F 
ATOM     66  C   UNL     1       8.537   1.622   9.931  1.00  0.00     0.059 A 
ATOM     67  C   UNL     1      10.394   0.073  10.043  1.00  0.00     0.059 A 
ATOM     68  F   UNL     1      11.973   0.013   8.316  1.00  0.00    -0.206 F 
ATOM     69  C   UNL     1       9.237   0.617  10.595  1.00  0.00     0.060 A 
BRANCH  69  70
ATOM     70  S   UNL     1       8.588  -0.019  12.154  1.00  0.00     0.124 S 
ATOM     71  O   UNL     1       8.839   1.091  13.066  1.00  0.00    -0.237 OA
ATOM     72  O   UNL     1       7.186  -0.273  11.833  1.00  0.00    -0.237 OA
ATOM     73  O   UNL     1       9.389  -1.217  12.393  1.00  0.00    -0.744 OA
ENDBRANCH  69  70
ENDBRANCH  37  62
ENDBRANCH  11  12
ENDBRANCH   4   6
ENDBRANCH   3   4
ENDBRANCH   2   3
ENDBRANCH   1   2
BRANCH   1  74
ATOM     74  O   UNL     1       1.458   0.628   1.220  1.00  0.00    -0.461 OA
BRANCH  74  75
ATOM     75  C   UNL     1       2.168   1.255  -0.045  1.00  0.00     0.328 C 
ATOM     76  O   UNL     1       2.390   0.428  -0.948  1.00  0.00    -0.250 OA
BRANCH  75  77
ATOM     77  C   UNL     1       2.735   3.021  -0.414  1.00  0.00     0.195 C 
ATOM     78  C   UNL     1       2.393   3.661  -1.774  1.00  0.00     0.046 C 
ATOM     79  N   UNL     1       3.217   4.586   0.324  1.00  0.00    -0.328 N 
ATOM     80  C   UNL     1       3.501   4.787  -2.031  1.00  0.00     0.001 C 
ATOM     81  C   UNL     1       4.011   5.299  -0.646  1.00  0.00     0.128 C 
ATOM     82  C   UNL     1       2.933   6.033  -2.746  1.00  0.00     0.071 C 
ATOM     83  C   UNL     1       4.637   4.183  -2.912  1.00  0.00     0.071 C 
ATOM     84  C   UNL     1       2.466   5.701  -4.150  1.00  0.00     0.270 C 
ATOM     85  C   UNL     1       4.207   4.002  -4.381  1.00  0.00     0.270 C 
ATOM     86  N   UNL     1       3.608   5.228  -4.911  1.00  0.00    -0.272 N 
ATOM     87  H   UNL     1       3.971   4.470  -4.398  1.00  0.00     0.356 HD
BRANCH  79  88
ATOM     88  C   UNL     1       2.963   5.288   1.885  1.00  0.00     0.225 C 
ATOM     89  O   UNL     1       3.454   6.386   2.159  1.00  0.00    -0.275 OA
BRANCH  88  90
ATOM     90  C   UNL     1       1.986   4.228   3.208  1.00  0.00     0.124 C 
BRANCH  90  91
ATOM     91  C   UNL     1       1.087   2.522   2.630  1.00  0.00     0.154 C 
BRANCH  91  92
ATOM     92  N   UNL     1       0.175   2.331   0.882  1.00  0.00    -0.272 N 
ATOM     93  C   UNL     1      -0.407   1.232  -0.032  1.00  0.00     0.108 A 
ATOM     94  N   UNL     1      -0.520   3.416   0.195  1.00  0.00    -0.182 NA
ATOM     95  C   UNL     1      -0.952   1.732  -1.186  1.00  0.00     0.042 A 
ATOM     96  C   UNL     1      -0.953   3.082  -0.998  1.00  0.00     0.135 A 
ENDBRANCH  91  92
ENDBRANCH  90  91
ENDBRANCH  88  90
ENDBRANCH  79  88
BRANCH  86  97
ATOM     97  C   UNL     1       4.221   5.867  -5.980  1.00  0.00     0.315 C 
ATOM     98  O   UNL     1       5.190   5.377  -6.557  1.00  0.00    -0.231 OA
BRANCH  97  99
ATOM     99  C   UNL     1       3.717   7.157  -6.543  1.00  0.00     0.119 C 
ATOM    100  C   UNL     1       3.013   8.339  -5.926  1.00  0.00     0.019 C 
ATOM    101  C   UNL     1       4.489   8.402  -6.125  1.00  0.00     0.019 C 
ENDBRANCH  97  99
ENDBRANCH  86  97
ENDBRANCH  75  77
ENDBRANCH  74  75
ENDBRANCH   1  74
TORSDOF 20
