REMARK SMILES COc1cccc2c(C)cc(S[C@H](C)C(=O)Nc3ccc(C(=O)OCCOC(=O)c4ccc(-c5c6nc(c(-c7c(F)cc(S(=O)(=O)[O-])cc7F)c7ccc([nH]7)c(-c7c(F)cc(S(=O)(=O)[O-])cc7F)c7nc(c(-c8c(F)cc(S(=O)(=O)[O-])cc8F)c8ccc5[nH]8)C=C7)C=C6)cc4)cc3)nc12
REMARK SMILES IDX 25 1 24 2 22 3 23 4 21 5 18 6 19 7 97 8 20 9 96 10 17 11
REMARK SMILES IDX 15 12 16 13 13 15 14 16 12 17 11 18 3 19 4 20 99 21 5 22
REMARK SMILES IDX 7 23 98 24 6 25 8 26 9 27 10 28 2 29 1 30 26 31 27 32 28 33
REMARK SMILES IDX 29 34 30 35 31 36 95 37 32 38 94 39 33 40 34 41 35 42 88 43
REMARK SMILES IDX 36 44 93 45 87 46 89 47 37 48 92 49 86 50 85 51 38 53 72 54
REMARK SMILES IDX 51 55 71 56 52 57 55 58 70 59 90 60 53 61 54 62 69 64 91 65
REMARK SMILES IDX 56 66 39 67 40 68 49 69 41 70 42 71 48 72 50 73 43 74 44 75
REMARK SMILES IDX 45 76 46 77 47 78 73 79 74 80 83 81 75 82 76 83 82 84 84 85
REMARK SMILES IDX 77 86 78 87 79 88 80 89 81 90 57 91 58 92 67 93 59 94 60 95
REMARK SMILES IDX 66 96 68 97 61 98 62 99 63 100 64 101 65 102
REMARK H PARENT 17 14 89 52 55 63
REMARK Flexibility Score: inf
ROOT
ATOM      1  C   UNL     1       1.725   4.498  -4.227  1.00  0.00     0.275 C 
ENDROOT
BRANCH   1   2
ATOM      2  O   UNL     1       2.313   3.977  -3.019  1.00  0.00    -0.458 OA
BRANCH   2   3
ATOM      3  C   UNL     1       3.472   4.566  -2.634  1.00  0.00     0.338 C 
ATOM      4  O   UNL     1       4.056   5.458  -3.230  1.00  0.00    -0.246 OA
BRANCH   3   5
ATOM      5  C   UNL     1       3.935   4.041  -1.325  1.00  0.00     0.060 A 
ATOM      6  C   UNL     1       5.058   3.067   1.033  1.00  0.00     0.041 A 
ATOM      7  C   UNL     1       5.270   4.394   0.677  1.00  0.00     0.027 A 
ATOM      8  C   UNL     1       4.191   2.264   0.290  1.00  0.00     0.027 A 
ATOM      9  C   UNL     1       4.764   4.853  -0.535  1.00  0.00     0.018 A 
ATOM     10  C   UNL     1       3.616   2.753  -0.886  1.00  0.00     0.018 A 
BRANCH   6  11
ATOM     11  N   UNL     1       5.804   2.552   2.093  1.00  0.00    -0.325 N 
ATOM     12  C   UNL     1       6.857   1.678   2.012  1.00  0.00     0.237 C 
ATOM     13  O   UNL     1       7.449   1.415   3.069  1.00  0.00    -0.273 OA
ATOM     14  H   UNL     1       5.546   2.848   2.996  1.00  0.00     0.169 HD
BRANCH  12  15
ATOM     15  C   UNL     1       7.347   1.025   0.704  1.00  0.00     0.139 C 
ATOM     16  C   UNL     1       6.418  -0.063   0.182  1.00  0.00     0.030 C 
BRANCH  15  17
ATOM     17  S   UNL     1       7.762   2.290  -0.563  1.00  0.00    -0.093 SA
BRANCH  17  18
ATOM     18  C   UNL     1       9.092   1.639  -1.536  1.00  0.00     0.098 A 
ATOM     19  C   UNL     1      10.921   3.040  -4.369  1.00  0.00     0.145 A 
ATOM     20  C   UNL     1      11.995   2.731  -5.213  1.00  0.00     0.049 A 
ATOM     21  C   UNL     1      10.519   2.178  -3.330  1.00  0.00     0.114 A 
ATOM     22  C   UNL     1      12.720   1.568  -5.017  1.00  0.00     0.005 A 
ATOM     23  C   UNL     1      11.250   0.981  -3.147  1.00  0.00     0.007 A 
ATOM     24  N   UNL     1       9.466   2.469  -2.534  1.00  0.00    -0.238 NA
ATOM     25  C   UNL     1      12.350   0.701  -3.993  1.00  0.00     0.011 A 
ATOM     26  C   UNL     1      10.839   0.102  -2.117  1.00  0.00    -0.039 A 
ATOM     27  C   UNL     1      11.550  -1.196  -1.838  1.00  0.00     0.045 C 
ATOM     28  C   UNL     1       9.743   0.443  -1.317  1.00  0.00     0.039 A 
BRANCH  19  29
ATOM     29  O   UNL     1      10.278   4.210  -4.715  1.00  0.00    -0.494 OA
ATOM     30  C   UNL     1      10.031   5.087  -3.617  1.00  0.00     0.278 C 
ENDBRANCH  19  29
ENDBRANCH  17  18
ENDBRANCH  15  17
ENDBRANCH  12  15
ENDBRANCH   6  11
ENDBRANCH   3   5
ENDBRANCH   2   3
ENDBRANCH   1   2
BRANCH   1  31
ATOM     31  C   UNL     1       0.579   5.465  -3.920  1.00  0.00     0.275 C 
BRANCH  31  32
ATOM     32  O   UNL     1       1.066   6.685  -3.328  1.00  0.00    -0.458 OA
BRANCH  32  33
ATOM     33  C   UNL     1       0.905   6.765  -1.988  1.00  0.00     0.338 C 
ATOM     34  O   UNL     1       0.373   5.943  -1.260  1.00  0.00    -0.246 OA
BRANCH  33  35
ATOM     35  C   UNL     1       1.560   7.966  -1.448  1.00  0.00     0.060 A 
ATOM     36  C   UNL     1       2.895   7.854  -1.083  1.00  0.00     0.016 A 
ATOM     37  C   UNL     1       0.827   9.084  -1.062  1.00  0.00     0.016 A 
ATOM     38  C   UNL     1       3.467   8.765  -0.203  1.00  0.00     0.010 A 
ATOM     39  C   UNL     1       1.441  10.067  -0.271  1.00  0.00     0.010 A 
ATOM     40  C   UNL     1       2.746   9.885   0.230  1.00  0.00    -0.014 A 
BRANCH  40  41
ATOM     41  C   UNL     1       3.321  10.789   1.275  1.00  0.00     0.031 A 
ATOM     42  C   UNL     1       2.564  11.036   2.562  1.00  0.00     0.074 A 
ATOM     43  C   UNL     1       4.538  11.351   1.114  1.00  0.00     0.049 A 
ATOM     44  N   UNL     1       2.808  11.897   3.518  1.00  0.00    -0.248 NA
ATOM     45  C   UNL     1       1.362  10.219   2.793  1.00  0.00     0.031 C 
ATOM     46  C   UNL     1       5.414  11.168  -0.046  1.00  0.00     0.029 A 
ATOM     47  N   UNL     1       5.260  12.183   1.938  1.00  0.00    -0.354 N 
ATOM     48  C   UNL     1       1.757  11.774   4.423  1.00  0.00     0.074 A 
ATOM     49  C   UNL     1       0.867  10.764   3.895  1.00  0.00     0.031 C 
ATOM     50  C   UNL     1       6.566  11.823   0.160  1.00  0.00     0.029 A 
ATOM     51  C   UNL     1       6.480  12.552   1.420  1.00  0.00     0.049 A 
ATOM     52  H   UNL     1       4.934  12.486   2.816  1.00  0.00     0.167 HD
ATOM     53  C   UNL     1       1.554  12.437   5.589  1.00  0.00     0.037 A 
ATOM     54  C   UNL     1       7.412  13.411   1.879  1.00  0.00     0.037 A 
ATOM     55  C   UNL     1       2.481  13.389   6.149  1.00  0.00     0.049 A 
ATOM     56  C   UNL     1       7.165  14.138   3.171  1.00  0.00     0.074 A 
ATOM     57  C   UNL     1       2.373  14.106   7.329  1.00  0.00     0.029 A 
ATOM     58  N   UNL     1       3.698  13.740   5.582  1.00  0.00    -0.354 N 
ATOM     59  N   UNL     1       6.131  14.063   3.976  1.00  0.00    -0.248 NA
ATOM     60  C   UNL     1       8.206  15.075   3.613  1.00  0.00     0.031 C 
ATOM     61  C   UNL     1       3.508  14.915   7.457  1.00  0.00     0.029 A 
ATOM     62  C   UNL     1       4.348  14.664   6.385  1.00  0.00     0.049 A 
ATOM     63  H   UNL     1       4.048  13.385   4.733  1.00  0.00     0.167 HD
ATOM     64  C   UNL     1       6.410  14.924   5.032  1.00  0.00     0.074 A 
ATOM     65  C   UNL     1       7.715  15.495   4.771  1.00  0.00     0.031 C 
ATOM     66  C   UNL     1       5.652  15.217   6.119  1.00  0.00     0.037 A 
BRANCH  53  67
ATOM     67  C   UNL     1       0.263  12.183   6.325  1.00  0.00     0.058 A 
ATOM     68  C   UNL     1      -0.004  10.969   6.978  1.00  0.00     0.135 A 
ATOM     69  C   UNL     1      -0.716  13.189   6.398  1.00  0.00     0.135 A 
ATOM     70  F   UNL     1       0.886   9.965   6.930  1.00  0.00    -0.206 F 
ATOM     71  C   UNL     1      -1.207  10.748   7.643  1.00  0.00     0.059 A 
ATOM     72  C   UNL     1      -1.913  13.002   7.085  1.00  0.00     0.059 A 
ATOM     73  F   UNL     1      -0.516  14.372   5.797  1.00  0.00    -0.206 F 
ATOM     74  C   UNL     1      -2.157  11.770   7.689  1.00  0.00     0.060 A 
BRANCH  74  75
ATOM     75  S   UNL     1      -3.715  11.469   8.552  1.00  0.00     0.124 S 
ATOM     76  O   UNL     1      -4.395  10.575   7.620  1.00  0.00    -0.237 OA
ATOM     77  O   UNL     1      -3.268  10.860   9.801  1.00  0.00    -0.237 OA
ATOM     78  O   UNL     1      -4.296  12.801   8.681  1.00  0.00    -0.744 OA
ENDBRANCH  74  75
ENDBRANCH  53  67
BRANCH  54  79
ATOM     79  C   UNL     1       8.653  13.654   1.092  1.00  0.00     0.058 A 
ATOM     80  C   UNL     1       9.906  13.236   1.564  1.00  0.00     0.135 A 
ATOM     81  C   UNL     1       8.608  14.300  -0.155  1.00  0.00     0.135 A 
ATOM     82  F   UNL     1      10.005  12.626   2.755  1.00  0.00    -0.206 F 
ATOM     83  C   UNL     1      11.071  13.461   0.837  1.00  0.00     0.059 A 
ATOM     84  C   UNL     1       9.754  14.505  -0.915  1.00  0.00     0.059 A 
ATOM     85  F   UNL     1       7.434  14.710  -0.658  1.00  0.00    -0.206 F 
ATOM     86  C   UNL     1      10.984  14.092  -0.405  1.00  0.00     0.060 A 
BRANCH  86  87
ATOM     87  S   UNL     1      12.494  14.332  -1.366  1.00  0.00     0.124 S 
ATOM     88  O   UNL     1      13.137  15.418  -0.635  1.00  0.00    -0.237 OA
ATOM     89  O   UNL     1      13.134  13.025  -1.264  1.00  0.00    -0.237 OA
ATOM     90  O   UNL     1      11.994  14.675  -2.695  1.00  0.00    -0.744 OA
ENDBRANCH  86  87
ENDBRANCH  54  79
BRANCH  66  91
ATOM     91  C   UNL     1       6.247  16.154   7.135  1.00  0.00     0.058 A 
ATOM     92  C   UNL     1       6.413  17.524   6.878  1.00  0.00     0.135 A 
ATOM     93  C   UNL     1       6.659  15.668   8.386  1.00  0.00     0.135 A 
ATOM     94  F   UNL     1       6.040  18.040   5.696  1.00  0.00    -0.206 F 
ATOM     95  C   UNL     1       7.011  18.371   7.806  1.00  0.00     0.059 A 
ATOM     96  C   UNL     1       7.230  16.502   9.342  1.00  0.00     0.059 A 
ATOM     97  F   UNL     1       6.510  14.369   8.691  1.00  0.00    -0.206 F 
ATOM     98  C   UNL     1       7.423  17.848   9.034  1.00  0.00     0.060 A 
BRANCH  98  99
ATOM     99  S   UNL     1       8.212  18.950  10.226  1.00  0.00     0.124 S 
ATOM    100  O   UNL     1       9.542  19.106   9.646  1.00  0.00    -0.237 OA
ATOM    101  O   UNL     1       7.356  20.131  10.177  1.00  0.00    -0.237 OA
ATOM    102  O   UNL     1       8.156  18.194  11.474  1.00  0.00    -0.744 OA
ENDBRANCH  98  99
ENDBRANCH  66  91
ENDBRANCH  40  41
ENDBRANCH  33  35
ENDBRANCH  32  33
ENDBRANCH  31  32
ENDBRANCH   1  31
TORSDOF 19
