REMARK SMILES CCc1nn(-c2ccncn2)c(Cl)c1C(=O)OCCOC(=O)c1ccc(-c2c3nc(c(-c4c(F)cc(S(=O)(=O)[O-])cc4F)c4ccc([nH]4)c(-c4c(F)cc(S(=O)(=O)[O-])cc4F)c4nc(c(-c5c(F)cc(S(=O)(=O)[O-])cc5F)c5ccc2[nH]5)C=C4)C=C3)cc1
REMARK SMILES IDX 19 1 18 2 17 3 15 4 16 5 14 6 3 7 4 8 5 9 12 10 13 11 2 12
REMARK SMILES IDX 1 13 6 14 7 15 11 16 8 17 10 18 9 19 20 20 21 21 22 22 23 23
REMARK SMILES IDX 24 24 88 25 25 26 87 27 26 28 27 29 28 30 81 31 29 32 86 33
REMARK SMILES IDX 80 34 82 35 30 36 85 37 79 38 78 39 31 41 65 42 44 43 64 44
REMARK SMILES IDX 45 45 48 46 63 47 83 48 46 49 47 50 62 52 84 53 49 54 32 55
REMARK SMILES IDX 33 56 42 57 34 58 35 59 41 60 43 61 36 62 37 63 38 64 39 65
REMARK SMILES IDX 40 66 66 67 67 68 76 69 68 70 69 71 75 72 77 73 70 74 71 75
REMARK SMILES IDX 72 76 73 77 74 78 50 79 51 80 60 81 52 82 53 83 59 84 61 85
REMARK SMILES IDX 54 86 55 87 56 88 57 89 58 90
REMARK H PARENT 82 40 48 51
REMARK Flexibility Score: inf
ROOT
ATOM      1  C   UNL     1      -2.059  -2.971   0.757  1.00  0.00     0.275 C 
ENDROOT
BRANCH   1   2
ATOM      2  C   UNL     1      -0.636  -2.593   1.127  1.00  0.00     0.275 C 
BRANCH   2   3
ATOM      3  O   UNL     1       0.037  -2.031  -0.008  1.00  0.00    -0.458 OA
BRANCH   3   4
ATOM      4  C   UNL     1       0.769  -2.891  -0.772  1.00  0.00     0.343 C 
ATOM      5  O   UNL     1       1.032  -4.042  -0.437  1.00  0.00    -0.246 OA
BRANCH   4   6
ATOM      6  C   UNL     1       1.159  -2.319  -2.045  1.00  0.00     0.120 A 
ATOM      7  C   UNL     1       1.191  -0.963  -2.490  1.00  0.00     0.079 A 
ATOM      8  N   UNL     1       1.652  -0.854  -3.750  1.00  0.00    -0.169 NA
ATOM      9  N   UNL     1       1.786  -2.140  -4.173  1.00  0.00    -0.203 N 
ATOM     10  C   UNL     1       1.531  -3.031  -3.160  1.00  0.00     0.149 A 
ATOM     11  Cl  UNL     1       1.696  -4.715  -3.414  1.00  0.00    -0.061 Cl
BRANCH   7  12
ATOM     12  C   UNL     1       0.752   0.271  -1.758  1.00  0.00     0.056 C 
ATOM     13  C   UNL     1       1.544   0.568  -0.491  1.00  0.00     0.011 C 
ENDBRANCH   7  12
BRANCH   9  14
ATOM     14  C   UNL     1       2.169  -2.455  -5.503  1.00  0.00     0.158 A 
ATOM     15  C   UNL     1       1.240  -3.085  -6.313  1.00  0.00     0.069 A 
ATOM     16  N   UNL     1       3.471  -2.293  -5.841  1.00  0.00    -0.217 NA
ATOM     17  C   UNL     1       1.726  -3.571  -7.503  1.00  0.00     0.117 A 
ATOM     18  C   UNL     1       3.825  -2.824  -7.018  1.00  0.00     0.224 A 
ATOM     19  N   UNL     1       3.015  -3.466  -7.876  1.00  0.00    -0.245 NA
ENDBRANCH   9  14
ENDBRANCH   4   6
ENDBRANCH   3   4
ENDBRANCH   2   3
ENDBRANCH   1   2
BRANCH   1  20
ATOM     20  O   UNL     1      -2.072  -4.061  -0.160  1.00  0.00    -0.458 OA
BRANCH  20  21
ATOM     21  C   UNL     1      -2.121  -3.718  -1.467  1.00  0.00     0.338 C 
ATOM     22  O   UNL     1      -1.853  -2.638  -1.963  1.00  0.00    -0.246 OA
BRANCH  21  23
ATOM     23  C   UNL     1      -2.729  -4.817  -2.213  1.00  0.00     0.060 A 
ATOM     24  C   UNL     1      -2.641  -4.798  -3.608  1.00  0.00     0.016 A 
ATOM     25  C   UNL     1      -3.574  -5.703  -1.530  1.00  0.00     0.016 A 
ATOM     26  C   UNL     1      -3.513  -5.586  -4.329  1.00  0.00     0.010 A 
ATOM     27  C   UNL     1      -4.437  -6.487  -2.248  1.00  0.00     0.010 A 
ATOM     28  C   UNL     1      -4.447  -6.365  -3.635  1.00  0.00    -0.014 A 
BRANCH  28  29
ATOM     29  C   UNL     1      -5.392  -7.160  -4.391  1.00  0.00     0.031 A 
ATOM     30  C   UNL     1      -4.741  -8.261  -5.139  1.00  0.00     0.074 A 
ATOM     31  C   UNL     1      -6.721  -6.983  -4.256  1.00  0.00     0.049 A 
ATOM     32  N   UNL     1      -4.666  -8.415  -6.419  1.00  0.00    -0.248 NA
ATOM     33  C   UNL     1      -3.903  -9.203  -4.375  1.00  0.00     0.031 C 
ATOM     34  C   UNL     1      -7.417  -6.086  -3.324  1.00  0.00     0.029 A 
ATOM     35  N   UNL     1      -7.744  -7.652  -4.849  1.00  0.00    -0.354 N 
ATOM     36  C   UNL     1      -3.992  -9.618  -6.605  1.00  0.00     0.074 A 
ATOM     37  C   UNL     1      -3.368  -9.937  -5.350  1.00  0.00     0.031 C 
ATOM     38  C   UNL     1      -8.720  -6.436  -3.252  1.00  0.00     0.029 A 
ATOM     39  C   UNL     1      -8.976  -7.478  -4.230  1.00  0.00     0.049 A 
ATOM     40  H   UNL     1      -7.623  -8.212  -5.649  1.00  0.00     0.167 HD
ATOM     41  C   UNL     1      -4.256 -10.404  -7.683  1.00  0.00     0.037 A 
ATOM     42  C   UNL     1     -10.107  -8.186  -4.469  1.00  0.00     0.037 A 
ATOM     43  C   UNL     1      -4.934  -9.658  -8.712  1.00  0.00     0.049 A 
ATOM     44  C   UNL     1      -9.955  -8.793  -5.814  1.00  0.00     0.074 A 
ATOM     45  C   UNL     1      -4.610  -8.603  -9.539  1.00  0.00     0.029 A 
ATOM     46  N   UNL     1      -6.303  -9.753  -8.708  1.00  0.00    -0.354 N 
ATOM     47  N   UNL     1      -9.869  -8.094  -6.915  1.00  0.00    -0.248 NA
ATOM     48  C   UNL     1      -9.463 -10.159  -5.912  1.00  0.00     0.031 C 
ATOM     49  C   UNL     1      -5.823  -7.875  -9.722  1.00  0.00     0.029 A 
ATOM     50  C   UNL     1      -6.846  -8.539  -9.041  1.00  0.00     0.049 A 
ATOM     51  H   UNL     1      -6.816 -10.566  -8.498  1.00  0.00     0.167 HD
ATOM     52  C   UNL     1      -8.945  -8.770  -7.698  1.00  0.00     0.074 A 
ATOM     53  C   UNL     1      -8.844 -10.096  -7.095  1.00  0.00     0.031 C 
ATOM     54  C   UNL     1      -8.146  -8.093  -8.575  1.00  0.00     0.037 A 
BRANCH  41  55
ATOM     55  C   UNL     1      -4.326 -11.914  -7.614  1.00  0.00     0.058 A 
ATOM     56  C   UNL     1      -4.460 -12.651  -8.807  1.00  0.00     0.135 A 
ATOM     57  C   UNL     1      -4.571 -12.636  -6.423  1.00  0.00     0.135 A 
ATOM     58  F   UNL     1      -4.268 -12.062  -9.998  1.00  0.00    -0.206 F 
ATOM     59  C   UNL     1      -4.871 -13.986  -8.818  1.00  0.00     0.059 A 
ATOM     60  C   UNL     1      -4.927 -13.979  -6.408  1.00  0.00     0.059 A 
ATOM     61  F   UNL     1      -4.581 -12.055  -5.217  1.00  0.00    -0.206 F 
ATOM     62  C   UNL     1      -5.116 -14.635  -7.611  1.00  0.00     0.060 A 
BRANCH  62  63
ATOM     63  S   UNL     1      -5.745 -16.322  -7.618  1.00  0.00     0.124 S 
ATOM     64  O   UNL     1      -7.088 -16.128  -8.153  1.00  0.00    -0.237 OA
ATOM     65  O   UNL     1      -4.795 -16.995  -8.497  1.00  0.00    -0.237 OA
ATOM     66  O   UNL     1      -5.675 -16.712  -6.213  1.00  0.00    -0.744 OA
ENDBRANCH  62  63
ENDBRANCH  41  55
BRANCH  42  67
ATOM     67  C   UNL     1     -11.114  -8.635  -3.471  1.00  0.00     0.058 A 
ATOM     68  C   UNL     1     -12.393  -9.078  -3.848  1.00  0.00     0.135 A 
ATOM     69  C   UNL     1     -10.745  -8.879  -2.131  1.00  0.00     0.135 A 
ATOM     70  F   UNL     1     -12.815  -8.922  -5.112  1.00  0.00    -0.206 F 
ATOM     71  C   UNL     1     -13.248  -9.740  -2.955  1.00  0.00     0.059 A 
ATOM     72  C   UNL     1     -11.579  -9.528  -1.224  1.00  0.00     0.059 A 
ATOM     73  F   UNL     1      -9.519  -8.565  -1.686  1.00  0.00    -0.206 F 
ATOM     74  C   UNL     1     -12.826  -9.971  -1.645  1.00  0.00     0.060 A 
BRANCH  74  75
ATOM     75  S   UNL     1     -13.870 -10.931  -0.522  1.00  0.00     0.124 S 
ATOM     76  O   UNL     1     -15.002 -10.034  -0.321  1.00  0.00    -0.237 OA
ATOM     77  O   UNL     1     -14.140 -12.134  -1.302  1.00  0.00    -0.237 OA
ATOM     78  O   UNL     1     -13.018 -11.130   0.648  1.00  0.00    -0.744 OA
ENDBRANCH  74  75
ENDBRANCH  42  67
BRANCH  54  79
ATOM     79  C   UNL     1      -8.551  -6.686  -8.941  1.00  0.00     0.058 A 
ATOM     80  C   UNL     1      -8.502  -5.587  -8.066  1.00  0.00     0.135 A 
ATOM     81  C   UNL     1      -8.876  -6.421 -10.280  1.00  0.00     0.135 A 
ATOM     82  F   UNL     1      -8.110  -5.737  -6.794  1.00  0.00    -0.206 F 
ATOM     83  C   UNL     1      -8.795  -4.290  -8.493  1.00  0.00     0.059 A 
ATOM     84  C   UNL     1      -9.142  -5.133 -10.735  1.00  0.00     0.059 A 
ATOM     85  F   UNL     1      -8.881  -7.419 -11.178  1.00  0.00    -0.206 F 
ATOM     86  C   UNL     1      -9.110  -4.071  -9.833  1.00  0.00     0.060 A 
BRANCH  86  87
ATOM     87  S   UNL     1      -9.399  -2.383 -10.405  1.00  0.00     0.124 S 
ATOM     88  O   UNL     1     -10.694  -2.073  -9.809  1.00  0.00    -0.237 OA
ATOM     89  O   UNL     1      -8.257  -1.660  -9.852  1.00  0.00    -0.237 OA
ATOM     90  O   UNL     1      -9.397  -2.511 -11.861  1.00  0.00    -0.744 OA
ENDBRANCH  86  87
ENDBRANCH  54  79
ENDBRANCH  28  29
ENDBRANCH  21  23
ENDBRANCH  20  21
ENDBRANCH   1  20
TORSDOF 16
