REMARK SMILES CCc1nn2c(nnc3c(=O)n([C@H](C(=O)OCCOC(=O)c4ccc(-c5c6nc(c(-c7c(F)cc(S(=O)(=O)[O-])cc7F)c7ccc([nH]7)c(-c7c(F)cc(S(=O)(=O)[O-])cc7F)c7nc(c(-c8c(F)cc(S(=O)(=O)[O-])cc8F)c8ccc5[nH]8)C=C7)C=C6)cc4)C(C)C)ccc32)c1-c1ccc(Cl)cc1
REMARK SMILES IDX 18 1 17 2 16 3 14 4 15 5 13 6 12 7 3 8 4 9 94 10 5 11 6 12
REMARK SMILES IDX 93 13 7 14 9 15 92 16 8 17 10 18 91 19 11 20 2 21 1 22 95 23
REMARK SMILES IDX 96 24 101 25 97 26 100 27 98 28 99 29 88 30 89 31 90 32
REMARK SMILES IDX 19 33 20 34 21 35 22 36 23 37 87 38 24 39 86 40 25 41 26 42
REMARK SMILES IDX 27 43 80 44 28 45 85 46 79 47 81 48 29 49 84 50 78 51 77 52
REMARK SMILES IDX 30 54 64 55 43 56 63 57 44 58 47 59 62 60 82 61 45 62 46 63
REMARK SMILES IDX 61 65 83 66 48 67 31 68 32 69 41 70 33 71 34 72 40 73 42 74
REMARK SMILES IDX 35 75 36 76 37 77 38 78 39 79 65 80 66 81 75 82 67 83 68 84
REMARK SMILES IDX 74 85 76 86 69 87 70 88 71 89 72 90 73 91 49 92 50 93 59 94
REMARK SMILES IDX 51 95 52 96 58 97 60 98 53 99 54 100 55 101 56 102 57 103
REMARK H PARENT 81 53 47 64
REMARK Flexibility Score: inf
ROOT
ATOM      1  C   UNL     1       2.949   4.200   4.199  1.00  0.00     0.275 C 
ENDROOT
BRANCH   1   2
ATOM      2  C   UNL     1       2.207   5.167   5.132  1.00  0.00     0.274 C 
BRANCH   2   3
ATOM      3  O   UNL     1       3.027   5.732   6.183  1.00  0.00    -0.461 OA
BRANCH   3   4
ATOM      4  C   UNL     1       3.060   5.015   7.343  1.00  0.00     0.329 C 
ATOM      5  O   UNL     1       2.374   4.012   7.525  1.00  0.00    -0.250 OA
BRANCH   4   6
ATOM      6  C   UNL     1       3.922   5.638   8.468  1.00  0.00     0.202 C 
BRANCH   6   7
ATOM      7  N   UNL     1       5.082   6.447   8.000  1.00  0.00    -0.299 N 
ATOM      8  C   UNL     1      10.006   9.873   6.073  1.00  0.00     0.073 A 
ATOM      9  N   UNL     1       8.730   9.809   6.489  1.00  0.00    -0.170 NA
ATOM     10  C   UNL     1      10.491   8.603   5.664  1.00  0.00     0.052 A 
ATOM     11  N   UNL     1       8.469   8.470   6.567  1.00  0.00    -0.210 N 
ATOM     12  C   UNL     1       9.542   7.711   6.117  1.00  0.00     0.186 A 
ATOM     13  C   UNL     1       7.324   7.828   7.049  1.00  0.00     0.102 A 
ATOM     14  N   UNL     1       9.495   6.348   6.193  1.00  0.00    -0.129 NA
ATOM     15  C   UNL     1       7.428   6.497   7.195  1.00  0.00     0.177 A 
ATOM     16  C   UNL     1       6.076   8.506   7.345  1.00  0.00     0.049 A 
ATOM     17  N   UNL     1       8.536   5.779   6.784  1.00  0.00    -0.141 NA
ATOM     18  C   UNL     1       6.320   5.779   7.903  1.00  0.00     0.281 A 
ATOM     19  C   UNL     1       4.995   7.802   7.717  1.00  0.00     0.092 A 
ATOM     20  O   UNL     1       6.525   4.688   8.426  1.00  0.00    -0.267 OA
BRANCH   8  21
ATOM     21  C   UNL     1      10.738  11.177   6.111  1.00  0.00     0.055 C 
ATOM     22  C   UNL     1      11.118  11.724   4.746  1.00  0.00     0.011 C 
ENDBRANCH   8  21
BRANCH  10  23
ATOM     23  C   UNL     1      11.718   8.220   4.993  1.00  0.00    -0.013 A 
ATOM     24  C   UNL     1      12.969   8.503   5.545  1.00  0.00     0.010 A 
ATOM     25  C   UNL     1      11.651   7.614   3.729  1.00  0.00     0.010 A 
ATOM     26  C   UNL     1      14.139   8.194   4.842  1.00  0.00     0.021 A 
ATOM     27  C   UNL     1      12.820   7.311   3.024  1.00  0.00     0.021 A 
ATOM     28  C   UNL     1      14.061   7.608   3.582  1.00  0.00     0.041 A 
ATOM     29  Cl  UNL     1      15.498   7.269   2.698  1.00  0.00    -0.084 Cl
ENDBRANCH  10  23
ENDBRANCH   6   7
BRANCH   6  30
ATOM     30  C   UNL     1       3.011   6.324   9.531  1.00  0.00     0.017 C 
ATOM     31  C   UNL     1       1.908   5.381  10.049  1.00  0.00     0.010 C 
ATOM     32  C   UNL     1       3.823   6.795  10.743  1.00  0.00     0.010 C 
ENDBRANCH   6  30
ENDBRANCH   4   6
ENDBRANCH   3   4
ENDBRANCH   2   3
ENDBRANCH   1   2
BRANCH   1  33
ATOM     33  O   UNL     1       3.379   3.003   4.862  1.00  0.00    -0.458 OA
BRANCH  33  34
ATOM     34  C   UNL     1       4.551   3.167   5.491  1.00  0.00     0.338 C 
ATOM     35  O   UNL     1       5.188   4.234   5.572  1.00  0.00    -0.246 OA
BRANCH  34  36
ATOM     36  C   UNL     1       5.110   1.921   6.002  1.00  0.00     0.060 A 
ATOM     37  C   UNL     1       5.837   2.044   7.189  1.00  0.00     0.016 A 
ATOM     38  C   UNL     1       5.452   0.982   5.028  1.00  0.00     0.016 A 
ATOM     39  C   UNL     1       7.106   1.511   7.240  1.00  0.00     0.010 A 
ATOM     40  C   UNL     1       6.702   0.400   5.106  1.00  0.00     0.010 A 
ATOM     41  C   UNL     1       7.562   0.781   6.144  1.00  0.00    -0.014 A 
BRANCH  41  42
ATOM     42  C   UNL     1       8.992   0.519   6.051  1.00  0.00     0.031 A 
ATOM     43  C   UNL     1       9.520  -0.574   6.903  1.00  0.00     0.074 A 
ATOM     44  C   UNL     1       9.747   1.133   5.118  1.00  0.00     0.049 A 
ATOM     45  N   UNL     1      10.537  -0.571   7.702  1.00  0.00    -0.248 NA
ATOM     46  C   UNL     1       8.764  -1.835   6.891  1.00  0.00     0.031 C 
ATOM     47  C   UNL     1       9.293   2.002   4.026  1.00  0.00     0.029 A 
ATOM     48  N   UNL     1      11.075   0.979   4.858  1.00  0.00    -0.354 N 
ATOM     49  C   UNL     1      10.633  -1.866   8.202  1.00  0.00     0.074 A 
ATOM     50  C   UNL     1       9.461  -2.574   7.750  1.00  0.00     0.031 C 
ATOM     51  C   UNL     1      10.269   2.081   3.095  1.00  0.00     0.029 A 
ATOM     52  C   UNL     1      11.440   1.367   3.579  1.00  0.00     0.049 A 
ATOM     53  H   UNL     1      11.715   0.625   5.517  1.00  0.00     0.167 HD
ATOM     54  C   UNL     1      11.730  -2.345   8.847  1.00  0.00     0.037 A 
ATOM     55  C   UNL     1      12.575   1.017   2.926  1.00  0.00     0.037 A 
ATOM     56  C   UNL     1      12.628  -1.310   9.268  1.00  0.00     0.049 A 
ATOM     57  C   UNL     1      13.554   0.550   3.944  1.00  0.00     0.074 A 
ATOM     58  C   UNL     1      12.549  -0.277  10.179  1.00  0.00     0.029 A 
ATOM     59  N   UNL     1      13.729  -1.044   8.491  1.00  0.00    -0.354 N 
ATOM     60  N   UNL     1      14.117   1.315   4.840  1.00  0.00    -0.248 NA
ATOM     61  C   UNL     1      13.615  -0.878   4.224  1.00  0.00     0.031 C 
ATOM     62  C   UNL     1      13.335   0.774   9.629  1.00  0.00     0.029 A 
ATOM     63  C   UNL     1      13.848   0.322   8.411  1.00  0.00     0.049 A 
ATOM     64  H   UNL     1      14.322  -1.708   8.071  1.00  0.00     0.167 HD
ATOM     65  C   UNL     1      14.252   0.514   5.966  1.00  0.00     0.074 A 
ATOM     66  C   UNL     1      14.029  -0.847   5.493  1.00  0.00     0.031 C 
ATOM     67  C   UNL     1      14.263   1.043   7.225  1.00  0.00     0.037 A 
BRANCH  54  68
ATOM     68  C   UNL     1      12.080  -3.802   8.896  1.00  0.00     0.058 A 
ATOM     69  C   UNL     1      12.894  -4.314   9.921  1.00  0.00     0.135 A 
ATOM     70  C   UNL     1      11.801  -4.678   7.824  1.00  0.00     0.135 A 
ATOM     71  F   UNL     1      13.240  -3.547  10.966  1.00  0.00    -0.206 F 
ATOM     72  C   UNL     1      13.413  -5.609   9.874  1.00  0.00     0.059 A 
ATOM     73  C   UNL     1      12.260  -5.988   7.784  1.00  0.00     0.059 A 
ATOM     74  F   UNL     1      11.135  -4.263   6.737  1.00  0.00    -0.206 F 
ATOM     75  C   UNL     1      13.098  -6.433   8.795  1.00  0.00     0.060 A 
BRANCH  75  76
ATOM     76  S   UNL     1      13.842  -8.071   8.680  1.00  0.00     0.124 S 
ATOM     77  O   UNL     1      15.204  -7.741   8.277  1.00  0.00    -0.237 OA
ATOM     78  O   UNL     1      13.682  -8.582  10.037  1.00  0.00    -0.237 OA
ATOM     79  O   UNL     1      13.028  -8.738   7.668  1.00  0.00    -0.744 OA
ENDBRANCH  75  76
ENDBRANCH  54  68
BRANCH  55  80
ATOM     80  C   UNL     1      12.725   0.756   1.470  1.00  0.00     0.058 A 
ATOM     81  C   UNL     1      13.990   0.693   0.862  1.00  0.00     0.135 A 
ATOM     82  C   UNL     1      11.636   0.335   0.676  1.00  0.00     0.135 A 
ATOM     83  F   UNL     1      15.089   1.025   1.556  1.00  0.00    -0.206 F 
ATOM     84  C   UNL     1      14.165   0.232  -0.449  1.00  0.00     0.059 A 
ATOM     85  C   UNL     1      11.783  -0.105  -0.637  1.00  0.00     0.059 A 
ATOM     86  F   UNL     1      10.396   0.254   1.180  1.00  0.00    -0.206 F 
ATOM     87  C   UNL     1      13.054  -0.172  -1.188  1.00  0.00     0.060 A 
BRANCH  87  88
ATOM     88  S   UNL     1      13.287  -0.880  -2.835  1.00  0.00     0.124 S 
ATOM     89  O   UNL     1      13.820   0.254  -3.580  1.00  0.00    -0.237 OA
ATOM     90  O   UNL     1      14.223  -1.968  -2.570  1.00  0.00    -0.237 OA
ATOM     91  O   UNL     1      11.941  -1.300  -3.218  1.00  0.00    -0.744 OA
ENDBRANCH  87  88
ENDBRANCH  55  80
BRANCH  67  92
ATOM     92  C   UNL     1      14.405   2.538   7.374  1.00  0.00     0.058 A 
ATOM     93  C   UNL     1      13.409   3.450   6.979  1.00  0.00     0.135 A 
ATOM     94  C   UNL     1      15.470   3.043   8.135  1.00  0.00     0.135 A 
ATOM     95  F   UNL     1      12.316   3.027   6.331  1.00  0.00    -0.206 F 
ATOM     96  C   UNL     1      13.467   4.804   7.322  1.00  0.00     0.059 A 
ATOM     97  C   UNL     1      15.534   4.383   8.510  1.00  0.00     0.059 A 
ATOM     98  F   UNL     1      16.424   2.214   8.592  1.00  0.00    -0.206 F 
ATOM     99  C   UNL     1      14.527   5.260   8.103  1.00  0.00     0.060 A 
BRANCH  99 100
ATOM    100  S   UNL     1      14.546   6.954   8.733  1.00  0.00     0.124 S 
ATOM    101  O   UNL     1      15.468   7.619   7.817  1.00  0.00    -0.237 OA
ATOM    102  O   UNL     1      13.154   7.383   8.637  1.00  0.00    -0.237 OA
ATOM    103  O   UNL     1      15.038   6.789  10.099  1.00  0.00    -0.744 OA
ENDBRANCH  99 100
ENDBRANCH  67  92
ENDBRANCH  41  42
ENDBRANCH  34  36
ENDBRANCH  33  34
ENDBRANCH   1  33
TORSDOF 18
