REMARK SMILES C[N@H+]1[C@H]2CC[C@@H]1CN(c1nc3c(cc1C(=O)OCCOC(=O)c1ccc(-c4c5nc(c(-c6c(F)cc(S(=O)(=O)[O-])cc6F)c6ccc([nH]6)c(-c6c(F)cc(S(=O)(=O)[O-])cc6F)c6nc(c(-c7c(F)cc(S(=O)(=O)[O-])cc7F)c7ccc4[nH]7)C=C6)C=C5)cc1)CCC3)CC2
REMARK SMILES IDX 18 1 17 2 15 3 16 4 14 5 9 6 10 7 11 8 13 9 12 10 91 11
REMARK SMILES IDX 89 12 90 13 8 14 7 15 6 16 1 17 2 18 3 19 4 21 5 22 93 23
REMARK SMILES IDX 92 25 19 27 20 28 21 29 22 30 23 31 24 32 88 33 25 34 87 35
REMARK SMILES IDX 26 36 27 37 28 38 81 39 29 40 86 41 80 42 82 43 30 44 85 45
REMARK SMILES IDX 79 46 78 47 31 49 65 50 44 51 64 52 45 53 48 54 63 55 83 56
REMARK SMILES IDX 46 57 47 58 62 60 84 61 49 62 32 63 33 64 42 65 34 66 35 67
REMARK SMILES IDX 41 68 43 69 36 70 37 71 38 72 39 73 40 74 66 75 67 76 76 77
REMARK SMILES IDX 68 78 69 79 75 80 77 81 70 82 71 83 72 84 73 85 74 86 50 87
REMARK SMILES IDX 51 88 60 89 52 90 53 91 59 92 61 93 54 94 55 95 56 96 57 97
REMARK SMILES IDX 58 98
REMARK H PARENT 2 20 82 48 48 59
REMARK Flexibility Score: 90.00
ROOT
ATOM      1  C   UNL     1      -2.714  -0.105   3.932  1.00  0.00     0.275 C 
ENDROOT
BRANCH   1   2
ATOM      2  O   UNL     1      -1.800   0.957   4.282  1.00  0.00    -0.458 OA
BRANCH   2   3
ATOM      3  C   UNL     1      -2.305   2.213   4.265  1.00  0.00     0.342 C 
ATOM      4  O   UNL     1      -3.465   2.511   4.032  1.00  0.00    -0.246 OA
BRANCH   3   5
ATOM      5  C   UNL     1      -1.284   3.182   4.705  1.00  0.00     0.102 A 
ATOM      6  C   UNL     1      -0.312   3.775   3.859  1.00  0.00     0.143 A 
ATOM      7  N   UNL     1       0.529   4.721   4.372  1.00  0.00    -0.235 NA
ATOM      8  C   UNL     1       0.434   5.025   5.678  1.00  0.00     0.046 A 
ATOM      9  C   UNL     1      -1.345   3.517   6.074  1.00  0.00     0.025 A 
ATOM     10  C   UNL     1      -0.442   4.431   6.564  1.00  0.00    -0.025 A 
ATOM     11  C   UNL     1       1.185   6.143   6.344  1.00  0.00     0.057 C 
ATOM     12  C   UNL     1      -0.283   4.973   7.945  1.00  0.00     0.038 C 
ATOM     13  C   UNL     1       1.032   5.764   7.822  1.00  0.00     0.011 C 
BRANCH   6  14
ATOM     14  N   UNL     1      -0.114   3.473   2.524  1.00  0.00    -0.350 N 
BRANCH  14  15
ATOM     15  C   UNL     1       1.202   3.742   1.895  1.00  0.00     0.183 C 
BRANCH  15  16
ATOM     16  C   UNL     1       1.866   2.468   1.267  1.00  0.00     0.203 C 
ATOM     17  C   UNL     1       1.843   0.860  -0.588  1.00  0.00     0.333 C 
ATOM     18  N   UNL     1       1.042   1.786   0.225  1.00  0.00    -0.331 N 
ATOM     19  C   UNL     1       0.059   1.006   1.004  1.00  0.00     0.186 C 
ATOM     20  H   UNL     1       0.627   2.458  -0.420  1.00  0.00     0.348 HD
ATOM     21  C   UNL     1       0.763   0.639   2.323  1.00  0.00     0.071 C 
ATOM     22  C   UNL     1       2.078   1.401   2.331  1.00  0.00     0.073 C 
BRANCH  19  23
ATOM     23  C   UNL     1      -1.256   1.793   1.103  1.00  0.00     0.086 CG0
ATOM     24  G   UNL     1      -1.204   3.237   1.595  1.00  0.00     0.000 G0
ENDBRANCH  19  23
ENDBRANCH  15  16
ENDBRANCH  14  15
BRANCH  14  25
ATOM     25  C   UNL     1      -1.204   3.237   1.595  1.00  0.00     0.124 CG0
ATOM     26  G   UNL     1      -1.256   1.793   1.103  1.00  0.00     0.000 G0
ENDBRANCH  14  25
ENDBRANCH   6  14
ENDBRANCH   3   5
ENDBRANCH   2   3
ENDBRANCH   1   2
BRANCH   1  27
ATOM     27  C   UNL     1      -1.960  -1.437   3.935  1.00  0.00     0.275 C 
BRANCH  27  28
ATOM     28  O   UNL     1      -1.682  -1.771   5.301  1.00  0.00    -0.458 OA
BRANCH  28  29
ATOM     29  C   UNL     1      -0.473  -1.378   5.762  1.00  0.00     0.338 C 
ATOM     30  O   UNL     1       0.543  -1.149   5.137  1.00  0.00    -0.246 OA
BRANCH  29  31
ATOM     31  C   UNL     1      -0.670  -1.103   7.187  1.00  0.00     0.060 A 
ATOM     32  C   UNL     1      -1.341   0.072   7.541  1.00  0.00     0.016 A 
ATOM     33  C   UNL     1      -0.233  -2.003   8.151  1.00  0.00     0.016 A 
ATOM     34  C   UNL     1      -1.565   0.370   8.877  1.00  0.00     0.010 A 
ATOM     35  C   UNL     1      -0.504  -1.728   9.490  1.00  0.00     0.010 A 
ATOM     36  C   UNL     1      -1.161  -0.538   9.861  1.00  0.00    -0.014 A 
BRANCH  36  37
ATOM     37  C   UNL     1      -1.379  -0.236  11.292  1.00  0.00     0.031 A 
ATOM     38  C   UNL     1      -0.187  -0.004  12.172  1.00  0.00     0.074 A 
ATOM     39  C   UNL     1      -2.628  -0.194  11.791  1.00  0.00     0.049 A 
ATOM     40  N   UNL     1      -0.123   0.064  13.474  1.00  0.00    -0.248 NA
ATOM     41  C   UNL     1       1.110   0.157  11.493  1.00  0.00     0.031 C 
ATOM     42  C   UNL     1      -3.859  -0.346  11.011  1.00  0.00     0.029 A 
ATOM     43  N   UNL     1      -3.071  -0.019  13.077  1.00  0.00    -0.354 N 
ATOM     44  C   UNL     1       1.223   0.235  13.774  1.00  0.00     0.074 A 
ATOM     45  C   UNL     1       1.943   0.247  12.520  1.00  0.00     0.031 C 
ATOM     46  C   UNL     1      -4.916  -0.249  11.834  1.00  0.00     0.029 A 
ATOM     47  C   UNL     1      -4.437  -0.100  13.204  1.00  0.00     0.049 A 
ATOM     48  H   UNL     1      -2.467   0.147  13.837  1.00  0.00     0.167 HD
ATOM     49  C   UNL     1       1.798   0.371  14.991  1.00  0.00     0.037 A 
ATOM     50  C   UNL     1      -5.211  -0.095  14.307  1.00  0.00     0.037 A 
ATOM     51  C   UNL     1       1.055   0.382  16.224  1.00  0.00     0.049 A 
ATOM     52  C   UNL     1      -4.545   0.000  15.652  1.00  0.00     0.074 A 
ATOM     53  C   UNL     1       1.530   0.508  17.516  1.00  0.00     0.029 A 
ATOM     54  N   UNL     1      -0.327   0.273  16.313  1.00  0.00    -0.354 N 
ATOM     55  N   UNL     1      -3.267   0.107  15.931  1.00  0.00    -0.248 NA
ATOM     56  C   UNL     1      -5.419  -0.044  16.831  1.00  0.00     0.031 C 
ATOM     57  C   UNL     1       0.439   0.444  18.389  1.00  0.00     0.029 A 
ATOM     58  C   UNL     1      -0.721   0.319  17.638  1.00  0.00     0.049 A 
ATOM     59  H   UNL     1      -0.936   0.176  15.546  1.00  0.00     0.167 HD
ATOM     60  C   UNL     1      -3.183   0.153  17.317  1.00  0.00     0.074 A 
ATOM     61  C   UNL     1      -4.541   0.078  17.818  1.00  0.00     0.031 C 
ATOM     62  C   UNL     1      -2.083   0.244  18.105  1.00  0.00     0.037 A 
BRANCH  49  63
ATOM     63  C   UNL     1       3.294   0.497  15.047  1.00  0.00     0.058 A 
ATOM     64  C   UNL     1       3.952   1.665  14.634  1.00  0.00     0.135 A 
ATOM     65  C   UNL     1       4.079  -0.556  15.545  1.00  0.00     0.135 A 
ATOM     66  F   UNL     1       3.252   2.692  14.126  1.00  0.00    -0.206 F 
ATOM     67  C   UNL     1       5.337   1.779  14.695  1.00  0.00     0.059 A 
ATOM     68  C   UNL     1       5.464  -0.455  15.639  1.00  0.00     0.059 A 
ATOM     69  F   UNL     1       3.501  -1.699  15.946  1.00  0.00    -0.206 F 
ATOM     70  C   UNL     1       6.085   0.714  15.200  1.00  0.00     0.060 A 
BRANCH  70  71
ATOM     71  S   UNL     1       7.880   0.885  15.283  1.00  0.00     0.124 S 
ATOM     72  O   UNL     1       8.245   0.816  13.872  1.00  0.00    -0.237 OA
ATOM     73  O   UNL     1       8.039   2.191  15.915  1.00  0.00    -0.237 OA
ATOM     74  O   UNL     1       8.294  -0.255  16.094  1.00  0.00    -0.744 OA
ENDBRANCH  70  71
ENDBRANCH  49  63
BRANCH  50  75
ATOM     75  C   UNL     1      -6.688  -0.201  14.178  1.00  0.00     0.058 A 
ATOM     76  C   UNL     1      -7.513   0.898  14.452  1.00  0.00     0.135 A 
ATOM     77  C   UNL     1      -7.303  -1.385  13.737  1.00  0.00     0.135 A 
ATOM     78  F   UNL     1      -6.975   2.048  14.886  1.00  0.00    -0.206 F 
ATOM     79  C   UNL     1      -8.894   0.832  14.292  1.00  0.00     0.059 A 
ATOM     80  C   UNL     1      -8.679  -1.468  13.546  1.00  0.00     0.059 A 
ATOM     81  F   UNL     1      -6.557  -2.463  13.450  1.00  0.00    -0.206 F 
ATOM     82  C   UNL     1      -9.467  -0.354  13.830  1.00  0.00     0.060 A 
BRANCH  82  83
ATOM     83  S   UNL     1     -11.251  -0.402  13.554  1.00  0.00     0.124 S 
ATOM     84  O   UNL     1     -11.761  -0.405  14.920  1.00  0.00    -0.237 OA
ATOM     85  O   UNL     1     -11.475   0.822  12.791  1.00  0.00    -0.237 OA
ATOM     86  O   UNL     1     -11.442  -1.641  12.806  1.00  0.00    -0.744 OA
ENDBRANCH  82  83
ENDBRANCH  50  75
BRANCH  62  87
ATOM     87  C   UNL     1      -2.303   0.286  19.589  1.00  0.00     0.058 A 
ATOM     88  C   UNL     1      -2.624  -0.872  20.312  1.00  0.00     0.135 A 
ATOM     89  C   UNL     1      -2.114   1.480  20.302  1.00  0.00     0.135 A 
ATOM     90  F   UNL     1      -2.822  -2.036  19.673  1.00  0.00    -0.206 F 
ATOM     91  C   UNL     1      -2.760  -0.845  21.696  1.00  0.00     0.059 A 
ATOM     92  C   UNL     1      -2.222   1.525  21.687  1.00  0.00     0.059 A 
ATOM     93  F   UNL     1      -1.797   2.612  19.653  1.00  0.00    -0.206 F 
ATOM     94  C   UNL     1      -2.551   0.357  22.375  1.00  0.00     0.060 A 
BRANCH  94  95
ATOM     95  S   UNL     1      -2.680   0.364  24.175  1.00  0.00     0.124 S 
ATOM     96  O   UNL     1      -4.121   0.243  24.367  1.00  0.00    -0.237 OA
ATOM     97  O   UNL     1      -1.890  -0.805  24.548  1.00  0.00    -0.237 OA
ATOM     98  O   UNL     1      -2.102   1.651  24.552  1.00  0.00    -0.744 OA
ENDBRANCH  94  95
ENDBRANCH  62  87
ENDBRANCH  36  37
ENDBRANCH  29  31
ENDBRANCH  28  29
ENDBRANCH  27  28
ENDBRANCH   1  27
TORSDOF 15
