REMARK SMILES CC[C@@H](Oc1ccc(/C=C2\SC(=S)N(NC(=O)c3ccccc3O)C2=O)cc1)C(=O)OCCOC(=O)c1ccc(-c2c3nc(c(-c4c(F)cc(S(=O)(=O)[O-])cc4F)c4ccc([nH]4)c(-c4c(F)cc(S(=O)(=O)[O-])cc4F)c4nc(c(-c5c(F)cc(S(=O)(=O)[O-])cc5F)c5ccc2[nH]5)C=C4)C=C3)cc1
REMARK SMILES IDX 31 1 29 2 30 3 3 4 2 5 1 6 4 7 5 8 6 9 28 10 7 11 27 12 8 13
REMARK SMILES IDX 9 14 10 15 11 16 25 17 12 18 14 19 26 20 13 21 15 22 16 23
REMARK SMILES IDX 17 25 18 26 19 27 23 28 20 29 22 30 21 31 24 32 32 34 33 35
REMARK SMILES IDX 34 36 35 37 36 38 37 39 38 40 102 41 39 42 101 43 40 44
REMARK SMILES IDX 41 45 42 46 95 47 43 48 100 49 94 50 96 51 44 52 99 53 93 54
REMARK SMILES IDX 92 55 45 57 79 58 58 59 78 60 59 61 62 62 77 63 97 64 60 65
REMARK SMILES IDX 61 66 76 68 98 69 63 70 46 71 47 72 56 73 48 74 49 75 55 76
REMARK SMILES IDX 57 77 50 78 51 79 52 80 53 81 54 82 80 83 81 84 90 85 82 86
REMARK SMILES IDX 83 87 89 88 91 89 84 90 85 91 86 92 87 93 88 94 64 95 65 96
REMARK SMILES IDX 74 97 66 98 67 99 73 100 75 101 68 102 69 103 70 104 71 105
REMARK SMILES IDX 72 106
REMARK H PARENT 15 24 24 33 96 56 62 67
REMARK Flexibility Score: inf
ROOT
ATOM      1  O   UNL     1      -0.928   2.730   2.802  1.00  0.00    -0.459 OA
ENDROOT
BRANCH   1   2
ATOM      2  C   UNL     1       0.181   3.090   2.096  1.00  0.00     0.347 C 
ATOM      3  O   UNL     1       0.873   4.073   2.339  1.00  0.00    -0.248 OA
BRANCH   2   4
ATOM      4  C   UNL     1       0.474   2.132   0.943  1.00  0.00     0.282 C 
BRANCH   4   5
ATOM      5  C   UNL     1       0.255   0.660   1.343  1.00  0.00     0.054 C 
ATOM      6  C   UNL     1       1.401  -0.245   0.897  1.00  0.00     0.008 C 
ENDBRANCH   4   5
BRANCH   4   7
ATOM      7  O   UNL     1      -0.410   2.533  -0.117  1.00  0.00    -0.479 OA
BRANCH   7   8
ATOM      8  C   UNL     1       0.117   2.251  -1.344  1.00  0.00     0.120 A 
ATOM      9  C   UNL     1       0.816   3.225  -2.049  1.00  0.00     0.047 A 
ATOM     10  C   UNL     1      -0.122   1.008  -1.913  1.00  0.00     0.047 A 
ATOM     11  C   UNL     1       1.242   2.957  -3.356  1.00  0.00     0.012 A 
ATOM     12  C   UNL     1       0.360   0.725  -3.186  1.00  0.00     0.012 A 
ATOM     13  C   UNL     1       0.970   1.719  -3.959  1.00  0.00    -0.024 A 
BRANCH  13  14
ATOM     14  C   UNL     1       1.314   1.527  -5.381  1.00  0.00     0.029 C 
ATOM     15  C   UNL     1       0.646   0.807  -6.297  1.00  0.00     0.082 C 
ATOM     16  S   UNL     1      -0.753  -0.184  -6.094  1.00  0.00    -0.052 SA
ATOM     17  C   UNL     1       1.083   0.746  -7.722  1.00  0.00     0.285 C 
ATOM     18  C   UNL     1      -0.502  -1.008  -7.616  1.00  0.00     0.168 C 
ATOM     19  N   UNL     1       0.517  -0.382  -8.305  1.00  0.00    -0.198 N 
ATOM     20  O   UNL     1       1.762   1.605  -8.264  1.00  0.00    -0.266 OA
ATOM     21  S   UNL     1      -1.418  -2.311  -8.117  1.00  0.00    -0.050 S 
BRANCH  19  22
ATOM     22  N   UNL     1       0.815  -0.775  -9.617  1.00  0.00    -0.254 N 
ATOM     23  C   UNL     1       2.063  -1.048 -10.130  1.00  0.00     0.274 C 
ATOM     24  H   UNL     1       0.054  -0.865 -10.235  1.00  0.00     0.192 HD
ATOM     25  O   UNL     1       2.167  -1.557 -11.245  1.00  0.00    -0.267 OA
BRANCH  23  26
ATOM     26  C   UNL     1       3.290  -0.688  -9.398  1.00  0.00     0.083 A 
ATOM     27  C   UNL     1       4.132   0.244 -10.021  1.00  0.00     0.018 A 
ATOM     28  C   UNL     1       3.612  -1.180  -8.131  1.00  0.00     0.128 A 
ATOM     29  C   UNL     1       5.260   0.720  -9.356  1.00  0.00     0.001 A 
ATOM     30  C   UNL     1       4.733  -0.692  -7.461  1.00  0.00     0.047 A 
ATOM     31  C   UNL     1       5.554   0.259  -8.073  1.00  0.00     0.004 A 
BRANCH  28  32
ATOM     32  O   UNL     1       2.864  -2.122  -7.482  1.00  0.00    -0.507 OA
ATOM     33  H   UNL     1       2.101  -2.479  -7.893  1.00  0.00     0.293 HD
ENDBRANCH  28  32
ENDBRANCH  23  26
ENDBRANCH  19  22
ENDBRANCH  13  14
ENDBRANCH   7   8
ENDBRANCH   4   7
ENDBRANCH   2   4
ENDBRANCH   1   2
BRANCH   1  34
ATOM     34  C   UNL     1      -1.219   3.522   3.968  1.00  0.00     0.274 C 
BRANCH  34  35
ATOM     35  C   UNL     1      -0.644   2.874   5.229  1.00  0.00     0.275 C 
BRANCH  35  36
ATOM     36  O   UNL     1       0.796   2.883   5.202  1.00  0.00    -0.458 OA
BRANCH  36  37
ATOM     37  C   UNL     1       1.388   1.690   4.975  1.00  0.00     0.338 C 
ATOM     38  O   UNL     1       0.845   0.604   4.834  1.00  0.00    -0.246 OA
BRANCH  37  39
ATOM     39  C   UNL     1       2.835   1.881   4.828  1.00  0.00     0.060 A 
ATOM     40  C   UNL     1       3.382   1.946   3.544  1.00  0.00     0.016 A 
ATOM     41  C   UNL     1       3.659   1.894   5.952  1.00  0.00     0.016 A 
ATOM     42  C   UNL     1       4.763   2.003   3.374  1.00  0.00     0.010 A 
ATOM     43  C   UNL     1       5.044   1.972   5.782  1.00  0.00     0.010 A 
ATOM     44  C   UNL     1       5.605   2.010   4.493  1.00  0.00    -0.014 A 
BRANCH  44  45
ATOM     45  C   UNL     1       7.076   2.015   4.317  1.00  0.00     0.031 A 
ATOM     46  C   UNL     1       7.866   0.770   4.605  1.00  0.00     0.074 A 
ATOM     47  C   UNL     1       7.698   3.136   3.907  1.00  0.00     0.049 A 
ATOM     48  N   UNL     1       9.162   0.600   4.622  1.00  0.00    -0.248 NA
ATOM     49  C   UNL     1       7.094  -0.443   4.918  1.00  0.00     0.031 C 
ATOM     50  C   UNL     1       7.033   4.393   3.561  1.00  0.00     0.029 A 
ATOM     51  N   UNL     1       9.031   3.401   3.724  1.00  0.00    -0.354 N 
ATOM     52  C   UNL     1       9.365  -0.729   4.972  1.00  0.00     0.074 A 
ATOM     53  C   UNL     1       8.057  -1.319   5.168  1.00  0.00     0.031 C 
ATOM     54  C   UNL     1       7.962   5.298   3.213  1.00  0.00     0.029 A 
ATOM     55  C   UNL     1       9.287   4.700   3.355  1.00  0.00     0.049 A 
ATOM     56  H   UNL     1       9.738   2.726   3.845  1.00  0.00     0.167 HD
ATOM     57  C   UNL     1      10.536  -1.394   5.117  1.00  0.00     0.037 A 
ATOM     58  C   UNL     1      10.458   5.343   3.182  1.00  0.00     0.037 A 
ATOM     59  C   UNL     1      11.832  -0.805   4.905  1.00  0.00     0.049 A 
ATOM     60  C   UNL     1      11.745   4.595   3.393  1.00  0.00     0.074 A 
ATOM     61  C   UNL     1      13.077  -1.401   5.007  1.00  0.00     0.029 A 
ATOM     62  N   UNL     1      12.051   0.518   4.547  1.00  0.00    -0.354 N 
ATOM     63  N   UNL     1      11.923   3.340   3.729  1.00  0.00    -0.248 NA
ATOM     64  C   UNL     1      12.991   5.352   3.209  1.00  0.00     0.031 C 
ATOM     65  C   UNL     1      14.050  -0.430   4.744  1.00  0.00     0.029 A 
ATOM     66  C   UNL     1      13.410   0.761   4.441  1.00  0.00     0.049 A 
ATOM     67  H   UNL     1      11.344   1.185   4.391  1.00  0.00     0.167 HD
ATOM     68  C   UNL     1      13.299   3.151   3.779  1.00  0.00     0.074 A 
ATOM     69  C   UNL     1      13.908   4.419   3.429  1.00  0.00     0.031 C 
ATOM     70  C   UNL     1      13.997   2.030   4.086  1.00  0.00     0.037 A 
BRANCH  57  71
ATOM     71  C   UNL     1      10.468  -2.830   5.553  1.00  0.00     0.058 A 
ATOM     72  C   UNL     1      10.067  -3.850   4.678  1.00  0.00     0.135 A 
ATOM     73  C   UNL     1      10.832  -3.192   6.860  1.00  0.00     0.135 A 
ATOM     74  F   UNL     1       9.691  -3.555   3.423  1.00  0.00    -0.206 F 
ATOM     75  C   UNL     1      10.006  -5.178   5.089  1.00  0.00     0.059 A 
ATOM     76  C   UNL     1      10.799  -4.516   7.287  1.00  0.00     0.059 A 
ATOM     77  F   UNL     1      11.220  -2.254   7.738  1.00  0.00    -0.206 F 
ATOM     78  C   UNL     1      10.370  -5.501   6.398  1.00  0.00     0.060 A 
BRANCH  78  79
ATOM     79  S   UNL     1      10.282  -7.226   6.923  1.00  0.00     0.124 S 
ATOM     80  O   UNL     1       8.844  -7.401   7.105  1.00  0.00    -0.237 OA
ATOM     81  O   UNL     1      10.866  -7.931   5.786  1.00  0.00    -0.237 OA
ATOM     82  O   UNL     1      11.077  -7.250   8.146  1.00  0.00    -0.744 OA
ENDBRANCH  78  79
ENDBRANCH  57  71
BRANCH  58  83
ATOM     83  C   UNL     1      10.463   6.780   2.804  1.00  0.00     0.058 A 
ATOM     84  C   UNL     1      10.843   7.186   1.518  1.00  0.00     0.135 A 
ATOM     85  C   UNL     1      10.073   7.772   3.717  1.00  0.00     0.135 A 
ATOM     86  F   UNL     1      11.233   6.273   0.614  1.00  0.00    -0.206 F 
ATOM     87  C   UNL     1      10.844   8.527   1.149  1.00  0.00     0.059 A 
ATOM     88  C   UNL     1      10.045   9.117   3.366  1.00  0.00     0.059 A 
ATOM     89  F   UNL     1       9.690   7.431   4.958  1.00  0.00    -0.206 F 
ATOM     90  C   UNL     1      10.441   9.486   2.080  1.00  0.00     0.060 A 
BRANCH  90  91
ATOM     91  S   UNL     1      10.390  11.220   1.577  1.00  0.00     0.124 S 
ATOM     92  O   UNL     1      11.802  11.579   1.621  1.00  0.00    -0.237 OA
ATOM     93  O   UNL     1       9.792  11.139   0.248  1.00  0.00    -0.237 OA
ATOM     94  O   UNL     1       9.547  11.838   2.597  1.00  0.00    -0.744 OA
ENDBRANCH  90  91
ENDBRANCH  58  83
BRANCH  70  95
ATOM     95  C   UNL     1      15.495   2.115   4.029  1.00  0.00     0.058 A 
ATOM     96  C   UNL     1      16.233   2.751   5.038  1.00  0.00     0.135 A 
ATOM     97  C   UNL     1      16.201   1.512   2.976  1.00  0.00     0.135 A 
ATOM     98  F   UNL     1      15.603   3.348   6.062  1.00  0.00    -0.206 F 
ATOM     99  C   UNL     1      17.623   2.804   4.996  1.00  0.00     0.059 A 
ATOM    100  C   UNL     1      17.591   1.535   2.924  1.00  0.00     0.059 A 
ATOM    101  F   UNL     1      15.540   0.884   1.991  1.00  0.00    -0.206 F 
ATOM    102  C   UNL     1      18.293   2.193   3.934  1.00  0.00     0.060 A 
BRANCH 102 103
ATOM    103  S   UNL     1      20.098   2.237   3.903  1.00  0.00     0.124 S 
ATOM    104  O   UNL     1      20.350   3.597   3.439  1.00  0.00    -0.237 OA
ATOM    105  O   UNL     1      20.444   1.968   5.296  1.00  0.00    -0.237 OA
ATOM    106  O   UNL     1      20.446   1.177   2.962  1.00  0.00    -0.744 OA
ENDBRANCH 102 103
ENDBRANCH  70  95
ENDBRANCH  44  45
ENDBRANCH  37  39
ENDBRANCH  36  37
ENDBRANCH  35  36
ENDBRANCH  34  35
ENDBRANCH   1  34
TORSDOF 21
