REMARK SMILES COC(=O)CCN(C)C(=O)NCc1ccc(C(=O)OCCOC(=O)c2ccc(-c3c4nc(c(-c5c(F)cc(S(=O)(=O)[O-])cc5F)c5ccc([nH]5)c(-c5c(F)cc(S(=O)(=O)[O-])cc5F)c5nc(c(-c6c(F)cc(S(=O)(=O)[O-])cc6F)c6ccc3[nH]6)C=C5)C=C4)cc2)o1
REMARK SMILES IDX 17 1 18 2 16 3 13 4 14 5 91 6 15 7 12 8 11 9 9 10 10 11 7 13
REMARK SMILES IDX 8 14 6 15 5 16 3 17 4 18 2 19 1 20 19 21 20 22 21 23 22 24
REMARK SMILES IDX 23 25 24 26 25 27 26 28 90 29 27 30 89 31 28 32 29 33 30 34
REMARK SMILES IDX 83 35 31 36 88 37 82 38 84 39 32 40 87 41 81 42 80 43 33 45
REMARK SMILES IDX 67 46 46 47 66 48 47 49 50 50 65 51 85 52 48 53 49 54 64 56
REMARK SMILES IDX 86 57 51 58 34 59 35 60 44 61 36 62 37 63 43 64 45 65 38 66
REMARK SMILES IDX 39 67 40 68 41 69 42 70 68 71 69 72 78 73 70 74 71 75 77 76
REMARK SMILES IDX 79 77 72 78 73 79 74 80 75 81 76 82 52 83 53 84 62 85 54 86
REMARK SMILES IDX 55 87 61 88 63 89 56 90 57 91 58 92 59 93 60 94
REMARK H PARENT 11 12 84 44 50 55
REMARK Flexibility Score: inf
ROOT
ATOM      1  C   UNL     1       1.546  -7.019   5.503  1.00  0.00     0.374 C 
ATOM      2  O   UNL     1       1.699  -7.918   4.696  1.00  0.00    -0.242 OA
ENDROOT
BRANCH   1   3
ATOM      3  C   UNL     1       1.217  -5.646   5.188  1.00  0.00     0.211 A 
ATOM      4  C   UNL     1       0.375  -4.094   3.865  1.00  0.00     0.124 A 
ATOM      5  C   UNL     1       0.610  -3.482   5.077  1.00  0.00     0.048 A 
ATOM      6  O   UNL     1       0.798  -5.386   3.912  1.00  0.00    -0.452 OA
ATOM      7  C   UNL     1       1.149  -4.481   5.928  1.00  0.00     0.058 A 
BRANCH   4   8
ATOM      8  C   UNL     1      -0.223  -3.659   2.577  1.00  0.00     0.193 C 
BRANCH   8   9
ATOM      9  N   UNL     1       0.844  -3.139   1.759  1.00  0.00    -0.331 N 
ATOM     10  C   UNL     1       1.218  -3.204   0.476  1.00  0.00     0.317 C 
ATOM     11  O   UNL     1       2.199  -2.504   0.197  1.00  0.00    -0.249 OA
ATOM     12  H   UNL     1       1.466  -2.587   2.287  1.00  0.00     0.165 HD
BRANCH  10  13
ATOM     13  N   UNL     1       0.564  -3.938  -0.472  1.00  0.00    -0.327 N 
ATOM     14  C   UNL     1      -0.539  -4.860  -0.263  1.00  0.00     0.148 C 
BRANCH  13  15
ATOM     15  C   UNL     1       0.986  -3.757  -1.871  1.00  0.00     0.132 C 
BRANCH  15  16
ATOM     16  C   UNL     1       0.180  -2.683  -2.591  1.00  0.00     0.144 C 
BRANCH  16  17
ATOM     17  C   UNL     1       0.679  -1.308  -2.233  1.00  0.00     0.307 C 
ATOM     18  O   UNL     1       1.566  -0.720  -2.840  1.00  0.00    -0.252 OA
BRANCH  17  19
ATOM     19  O   UNL     1       0.015  -0.825  -1.146  1.00  0.00    -0.469 OA
ATOM     20  C   UNL     1       0.581   0.364  -0.598  1.00  0.00     0.282 C 
ENDBRANCH  17  19
ENDBRANCH  16  17
ENDBRANCH  15  16
ENDBRANCH  13  15
ENDBRANCH  10  13
ENDBRANCH   8   9
ENDBRANCH   4   8
ENDBRANCH   1   3
BRANCH   1  21
ATOM     21  O   UNL     1       1.553  -7.191   6.861  1.00  0.00    -0.456 OA
BRANCH  21  22
ATOM     22  C   UNL     1       1.541  -8.559   7.305  1.00  0.00     0.275 C 
BRANCH  22  23
ATOM     23  C   UNL     1       0.115  -9.032   7.611  1.00  0.00     0.275 C 
BRANCH  23  24
ATOM     24  O   UNL     1      -0.656  -9.259   6.414  1.00  0.00    -0.458 OA
BRANCH  24  25
ATOM     25  C   UNL     1      -1.401  -8.210   5.990  1.00  0.00     0.338 C 
ATOM     26  O   UNL     1      -1.486  -7.115   6.522  1.00  0.00    -0.246 OA
BRANCH  25  27
ATOM     27  C   UNL     1      -2.029  -8.527   4.693  1.00  0.00     0.060 A 
ATOM     28  C   UNL     1      -1.783  -7.666   3.621  1.00  0.00     0.016 A 
ATOM     29  C   UNL     1      -2.897  -9.610   4.539  1.00  0.00     0.016 A 
ATOM     30  C   UNL     1      -2.398  -7.880   2.390  1.00  0.00     0.010 A 
ATOM     31  C   UNL     1      -3.519  -9.823   3.302  1.00  0.00     0.010 A 
ATOM     32  C   UNL     1      -3.279  -8.955   2.223  1.00  0.00    -0.014 A 
BRANCH  32  33
ATOM     33  C   UNL     1      -3.967  -9.134   0.922  1.00  0.00     0.031 A 
ATOM     34  C   UNL     1      -5.404  -8.722   0.769  1.00  0.00     0.074 A 
ATOM     35  C   UNL     1      -3.289  -9.623  -0.133  1.00  0.00     0.049 A 
ATOM     36  N   UNL     1      -6.184  -8.821  -0.276  1.00  0.00    -0.248 NA
ATOM     37  C   UNL     1      -6.043  -8.111   1.944  1.00  0.00     0.031 C 
ATOM     38  C   UNL     1      -1.879 -10.015  -0.121  1.00  0.00     0.029 A 
ATOM     39  N   UNL     1      -3.695  -9.870  -1.421  1.00  0.00    -0.354 N 
ATOM     40  C   UNL     1      -7.410  -8.298   0.115  1.00  0.00     0.074 A 
ATOM     41  C   UNL     1      -7.273  -7.893   1.499  1.00  0.00     0.031 C 
ATOM     42  C   UNL     1      -1.537 -10.453  -1.344  1.00  0.00     0.029 A 
ATOM     43  C   UNL     1      -2.709 -10.406  -2.214  1.00  0.00     0.049 A 
ATOM     44  H   UNL     1      -4.605  -9.681  -1.745  1.00  0.00     0.167 HD
ATOM     45  C   UNL     1      -8.544  -8.164  -0.614  1.00  0.00     0.037 A 
ATOM     46  C   UNL     1      -2.752 -10.831  -3.492  1.00  0.00     0.037 A 
ATOM     47  C   UNL     1      -8.678  -8.565  -1.990  1.00  0.00     0.049 A 
ATOM     48  C   UNL     1      -4.039 -10.727  -4.263  1.00  0.00     0.074 A 
ATOM     49  C   UNL     1      -9.788  -8.469  -2.812  1.00  0.00     0.029 A 
ATOM     50  N   UNL     1      -7.670  -9.141  -2.748  1.00  0.00    -0.354 N 
ATOM     51  N   UNL     1      -5.193 -10.237  -3.876  1.00  0.00    -0.248 NA
ATOM     52  C   UNL     1      -4.034 -11.241  -5.640  1.00  0.00     0.031 C 
ATOM     53  C   UNL     1      -9.459  -9.014  -4.059  1.00  0.00     0.029 A 
ATOM     54  C   UNL     1      -8.135  -9.420  -4.023  1.00  0.00     0.049 A 
ATOM     55  H   UNL     1      -6.757  -9.325  -2.427  1.00  0.00     0.167 HD
ATOM     56  C   UNL     1      -6.046 -10.371  -4.965  1.00  0.00     0.074 A 
ATOM     57  C   UNL     1      -5.274 -10.979  -6.030  1.00  0.00     0.031 C 
ATOM     58  C   UNL     1      -7.353 -10.024  -5.072  1.00  0.00     0.037 A 
BRANCH  45  59
ATOM     59  C   UNL     1      -9.741  -7.581   0.080  1.00  0.00     0.058 A 
ATOM     60  C   UNL     1      -9.840  -6.206   0.344  1.00  0.00     0.135 A 
ATOM     61  C   UNL     1     -10.805  -8.405   0.476  1.00  0.00     0.135 A 
ATOM     62  F   UNL     1      -8.840  -5.378  -0.000  1.00  0.00    -0.206 F 
ATOM     63  C   UNL     1     -10.942  -5.672   1.003  1.00  0.00     0.059 A 
ATOM     64  C   UNL     1     -11.926  -7.890   1.120  1.00  0.00     0.059 A 
ATOM     65  F   UNL     1     -10.757  -9.727   0.249  1.00  0.00    -0.206 F 
ATOM     66  C   UNL     1     -11.977  -6.524   1.395  1.00  0.00     0.060 A 
BRANCH  66  67
ATOM     67  S   UNL     1     -13.393  -5.824   2.269  1.00  0.00     0.124 S 
ATOM     68  O   UNL     1     -12.846  -5.650   3.611  1.00  0.00    -0.237 OA
ATOM     69  O   UNL     1     -13.649  -4.595   1.525  1.00  0.00    -0.237 OA
ATOM     70  O   UNL     1     -14.416  -6.857   2.137  1.00  0.00    -0.744 OA
ENDBRANCH  66  67
ENDBRANCH  45  59
BRANCH  46  71
ATOM     71  C   UNL     1      -1.536 -11.411  -4.117  1.00  0.00     0.058 A 
ATOM     72  C   UNL     1      -0.814 -10.703  -5.086  1.00  0.00     0.135 A 
ATOM     73  C   UNL     1      -1.065 -12.678  -3.741  1.00  0.00     0.135 A 
ATOM     74  F   UNL     1      -1.232  -9.491  -5.482  1.00  0.00    -0.206 F 
ATOM     75  C   UNL     1       0.334 -11.232  -5.667  1.00  0.00     0.059 A 
ATOM     76  C   UNL     1       0.090 -13.220  -4.293  1.00  0.00     0.059 A 
ATOM     77  F   UNL     1      -1.720 -13.390  -2.810  1.00  0.00    -0.206 F 
ATOM     78  C   UNL     1       0.779 -12.492  -5.262  1.00  0.00     0.060 A 
BRANCH  78  79
ATOM     79  S   UNL     1       2.303 -13.150  -5.974  1.00  0.00     0.124 S 
ATOM     80  O   UNL     1       1.837 -13.629  -7.269  1.00  0.00    -0.237 OA
ATOM     81  O   UNL     1       3.167 -11.974  -6.001  1.00  0.00    -0.237 OA
ATOM     82  O   UNL     1       2.696 -14.184  -5.020  1.00  0.00    -0.744 OA
ENDBRANCH  78  79
ENDBRANCH  46  71
BRANCH  58  83
ATOM     83  C   UNL     1      -8.025 -10.273  -6.391  1.00  0.00     0.058 A 
ATOM     84  C   UNL     1      -8.446 -11.558  -6.766  1.00  0.00     0.135 A 
ATOM     85  C   UNL     1      -8.298  -9.209  -7.264  1.00  0.00     0.135 A 
ATOM     86  F   UNL     1      -8.202 -12.608  -5.967  1.00  0.00    -0.206 F 
ATOM     87  C   UNL     1      -9.104 -11.782  -7.971  1.00  0.00     0.059 A 
ATOM     88  C   UNL     1      -8.970  -9.407  -8.466  1.00  0.00     0.059 A 
ATOM     89  F   UNL     1      -7.921  -7.960  -6.946  1.00  0.00    -0.206 F 
ATOM     90  C   UNL     1      -9.361 -10.700  -8.815  1.00  0.00     0.060 A 
BRANCH  90  91
ATOM     91  S   UNL     1     -10.252 -10.992 -10.359  1.00  0.00     0.124 S 
ATOM     92  O   UNL     1      -9.195 -11.527 -11.210  1.00  0.00    -0.237 OA
ATOM     93  O   UNL     1     -11.283 -11.942  -9.955  1.00  0.00    -0.237 OA
ATOM     94  O   UNL     1     -10.741  -9.665 -10.722  1.00  0.00    -0.744 OA
ENDBRANCH  90  91
ENDBRANCH  58  83
ENDBRANCH  32  33
ENDBRANCH  25  27
ENDBRANCH  24  25
ENDBRANCH  23  24
ENDBRANCH  22  23
ENDBRANCH  21  22
ENDBRANCH   1  21
TORSDOF 21
