REMARK SMILES Cc1ccccc1C(=O)Nc1ccc(OCC(=O)OCCOC(=O)c2ccc(-c3c4nc(c(-c5c(F)cc(S(=O)(=O)[O-])cc5F)c5ccc([nH]5)c(-c5c(F)cc(S(=O)(=O)[O-])cc5F)c5nc(c(-c6c(F)cc(S(=O)(=O)[O-])cc6F)c6ccc3[nH]6)C=C5)C=C4)cc2)c(-c2nc3ccccc3s2)c1
REMARK SMILES IDX 20 1 19 2 17 3 18 4 16 5 15 6 14 7 11 8 12 9 101 10 13 11
REMARK SMILES IDX 91 12 10 13 8 14 9 15 7 17 1 18 2 19 3 20 4 21 6 22 5 23
REMARK SMILES IDX 92 24 93 25 100 26 94 27 99 28 95 29 98 30 96 31 97 32 21 33
REMARK SMILES IDX 22 34 23 35 24 36 25 37 26 38 90 39 27 40 89 41 28 42 29 43
REMARK SMILES IDX 30 44 83 45 31 46 88 47 82 48 84 49 32 50 87 51 81 52 80 53
REMARK SMILES IDX 33 55 67 56 46 57 66 58 47 59 50 60 65 61 85 62 48 63 49 64
REMARK SMILES IDX 64 66 86 67 51 68 34 69 35 70 44 71 36 72 37 73 43 74 45 75
REMARK SMILES IDX 38 76 39 77 40 78 41 79 42 80 68 81 69 82 78 83 70 84 71 85
REMARK SMILES IDX 77 86 79 87 72 88 73 89 74 90 75 91 76 92 52 93 53 94 62 95
REMARK SMILES IDX 54 96 55 97 61 98 63 99 56 100 57 101 58 102 59 103 60 104
REMARK H PARENT 10 16 84 54 50 65
REMARK Flexibility Score: inf
ROOT
ATOM      1  C   UNL     1       0.924  -5.075   1.218  1.00  0.00     0.274 C 
ENDROOT
BRANCH   1   2
ATOM      2  O   UNL     1       2.342  -5.181   0.999  1.00  0.00    -0.460 OA
BRANCH   2   3
ATOM      3  C   UNL     1       2.842  -4.617  -0.251  1.00  0.00     0.344 C 
ATOM      4  O   UNL     1       1.884  -4.763  -1.065  1.00  0.00    -0.248 OA
BRANCH   3   5
ATOM      5  C   UNL     1       4.779  -3.635  -0.471  1.00  0.00     0.352 C 
BRANCH   5   6
ATOM      6  O   UNL     1       5.410  -2.413  -1.353  1.00  0.00    -0.481 OA
BRANCH   6   7
ATOM      7  C   UNL     1       5.011  -1.085  -1.222  1.00  0.00     0.130 A 
ATOM      8  C   UNL     1       3.618   1.318  -0.630  1.00  0.00     0.042 A 
ATOM      9  C   UNL     1       4.642   0.860   0.205  1.00  0.00     0.030 A 
ATOM     10  C   UNL     1       3.502   0.719  -1.884  1.00  0.00     0.041 A 
ATOM     11  C   UNL     1       5.277  -0.376  -0.045  1.00  0.00     0.049 A 
ATOM     12  C   UNL     1       4.285  -0.424  -2.253  1.00  0.00     0.055 A 
BRANCH   8  13
ATOM     13  N   UNL     1       2.854   2.437  -0.218  1.00  0.00    -0.322 N 
ATOM     14  C   UNL     1       1.488   2.700  -0.143  1.00  0.00     0.255 C 
ATOM     15  O   UNL     1       1.140   3.888  -0.127  1.00  0.00    -0.269 OA
ATOM     16  H   UNL     1       3.409   3.193   0.082  1.00  0.00     0.170 HD
BRANCH  14  17
ATOM     17  C   UNL     1       0.412   1.692   0.126  1.00  0.00     0.043 A 
ATOM     18  C   UNL     1       1.649   0.549   2.056  1.00  0.00     0.045 C 
ATOM     19  C   UNL     1       0.466   0.730   1.154  1.00  0.00    -0.038 A 
ATOM     20  C   UNL     1      -0.603  -0.187   1.286  1.00  0.00     0.004 A 
ATOM     21  C   UNL     1      -1.727  -0.127   0.470  1.00  0.00     0.000 A 
ATOM     22  C   UNL     1      -0.812   1.851  -0.561  1.00  0.00     0.014 A 
ATOM     23  C   UNL     1      -1.866   0.940  -0.403  1.00  0.00     0.001 A 
ENDBRANCH  14  17
ENDBRANCH   8  13
BRANCH  12  24
ATOM     24  C   UNL     1       4.131  -0.899  -3.659  1.00  0.00     0.128 A 
ATOM     25  N   UNL     1       3.276  -0.369  -4.515  1.00  0.00    -0.236 NA
ATOM     26  S   UNL     1       5.056  -2.174  -4.386  1.00  0.00    -0.114 S 
ATOM     27  C   UNL     1       2.909  -1.334  -5.433  1.00  0.00     0.082 A 
ATOM     28  C   UNL     1       3.769  -2.429  -5.515  1.00  0.00     0.055 A 
ATOM     29  C   UNL     1       1.726  -1.337  -6.201  1.00  0.00     0.030 A 
ATOM     30  C   UNL     1       3.491  -3.530  -6.348  1.00  0.00     0.021 A 
ATOM     31  C   UNL     1       1.393  -2.462  -6.961  1.00  0.00     0.002 A 
ATOM     32  C   UNL     1       2.268  -3.542  -7.037  1.00  0.00     0.002 A 
ENDBRANCH  12  24
ENDBRANCH   6   7
ENDBRANCH   5   6
ENDBRANCH   3   5
ENDBRANCH   2   3
ENDBRANCH   1   2
BRANCH   1  33
ATOM     33  C   UNL     1       0.576  -3.623   1.540  1.00  0.00     0.275 C 
BRANCH  33  34
ATOM     34  O   UNL     1       0.661  -2.700   0.435  1.00  0.00    -0.458 OA
BRANCH  34  35
ATOM     35  C   UNL     1       1.721  -1.963   0.045  1.00  0.00     0.338 C 
ATOM     36  O   UNL     1       1.646  -0.905  -0.550  1.00  0.00    -0.246 OA
BRANCH  35  37
ATOM     37  C   UNL     1       3.017  -2.610  -0.019  1.00  0.00     0.060 A 
ATOM     38  C   UNL     1       3.217  -3.200  -1.721  1.00  0.00     0.016 A 
ATOM     39  C   UNL     1       3.731  -3.523   1.342  1.00  0.00     0.016 A 
ATOM     40  C   UNL     1       3.973  -4.787  -2.054  1.00  0.00     0.010 A 
ATOM     41  C   UNL     1       4.500  -5.131   0.983  1.00  0.00     0.010 A 
ATOM     42  C   UNL     1       4.475  -5.800  -0.696  1.00  0.00    -0.014 A 
BRANCH  42  43
ATOM     43  C   UNL     1       4.102  -7.227  -0.753  1.00  0.00     0.031 A 
ATOM     44  C   UNL     1       5.087  -8.133  -0.177  1.00  0.00     0.074 A 
ATOM     45  C   UNL     1       2.852  -7.661  -1.107  1.00  0.00     0.049 A 
ATOM     46  N   UNL     1       5.058  -9.397  -0.359  1.00  0.00    -0.248 NA
ATOM     47  C   UNL     1       6.266  -7.700   0.571  1.00  0.00     0.031 C 
ATOM     48  C   UNL     1       2.158  -8.885  -0.697  1.00  0.00     0.029 A 
ATOM     49  N   UNL     1       1.916  -7.087  -1.966  1.00  0.00    -0.354 N 
ATOM     50  C   UNL     1       5.861  -9.939   0.609  1.00  0.00     0.074 A 
ATOM     51  C   UNL     1       6.747  -8.875   0.986  1.00  0.00     0.031 C 
ATOM     52  C   UNL     1       1.049  -9.066  -1.440  1.00  0.00     0.029 A 
ATOM     53  C   UNL     1       1.001  -8.030  -2.452  1.00  0.00     0.049 A 
ATOM     54  H   UNL     1       1.899  -6.132  -2.203  1.00  0.00     0.167 HD
ATOM     55  C   UNL     1       5.496 -11.158   1.087  1.00  0.00     0.037 A 
ATOM     56  C   UNL     1       0.899  -8.269  -3.797  1.00  0.00     0.037 A 
ATOM     57  C   UNL     1       4.449 -11.740   0.224  1.00  0.00     0.049 A 
ATOM     58  C   UNL     1       1.635  -9.520  -4.213  1.00  0.00     0.074 A 
ATOM     59  C   UNL     1       3.103 -12.028   0.357  1.00  0.00     0.029 A 
ATOM     60  N   UNL     1       4.697 -11.786  -1.143  1.00  0.00    -0.354 N 
ATOM     61  N   UNL     1       2.275 -10.298  -3.382  1.00  0.00    -0.248 NA
ATOM     62  C   UNL     1       1.726 -10.002  -5.580  1.00  0.00     0.031 C 
ATOM     63  C   UNL     1       2.564 -12.238  -0.955  1.00  0.00     0.029 A 
ATOM     64  C   UNL     1       3.585 -12.114  -1.885  1.00  0.00     0.049 A 
ATOM     65  H   UNL     1       5.579 -11.603  -1.541  1.00  0.00     0.167 HD
ATOM     66  C   UNL     1       2.908 -11.319  -4.044  1.00  0.00     0.074 A 
ATOM     67  C   UNL     1       2.510 -11.085  -5.425  1.00  0.00     0.031 C 
ATOM     68  C   UNL     1       3.700 -12.212  -3.353  1.00  0.00     0.037 A 
BRANCH  55  69
ATOM     69  C   UNL     1       5.936 -11.743   2.412  1.00  0.00     0.058 A 
ATOM     70  C   UNL     1       5.445 -13.006   2.800  1.00  0.00     0.135 A 
ATOM     71  C   UNL     1       6.765 -11.119   3.376  1.00  0.00     0.135 A 
ATOM     72  F   UNL     1       4.624 -13.710   2.008  1.00  0.00    -0.206 F 
ATOM     73  C   UNL     1       5.757 -13.604   4.021  1.00  0.00     0.059 A 
ATOM     74  C   UNL     1       7.120 -11.713   4.589  1.00  0.00     0.059 A 
ATOM     75  F   UNL     1       7.250  -9.883   3.226  1.00  0.00    -0.206 F 
ATOM     76  C   UNL     1       6.610 -12.958   4.904  1.00  0.00     0.060 A 
BRANCH  76  77
ATOM     77  S   UNL     1       7.042 -13.773   6.447  1.00  0.00     0.124 S 
ATOM     78  O   UNL     1       5.744 -13.877   7.107  1.00  0.00    -0.237 OA
ATOM     79  O   UNL     1       7.622 -15.025   5.976  1.00  0.00    -0.237 OA
ATOM     80  O   UNL     1       7.983 -12.846   7.071  1.00  0.00    -0.744 OA
ENDBRANCH  76  77
ENDBRANCH  55  69
BRANCH  56  81
ATOM     81  C   UNL     1       0.670  -7.032  -4.613  1.00  0.00     0.058 A 
ATOM     82  C   UNL     1      -0.656  -6.571  -4.702  1.00  0.00     0.135 A 
ATOM     83  C   UNL     1       1.667  -6.060  -4.599  1.00  0.00     0.135 A 
ATOM     84  F   UNL     1      -1.655  -7.443  -4.903  1.00  0.00    -0.206 F 
ATOM     85  C   UNL     1      -0.989  -5.240  -4.463  1.00  0.00     0.059 A 
ATOM     86  C   UNL     1       1.347  -4.743  -4.261  1.00  0.00     0.059 A 
ATOM     87  F   UNL     1       2.956  -6.426  -4.676  1.00  0.00    -0.206 F 
ATOM     88  C   UNL     1       0.021  -4.354  -4.124  1.00  0.00     0.060 A 
BRANCH  88  89
ATOM     89  S   UNL     1      -0.465  -2.758  -3.421  1.00  0.00     0.124 S 
ATOM     90  O   UNL     1      -1.329  -2.220  -4.468  1.00  0.00    -0.237 OA
ATOM     91  O   UNL     1      -1.139  -3.174  -2.195  1.00  0.00    -0.237 OA
ATOM     92  O   UNL     1       0.794  -2.055  -3.253  1.00  0.00    -0.744 OA
ENDBRANCH  88  89
ENDBRANCH  56  81
BRANCH  68  93
ATOM     93  C   UNL     1       4.662 -13.272  -3.928  1.00  0.00     0.058 A 
ATOM     94  C   UNL     1       4.693 -13.705  -5.262  1.00  0.00     0.135 A 
ATOM     95  C   UNL     1       5.624 -13.935  -3.104  1.00  0.00     0.135 A 
ATOM     96  F   UNL     1       3.846 -13.253  -6.184  1.00  0.00    -0.206 F 
ATOM     97  C   UNL     1       5.580 -14.678  -5.736  1.00  0.00     0.059 A 
ATOM     98  C   UNL     1       6.518 -14.903  -3.552  1.00  0.00     0.059 A 
ATOM     99  F   UNL     1       5.766 -13.694  -1.798  1.00  0.00    -0.206 F 
ATOM    100  C   UNL     1       6.480 -15.280  -4.873  1.00  0.00     0.060 A 
BRANCH 100 101
ATOM    101  S   UNL     1       7.542 -16.587  -5.486  1.00  0.00     0.124 S 
ATOM    102  O   UNL     1       6.564 -17.579  -5.922  1.00  0.00    -0.237 OA
ATOM    103  O   UNL     1       8.272 -15.904  -6.550  1.00  0.00    -0.237 OA
ATOM    104  O   UNL     1       8.338 -16.961  -4.322  1.00  0.00    -0.744 OA
ENDBRANCH 100 101
ENDBRANCH  68  93
ENDBRANCH  42  43
ENDBRANCH  35  37
ENDBRANCH  34  35
ENDBRANCH  33  34
ENDBRANCH   1  33
TORSDOF 19
