REMARK SMILES C[C@H](C(=O)OCCOC(=O)c1ccc(-c2c3nc(c(-c4c(F)cc(S(=O)(=O)[O-])cc4F)c4ccc([nH]4)c(-c4c(F)cc(S(=O)(=O)[O-])cc4F)c4nc(c(-c5c(F)cc(S(=O)(=O)[O-])cc5F)c5ccc2[nH]5)C=C4)C=C3)cc1)c1cccc(C(=O)c2ccccc2)c1
REMARK SMILES IDX 6 1 5 2 3 3 4 4 2 5 1 6 77 7 78 8 90 9 79 10 81 11 80 12
REMARK SMILES IDX 82 13 83 14 84 15 85 16 89 17 86 18 88 19 87 20 7 21 8 22
REMARK SMILES IDX 9 23 10 24 11 25 12 26 76 27 13 28 75 29 14 30 15 31 16 32
REMARK SMILES IDX 69 33 17 34 74 35 68 36 70 37 18 38 73 39 67 40 66 41 19 43
REMARK SMILES IDX 53 44 32 45 52 46 33 47 36 48 51 49 71 50 34 51 35 52 50 54
REMARK SMILES IDX 72 55 37 56 20 57 21 58 30 59 22 60 23 61 29 62 31 63 24 64
REMARK SMILES IDX 25 65 26 66 27 67 28 68 54 69 55 70 64 71 56 72 57 73 63 74
REMARK SMILES IDX 65 75 58 76 59 77 60 78 61 79 62 80 38 81 39 82 48 83 40 84
REMARK SMILES IDX 41 85 47 86 49 87 42 88 43 89 44 90 45 91 46 92
REMARK H PARENT 70 42 36 53
REMARK Flexibility Score: inf
ROOT
ATOM      1  C   UNL     1       1.247  -1.804  -0.452  1.00  0.00     0.274 C 
ENDROOT
BRANCH   1   2
ATOM      2  O   UNL     1       0.602  -0.518  -0.561  1.00  0.00    -0.462 OA
BRANCH   2   3
ATOM      3  C   UNL     1       0.657   0.294   0.533  1.00  0.00     0.313 C 
ATOM      4  O   UNL     1       1.211   0.006   1.587  1.00  0.00    -0.252 OA
BRANCH   3   5
ATOM      5  C   UNL     1      -0.150   1.577   0.334  1.00  0.00     0.126 C 
ATOM      6  C   UNL     1       0.073   2.201  -1.043  1.00  0.00     0.025 C 
BRANCH   5   7
ATOM      7  C   UNL     1      -1.634   1.405   0.621  1.00  0.00    -0.033 A 
ATOM      8  C   UNL     1      -2.423   2.519   0.939  1.00  0.00     0.004 A 
ATOM      9  C   UNL     1      -2.258   0.151   0.546  1.00  0.00     0.016 A 
ATOM     10  C   UNL     1      -3.792   2.377   1.179  1.00  0.00     0.001 A 
ATOM     11  C   UNL     1      -3.618  -0.009   0.836  1.00  0.00     0.023 A 
ATOM     12  C   UNL     1      -4.390   1.116   1.130  1.00  0.00     0.012 A 
BRANCH  11  13
ATOM     13  C   UNL     1      -4.250  -1.358   0.792  1.00  0.00     0.193 C 
ATOM     14  O   UNL     1      -5.464  -1.474   0.655  1.00  0.00    -0.289 OA
BRANCH  13  15
ATOM     15  C   UNL     1      -3.414  -2.582   0.874  1.00  0.00     0.022 A 
ATOM     16  C   UNL     1      -3.555  -3.555  -0.119  1.00  0.00     0.012 A 
ATOM     17  C   UNL     1      -2.471  -2.749   1.897  1.00  0.00     0.012 A 
ATOM     18  C   UNL     1      -2.726  -4.678  -0.111  1.00  0.00     0.001 A 
ATOM     19  C   UNL     1      -1.644  -3.874   1.899  1.00  0.00     0.001 A 
ATOM     20  C   UNL     1      -1.768  -4.833   0.893  1.00  0.00     0.000 A 
ENDBRANCH  13  15
ENDBRANCH  11  13
ENDBRANCH   5   7
ENDBRANCH   3   5
ENDBRANCH   2   3
ENDBRANCH   1   2
BRANCH   1  21
ATOM     21  C   UNL     1       2.348  -1.904  -1.500  1.00  0.00     0.275 C 
BRANCH  21  22
ATOM     22  O   UNL     1       3.282  -0.839  -1.265  1.00  0.00    -0.458 OA
BRANCH  22  23
ATOM     23  C   UNL     1       3.388   0.073  -2.257  1.00  0.00     0.338 C 
ATOM     24  O   UNL     1       2.919   0.007  -3.380  1.00  0.00    -0.246 OA
BRANCH  23  25
ATOM     25  C   UNL     1       4.153   1.232  -1.766  1.00  0.00     0.060 A 
ATOM     26  C   UNL     1       3.783   1.865  -0.576  1.00  0.00     0.016 A 
ATOM     27  C   UNL     1       5.172   1.758  -2.557  1.00  0.00     0.016 A 
ATOM     28  C   UNL     1       4.373   3.074  -0.220  1.00  0.00     0.010 A 
ATOM     29  C   UNL     1       5.831   2.917  -2.144  1.00  0.00     0.010 A 
ATOM     30  C   UNL     1       5.418   3.606  -0.989  1.00  0.00    -0.014 A 
BRANCH  30  31
ATOM     31  C   UNL     1       6.067   4.891  -0.616  1.00  0.00     0.031 A 
ATOM     32  C   UNL     1       6.073   6.039  -1.591  1.00  0.00     0.074 A 
ATOM     33  C   UNL     1       6.671   5.028   0.582  1.00  0.00     0.049 A 
ATOM     34  N   UNL     1       6.784   7.136  -1.572  1.00  0.00    -0.248 NA
ATOM     35  C   UNL     1       5.175   5.926  -2.752  1.00  0.00     0.031 C 
ATOM     36  C   UNL     1       6.705   4.015   1.639  1.00  0.00     0.029 A 
ATOM     37  N   UNL     1       7.378   6.079   1.110  1.00  0.00    -0.354 N 
ATOM     38  C   UNL     1       6.477   7.808  -2.750  1.00  0.00     0.074 A 
ATOM     39  C   UNL     1       5.501   7.003  -3.453  1.00  0.00     0.031 C 
ATOM     40  C   UNL     1       7.367   4.504   2.698  1.00  0.00     0.029 A 
ATOM     41  C   UNL     1       7.882   5.826   2.365  1.00  0.00     0.049 A 
ATOM     42  H   UNL     1       7.513   6.931   0.637  1.00  0.00     0.167 HD
ATOM     43  C   UNL     1       6.975   8.982  -3.204  1.00  0.00     0.037 A 
ATOM     44  C   UNL     1       8.706   6.554   3.142  1.00  0.00     0.037 A 
ATOM     45  C   UNL     1       7.894   9.808  -2.464  1.00  0.00     0.049 A 
ATOM     46  C   UNL     1       9.239   7.858   2.623  1.00  0.00     0.074 A 
ATOM     47  C   UNL     1       8.447  11.023  -2.828  1.00  0.00     0.029 A 
ATOM     48  N   UNL     1       8.376   9.512  -1.198  1.00  0.00    -0.354 N 
ATOM     49  N   UNL     1       9.005   8.441   1.472  1.00  0.00    -0.248 NA
ATOM     50  C   UNL     1      10.168   8.588   3.495  1.00  0.00     0.031 C 
ATOM     51  C   UNL     1       9.278  11.455  -1.787  1.00  0.00     0.029 A 
ATOM     52  C   UNL     1       9.220  10.521  -0.765  1.00  0.00     0.049 A 
ATOM     53  H   UNL     1       8.151   8.704  -0.682  1.00  0.00     0.167 HD
ATOM     54  C   UNL     1       9.759   9.607   1.479  1.00  0.00     0.074 A 
ATOM     55  C   UNL     1      10.440   9.657   2.758  1.00  0.00     0.031 C 
ATOM     56  C   UNL     1       9.886  10.547   0.511  1.00  0.00     0.037 A 
BRANCH  43  57
ATOM     57  C   UNL     1       6.567   9.427  -4.580  1.00  0.00     0.058 A 
ATOM     58  C   UNL     1       5.301   9.971  -4.843  1.00  0.00     0.135 A 
ATOM     59  C   UNL     1       7.475   9.331  -5.647  1.00  0.00     0.135 A 
ATOM     60  F   UNL     1       4.390  10.066  -3.863  1.00  0.00    -0.206 F 
ATOM     61  C   UNL     1       4.942  10.386  -6.122  1.00  0.00     0.059 A 
ATOM     62  C   UNL     1       7.144   9.758  -6.930  1.00  0.00     0.059 A 
ATOM     63  F   UNL     1       8.698   8.814  -5.449  1.00  0.00    -0.206 F 
ATOM     64  C   UNL     1       5.869  10.271  -7.160  1.00  0.00     0.060 A 
BRANCH  64  65
ATOM     65  S   UNL     1       5.396  10.815  -8.816  1.00  0.00     0.124 S 
ATOM     66  O   UNL     1       4.579   9.693  -9.267  1.00  0.00    -0.237 OA
ATOM     67  O   UNL     1       4.674  12.055  -8.548  1.00  0.00    -0.237 OA
ATOM     68  O   UNL     1       6.676  10.975  -9.498  1.00  0.00    -0.744 OA
ENDBRANCH  64  65
ENDBRANCH  43  57
BRANCH  44  69
ATOM     69  C   UNL     1       9.109   6.035   4.474  1.00  0.00     0.058 A 
ATOM     70  C   UNL     1       8.598   6.601   5.650  1.00  0.00     0.135 A 
ATOM     71  C   UNL     1       9.976   4.938   4.596  1.00  0.00     0.135 A 
ATOM     72  F   UNL     1       7.773   7.657   5.582  1.00  0.00    -0.206 F 
ATOM     73  C   UNL     1       8.928   6.095   6.903  1.00  0.00     0.059 A 
ATOM     74  C   UNL     1      10.303   4.401   5.836  1.00  0.00     0.059 A 
ATOM     75  F   UNL     1      10.481   4.354   3.498  1.00  0.00    -0.206 F 
ATOM     76  C   UNL     1       9.778   4.990   6.985  1.00  0.00     0.060 A 
BRANCH  76  77
ATOM     77  S   UNL     1      10.139   4.282   8.607  1.00  0.00     0.124 S 
ATOM     78  O   UNL     1      11.184   5.176   9.090  1.00  0.00    -0.237 OA
ATOM     79  O   UNL     1       8.850   4.382   9.286  1.00  0.00    -0.237 OA
ATOM     80  O   UNL     1      10.563   2.923   8.287  1.00  0.00    -0.744 OA
ENDBRANCH  76  77
ENDBRANCH  44  69
BRANCH  56  81
ATOM     81  C   UNL     1      10.780  11.713   0.810  1.00  0.00     0.058 A 
ATOM     82  C   UNL     1      12.176  11.602   0.727  1.00  0.00     0.135 A 
ATOM     83  C   UNL     1      10.235  12.960   1.152  1.00  0.00     0.135 A 
ATOM     84  F   UNL     1      12.742  10.426   0.411  1.00  0.00    -0.206 F 
ATOM     85  C   UNL     1      13.005  12.686   0.993  1.00  0.00     0.059 A 
ATOM     86  C   UNL     1      11.044  14.062   1.405  1.00  0.00     0.059 A 
ATOM     87  F   UNL     1       8.904  13.115   1.237  1.00  0.00    -0.206 F 
ATOM     88  C   UNL     1      12.430  13.911   1.335  1.00  0.00     0.060 A 
BRANCH  88  89
ATOM     89  S   UNL     1      13.510  15.321   1.657  1.00  0.00     0.124 S 
ATOM     90  O   UNL     1      13.947  15.049   3.022  1.00  0.00    -0.237 OA
ATOM     91  O   UNL     1      14.532  15.180   0.624  1.00  0.00    -0.237 OA
ATOM     92  O   UNL     1      12.622  16.469   1.497  1.00  0.00    -0.744 OA
ENDBRANCH  88  89
ENDBRANCH  56  81
ENDBRANCH  30  31
ENDBRANCH  23  25
ENDBRANCH  22  23
ENDBRANCH  21  22
ENDBRANCH   1  21
TORSDOF 17
