REMARK SMILES C[C@H]1CN(c2ccc([N+](=O)[O-])c(C(=O)OCCOC(=O)c3ccc(-c4c5nc(c(-c6c(F)cc(S(=O)(=O)[O-])cc6F)c6ccc([nH]6)c(-c6c(F)cc(S(=O)(=O)[O-])cc6F)c6nc(c(-c7c(F)cc(S(=O)(=O)[O-])cc7F)c7ccc4[nH]7)C=C6)C=C5)cc3)c2)C[C@H](C)O1
REMARK SMILES IDX 17 1 16 2 15 3 13 4 14 5 12 6 5 7 6 8 87 9 7 10 8 11 4 12
REMARK SMILES IDX 1 13 2 14 3 15 91 16 89 17 88 18 90 19 9 20 10 21 11 22
REMARK SMILES IDX 18 23 19 24 20 25 21 26 22 27 86 28 23 29 85 30 24 31 25 32
REMARK SMILES IDX 26 33 79 34 27 35 84 36 78 37 80 38 28 39 83 40 77 41 76 42
REMARK SMILES IDX 29 44 63 45 42 46 62 47 43 48 46 49 61 50 81 51 44 52 45 53
REMARK SMILES IDX 60 55 82 56 47 57 30 58 31 59 40 60 32 61 33 62 39 63 41 64
REMARK SMILES IDX 34 65 35 66 36 67 37 68 38 69 64 70 65 71 74 72 66 73 67 74
REMARK SMILES IDX 73 75 75 76 68 77 69 78 70 79 71 80 72 81 48 82 49 83 58 84
REMARK SMILES IDX 50 85 51 86 57 87 59 88 52 89 53 90 54 91 55 92 56 93
REMARK H PARENT 80 43 46 54
REMARK Flexibility Score: inf
ROOT
ATOM      1  C   UNL     1      -2.875  -2.934   7.802  1.00  0.00     0.275 C 
ENDROOT
BRANCH   1   2
ATOM      2  C   UNL     1      -3.001  -1.661   6.954  1.00  0.00     0.275 C 
BRANCH   2   3
ATOM      3  O   UNL     1      -1.993  -1.571   5.926  1.00  0.00    -0.458 OA
BRANCH   3   4
ATOM      4  C   UNL     1      -0.889  -0.842   6.248  1.00  0.00     0.345 C 
ATOM      5  O   UNL     1      -0.716  -0.286   7.310  1.00  0.00    -0.246 OA
BRANCH   4   6
ATOM      6  C   UNL     1       0.156  -0.950   5.186  1.00  0.00     0.139 A 
ATOM      7  C   UNL     1       0.927  -1.940   3.068  1.00  0.00     0.038 A 
ATOM      8  C   UNL     1       2.244  -1.686   3.469  1.00  0.00     0.033 A 
ATOM      9  C   UNL     1      -0.105  -1.593   3.960  1.00  0.00     0.048 A 
ATOM     10  C   UNL     1       2.524  -0.957   4.622  1.00  0.00     0.089 A 
ATOM     11  C   UNL     1       1.469  -0.547   5.442  1.00  0.00     0.284 A 
BRANCH   7  12
ATOM     12  N   UNL     1       0.644  -2.511   1.846  1.00  0.00    -0.366 N 
ATOM     13  C   UNL     1      -0.264  -0.923  -1.510  1.00  0.00     0.040 C 
ATOM     14  C   UNL     1       0.615  -1.496  -0.405  1.00  0.00     0.135 C 
ATOM     15  C   UNL     1      -0.207  -1.817   0.868  1.00  0.00     0.148 C 
ATOM     16  O   UNL     1       1.245  -2.675  -0.943  1.00  0.00    -0.372 OA
ATOM     17  C   UNL     1       2.114  -3.329   0.004  1.00  0.00     0.135 C 
ATOM     18  C   UNL     1       1.381  -3.666   1.321  1.00  0.00     0.148 C 
ATOM     19  C   UNL     1       3.406  -2.539   0.197  1.00  0.00     0.040 C 
ENDBRANCH   7  12
BRANCH  11  20
ATOM     20  N   UNL     1       1.790   0.407   6.489  1.00  0.00     0.063 N 
ATOM     21  O   UNL     1       2.705   0.106   7.265  1.00  0.00    -0.258 OA
ATOM     22  O   UNL     1       1.220   1.506   6.430  1.00  0.00    -0.258 OA
ENDBRANCH  11  20
ENDBRANCH   4   6
ENDBRANCH   3   4
ENDBRANCH   2   3
ENDBRANCH   1   2
BRANCH   1  23
ATOM     23  O   UNL     1      -1.693  -2.933   8.624  1.00  0.00    -0.458 OA
BRANCH  23  24
ATOM     24  C   UNL     1      -0.624  -3.575   8.093  1.00  0.00     0.338 C 
ATOM     25  O   UNL     1      -0.599  -4.187   7.036  1.00  0.00    -0.246 OA
BRANCH  24  26
ATOM     26  C   UNL     1       0.594  -3.292   8.880  1.00  0.00     0.060 A 
ATOM     27  C   UNL     1       1.743  -2.954   8.159  1.00  0.00     0.016 A 
ATOM     28  C   UNL     1       0.641  -3.364  10.276  1.00  0.00     0.016 A 
ATOM     29  C   UNL     1       2.924  -2.635   8.824  1.00  0.00     0.010 A 
ATOM     30  C   UNL     1       1.842  -3.075  10.943  1.00  0.00     0.010 A 
ATOM     31  C   UNL     1       2.986  -2.697  10.220  1.00  0.00    -0.014 A 
BRANCH  31  32
ATOM     32  C   UNL     1       4.285  -2.441  10.888  1.00  0.00     0.031 A 
ATOM     33  C   UNL     1       5.215  -3.590  11.147  1.00  0.00     0.074 A 
ATOM     34  C   UNL     1       4.663  -1.186  11.192  1.00  0.00     0.049 A 
ATOM     35  N   UNL     1       6.398  -3.590  11.704  1.00  0.00    -0.248 NA
ATOM     36  C   UNL     1       4.756  -4.916  10.704  1.00  0.00     0.031 C 
ATOM     37  C   UNL     1       3.887   0.021  10.911  1.00  0.00     0.029 A 
ATOM     38  N   UNL     1       5.803  -0.719  11.800  1.00  0.00    -0.354 N 
ATOM     39  C   UNL     1       6.830  -4.909  11.675  1.00  0.00     0.074 A 
ATOM     40  C   UNL     1       5.773  -5.686  11.062  1.00  0.00     0.031 C 
ATOM     41  C   UNL     1       4.565   1.090  11.363  1.00  0.00     0.029 A 
ATOM     42  C   UNL     1       5.809   0.643  11.989  1.00  0.00     0.049 A 
ATOM     43  H   UNL     1       6.545  -1.304  12.076  1.00  0.00     0.167 HD
ATOM     44  C   UNL     1       8.001  -5.424  12.120  1.00  0.00     0.037 A 
ATOM     45  C   UNL     1       6.705   1.435  12.613  1.00  0.00     0.037 A 
ATOM     46  C   UNL     1       9.040  -4.652  12.750  1.00  0.00     0.049 A 
ATOM     47  C   UNL     1       7.953   0.821  13.196  1.00  0.00     0.074 A 
ATOM     48  C   UNL     1      10.255  -5.089  13.247  1.00  0.00     0.029 A 
ATOM     49  N   UNL     1       8.982  -3.285  12.984  1.00  0.00    -0.354 N 
ATOM     50  N   UNL     1       8.354  -0.429  13.161  1.00  0.00    -0.248 NA
ATOM     51  C   UNL     1       8.873   1.723  13.905  1.00  0.00     0.031 C 
ATOM     52  C   UNL     1      10.908  -3.998  13.830  1.00  0.00     0.029 A 
ATOM     53  C   UNL     1      10.127  -2.869  13.645  1.00  0.00     0.049 A 
ATOM     54  H   UNL     1       8.237  -2.698  12.720  1.00  0.00     0.167 HD
ATOM     55  C   UNL     1       9.582  -0.456  13.815  1.00  0.00     0.074 A 
ATOM     56  C   UNL     1       9.863   0.903  14.229  1.00  0.00     0.031 C 
ATOM     57  C   UNL     1      10.402  -1.511  14.048  1.00  0.00     0.037 A 
BRANCH  44  58
ATOM     58  C   UNL     1       8.198  -6.907  11.982  1.00  0.00     0.058 A 
ATOM     59  C   UNL     1       8.444  -7.510  10.738  1.00  0.00     0.135 A 
ATOM     60  C   UNL     1       8.158  -7.735  13.115  1.00  0.00     0.135 A 
ATOM     61  F   UNL     1       8.473  -6.767   9.620  1.00  0.00    -0.206 F 
ATOM     62  C   UNL     1       8.620  -8.885  10.620  1.00  0.00     0.059 A 
ATOM     63  C   UNL     1       8.356  -9.109  13.024  1.00  0.00     0.059 A 
ATOM     64  F   UNL     1       7.921  -7.209  14.328  1.00  0.00    -0.206 F 
ATOM     65  C   UNL     1       8.572  -9.676  11.769  1.00  0.00     0.060 A 
BRANCH  65  66
ATOM     66  S   UNL     1       8.794 -11.459  11.599  1.00  0.00     0.124 S 
ATOM     67  O   UNL     1       7.531 -11.852  10.981  1.00  0.00    -0.237 OA
ATOM     68  O   UNL     1       9.972 -11.547  10.743  1.00  0.00    -0.237 OA
ATOM     69  O   UNL     1       8.986 -11.912  12.974  1.00  0.00    -0.744 OA
ENDBRANCH  65  66
ENDBRANCH  44  58
BRANCH  45  70
ATOM     70  C   UNL     1       6.443   2.894  12.752  1.00  0.00     0.058 A 
ATOM     71  C   UNL     1       7.231   3.845  12.087  1.00  0.00     0.135 A 
ATOM     72  C   UNL     1       5.407   3.366  13.574  1.00  0.00     0.135 A 
ATOM     73  F   UNL     1       8.245   3.447  11.304  1.00  0.00    -0.206 F 
ATOM     74  C   UNL     1       7.012   5.211  12.243  1.00  0.00     0.059 A 
ATOM     75  C   UNL     1       5.152   4.725  13.725  1.00  0.00     0.059 A 
ATOM     76  F   UNL     1       4.623   2.499  14.233  1.00  0.00    -0.206 F 
ATOM     77  C   UNL     1       5.968   5.642  13.065  1.00  0.00     0.060 A 
BRANCH  77  78
ATOM     78  S   UNL     1       5.673   7.415  13.238  1.00  0.00     0.124 S 
ATOM     79  O   UNL     1       6.799   7.821  14.072  1.00  0.00    -0.237 OA
ATOM     80  O   UNL     1       5.710   7.871  11.852  1.00  0.00    -0.237 OA
ATOM     81  O   UNL     1       4.362   7.478  13.877  1.00  0.00    -0.744 OA
ENDBRANCH  77  78
ENDBRANCH  45  70
BRANCH  57  82
ATOM     82  C   UNL     1      11.705  -1.243  14.753  1.00  0.00     0.058 A 
ATOM     83  C   UNL     1      11.759  -0.943  16.123  1.00  0.00     0.135 A 
ATOM     84  C   UNL     1      12.923  -1.351  14.060  1.00  0.00     0.135 A 
ATOM     85  F   UNL     1      10.626  -0.822  16.834  1.00  0.00    -0.206 F 
ATOM     86  C   UNL     1      12.971  -0.741  16.777  1.00  0.00     0.059 A 
ATOM     87  C   UNL     1      14.147  -1.181  14.700  1.00  0.00     0.059 A 
ATOM     88  F   UNL     1      12.932  -1.647  12.751  1.00  0.00    -0.206 F 
ATOM     89  C   UNL     1      14.161  -0.865  16.058  1.00  0.00     0.060 A 
BRANCH  89  90
ATOM     90  S   UNL     1      15.728  -0.643  16.927  1.00  0.00     0.124 S 
ATOM     91  O   UNL     1      15.757   0.803  17.117  1.00  0.00    -0.237 OA
ATOM     92  O   UNL     1      15.532  -1.438  18.135  1.00  0.00    -0.237 OA
ATOM     93  O   UNL     1      16.715  -1.172  15.990  1.00  0.00    -0.744 OA
ENDBRANCH  89  90
ENDBRANCH  57  82
ENDBRANCH  31  32
ENDBRANCH  24  26
ENDBRANCH  23  24
ENDBRANCH   1  23
TORSDOF 16
