REMARK SMILES COc1ccc(N2C(=O)/C(=C/c3c(C(=O)OCCOC(=O)c4ccc(-c5c6nc(c(-c7c(F)cc(S(=O)(=O)[O-])cc7F)c7ccc([nH]7)c(-c7c(F)cc(S(=O)(=O)[O-])cc7F)c7nc(c(-c8c(F)cc(S(=O)(=O)[O-])cc8F)c8ccc5[nH]8)C=C7)C=C6)cc4)[nH]c4cc(OC)ccc34)SC2=S)cc1
REMARK SMILES IDX 17 1 16 2 14 3 15 4 13 5 12 6 96 7 88 8 89 9 95 10 90 12
REMARK SMILES IDX 94 13 91 14 11 15 7 16 8 17 98 18 9 19 10 20 97 21 99 22
REMARK SMILES IDX 6 23 3 24 4 25 101 26 5 27 100 28 2 29 1 30 92 31 93 32
REMARK SMILES IDX 18 33 19 34 20 35 21 36 22 37 23 38 87 39 24 40 86 41 25 42
REMARK SMILES IDX 26 43 27 44 80 45 28 46 85 47 79 48 81 49 29 50 84 51 78 52
REMARK SMILES IDX 77 53 30 55 64 56 43 57 63 58 44 59 47 60 62 61 82 62 45 63
REMARK SMILES IDX 46 64 61 66 83 67 48 68 31 69 32 70 41 71 33 72 34 73 40 74
REMARK SMILES IDX 42 75 35 76 36 77 37 78 38 79 39 80 65 81 66 82 75 83 67 84
REMARK SMILES IDX 68 85 74 86 76 87 69 88 70 89 71 90 72 91 73 92 49 93 50 94
REMARK SMILES IDX 59 95 51 96 52 97 58 98 60 99 53 100 54 101 55 102 56 103
REMARK SMILES IDX 57 104
REMARK H PARENT 88 11 81 54 47 65
REMARK Flexibility Score: inf
ROOT
ATOM      1  C   UNL     1       3.281   1.105  -8.340  1.00  0.00     0.275 C 
ENDROOT
BRANCH   1   2
ATOM      2  O   UNL     1       2.548   2.237  -8.854  1.00  0.00    -0.457 OA
BRANCH   2   3
ATOM      3  C   UNL     1       3.318   3.153  -9.501  1.00  0.00     0.355 C 
ATOM      4  O   UNL     1       4.540   3.106  -9.568  1.00  0.00    -0.244 OA
BRANCH   3   5
ATOM      5  C   UNL     1       2.522   4.153 -10.165  1.00  0.00     0.133 A 
ATOM      6  C   UNL     1       1.630   5.123  -9.719  1.00  0.00     0.016 A 
ATOM      7  C   UNL     1       1.345   5.995 -10.831  1.00  0.00     0.008 A 
ATOM      8  N   UNL     1       2.561   4.277 -11.528  1.00  0.00    -0.348 N 
ATOM      9  C   UNL     1       1.951   5.421 -11.945  1.00  0.00     0.050 A 
ATOM     10  C   UNL     1       0.638   7.199 -11.049  1.00  0.00     0.015 A 
ATOM     11  H   UNL     1       2.979   3.621 -12.132  1.00  0.00     0.167 HD
ATOM     12  C   UNL     1       1.883   5.939 -13.238  1.00  0.00     0.073 A 
ATOM     13  C   UNL     1       0.592   7.766 -12.348  1.00  0.00     0.047 A 
ATOM     14  C   UNL     1       1.202   7.136 -13.432  1.00  0.00     0.120 A 
BRANCH   6  15
ATOM     15  C   UNL     1       1.046   5.099  -8.409  1.00  0.00     0.032 C 
ATOM     16  N   UNL     1       1.962   3.520  -5.376  1.00  0.00    -0.261 N 
ATOM     17  C   UNL     1       1.011   4.242  -6.116  1.00  0.00     0.270 C 
ATOM     18  C   UNL     1       3.291   3.819  -5.687  1.00  0.00     0.152 C 
ATOM     19  O   UNL     1      -0.200   4.307  -5.942  1.00  0.00    -0.268 OA
ATOM     20  C   UNL     1       1.686   4.951  -7.238  1.00  0.00     0.081 C 
ATOM     21  S   UNL     1       3.348   5.116  -6.885  1.00  0.00    -0.054 SA
ATOM     22  S   UNL     1       4.730   3.095  -5.226  1.00  0.00    -0.051 S 
BRANCH  16  23
ATOM     23  C   UNL     1       1.530   2.531  -4.415  1.00  0.00     0.051 A 
ATOM     24  C   UNL     1       0.640   0.581  -2.536  1.00  0.00     0.119 A 
ATOM     25  C   UNL     1      -0.114   0.870  -3.667  1.00  0.00     0.048 A 
ATOM     26  C   UNL     1       1.854   1.232  -2.356  1.00  0.00     0.048 A 
ATOM     27  C   UNL     1       0.322   1.833  -4.590  1.00  0.00     0.030 A 
ATOM     28  C   UNL     1       2.279   2.207  -3.273  1.00  0.00     0.030 A 
BRANCH  24  29
ATOM     29  O   UNL     1       0.112  -0.351  -1.687  1.00  0.00    -0.497 OA
ATOM     30  C   UNL     1       0.538  -0.251  -0.331  1.00  0.00     0.278 C 
ENDBRANCH  24  29
ENDBRANCH  16  23
ENDBRANCH   6  15
BRANCH  14  31
ATOM     31  O   UNL     1       1.198   7.540 -14.737  1.00  0.00    -0.497 OA
ATOM     32  C   UNL     1       0.805   8.871 -15.019  1.00  0.00     0.278 C 
ENDBRANCH  14  31
ENDBRANCH   3   5
ENDBRANCH   2   3
ENDBRANCH   1   2
BRANCH   1  33
ATOM     33  C   UNL     1       3.293  -0.069  -9.325  1.00  0.00     0.275 C 
BRANCH  33  34
ATOM     34  O   UNL     1       4.154   0.179 -10.455  1.00  0.00    -0.458 OA
BRANCH  34  35
ATOM     35  C   UNL     1       3.530   0.692 -11.536  1.00  0.00     0.338 C 
ATOM     36  O   UNL     1       2.346   0.970 -11.641  1.00  0.00    -0.246 OA
BRANCH  35  37
ATOM     37  C   UNL     1       4.481   1.023 -12.604  1.00  0.00     0.060 A 
ATOM     38  C   UNL     1       4.966   2.328 -12.662  1.00  0.00     0.016 A 
ATOM     39  C   UNL     1       4.658   0.160 -13.682  1.00  0.00     0.016 A 
ATOM     40  C   UNL     1       5.475   2.830 -13.849  1.00  0.00     0.010 A 
ATOM     41  C   UNL     1       5.308   0.629 -14.829  1.00  0.00     0.010 A 
ATOM     42  C   UNL     1       5.678   1.982 -14.942  1.00  0.00    -0.014 A 
BRANCH  42  43
ATOM     43  C   UNL     1       6.245   2.523 -16.205  1.00  0.00     0.031 A 
ATOM     44  C   UNL     1       5.492   2.350 -17.495  1.00  0.00     0.074 A 
ATOM     45  C   UNL     1       7.425   3.175 -16.193  1.00  0.00     0.049 A 
ATOM     46  N   UNL     1       5.920   2.477 -18.723  1.00  0.00    -0.248 NA
ATOM     47  C   UNL     1       4.076   1.957 -17.392  1.00  0.00     0.031 C 
ATOM     48  C   UNL     1       8.225   3.470 -15.000  1.00  0.00     0.029 A 
ATOM     49  N   UNL     1       8.161   3.713 -17.219  1.00  0.00    -0.354 N 
ATOM     50  C   UNL     1       4.860   2.093 -19.536  1.00  0.00     0.074 A 
ATOM     51  C   UNL     1       3.756   1.757 -18.663  1.00  0.00     0.031 C 
ATOM     52  C   UNL     1       9.314   4.165 -15.355  1.00  0.00     0.029 A 
ATOM     53  C   UNL     1       9.351   4.266 -16.807  1.00  0.00     0.049 A 
ATOM     54  H   UNL     1       7.866   3.703 -18.158  1.00  0.00     0.167 HD
ATOM     55  C   UNL     1       4.830   2.011 -20.887  1.00  0.00     0.037 A 
ATOM     56  C   UNL     1      10.390   4.740 -17.518  1.00  0.00     0.037 A 
ATOM     57  C   UNL     1       5.918   2.429 -21.733  1.00  0.00     0.049 A 
ATOM     58  C   UNL     1      10.327   4.665 -19.015  1.00  0.00     0.074 A 
ATOM     59  C   UNL     1       6.008   2.389 -23.113  1.00  0.00     0.029 A 
ATOM     60  N   UNL     1       7.098   2.997 -21.272  1.00  0.00    -0.354 N 
ATOM     61  N   UNL     1       9.367   4.188 -19.772  1.00  0.00    -0.248 NA
ATOM     62  C   UNL     1      11.494   5.161 -19.754  1.00  0.00     0.031 C 
ATOM     63  C   UNL     1       7.248   2.920 -23.485  1.00  0.00     0.029 A 
ATOM     64  C   UNL     1       7.919   3.317 -22.339  1.00  0.00     0.049 A 
ATOM     65  H   UNL     1       7.319   3.149 -20.325  1.00  0.00     0.167 HD
ATOM     66  C   UNL     1       9.816   4.319 -21.078  1.00  0.00     0.074 A 
ATOM     67  C   UNL     1      11.123   4.944 -21.009  1.00  0.00     0.031 C 
ATOM     68  C   UNL     1       9.212   3.944 -22.232  1.00  0.00     0.037 A 
BRANCH  55  69
ATOM     69  C   UNL     1       3.613   1.405 -21.527  1.00  0.00     0.058 A 
ATOM     70  C   UNL     1       2.396   2.094 -21.631  1.00  0.00     0.135 A 
ATOM     71  C   UNL     1       3.678   0.108 -22.066  1.00  0.00     0.135 A 
ATOM     72  F   UNL     1       2.272   3.327 -21.115  1.00  0.00    -0.206 F 
ATOM     73  C   UNL     1       1.279   1.512 -22.226  1.00  0.00     0.059 A 
ATOM     74  C   UNL     1       2.581  -0.485 -22.684  1.00  0.00     0.059 A 
ATOM     75  F   UNL     1       4.817  -0.598 -21.990  1.00  0.00    -0.206 F 
ATOM     76  C   UNL     1       1.380   0.219 -22.746  1.00  0.00     0.060 A 
BRANCH  76  77
ATOM     77  S   UNL     1      -0.073  -0.529 -23.516  1.00  0.00     0.124 S 
ATOM     78  O   UNL     1      -0.850  -0.924 -22.345  1.00  0.00    -0.237 OA
ATOM     79  O   UNL     1      -0.621   0.575 -24.297  1.00  0.00    -0.237 OA
ATOM     80  O   UNL     1       0.486  -1.627 -24.298  1.00  0.00    -0.744 OA
ENDBRANCH  76  77
ENDBRANCH  55  69
BRANCH  56  81
ATOM     81  C   UNL     1      11.594   5.251 -16.812  1.00  0.00     0.058 A 
ATOM     82  C   UNL     1      11.891   6.620 -16.789  1.00  0.00     0.135 A 
ATOM     83  C   UNL     1      12.440   4.385 -16.100  1.00  0.00     0.135 A 
ATOM     84  F   UNL     1      11.117   7.486 -17.460  1.00  0.00    -0.206 F 
ATOM     85  C   UNL     1      12.984   7.115 -16.082  1.00  0.00     0.059 A 
ATOM     86  C   UNL     1      13.522   4.858 -15.366  1.00  0.00     0.059 A 
ATOM     87  F   UNL     1      12.188   3.067 -16.078  1.00  0.00    -0.206 F 
ATOM     88  C   UNL     1      13.790   6.226 -15.369  1.00  0.00     0.060 A 
BRANCH  88  89
ATOM     89  S   UNL     1      15.161   6.878 -14.390  1.00  0.00     0.124 S 
ATOM     90  O   UNL     1      16.182   7.075 -15.412  1.00  0.00    -0.237 OA
ATOM     91  O   UNL     1      14.587   8.092 -13.818  1.00  0.00    -0.237 OA
ATOM     92  O   UNL     1      15.422   5.808 -13.432  1.00  0.00    -0.744 OA
ENDBRANCH  88  89
ENDBRANCH  56  81
BRANCH  68  93
ATOM     93  C   UNL     1       9.954   4.222 -23.503  1.00  0.00     0.058 A 
ATOM     94  C   UNL     1      11.005   3.396 -23.927  1.00  0.00     0.135 A 
ATOM     95  C   UNL     1       9.582   5.299 -24.321  1.00  0.00     0.135 A 
ATOM     96  F   UNL     1      11.399   2.360 -23.170  1.00  0.00    -0.206 F 
ATOM     97  C   UNL     1      11.676   3.639 -25.119  1.00  0.00     0.059 A 
ATOM     98  C   UNL     1      10.229   5.550 -25.525  1.00  0.00     0.059 A 
ATOM     99  F   UNL     1       8.578   6.111 -23.955  1.00  0.00    -0.206 F 
ATOM    100  C   UNL     1      11.281   4.719 -25.911  1.00  0.00     0.060 A 
BRANCH 100 101
ATOM    101  S   UNL     1      12.135   5.009 -27.474  1.00  0.00     0.124 S 
ATOM    102  O   UNL     1      13.359   5.662 -27.022  1.00  0.00    -0.237 OA
ATOM    103  O   UNL     1      12.296   3.658 -28.002  1.00  0.00    -0.237 OA
ATOM    104  O   UNL     1      11.205   5.856 -28.214  1.00  0.00    -0.744 OA
ENDBRANCH 100 101
ENDBRANCH  68  93
ENDBRANCH  42  43
ENDBRANCH  35  37
ENDBRANCH  34  35
ENDBRANCH  33  34
ENDBRANCH   1  33
TORSDOF 18
