REMARK SMILES O=C(OCCOC(=O)[C@@H]1CCCC[C@H]1C(=O)Nc1ccc(NC(=O)c2ccco2)cc1)c1ccc(-c2c3nc(c(-c4c(F)cc(S(=O)(=O)[O-])cc4F)c4ccc([nH]4)c(-c4c(F)cc(S(=O)(=O)[O-])cc4F)c4nc(c(-c5c(F)cc(S(=O)(=O)[O-])cc5F)c5ccc2[nH]5)C=C4)C=C3)cc1
REMARK SMILES IDX 5 1 4 2 3 3 2 4 1 5 32 6 33 7 97 8 34 9 96 10 35 11 36 12
REMARK SMILES IDX 37 13 90 14 38 15 95 16 89 17 91 18 39 19 94 20 88 21 87 22
REMARK SMILES IDX 40 24 74 25 53 26 73 27 54 28 57 29 72 30 92 31 55 32 56 33
REMARK SMILES IDX 71 35 93 36 58 37 41 38 42 39 51 40 43 41 44 42 50 43 52 44
REMARK SMILES IDX 45 45 46 46 47 47 48 48 49 49 75 50 76 51 85 52 77 53 78 54
REMARK SMILES IDX 84 55 86 56 79 57 80 58 81 59 82 60 83 61 59 62 60 63 69 64
REMARK SMILES IDX 61 65 62 66 68 67 70 68 63 69 64 70 65 71 66 72 67 73 6 74
REMARK SMILES IDX 7 75 8 76 9 77 10 78 14 79 11 80 13 81 12 82 15 83 16 84
REMARK SMILES IDX 17 85 18 87 19 88 31 89 20 90 30 91 21 92 22 93 23 94 24 96
REMARK SMILES IDX 25 97 26 98 29 99 27 100 28 101
REMARK H PARENT 91 23 57 34 17 86 22 95
REMARK Flexibility Score: inf
ROOT
ATOM      1  C   UNL     1       3.921   1.918   1.376  1.00  0.00     0.274 C 
ENDROOT
BRANCH   1   2
ATOM      2  C   UNL     1       4.266   1.819  -0.108  1.00  0.00     0.275 C 
BRANCH   2   3
ATOM      3  O   UNL     1       3.430   0.903  -0.826  1.00  0.00    -0.458 OA
BRANCH   3   4
ATOM      4  C   UNL     1       3.880  -0.262  -1.362  1.00  0.00     0.338 C 
ATOM      5  O   UNL     1       3.470  -0.649  -2.451  1.00  0.00    -0.246 OA
BRANCH   4   6
ATOM      6  C   UNL     1       4.636  -1.199  -0.484  1.00  0.00     0.060 A 
ATOM      7  C   UNL     1       5.844  -0.916   0.154  1.00  0.00     0.016 A 
ATOM      8  C   UNL     1       4.097  -2.478  -0.333  1.00  0.00     0.016 A 
ATOM      9  C   UNL     1       6.436  -1.854   1.014  1.00  0.00     0.010 A 
ATOM     10  C   UNL     1       4.641  -3.384   0.582  1.00  0.00     0.010 A 
ATOM     11  C   UNL     1       5.825  -3.087   1.269  1.00  0.00    -0.014 A 
BRANCH  11  12
ATOM     12  C   UNL     1       6.445  -4.087   2.184  1.00  0.00     0.031 A 
ATOM     13  C   UNL     1       6.843  -5.440   1.652  1.00  0.00     0.074 A 
ATOM     14  C   UNL     1       6.623  -3.819   3.496  1.00  0.00     0.049 A 
ATOM     15  N   UNL     1       7.442  -6.423   2.276  1.00  0.00    -0.248 NA
ATOM     16  C   UNL     1       6.533  -5.731   0.242  1.00  0.00     0.031 C 
ATOM     17  C   UNL     1       6.267  -2.569   4.166  1.00  0.00     0.029 A 
ATOM     18  N   UNL     1       7.112  -4.596   4.518  1.00  0.00    -0.354 N 
ATOM     19  C   UNL     1       7.644  -7.404   1.315  1.00  0.00     0.074 A 
ATOM     20  C   UNL     1       6.958  -6.977   0.118  1.00  0.00     0.031 C 
ATOM     21  C   UNL     1       6.450  -2.696   5.491  1.00  0.00     0.029 A 
ATOM     22  C   UNL     1       7.006  -4.014   5.762  1.00  0.00     0.049 A 
ATOM     23  H   UNL     1       7.502  -5.489   4.375  1.00  0.00     0.167 HD
ATOM     24  C   UNL     1       8.427  -8.506   1.380  1.00  0.00     0.037 A 
ATOM     25  C   UNL     1       7.346  -4.476   6.981  1.00  0.00     0.037 A 
ATOM     26  C   UNL     1       9.125  -8.927   2.560  1.00  0.00     0.049 A 
ATOM     27  C   UNL     1       8.123  -5.760   7.069  1.00  0.00     0.074 A 
ATOM     28  C   UNL     1      10.002  -9.984   2.719  1.00  0.00     0.029 A 
ATOM     29  N   UNL     1       9.017  -8.304   3.794  1.00  0.00    -0.354 N 
ATOM     30  N   UNL     1       8.446  -6.592   6.108  1.00  0.00    -0.248 NA
ATOM     31  C   UNL     1       8.655  -6.128   8.389  1.00  0.00     0.031 C 
ATOM     32  C   UNL     1      10.413 -10.009   4.058  1.00  0.00     0.029 A 
ATOM     33  C   UNL     1       9.806  -8.956   4.724  1.00  0.00     0.049 A 
ATOM     34  H   UNL     1       8.460  -7.513   3.981  1.00  0.00     0.167 HD
ATOM     35  C   UNL     1       9.285  -7.535   6.690  1.00  0.00     0.074 A 
ATOM     36  C   UNL     1       9.395  -7.187   8.092  1.00  0.00     0.031 C 
ATOM     37  C   UNL     1       9.929  -8.575   6.108  1.00  0.00     0.037 A 
BRANCH  24  38
ATOM     38  C   UNL     1       8.640  -9.245   0.090  1.00  0.00     0.058 A 
ATOM     39  C   UNL     1       9.406  -8.663  -0.937  1.00  0.00     0.135 A 
ATOM     40  C   UNL     1       8.060 -10.497  -0.151  1.00  0.00     0.135 A 
ATOM     41  F   UNL     1       9.967  -7.455  -0.761  1.00  0.00    -0.206 F 
ATOM     42  C   UNL     1       9.546  -9.273  -2.176  1.00  0.00     0.059 A 
ATOM     43  C   UNL     1       8.209 -11.139  -1.378  1.00  0.00     0.059 A 
ATOM     44  F   UNL     1       7.319 -11.094   0.795  1.00  0.00    -0.206 F 
ATOM     45  C   UNL     1       8.935 -10.508  -2.391  1.00  0.00     0.060 A 
BRANCH  45  46
ATOM     46  S   UNL     1       9.098 -11.269  -4.019  1.00  0.00     0.124 S 
ATOM     47  O   UNL     1       8.177 -10.460  -4.811  1.00  0.00    -0.237 OA
ATOM     48  O   UNL     1      10.516 -11.084  -4.311  1.00  0.00    -0.237 OA
ATOM     49  O   UNL     1       8.684 -12.650  -3.789  1.00  0.00    -0.744 OA
ENDBRANCH  45  46
ENDBRANCH  24  38
BRANCH  25  50
ATOM     50  C   UNL     1       7.044  -3.690   8.207  1.00  0.00     0.058 A 
ATOM     51  C   UNL     1       8.046  -2.985   8.889  1.00  0.00     0.135 A 
ATOM     52  C   UNL     1       5.749  -3.672   8.748  1.00  0.00     0.135 A 
ATOM     53  F   UNL     1       9.298  -2.970   8.407  1.00  0.00    -0.206 F 
ATOM     54  C   UNL     1       7.790  -2.329  10.088  1.00  0.00     0.059 A 
ATOM     55  C   UNL     1       5.463  -3.010   9.940  1.00  0.00     0.059 A 
ATOM     56  F   UNL     1       4.749  -4.311   8.122  1.00  0.00    -0.206 F 
ATOM     57  C   UNL     1       6.496  -2.356  10.613  1.00  0.00     0.060 A 
BRANCH  57  58
ATOM     58  S   UNL     1       6.181  -1.513  12.180  1.00  0.00     0.124 S 
ATOM     59  O   UNL     1       6.850  -2.397  13.128  1.00  0.00    -0.237 OA
ATOM     60  O   UNL     1       6.812  -0.216  11.960  1.00  0.00    -0.237 OA
ATOM     61  O   UNL     1       4.724  -1.487  12.259  1.00  0.00    -0.744 OA
ENDBRANCH  57  58
ENDBRANCH  25  50
BRANCH  37  62
ATOM     62  C   UNL     1      10.869  -9.367   6.967  1.00  0.00     0.058 A 
ATOM     63  C   UNL     1      10.402 -10.279   7.924  1.00  0.00     0.135 A 
ATOM     64  C   UNL     1      12.257  -9.238   6.797  1.00  0.00     0.135 A 
ATOM     65  F   UNL     1       9.084 -10.428   8.130  1.00  0.00    -0.206 F 
ATOM     66  C   UNL     1      11.282 -11.027   8.698  1.00  0.00     0.059 A 
ATOM     67  C   UNL     1      13.154  -9.993   7.543  1.00  0.00     0.059 A 
ATOM     68  F   UNL     1      12.751  -8.381   5.889  1.00  0.00    -0.206 F 
ATOM     69  C   UNL     1      12.657 -10.878   8.499  1.00  0.00     0.060 A 
BRANCH  69  70
ATOM     70  S   UNL     1      13.792 -11.885   9.476  1.00  0.00     0.124 S 
ATOM     71  O   UNL     1      13.812 -11.159  10.741  1.00  0.00    -0.237 OA
ATOM     72  O   UNL     1      13.123 -13.182   9.499  1.00  0.00    -0.237 OA
ATOM     73  O   UNL     1      15.030 -11.841   8.704  1.00  0.00    -0.744 OA
ENDBRANCH  69  70
ENDBRANCH  37  62
ENDBRANCH  11  12
ENDBRANCH   4   6
ENDBRANCH   3   4
ENDBRANCH   2   3
ENDBRANCH   1   2
BRANCH   1  74
ATOM     74  O   UNL     1       3.600   0.661   1.989  1.00  0.00    -0.462 OA
BRANCH  74  75
ATOM     75  C   UNL     1       2.268   0.440   2.168  1.00  0.00     0.309 C 
ATOM     76  O   UNL     1       1.380   1.123   1.672  1.00  0.00    -0.252 OA
BRANCH  75  77
ATOM     77  C   UNL     1       1.977  -0.725   3.098  1.00  0.00     0.111 C 
ATOM     78  C   UNL     1       3.012  -0.869   4.219  1.00  0.00     0.016 C 
ATOM     79  C   UNL     1       1.765  -2.036   2.339  1.00  0.00     0.093 C 
ATOM     80  C   UNL     1       2.675  -2.030   5.151  1.00  0.00     0.001 C 
ATOM     81  C   UNL     1       1.471  -3.219   3.274  1.00  0.00     0.014 C 
ATOM     82  C   UNL     1       2.517  -3.339   4.383  1.00  0.00     0.001 C 
BRANCH  79  83
ATOM     83  C   UNL     1       0.838  -2.023   1.112  1.00  0.00     0.228 C 
ATOM     84  O   UNL     1       1.173  -2.628   0.086  1.00  0.00    -0.274 OA
ATOM     85  N   UNL     1      -0.416  -1.486   1.079  1.00  0.00    -0.326 N 
ATOM     86  H   UNL     1      -0.722  -1.069   0.241  1.00  0.00     0.169 HD
BRANCH  85  87
ATOM     87  C   UNL     1      -1.287  -1.496   2.164  1.00  0.00     0.041 A 
ATOM     88  C   UNL     1      -2.160  -2.565   2.287  1.00  0.00     0.028 A 
ATOM     89  C   UNL     1      -1.251  -0.513   3.138  1.00  0.00     0.028 A 
ATOM     90  C   UNL     1      -2.828  -2.760   3.492  1.00  0.00     0.028 A 
ATOM     91  C   UNL     1      -1.868  -0.745   4.365  1.00  0.00     0.028 A 
ATOM     92  C   UNL     1      -2.600  -1.918   4.580  1.00  0.00     0.041 A 
BRANCH  92  93
ATOM     93  N   UNL     1      -2.988  -2.175   5.905  1.00  0.00    -0.319 N 
ATOM     94  C   UNL     1      -3.574  -3.261   6.530  1.00  0.00     0.291 C 
ATOM     95  H   UNL     1      -2.805  -1.427   6.518  1.00  0.00     0.170 HD
ATOM     96  O   UNL     1      -3.687  -3.216   7.751  1.00  0.00    -0.265 OA
BRANCH  94  97
ATOM     97  C   UNL     1      -4.024  -4.387   5.752  1.00  0.00     0.191 A 
ATOM     98  C   UNL     1      -3.395  -5.552   5.353  1.00  0.00     0.056 A 
ATOM     99  O   UNL     1      -5.299  -4.358   5.255  1.00  0.00    -0.459 OA
ATOM    100  C   UNL     1      -4.322  -6.248   4.535  1.00  0.00     0.043 A 
ATOM    101  C   UNL     1      -5.468  -5.487   4.522  1.00  0.00     0.196 A 
ENDBRANCH  94  97
ENDBRANCH  92  93
ENDBRANCH  85  87
ENDBRANCH  79  83
ENDBRANCH  75  77
ENDBRANCH  74  75
ENDBRANCH   1  74
TORSDOF 18
