REMARK SMILES C[C@@H]1OCC[C@H]1C(=O)N[C@]1(C(=O)OCCOC(=O)c2ccc(-c3c4nc(c(-c5c(F)cc(S(=O)(=O)[O-])cc5F)c5ccc([nH]5)c(-c5c(F)cc(S(=O)(=O)[O-])cc5F)c5nc(c(-c6c(F)cc(S(=O)(=O)[O-])cc6F)c6ccc3[nH]6)C=C5)C=C4)cc2)CCOC1
REMARK SMILES IDX 15 1 14 2 13 3 11 4 12 5 10 6 85 7 88 8 86 9 87 10 9 11 7 12
REMARK SMILES IDX 8 13 6 15 1 16 2 17 3 18 4 19 5 20 16 21 17 22 18 23 19 24
REMARK SMILES IDX 20 25 84 26 21 27 83 28 22 29 23 30 24 31 77 32 25 33 82 34
REMARK SMILES IDX 76 35 78 36 26 37 81 38 75 39 74 40 27 42 61 43 40 44 60 45
REMARK SMILES IDX 41 46 44 47 59 48 79 49 42 50 43 51 58 53 80 54 45 55 28 56
REMARK SMILES IDX 29 57 38 58 30 59 31 60 37 61 39 62 32 63 33 64 34 65 35 66
REMARK SMILES IDX 36 67 62 68 63 69 72 70 64 71 65 72 71 73 73 74 66 75 67 76
REMARK SMILES IDX 68 77 69 78 70 79 46 80 47 81 56 82 48 83 49 84 55 85 57 86
REMARK SMILES IDX 50 87 51 88 52 89 53 90 54 91
REMARK H PARENT 9 14 78 41 44 52
REMARK Flexibility Score: inf
ROOT
ATOM      1  C   UNL     1      -3.046  -0.884  -1.982  1.00  0.00     0.275 C 
ENDROOT
BRANCH   1   2
ATOM      2  C   UNL     1      -2.192  -1.887  -1.182  1.00  0.00     0.274 C 
BRANCH   2   3
ATOM      3  O   UNL     1      -2.192  -1.495   0.197  1.00  0.00    -0.460 OA
BRANCH   3   4
ATOM      4  C   UNL     1      -1.173  -1.931   0.992  1.00  0.00     0.334 C 
ATOM      5  O   UNL     1      -0.362  -2.793   0.683  1.00  0.00    -0.249 OA
BRANCH   4   6
ATOM      6  C   UNL     1      -1.214  -1.188   2.337  1.00  0.00     0.163 C 
ATOM      7  C   UNL     1      -2.695  -1.184   2.787  1.00  0.00     0.071 C 
ATOM      8  C   UNL     1      -0.625  -2.053   3.458  1.00  0.00     0.200 C 
ATOM      9  C   UNL     1      -2.646  -1.221   4.293  1.00  0.00     0.163 C 
ATOM     10  O   UNL     1      -1.423  -1.865   4.647  1.00  0.00    -0.378 OA
BRANCH   6  11
ATOM     11  N   UNL     1      -0.707   0.228   2.393  1.00  0.00    -0.338 N 
ATOM     12  C   UNL     1       0.478   0.867   2.264  1.00  0.00     0.226 C 
ATOM     13  O   UNL     1       0.701   1.655   3.198  1.00  0.00    -0.275 OA
ATOM     14  H   UNL     1      -1.438   0.862   2.573  1.00  0.00     0.164 HD
BRANCH  12  15
ATOM     15  C   UNL     1       1.423   0.939   1.059  1.00  0.00     0.109 C 
ATOM     16  C   UNL     1       3.377  -0.035  -0.191  1.00  0.00     0.039 C 
ATOM     17  C   UNL     1       2.022  -0.320   0.478  1.00  0.00     0.127 C 
ATOM     18  O   UNL     1       1.147  -0.722  -0.588  1.00  0.00    -0.378 OA
ATOM     19  C   UNL     1       0.319   0.393  -0.931  1.00  0.00     0.161 C 
ATOM     20  C   UNL     1       0.797   1.583  -0.153  1.00  0.00     0.044 C 
ENDBRANCH  12  15
ENDBRANCH   6  11
ENDBRANCH   4   6
ENDBRANCH   3   4
ENDBRANCH   2   3
ENDBRANCH   1   2
BRANCH   1  21
ATOM     21  O   UNL     1      -2.729   0.497  -1.668  1.00  0.00    -0.458 OA
BRANCH  21  22
ATOM     22  C   UNL     1      -3.427   1.034  -0.628  1.00  0.00     0.338 C 
ATOM     23  O   UNL     1      -4.362   0.502  -0.046  1.00  0.00    -0.246 OA
BRANCH  22  24
ATOM     24  C   UNL     1      -2.799   2.296  -0.144  1.00  0.00     0.060 A 
ATOM     25  C   UNL     1      -2.747   2.503   1.242  1.00  0.00     0.016 A 
ATOM     26  C   UNL     1      -2.255   3.266  -0.994  1.00  0.00     0.016 A 
ATOM     27  C   UNL     1      -2.137   3.640   1.784  1.00  0.00     0.010 A 
ATOM     28  C   UNL     1      -1.668   4.429  -0.449  1.00  0.00     0.010 A 
ATOM     29  C   UNL     1      -1.612   4.629   0.945  1.00  0.00    -0.014 A 
BRANCH  29  30
ATOM     30  C   UNL     1      -1.260   5.951   1.544  1.00  0.00     0.031 A 
ATOM     31  C   UNL     1      -2.343   7.000   1.593  1.00  0.00     0.074 A 
ATOM     32  C   UNL     1      -0.071   6.214   2.123  1.00  0.00     0.049 A 
ATOM     33  N   UNL     1      -2.335   8.183   2.151  1.00  0.00    -0.248 NA
ATOM     34  C   UNL     1      -3.612   6.653   0.933  1.00  0.00     0.031 C 
ATOM     35  C   UNL     1       1.059   5.293   2.215  1.00  0.00     0.029 A 
ATOM     36  N   UNL     1       0.375   7.350   2.765  1.00  0.00    -0.354 N 
ATOM     37  C   UNL     1      -3.602   8.709   1.931  1.00  0.00     0.074 A 
ATOM     38  C   UNL     1      -4.333   7.741   1.144  1.00  0.00     0.031 C 
ATOM     39  C   UNL     1       2.070   5.903   2.865  1.00  0.00     0.029 A 
ATOM     40  C   UNL     1       1.665   7.259   3.238  1.00  0.00     0.049 A 
ATOM     41  H   UNL     1      -0.180   8.156   2.876  1.00  0.00     0.167 HD
ATOM     42  C   UNL     1      -4.127   9.882   2.357  1.00  0.00     0.037 A 
ATOM     43  C   UNL     1       2.427   8.160   3.897  1.00  0.00     0.037 A 
ATOM     44  C   UNL     1      -3.414  10.872   3.115  1.00  0.00     0.049 A 
ATOM     45  C   UNL     1       1.854   9.512   4.268  1.00  0.00     0.074 A 
ATOM     46  C   UNL     1      -3.872  12.095   3.574  1.00  0.00     0.029 A 
ATOM     47  N   UNL     1      -2.091  10.766   3.513  1.00  0.00    -0.354 N 
ATOM     48  N   UNL     1       0.639   9.975   4.090  1.00  0.00    -0.248 NA
ATOM     49  C   UNL     1       2.758  10.461   4.939  1.00  0.00     0.031 C 
ATOM     50  C   UNL     1      -2.810  12.752   4.205  1.00  0.00     0.029 A 
ATOM     51  C   UNL     1      -1.706  11.914   4.185  1.00  0.00     0.049 A 
ATOM     52  H   UNL     1      -1.511   9.989   3.342  1.00  0.00     0.167 HD
ATOM     53  C   UNL     1       0.627  11.249   4.658  1.00  0.00     0.074 A 
ATOM     54  C   UNL     1       1.950  11.482   5.193  1.00  0.00     0.031 C 
ATOM     55  C   UNL     1      -0.392  12.143   4.731  1.00  0.00     0.037 A 
BRANCH  42  56
ATOM     56  C   UNL     1      -5.551  10.159   1.975  1.00  0.00     0.058 A 
ATOM     57  C   UNL     1      -6.618   9.471   2.575  1.00  0.00     0.135 A 
ATOM     58  C   UNL     1      -5.850  11.107   0.985  1.00  0.00     0.135 A 
ATOM     59  F   UNL     1      -6.381   8.534   3.507  1.00  0.00    -0.206 F 
ATOM     60  C   UNL     1      -7.932   9.687   2.179  1.00  0.00     0.059 A 
ATOM     61  C   UNL     1      -7.159  11.359   0.593  1.00  0.00     0.059 A 
ATOM     62  F   UNL     1      -4.863  11.785   0.378  1.00  0.00    -0.206 F 
ATOM     63  C   UNL     1      -8.191  10.630   1.182  1.00  0.00     0.060 A 
BRANCH  63  64
ATOM     64  S   UNL     1      -9.899  10.880   0.658  1.00  0.00     0.124 S 
ATOM     65  O   UNL     1     -10.147   9.664  -0.112  1.00  0.00    -0.237 OA
ATOM     66  O   UNL     1     -10.606  10.979   1.931  1.00  0.00    -0.237 OA
ATOM     67  O   UNL     1      -9.839  12.113  -0.121  1.00  0.00    -0.744 OA
ENDBRANCH  63  64
ENDBRANCH  42  56
BRANCH  43  68
ATOM     68  C   UNL     1       3.840   7.843   4.260  1.00  0.00     0.058 A 
ATOM     69  C   UNL     1       4.239   7.708   5.600  1.00  0.00     0.135 A 
ATOM     70  C   UNL     1       4.836   7.749   3.275  1.00  0.00     0.135 A 
ATOM     71  F   UNL     1       3.332   7.816   6.583  1.00  0.00    -0.206 F 
ATOM     72  C   UNL     1       5.574   7.519   5.952  1.00  0.00     0.059 A 
ATOM     73  C   UNL     1       6.173   7.535   3.600  1.00  0.00     0.059 A 
ATOM     74  F   UNL     1       4.513   7.875   1.978  1.00  0.00    -0.206 F 
ATOM     75  C   UNL     1       6.535   7.437   4.943  1.00  0.00     0.060 A 
BRANCH  75  76
ATOM     76  S   UNL     1       8.263   7.178   5.407  1.00  0.00     0.124 S 
ATOM     77  O   UNL     1       8.622   8.484   5.947  1.00  0.00    -0.237 OA
ATOM     78  O   UNL     1       8.162   6.091   6.376  1.00  0.00    -0.237 OA
ATOM     79  O   UNL     1       8.899   6.822   4.141  1.00  0.00    -0.744 OA
ENDBRANCH  75  76
ENDBRANCH  43  68
BRANCH  55  80
ATOM     80  C   UNL     1      -0.144  13.449   5.441  1.00  0.00     0.058 A 
ATOM     81  C   UNL     1       0.664  14.454   4.887  1.00  0.00     0.135 A 
ATOM     82  C   UNL     1      -0.782  13.727   6.663  1.00  0.00     0.135 A 
ATOM     83  F   UNL     1       1.298  14.245   3.723  1.00  0.00    -0.206 F 
ATOM     84  C   UNL     1       0.850  15.677   5.528  1.00  0.00     0.059 A 
ATOM     85  C   UNL     1      -0.633  14.953   7.307  1.00  0.00     0.059 A 
ATOM     86  F   UNL     1      -1.579  12.809   7.234  1.00  0.00    -0.206 F 
ATOM     87  C   UNL     1       0.195  15.918   6.737  1.00  0.00     0.060 A 
BRANCH  87  88
ATOM     88  S   UNL     1       0.413  17.522   7.538  1.00  0.00     0.124 S 
ATOM     89  O   UNL     1       1.764  17.402   8.076  1.00  0.00    -0.237 OA
ATOM     90  O   UNL     1       0.254  18.453   6.426  1.00  0.00    -0.237 OA
ATOM     91  O   UNL     1      -0.657  17.555   8.531  1.00  0.00    -0.744 OA
ENDBRANCH  87  88
ENDBRANCH  55  80
ENDBRANCH  29  30
ENDBRANCH  22  24
ENDBRANCH  21  22
ENDBRANCH   1  21
TORSDOF 16
