REMARK SMILES CC(=O)C1=C(C(=O)OCCOC(=O)c2ccc(-c3c4nc(c(-c5c(F)cc(S(=O)(=O)[O-])cc5F)c5ccc([nH]5)c(-c5c(F)cc(S(=O)(=O)[O-])cc5F)c5nc(c(-c6c(F)cc(S(=O)(=O)[O-])cc6F)c6ccc3[nH]6)C=C5)C=C4)cc2)S[C@H]2CCCCC2=N1
REMARK SMILES IDX 10 1 9 2 8 3 6 4 7 5 5 6 4 7 87 8 80 9 86 10 81 11 85 12
REMARK SMILES IDX 82 13 84 14 83 15 2 16 1 17 3 18 11 19 12 20 13 21 14 22
REMARK SMILES IDX 15 23 79 24 16 25 78 26 17 27 18 28 19 29 72 30 20 31 77 32
REMARK SMILES IDX 71 33 73 34 21 35 76 36 70 37 69 38 22 40 56 41 35 42 55 43
REMARK SMILES IDX 36 44 39 45 54 46 74 47 37 48 38 49 53 51 75 52 40 53 23 54
REMARK SMILES IDX 24 55 33 56 25 57 26 58 32 59 34 60 27 61 28 62 29 63 30 64
REMARK SMILES IDX 31 65 57 66 58 67 67 68 59 69 60 70 66 71 68 72 61 73 62 74
REMARK SMILES IDX 63 75 64 76 65 77 41 78 42 79 51 80 43 81 44 82 50 83 52 84
REMARK SMILES IDX 45 85 46 86 47 87 48 88 49 89
REMARK H PARENT 73 39 39 50
REMARK Flexibility Score: inf
ROOT
ATOM      1  C   UNL     1       4.731  -1.855   0.021  1.00  0.00     0.275 C 
ENDROOT
BRANCH   1   2
ATOM      2  C   UNL     1       5.122  -0.683   0.926  1.00  0.00     0.275 C 
BRANCH   2   3
ATOM      3  O   UNL     1       4.229  -0.681   2.047  1.00  0.00    -0.458 OA
BRANCH   3   4
ATOM      4  C   UNL     1       3.910   0.517   2.598  1.00  0.00     0.347 C 
ATOM      5  O   UNL     1       4.427   1.592   2.350  1.00  0.00    -0.245 OA
BRANCH   4   6
ATOM      6  C   UNL     1       2.724   0.303   3.461  1.00  0.00     0.123 C 
ATOM      7  C   UNL     1       1.528   0.888   3.248  1.00  0.00     0.127 C 
ATOM      8  N   UNL     1       0.397   0.667   4.019  1.00  0.00    -0.251 NA
ATOM      9  S   UNL     1       3.027  -0.761   4.802  1.00  0.00    -0.107 SA
ATOM     10  C   UNL     1       0.303  -0.320   4.855  1.00  0.00     0.032 C 
ATOM     11  C   UNL     1       1.359  -1.375   5.128  1.00  0.00     0.097 C 
ATOM     12  C   UNL     1      -1.069  -0.541   5.477  1.00  0.00     0.053 C 
ATOM     13  C   UNL     1       1.345  -1.829   6.595  1.00  0.00     0.021 C 
ATOM     14  C   UNL     1      -0.967  -0.942   6.938  1.00  0.00     0.006 C 
ATOM     15  C   UNL     1      -0.056  -2.152   7.103  1.00  0.00     0.002 C 
BRANCH   7  16
ATOM     16  C   UNL     1       1.289   1.920   2.147  1.00  0.00     0.179 C 
ATOM     17  C   UNL     1       1.953   1.819   0.799  1.00  0.00     0.095 C 
ATOM     18  O   UNL     1       0.490   2.841   2.344  1.00  0.00    -0.293 OA
ENDBRANCH   7  16
ENDBRANCH   4   6
ENDBRANCH   3   4
ENDBRANCH   2   3
ENDBRANCH   1   2
BRANCH   1  19
ATOM     19  O   UNL     1       3.449  -1.598  -0.588  1.00  0.00    -0.458 OA
BRANCH  19  20
ATOM     20  C   UNL     1       2.358  -2.045   0.091  1.00  0.00     0.338 C 
ATOM     21  O   UNL     1       2.354  -2.727   1.098  1.00  0.00    -0.246 OA
BRANCH  20  22
ATOM     22  C   UNL     1       1.139  -1.419  -0.481  1.00  0.00     0.060 A 
ATOM     23  C   UNL     1       0.076  -1.132   0.388  1.00  0.00     0.016 A 
ATOM     24  C   UNL     1       1.056  -1.050  -1.829  1.00  0.00     0.016 A 
ATOM     25  C   UNL     1      -1.049  -0.451  -0.081  1.00  0.00     0.010 A 
ATOM     26  C   UNL     1      -0.081  -0.390  -2.301  1.00  0.00     0.010 A 
ATOM     27  C   UNL     1      -1.139  -0.085  -1.431  1.00  0.00    -0.014 A 
BRANCH  27  28
ATOM     28  C   UNL     1      -2.378   0.532  -1.959  1.00  0.00     0.031 A 
ATOM     29  C   UNL     1      -3.515  -0.357  -2.370  1.00  0.00     0.074 A 
ATOM     30  C   UNL     1      -2.484   1.868  -2.086  1.00  0.00     0.049 A 
ATOM     31  N   UNL     1      -4.691  -0.032  -2.837  1.00  0.00    -0.248 NA
ATOM     32  C   UNL     1      -3.296  -1.806  -2.232  1.00  0.00     0.031 C 
ATOM     33  C   UNL     1      -1.460   2.836  -1.701  1.00  0.00     0.029 A 
ATOM     34  N   UNL     1      -3.503   2.640  -2.583  1.00  0.00    -0.354 N 
ATOM     35  C   UNL     1      -5.368  -1.230  -3.016  1.00  0.00     0.074 A 
ATOM     36  C   UNL     1      -4.457  -2.293  -2.645  1.00  0.00     0.031 C 
ATOM     37  C   UNL     1      -1.893   4.075  -1.993  1.00  0.00     0.029 A 
ATOM     38  C   UNL     1      -3.220   3.986  -2.597  1.00  0.00     0.049 A 
ATOM     39  H   UNL     1      -4.357   2.267  -2.900  1.00  0.00     0.167 HD
ATOM     40  C   UNL     1      -6.638  -1.427  -3.443  1.00  0.00     0.037 A 
ATOM     41  C   UNL     1      -3.945   5.025  -3.056  1.00  0.00     0.037 A 
ATOM     42  C   UNL     1      -7.520  -0.376  -3.871  1.00  0.00     0.049 A 
ATOM     43  C   UNL     1      -5.314   4.770  -3.630  1.00  0.00     0.074 A 
ATOM     44  C   UNL     1      -8.818  -0.476  -4.338  1.00  0.00     0.029 A 
ATOM     45  N   UNL     1      -7.183   0.970  -3.910  1.00  0.00    -0.354 N 
ATOM     46  N   UNL     1      -5.964   3.636  -3.740  1.00  0.00    -0.248 NA
ATOM     47  C   UNL     1      -6.050   5.936  -4.140  1.00  0.00     0.031 C 
ATOM     48  C   UNL     1      -9.252   0.804  -4.702  1.00  0.00     0.029 A 
ATOM     49  C   UNL     1      -8.238   1.707  -4.422  1.00  0.00     0.049 A 
ATOM     50  H   UNL     1      -6.322   1.345  -3.617  1.00  0.00     0.167 HD
ATOM     51  C   UNL     1      -7.195   3.955  -4.303  1.00  0.00     0.074 A 
ATOM     52  C   UNL     1      -7.201   5.389  -4.509  1.00  0.00     0.031 C 
ATOM     53  C   UNL     1      -8.229   3.136  -4.616  1.00  0.00     0.037 A 
BRANCH  40  54
ATOM     54  C   UNL     1      -7.126  -2.845  -3.486  1.00  0.00     0.058 A 
ATOM     55  C   UNL     1      -7.457  -3.536  -2.309  1.00  0.00     0.135 A 
ATOM     56  C   UNL     1      -7.258  -3.522  -4.707  1.00  0.00     0.135 A 
ATOM     57  F   UNL     1      -7.327  -2.937  -1.115  1.00  0.00    -0.206 F 
ATOM     58  C   UNL     1      -7.872  -4.862  -2.340  1.00  0.00     0.059 A 
ATOM     59  C   UNL     1      -7.690  -4.844  -4.763  1.00  0.00     0.059 A 
ATOM     60  F   UNL     1      -6.947  -2.907  -5.859  1.00  0.00    -0.206 F 
ATOM     61  C   UNL     1      -7.977  -5.511  -3.572  1.00  0.00     0.060 A 
BRANCH  61  62
ATOM     62  S   UNL     1      -8.487  -7.242  -3.595  1.00  0.00     0.124 S 
ATOM     63  O   UNL     1      -7.274  -7.907  -3.129  1.00  0.00    -0.237 OA
ATOM     64  O   UNL     1      -9.611  -7.252  -2.664  1.00  0.00    -0.237 OA
ATOM     65  O   UNL     1      -8.833  -7.476  -4.993  1.00  0.00    -0.744 OA
ENDBRANCH  61  62
ENDBRANCH  40  54
BRANCH  41  66
ATOM     66  C   UNL     1      -3.393   6.405  -3.000  1.00  0.00     0.058 A 
ATOM     67  C   UNL     1      -3.917   7.360  -2.117  1.00  0.00     0.135 A 
ATOM     68  C   UNL     1      -2.345   6.801  -3.845  1.00  0.00     0.135 A 
ATOM     69  F   UNL     1      -4.929   7.032  -1.299  1.00  0.00    -0.206 F 
ATOM     70  C   UNL     1      -3.437   8.666  -2.087  1.00  0.00     0.059 A 
ATOM     71  C   UNL     1      -1.834   8.095  -3.820  1.00  0.00     0.059 A 
ATOM     72  F   UNL     1      -1.804   5.922  -4.703  1.00  0.00    -0.206 F 
ATOM     73  C   UNL     1      -2.397   9.026  -2.947  1.00  0.00     0.060 A 
BRANCH  73  74
ATOM     74  S   UNL     1      -1.769  10.719  -2.894  1.00  0.00     0.124 S 
ATOM     75  O   UNL     1      -2.824  11.444  -3.592  1.00  0.00    -0.237 OA
ATOM     76  O   UNL     1      -1.666  10.967  -1.459  1.00  0.00    -0.237 OA
ATOM     77  O   UNL     1      -0.494  10.625  -3.599  1.00  0.00    -0.744 OA
ENDBRANCH  73  74
ENDBRANCH  41  66
BRANCH  53  78
ATOM     78  C   UNL     1      -9.466   3.767  -5.191  1.00  0.00     0.058 A 
ATOM     79  C   UNL     1      -9.514   4.210  -6.521  1.00  0.00     0.135 A 
ATOM     80  C   UNL     1     -10.637   3.865  -4.422  1.00  0.00     0.135 A 
ATOM     81  F   UNL     1      -8.419   4.145  -7.295  1.00  0.00    -0.206 F 
ATOM     82  C   UNL     1     -10.678   4.740  -7.067  1.00  0.00     0.059 A 
ATOM     83  C   UNL     1     -11.818   4.371  -4.954  1.00  0.00     0.059 A 
ATOM     84  F   UNL     1     -10.645   3.446  -3.147  1.00  0.00    -0.206 F 
ATOM     85  C   UNL     1     -11.827   4.813  -6.277  1.00  0.00     0.060 A 
BRANCH  85  86
ATOM     86  S   UNL     1     -13.350   5.448  -7.012  1.00  0.00     0.124 S 
ATOM     87  O   UNL     1     -13.099   6.885  -7.012  1.00  0.00    -0.237 OA
ATOM     88  O   UNL     1     -13.358   4.806  -8.323  1.00  0.00    -0.237 OA
ATOM     89  O   UNL     1     -14.387   4.990  -6.092  1.00  0.00    -0.744 OA
ENDBRANCH  85  86
ENDBRANCH  53  78
ENDBRANCH  27  28
ENDBRANCH  20  22
ENDBRANCH  19  20
ENDBRANCH   1  19
TORSDOF 15
