REMARK SMILES CC[NH2+]CCC(=O)NC1(CC(=O)OCCOC(=O)c2ccc(-c3c4nc(c(-c5c(F)cc(S(=O)(=O)[O-])cc5F)c5ccc([nH]5)c(-c5c(F)cc(S(=O)(=O)[O-])cc5F)c5nc(c(-c6c(F)cc(S(=O)(=O)[O-])cc6F)c6ccc3[nH]6)C=C5)C=C4)cc2)CCC1
REMARK SMILES IDX 13 1 11 2 12 3 10 4 9 5 85 6 87 7 86 8 8 9 6 10 7 11 5 13
REMARK SMILES IDX 4 14 3 15 2 18 1 19 14 20 15 21 16 22 17 23 18 24 19 25
REMARK SMILES IDX 20 26 84 27 21 28 83 29 22 30 23 31 24 32 77 33 25 34 82 35
REMARK SMILES IDX 76 36 78 37 26 38 81 39 75 40 74 41 27 43 61 44 40 45 60 46
REMARK SMILES IDX 41 47 44 48 59 49 79 50 42 51 43 52 58 54 80 55 45 56 28 57
REMARK SMILES IDX 29 58 38 59 30 60 31 61 37 62 39 63 32 64 33 65 34 66 35 67
REMARK SMILES IDX 36 68 62 69 63 70 72 71 64 72 65 73 71 74 73 75 66 76 67 77
REMARK SMILES IDX 68 78 69 79 70 80 46 81 47 82 56 83 48 84 49 85 55 86 57 87
REMARK SMILES IDX 50 88 51 89 52 90 53 91 54 92
REMARK H PARENT 8 12 3 16 3 17 78 42 44 53
REMARK Flexibility Score: inf
ROOT
ATOM      1  O   UNL     1       5.835   0.357   0.818  1.00  0.00    -0.462 OA
ENDROOT
BRANCH   1   2
ATOM      2  C   UNL     1       5.452  -0.742   0.127  1.00  0.00     0.308 C 
ATOM      3  O   UNL     1       6.221  -1.492  -0.464  1.00  0.00    -0.252 OA
BRANCH   2   4
ATOM      4  C   UNL     1       3.970  -0.921   0.037  1.00  0.00     0.151 C 
BRANCH   4   5
ATOM      5  C   UNL     1       3.024  -0.396   1.131  1.00  0.00     0.050 C 
ATOM      6  C   UNL     1       1.635  -0.331   0.464  1.00  0.00     0.029 C 
ATOM      7  C   UNL     1       2.891   1.143   1.369  1.00  0.00     0.029 C 
ATOM      8  C   UNL     1       1.814   1.185   0.280  1.00  0.00     0.005 C 
BRANCH   5   9
ATOM      9  N   UNL     1       3.200  -1.093   2.434  1.00  0.00    -0.350 N 
ATOM     10  C   UNL     1       2.380  -1.621   3.392  1.00  0.00     0.226 C 
ATOM     11  O   UNL     1       2.882  -1.869   4.494  1.00  0.00    -0.275 OA
ATOM     12  H   UNL     1       4.151  -1.201   2.666  1.00  0.00     0.164 HD
BRANCH  10  13
ATOM     13  C   UNL     1       0.918  -1.938   3.173  1.00  0.00     0.161 C 
BRANCH  13  14
ATOM     14  C   UNL     1      -0.039  -0.888   3.771  1.00  0.00     0.270 C 
BRANCH  14  15
ATOM     15  N   UNL     1      -0.838  -0.074   2.839  1.00  0.00    -0.346 N 
ATOM     16  H   UNL     1      -1.395   0.582   3.385  1.00  0.00     0.346 HD
ATOM     17  H   UNL     1      -0.176   0.390   2.216  1.00  0.00     0.346 HD
BRANCH  15  18
ATOM     18  C   UNL     1      -1.742  -0.848   1.989  1.00  0.00     0.257 C 
ATOM     19  C   UNL     1      -2.036  -0.112   0.684  1.00  0.00     0.071 C 
ENDBRANCH  15  18
ENDBRANCH  14  15
ENDBRANCH  13  14
ENDBRANCH  10  13
ENDBRANCH   5   9
ENDBRANCH   4   5
ENDBRANCH   2   4
ENDBRANCH   1   2
BRANCH   1  20
ATOM     20  C   UNL     1       7.256   0.596   0.845  1.00  0.00     0.274 C 
BRANCH  20  21
ATOM     21  C   UNL     1       7.919   0.046   2.112  1.00  0.00     0.275 C 
BRANCH  21  22
ATOM     22  O   UNL     1       7.807  -1.385   2.232  1.00  0.00    -0.458 OA
BRANCH  22  23
ATOM     23  C   UNL     1       6.686  -1.805   2.867  1.00  0.00     0.338 C 
ATOM     24  O   UNL     1       5.803  -1.096   3.320  1.00  0.00    -0.246 OA
BRANCH  23  25
ATOM     25  C   UNL     1       6.565  -3.269   2.799  1.00  0.00     0.060 A 
ATOM     26  C   UNL     1       5.580  -3.808   1.968  1.00  0.00     0.016 A 
ATOM     27  C   UNL     1       7.324  -4.098   3.622  1.00  0.00     0.016 A 
ATOM     28  C   UNL     1       5.343  -5.177   1.952  1.00  0.00     0.010 A 
ATOM     29  C   UNL     1       7.098  -5.480   3.591  1.00  0.00     0.010 A 
ATOM     30  C   UNL     1       6.105  -6.028   2.758  1.00  0.00    -0.014 A 
BRANCH  30  31
ATOM     31  C   UNL     1       5.851  -7.489   2.737  1.00  0.00     0.031 A 
ATOM     32  C   UNL     1       5.267  -8.169   3.941  1.00  0.00     0.074 A 
ATOM     33  C   UNL     1       6.140  -8.203   1.631  1.00  0.00     0.049 A 
ATOM     34  N   UNL     1       5.138  -9.447   4.185  1.00  0.00    -0.248 NA
ATOM     35  C   UNL     1       4.767  -7.295   5.014  1.00  0.00     0.031 C 
ATOM     36  C   UNL     1       6.651  -7.648   0.376  1.00  0.00     0.029 A 
ATOM     37  N   UNL     1       6.053  -9.550   1.388  1.00  0.00    -0.354 N 
ATOM     38  C   UNL     1       4.585  -9.536   5.457  1.00  0.00     0.074 A 
ATOM     39  C   UNL     1       4.395  -8.180   5.930  1.00  0.00     0.031 C 
ATOM     40  C   UNL     1       6.830  -8.645  -0.504  1.00  0.00     0.029 A 
ATOM     41  C   UNL     1       6.513  -9.913   0.145  1.00  0.00     0.049 A 
ATOM     42  H   UNL     1       5.695 -10.194   2.041  1.00  0.00     0.167 HD
ATOM     43  C   UNL     1       4.273 -10.649   6.162  1.00  0.00     0.037 A 
ATOM     44  C   UNL     1       6.704 -11.132  -0.395  1.00  0.00     0.037 A 
ATOM     45  C   UNL     1       4.436 -11.992   5.668  1.00  0.00     0.049 A 
ATOM     46  C   UNL     1       6.389 -12.354   0.422  1.00  0.00     0.074 A 
ATOM     47  C   UNL     1       4.148 -13.187   6.305  1.00  0.00     0.029 A 
ATOM     48  N   UNL     1       4.921 -12.319   4.409  1.00  0.00    -0.354 N 
ATOM     49  N   UNL     1       5.918 -12.427   1.644  1.00  0.00    -0.248 NA
ATOM     50  C   UNL     1       6.647 -13.657  -0.205  1.00  0.00     0.031 C 
ATOM     51  C   UNL     1       4.485 -14.236   5.442  1.00  0.00     0.029 A 
ATOM     52  C   UNL     1       4.950 -13.695   4.254  1.00  0.00     0.049 A 
ATOM     53  H   UNL     1       5.204 -11.668   3.727  1.00  0.00     0.167 HD
ATOM     54  C   UNL     1       5.813 -13.783   1.929  1.00  0.00     0.074 A 
ATOM     55  C   UNL     1       6.256 -14.494   0.747  1.00  0.00     0.031 C 
ATOM     56  C   UNL     1       5.390 -14.384   3.068  1.00  0.00     0.037 A 
BRANCH  43  57
ATOM     57  C   UNL     1       3.763 -10.462   7.563  1.00  0.00     0.058 A 
ATOM     58  C   UNL     1       2.457 -10.023   7.827  1.00  0.00     0.135 A 
ATOM     59  C   UNL     1       4.591 -10.755   8.660  1.00  0.00     0.135 A 
ATOM     60  F   UNL     1       1.631  -9.714   6.815  1.00  0.00    -0.206 F 
ATOM     61  C   UNL     1       1.995  -9.860   9.130  1.00  0.00     0.059 A 
ATOM     62  C   UNL     1       4.143 -10.620   9.970  1.00  0.00     0.059 A 
ATOM     63  F   UNL     1       5.850 -11.178   8.462  1.00  0.00    -0.206 F 
ATOM     64  C   UNL     1       2.848 -10.158  10.195  1.00  0.00     0.060 A 
BRANCH  64  65
ATOM     65  S   UNL     1       2.238  -9.946  11.882  1.00  0.00     0.124 S 
ATOM     66  O   UNL     1       2.311  -8.497  12.038  1.00  0.00    -0.237 OA
ATOM     67  O   UNL     1       0.893 -10.508  11.805  1.00  0.00    -0.237 OA
ATOM     68  O   UNL     1       3.187 -10.712  12.684  1.00  0.00    -0.744 OA
ENDBRANCH  64  65
ENDBRANCH  43  57
BRANCH  44  69
ATOM     69  C   UNL     1       7.261 -11.251  -1.767  1.00  0.00     0.058 A 
ATOM     70  C   UNL     1       6.460 -11.671  -2.838  1.00  0.00     0.135 A 
ATOM     71  C   UNL     1       8.597 -10.919  -2.038  1.00  0.00     0.135 A 
ATOM     72  F   UNL     1       5.179 -12.009  -2.625  1.00  0.00    -0.206 F 
ATOM     73  C   UNL     1       6.964 -11.762  -4.131  1.00  0.00     0.059 A 
ATOM     74  C   UNL     1       9.118 -10.979  -3.326  1.00  0.00     0.059 A 
ATOM     75  F   UNL     1       9.401 -10.501  -1.048  1.00  0.00    -0.206 F 
ATOM     76  C   UNL     1       8.295 -11.409  -4.366  1.00  0.00     0.060 A 
BRANCH  76  77
ATOM     77  S   UNL     1       8.926 -11.464  -6.057  1.00  0.00     0.124 S 
ATOM     78  O   UNL     1       9.153 -12.893  -6.239  1.00  0.00    -0.237 OA
ATOM     79  O   UNL     1       7.820 -10.892  -6.820  1.00  0.00    -0.237 OA
ATOM     80  O   UNL     1      10.126 -10.635  -5.992  1.00  0.00    -0.744 OA
ENDBRANCH  76  77
ENDBRANCH  44  69
BRANCH  56  81
ATOM     81  C   UNL     1       5.358 -15.885   3.078  1.00  0.00     0.058 A 
ATOM     82  C   UNL     1       6.530 -16.643   3.219  1.00  0.00     0.135 A 
ATOM     83  C   UNL     1       4.136 -16.570   2.988  1.00  0.00     0.135 A 
ATOM     84  F   UNL     1       7.723 -16.034   3.300  1.00  0.00    -0.206 F 
ATOM     85  C   UNL     1       6.494 -18.034   3.253  1.00  0.00     0.059 A 
ATOM     86  C   UNL     1       4.075 -17.959   3.039  1.00  0.00     0.059 A 
ATOM     87  F   UNL     1       2.987 -15.889   2.858  1.00  0.00    -0.206 F 
ATOM     88  C   UNL     1       5.261 -18.683   3.161  1.00  0.00     0.060 A 
BRANCH  88  89
ATOM     89  S   UNL     1       5.219 -20.486   3.238  1.00  0.00     0.124 S 
ATOM     90  O   UNL     1       5.647 -20.847   1.891  1.00  0.00    -0.237 OA
ATOM     91  O   UNL     1       6.171 -20.779   4.306  1.00  0.00    -0.237 OA
ATOM     92  O   UNL     1       3.824 -20.779   3.555  1.00  0.00    -0.744 OA
ENDBRANCH  88  89
ENDBRANCH  56  81
ENDBRANCH  30  31
ENDBRANCH  23  25
ENDBRANCH  22  23
ENDBRANCH  21  22
ENDBRANCH  20  21
ENDBRANCH   1  20
TORSDOF 20
