REMARK SMILES COc1c[nH]c(C[N@H+]2CCC[C@@H](c3ccc(C(=O)OCCOC(=O)c4ccc(-c5c6nc(c(-c7c(F)cc(S(=O)(=O)[O-])cc7F)c7ccc([nH]7)c(-c7c(F)cc(S(=O)(=O)[O-])cc7F)c7nc(c(-c8c(F)cc(S(=O)(=O)[O-])cc8F)c8ccc5[nH]8)C=C7)C=C6)cc4)cc3)C2)cc1=O
REMARK SMILES IDX 20 1 19 2 17 3 18 4 16 5 13 6 14 7 92 8 15 9 91 10 12 11
REMARK SMILES IDX 8 12 9 13 93 14 10 16 11 17 7 18 6 19 3 20 4 21 95 22 5 23
REMARK SMILES IDX 94 24 96 25 2 27 1 28 21 29 22 30 23 31 24 32 25 33 26 34
REMARK SMILES IDX 90 35 27 36 89 37 28 38 29 39 30 40 83 41 31 42 88 43 82 44
REMARK SMILES IDX 84 45 32 46 87 47 81 48 80 49 33 51 67 52 46 53 66 54 47 55
REMARK SMILES IDX 50 56 65 57 85 58 48 59 49 60 64 62 86 63 51 64 34 65 35 66
REMARK SMILES IDX 44 67 36 68 37 69 43 70 45 71 38 72 39 73 40 74 41 75 42 76
REMARK SMILES IDX 68 77 69 78 78 79 70 80 71 81 77 82 79 83 72 84 73 85 74 86
REMARK SMILES IDX 75 87 76 88 52 89 53 90 62 91 54 92 55 93 61 94 63 95 56 96
REMARK SMILES IDX 57 97 58 98 59 99 60 100
REMARK H PARENT 8 15 5 26 84 50 50 61
REMARK Flexibility Score: inf
ROOT
ATOM      1  C   UNL     1      -8.041   5.625  -7.130  1.00  0.00     0.275 C 
ENDROOT
BRANCH   1   2
ATOM      2  O   UNL     1      -6.634   5.943  -7.174  1.00  0.00    -0.458 OA
BRANCH   2   3
ATOM      3  C   UNL     1      -5.907   5.443  -6.144  1.00  0.00     0.338 C 
ATOM      4  O   UNL     1      -6.334   4.806  -5.199  1.00  0.00    -0.246 OA
BRANCH   3   5
ATOM      5  C   UNL     1      -4.458   5.678  -6.339  1.00  0.00     0.060 A 
ATOM      6  C   UNL     1      -1.665   6.025  -6.392  1.00  0.00    -0.039 A 
ATOM      7  C   UNL     1      -2.225   4.775  -6.110  1.00  0.00     0.005 A 
ATOM      8  C   UNL     1      -2.526   7.090  -6.707  1.00  0.00     0.005 A 
ATOM      9  C   UNL     1      -3.599   4.623  -6.036  1.00  0.00     0.016 A 
ATOM     10  C   UNL     1      -3.922   6.915  -6.701  1.00  0.00     0.016 A 
BRANCH   6  11
ATOM     11  C   UNL     1      -0.166   6.219  -6.205  1.00  0.00     0.074 C 
ATOM     12  N   UNL     1       1.610   5.971  -4.407  1.00  0.00    -0.329 N 
ATOM     13  C   UNL     1       2.358   5.043  -5.267  1.00  0.00     0.262 C 
ATOM     14  C   UNL     1       0.178   5.945  -4.717  1.00  0.00     0.270 C 
ATOM     15  H   UNL     1       1.944   6.913  -4.612  1.00  0.00     0.348 HD
ATOM     16  C   UNL     1       2.140   5.360  -6.750  1.00  0.00     0.062 C 
ATOM     17  C   UNL     1       0.661   5.303  -7.122  1.00  0.00     0.020 C 
BRANCH  12  18
ATOM     18  C   UNL     1       1.879   5.740  -2.970  1.00  0.00     0.317 C 
BRANCH  18  19
ATOM     19  C   UNL     1       1.607   4.345  -2.408  1.00  0.00     0.074 A 
ATOM     20  C   UNL     1       0.890   1.711  -1.541  1.00  0.00     0.182 A 
ATOM     21  C   UNL     1      -0.015   2.639  -1.883  1.00  0.00     0.133 A 
ATOM     22  C   UNL     1       2.328   2.154  -1.556  1.00  0.00     0.223 A 
ATOM     23  N   UNL     1       0.300   3.924  -2.239  1.00  0.00    -0.357 N 
ATOM     24  C   UNL     1       2.620   3.528  -2.062  1.00  0.00     0.083 A 
ATOM     25  O   UNL     1       3.261   1.448  -1.184  1.00  0.00    -0.286 OA
ATOM     26  H   UNL     1      -0.429   4.570  -2.379  1.00  0.00     0.166 HD
BRANCH  20  27
ATOM     27  O   UNL     1       0.498   0.413  -1.286  1.00  0.00    -0.491 OA
ATOM     28  C   UNL     1       0.959  -0.089  -0.037  1.00  0.00     0.278 C 
ENDBRANCH  20  27
ENDBRANCH  18  19
ENDBRANCH  12  18
ENDBRANCH   6  11
ENDBRANCH   3   5
ENDBRANCH   2   3
ENDBRANCH   1   2
BRANCH   1  29
ATOM     29  C   UNL     1      -8.386   4.456  -8.055  1.00  0.00     0.275 C 
BRANCH  29  30
ATOM     30  O   UNL     1      -7.818   3.224  -7.569  1.00  0.00    -0.458 OA
BRANCH  30  31
ATOM     31  C   UNL     1      -6.795   2.735  -8.305  1.00  0.00     0.338 C 
ATOM     32  O   UNL     1      -6.322   3.216  -9.323  1.00  0.00    -0.246 OA
BRANCH  31  33
ATOM     33  C   UNL     1      -6.241   1.519  -7.689  1.00  0.00     0.060 A 
ATOM     34  C   UNL     1      -5.496   1.650  -6.526  1.00  0.00     0.016 A 
ATOM     35  C   UNL     1      -6.263   0.301  -8.363  1.00  0.00     0.016 A 
ATOM     36  C   UNL     1      -4.623   0.636  -6.137  1.00  0.00     0.010 A 
ATOM     37  C   UNL     1      -5.514  -0.776  -7.868  1.00  0.00     0.010 A 
ATOM     38  C   UNL     1      -4.633  -0.610  -6.782  1.00  0.00    -0.014 A 
BRANCH  38  39
ATOM     39  C   UNL     1      -3.726  -1.715  -6.333  1.00  0.00     0.031 A 
ATOM     40  C   UNL     1      -2.839  -2.439  -7.323  1.00  0.00     0.074 A 
ATOM     41  C   UNL     1      -3.684  -2.082  -5.032  1.00  0.00     0.049 A 
ATOM     42  N   UNL     1      -2.146  -3.540  -7.167  1.00  0.00    -0.248 NA
ATOM     43  C   UNL     1      -2.732  -1.861  -8.673  1.00  0.00     0.031 C 
ATOM     44  C   UNL     1      -4.451  -1.462  -3.948  1.00  0.00     0.029 A 
ATOM     45  N   UNL     1      -2.961  -3.063  -4.394  1.00  0.00    -0.354 N 
ATOM     46  C   UNL     1      -1.578  -3.821  -8.407  1.00  0.00     0.074 A 
ATOM     47  C   UNL     1      -2.013  -2.777  -9.309  1.00  0.00     0.031 C 
ATOM     48  C   UNL     1      -4.120  -2.034  -2.783  1.00  0.00     0.029 A 
ATOM     49  C   UNL     1      -3.209  -3.140  -3.042  1.00  0.00     0.049 A 
ATOM     50  H   UNL     1      -2.327  -3.654  -4.861  1.00  0.00     0.167 HD
ATOM     51  C   UNL     1      -0.770  -4.851  -8.760  1.00  0.00     0.037 A 
ATOM     52  C   UNL     1      -2.805  -4.029  -2.114  1.00  0.00     0.037 A 
ATOM     53  C   UNL     1      -0.287  -5.853  -7.841  1.00  0.00     0.049 A 
ATOM     54  C   UNL     1      -1.935  -5.179  -2.533  1.00  0.00     0.074 A 
ATOM     55  C   UNL     1       0.553  -6.924  -8.097  1.00  0.00     0.029 A 
ATOM     56  N   UNL     1      -0.586  -5.900  -6.487  1.00  0.00    -0.354 N 
ATOM     57  N   UNL     1      -1.460  -5.461  -3.722  1.00  0.00    -0.248 NA
ATOM     58  C   UNL     1      -1.564  -6.144  -1.489  1.00  0.00     0.031 C 
ATOM     59  C   UNL     1       0.728  -7.641  -6.909  1.00  0.00     0.029 A 
ATOM     60  C   UNL     1       0.039  -6.989  -5.899  1.00  0.00     0.049 A 
ATOM     61  H   UNL     1      -1.158  -5.254  -6.013  1.00  0.00     0.167 HD
ATOM     62  C   UNL     1      -0.720  -6.627  -3.567  1.00  0.00     0.074 A 
ATOM     63  C   UNL     1      -0.797  -6.988  -2.166  1.00  0.00     0.031 C 
ATOM     64  C   UNL     1      -0.042  -7.336  -4.502  1.00  0.00     0.037 A 
BRANCH  51  65
ATOM     65  C   UNL     1      -0.376  -4.977 -10.211  1.00  0.00     0.058 A 
ATOM     66  C   UNL     1       0.526  -4.094 -10.823  1.00  0.00     0.135 A 
ATOM     67  C   UNL     1      -0.880  -6.034 -10.989  1.00  0.00     0.135 A 
ATOM     68  F   UNL     1       1.032  -3.059 -10.134  1.00  0.00    -0.206 F 
ATOM     69  C   UNL     1       0.890  -4.233 -12.161  1.00  0.00     0.059 A 
ATOM     70  C   UNL     1      -0.508  -6.210 -12.320  1.00  0.00     0.059 A 
ATOM     71  F   UNL     1      -1.743  -6.914 -10.457  1.00  0.00    -0.206 F 
ATOM     72  C   UNL     1       0.366  -5.294 -12.902  1.00  0.00     0.060 A 
BRANCH  72  73
ATOM     73  S   UNL     1       0.845  -5.461 -14.635  1.00  0.00     0.124 S 
ATOM     74  O   UNL     1       0.105  -4.362 -15.249  1.00  0.00    -0.237 OA
ATOM     75  O   UNL     1       2.293  -5.295 -14.578  1.00  0.00    -0.237 OA
ATOM     76  O   UNL     1       0.384  -6.800 -14.989  1.00  0.00    -0.744 OA
ENDBRANCH  72  73
ENDBRANCH  51  65
BRANCH  52  77
ATOM     77  C   UNL     1      -3.270  -3.892  -0.706  1.00  0.00     0.058 A 
ATOM     78  C   UNL     1      -2.379  -3.553   0.322  1.00  0.00     0.135 A 
ATOM     79  C   UNL     1      -4.622  -4.070  -0.366  1.00  0.00     0.135 A 
ATOM     80  F   UNL     1      -1.076  -3.385   0.053  1.00  0.00    -0.206 F 
ATOM     81  C   UNL     1      -2.809  -3.401   1.637  1.00  0.00     0.059 A 
ATOM     82  C   UNL     1      -5.081  -3.890   0.934  1.00  0.00     0.059 A 
ATOM     83  F   UNL     1      -5.519  -4.383  -1.315  1.00  0.00    -0.206 F 
ATOM     84  C   UNL     1      -4.164  -3.564   1.931  1.00  0.00     0.060 A 
BRANCH  84  85
ATOM     85  S   UNL     1      -4.722  -3.299   3.628  1.00  0.00     0.124 S 
ATOM     86  O   UNL     1      -4.238  -4.506   4.288  1.00  0.00    -0.237 OA
ATOM     87  O   UNL     1      -4.041  -2.058   3.985  1.00  0.00    -0.237 OA
ATOM     88  O   UNL     1      -6.172  -3.191   3.490  1.00  0.00    -0.744 OA
ENDBRANCH  84  85
ENDBRANCH  52  77
BRANCH  64  89
ATOM     89  C   UNL     1       0.705  -8.553  -4.033  1.00  0.00     0.058 A 
ATOM     90  C   UNL     1       0.039  -9.732  -3.666  1.00  0.00     0.135 A 
ATOM     91  C   UNL     1       2.108  -8.549  -3.982  1.00  0.00     0.135 A 
ATOM     92  F   UNL     1      -1.302  -9.786  -3.687  1.00  0.00    -0.206 F 
ATOM     93  C   UNL     1       0.737 -10.857  -3.239  1.00  0.00     0.059 A 
ATOM     94  C   UNL     1       2.828  -9.671  -3.585  1.00  0.00     0.059 A 
ATOM     95  F   UNL     1       2.794  -7.449  -4.331  1.00  0.00    -0.206 F 
ATOM     96  C   UNL     1       2.132 -10.817  -3.202  1.00  0.00     0.060 A 
BRANCH  96  97
ATOM     97  S   UNL     1       3.028 -12.292  -2.672  1.00  0.00     0.124 S 
ATOM     98  O   UNL     1       2.788 -12.280  -1.233  1.00  0.00    -0.237 OA
ATOM     99  O   UNL     1       2.355 -13.351  -3.418  1.00  0.00    -0.237 OA
ATOM    100  O   UNL     1       4.402 -12.021  -3.082  1.00  0.00    -0.744 OA
ENDBRANCH  96  97
ENDBRANCH  64  89
ENDBRANCH  38  39
ENDBRANCH  31  33
ENDBRANCH  30  31
ENDBRANCH  29  30
ENDBRANCH   1  29
TORSDOF 18
