REMARK SMILES O=C(CSc1nnc2sc3ccccc3n12)N[C@H](Cc1c[nH]c2ccccc12)C(=O)OCCOC(=O)c1ccc(-c2c3nc(c(-c4c(F)cc(S(=O)(=O)[O-])cc4F)c4ccc([nH]4)c(-c4c(F)cc(S(=O)(=O)[O-])cc4F)c4nc(c(-c5c(F)cc(S(=O)(=O)[O-])cc5F)c5ccc2[nH]5)C=C4)C=C3)cc1
REMARK SMILES IDX 32 1 31 2 29 3 30 4 18 5 17 6 1 7 2 8 3 10 4 11 5 12 6 13
REMARK SMILES IDX 16 14 7 15 8 16 15 17 9 18 10 19 14 20 11 21 13 22 12 23
REMARK SMILES IDX 19 24 20 25 21 26 28 27 22 28 23 29 27 30 24 32 26 33 25 34
REMARK SMILES IDX 33 35 34 36 35 37 36 38 37 39 38 40 102 41 39 42 101 43
REMARK SMILES IDX 40 44 41 45 42 46 95 47 43 48 100 49 94 50 96 51 44 52 99 53
REMARK SMILES IDX 93 54 92 55 45 57 79 58 58 59 78 60 59 61 62 62 77 63 97 64
REMARK SMILES IDX 60 65 61 66 76 68 98 69 63 70 46 71 47 72 56 73 48 74 49 75
REMARK SMILES IDX 55 76 57 77 50 78 51 79 52 80 53 81 54 82 80 83 81 84 90 85
REMARK SMILES IDX 82 86 83 87 89 88 91 89 84 90 85 91 86 92 87 93 88 94 64 95
REMARK SMILES IDX 65 96 74 97 66 98 67 99 73 100 75 101 68 102 69 103 70 104
REMARK SMILES IDX 71 105 72 106
REMARK H PARENT 17 9 22 31 96 56 62 67
REMARK Flexibility Score: inf
ROOT
ATOM      1  C   UNL     1       4.247   2.762  -3.862  1.00  0.00     0.274 C 
ENDROOT
BRANCH   1   2
ATOM      2  O   UNL     1       3.879   2.099  -2.624  1.00  0.00    -0.461 OA
BRANCH   2   3
ATOM      3  C   UNL     1       3.283   2.900  -1.704  1.00  0.00     0.329 C 
ATOM      4  O   UNL     1       2.966   4.065  -1.939  1.00  0.00    -0.250 OA
BRANCH   3   5
ATOM      5  C   UNL     1       2.939   2.238  -0.349  1.00  0.00     0.196 C 
BRANCH   5   6
ATOM      6  N   UNL     1       3.151   3.260   0.679  1.00  0.00    -0.342 N 
ATOM      7  O   UNL     1       5.375   2.832   1.071  1.00  0.00    -0.274 OA
ATOM      8  C   UNL     1       4.397   3.563   1.179  1.00  0.00     0.231 C 
ATOM      9  H   UNL     1       2.371   3.751   1.025  1.00  0.00     0.164 HD
BRANCH   8  10
ATOM     10  C   UNL     1       4.465   4.924   1.830  1.00  0.00     0.178 C 
BRANCH  10  11
ATOM     11  S   UNL     1       4.439   6.177   0.523  1.00  0.00    -0.076 SA
BRANCH  11  12
ATOM     12  C   UNL     1       6.005   6.039  -0.145  1.00  0.00     0.197 A 
ATOM     13  N   UNL     1       6.369   5.281  -1.164  1.00  0.00    -0.122 NA
ATOM     14  N   UNL     1       7.046   6.821   0.236  1.00  0.00    -0.260 N 
ATOM     15  N   UNL     1       7.696   5.582  -1.470  1.00  0.00    -0.118 NA
ATOM     16  C   UNL     1       8.053   6.511  -0.625  1.00  0.00     0.217 A 
ATOM     17  C   UNL     1       7.333   7.787   1.196  1.00  0.00     0.068 A 
ATOM     18  S   UNL     1       9.493   7.425  -0.345  1.00  0.00    -0.094 S 
ATOM     19  C   UNL     1       8.649   8.239   1.019  1.00  0.00     0.055 A 
ATOM     20  C   UNL     1       6.511   8.271   2.202  1.00  0.00     0.028 A 
ATOM     21  C   UNL     1       9.166   9.210   1.858  1.00  0.00     0.021 A 
ATOM     22  C   UNL     1       7.039   9.242   3.052  1.00  0.00     0.002 A 
ATOM     23  C   UNL     1       8.351   9.710   2.880  1.00  0.00     0.002 A 
ENDBRANCH  11  12
ENDBRANCH  10  11
ENDBRANCH   8  10
ENDBRANCH   5   6
BRANCH   5  24
ATOM     24  C   UNL     1       3.538   0.872  -0.006  1.00  0.00     0.074 C 
BRANCH  24  25
ATOM     25  C   UNL     1       2.590  -0.296  -0.164  1.00  0.00    -0.020 A 
ATOM     26  C   UNL     1       2.880  -1.444  -0.876  1.00  0.00     0.087 A 
ATOM     27  C   UNL     1       1.274  -0.488   0.398  1.00  0.00     0.003 A 
ATOM     28  N   UNL     1       1.816  -2.296  -0.787  1.00  0.00    -0.361 N 
ATOM     29  C   UNL     1       0.808  -1.728  -0.048  1.00  0.00     0.046 A 
ATOM     30  C   UNL     1       0.412   0.277   1.219  1.00  0.00     0.010 A 
ATOM     31  H   UNL     1       1.777  -3.191  -1.196  1.00  0.00     0.166 HD
ATOM     32  C   UNL     1      -0.469  -2.222   0.252  1.00  0.00     0.026 A 
ATOM     33  C   UNL     1      -0.882  -0.189   1.500  1.00  0.00     0.001 A 
ATOM     34  C   UNL     1      -1.316  -1.419   1.018  1.00  0.00     0.002 A 
ENDBRANCH  24  25
ENDBRANCH   5  24
ENDBRANCH   3   5
ENDBRANCH   2   3
ENDBRANCH   1   2
BRANCH   1  35
ATOM     35  C   UNL     1       3.769   1.955  -5.075  1.00  0.00     0.275 C 
BRANCH  35  36
ATOM     36  O   UNL     1       2.355   2.142  -5.242  1.00  0.00    -0.458 OA
BRANCH  36  37
ATOM     37  C   UNL     1       1.572   1.188  -4.668  1.00  0.00     0.338 C 
ATOM     38  O   UNL     1       1.824   0.019  -4.541  1.00  0.00    -0.246 OA
BRANCH  37  39
ATOM     39  C   UNL     1       0.549   1.940  -3.897  1.00  0.00     0.060 A 
ATOM     40  C   UNL     1       0.045   3.177  -4.317  1.00  0.00     0.016 A 
ATOM     41  C   UNL     1       0.337   1.499  -2.598  1.00  0.00     0.016 A 
ATOM     42  C   UNL     1      -0.512   4.050  -3.381  1.00  0.00     0.010 A 
ATOM     43  C   UNL     1      -0.200   2.382  -1.674  1.00  0.00     0.010 A 
ATOM     44  C   UNL     1      -0.548   3.685  -2.036  1.00  0.00    -0.014 A 
BRANCH  44  45
ATOM     45  C   UNL     1      -1.125   4.559  -1.012  1.00  0.00     0.031 A 
ATOM     46  C   UNL     1      -2.546   4.266  -0.733  1.00  0.00     0.074 A 
ATOM     47  C   UNL     1      -0.504   5.484  -0.248  1.00  0.00     0.049 A 
ATOM     48  N   UNL     1      -3.550   4.966  -1.141  1.00  0.00    -0.248 NA
ATOM     49  C   UNL     1      -2.910   3.015  -0.061  1.00  0.00     0.031 C 
ATOM     50  C   UNL     1       0.905   5.856  -0.215  1.00  0.00     0.029 A 
ATOM     51  N   UNL     1      -1.043   6.283   0.729  1.00  0.00    -0.354 N 
ATOM     52  C   UNL     1      -4.670   4.353  -0.606  1.00  0.00     0.074 A 
ATOM     53  C   UNL     1      -4.240   3.060  -0.141  1.00  0.00     0.031 C 
ATOM     54  C   UNL     1       1.138   6.660   0.850  1.00  0.00     0.029 A 
ATOM     55  C   UNL     1      -0.112   6.964   1.503  1.00  0.00     0.049 A 
ATOM     56  H   UNL     1      -2.014   6.367   0.871  1.00  0.00     0.167 HD
ATOM     57  C   UNL     1      -5.811   5.050  -0.367  1.00  0.00     0.037 A 
ATOM     58  C   UNL     1      -0.308   7.829   2.532  1.00  0.00     0.037 A 
ATOM     59  C   UNL     1      -5.802   6.329  -1.035  1.00  0.00     0.049 A 
ATOM     60  C   UNL     1      -1.649   8.410   2.335  1.00  0.00     0.074 A 
ATOM     61  C   UNL     1      -5.681   6.737  -2.351  1.00  0.00     0.029 A 
ATOM     62  N   UNL     1      -5.545   7.449  -0.281  1.00  0.00    -0.354 N 
ATOM     63  N   UNL     1      -1.940   9.231   1.367  1.00  0.00    -0.248 NA
ATOM     64  C   UNL     1      -2.778   7.747   2.961  1.00  0.00     0.031 C 
ATOM     65  C   UNL     1      -4.906   7.934  -2.308  1.00  0.00     0.029 A 
ATOM     66  C   UNL     1      -4.637   8.218  -0.970  1.00  0.00     0.049 A 
ATOM     67  H   UNL     1      -5.940   7.662   0.595  1.00  0.00     0.167 HD
ATOM     68  C   UNL     1      -3.202   8.841   0.955  1.00  0.00     0.074 A 
ATOM     69  C   UNL     1      -3.710   8.003   2.040  1.00  0.00     0.031 C 
ATOM     70  C   UNL     1      -3.603   9.009  -0.339  1.00  0.00     0.037 A 
BRANCH  57  71
ATOM     71  C   UNL     1      -6.780   4.698   0.729  1.00  0.00     0.058 A 
ATOM     72  C   UNL     1      -8.060   5.281   0.733  1.00  0.00     0.135 A 
ATOM     73  C   UNL     1      -6.426   3.987   1.899  1.00  0.00     0.135 A 
ATOM     74  F   UNL     1      -8.484   6.004  -0.315  1.00  0.00    -0.206 F 
ATOM     75  C   UNL     1      -8.911   5.197   1.834  1.00  0.00     0.059 A 
ATOM     76  C   UNL     1      -7.283   3.834   2.980  1.00  0.00     0.059 A 
ATOM     77  F   UNL     1      -5.196   3.493   2.092  1.00  0.00    -0.206 F 
ATOM     78  C   UNL     1      -8.509   4.475   2.955  1.00  0.00     0.060 A 
BRANCH  78  79
ATOM     79  S   UNL     1      -9.564   4.447   4.413  1.00  0.00     0.124 S 
ATOM     80  O   UNL     1      -9.465   5.829   4.867  1.00  0.00    -0.237 OA
ATOM     81  O   UNL     1     -10.849   4.048   3.848  1.00  0.00    -0.237 OA
ATOM     82  O   UNL     1      -8.926   3.452   5.270  1.00  0.00    -0.744 OA
ENDBRANCH  78  79
ENDBRANCH  57  71
BRANCH  58  83
ATOM     83  C   UNL     1       0.418   7.926   3.829  1.00  0.00     0.058 A 
ATOM     84  C   UNL     1       0.118   8.954   4.745  1.00  0.00     0.135 A 
ATOM     85  C   UNL     1       1.168   6.846   4.336  1.00  0.00     0.135 A 
ATOM     86  F   UNL     1      -0.583  10.028   4.349  1.00  0.00    -0.206 F 
ATOM     87  C   UNL     1       0.448   8.870   6.101  1.00  0.00     0.059 A 
ATOM     88  C   UNL     1       1.516   6.744   5.685  1.00  0.00     0.059 A 
ATOM     89  F   UNL     1       1.500   5.810   3.551  1.00  0.00    -0.206 F 
ATOM     90  C   UNL     1       1.116   7.741   6.569  1.00  0.00     0.060 A 
BRANCH  90  91
ATOM     91  S   UNL     1       1.333   7.521   8.353  1.00  0.00     0.124 S 
ATOM     92  O   UNL     1       2.291   8.573   8.672  1.00  0.00    -0.237 OA
ATOM     93  O   UNL     1      -0.024   7.719   8.852  1.00  0.00    -0.237 OA
ATOM     94  O   UNL     1       1.843   6.157   8.463  1.00  0.00    -0.744 OA
ENDBRANCH  90  91
ENDBRANCH  58  83
BRANCH  70  95
ATOM     95  C   UNL     1      -2.775   9.916  -1.221  1.00  0.00     0.058 A 
ATOM     96  C   UNL     1      -1.429   9.694  -1.569  1.00  0.00     0.135 A 
ATOM     97  C   UNL     1      -3.409  11.015  -1.821  1.00  0.00     0.135 A 
ATOM     98  F   UNL     1      -0.770   8.615  -1.122  1.00  0.00    -0.206 F 
ATOM     99  C   UNL     1      -0.734  10.552  -2.426  1.00  0.00     0.059 A 
ATOM    100  C   UNL     1      -2.745  11.866  -2.703  1.00  0.00     0.059 A 
ATOM    101  F   UNL     1      -4.707  11.257  -1.577  1.00  0.00    -0.206 F 
ATOM    102  C   UNL     1      -1.401  11.640  -2.987  1.00  0.00     0.060 A 
BRANCH 102 103
ATOM    103  S   UNL     1      -0.515  12.728  -4.126  1.00  0.00     0.124 S 
ATOM    104  O   UNL     1       0.429  13.400  -3.239  1.00  0.00    -0.237 OA
ATOM    105  O   UNL     1       0.069  11.785  -5.076  1.00  0.00    -0.237 OA
ATOM    106  O   UNL     1      -1.568  13.579  -4.675  1.00  0.00    -0.744 OA
ENDBRANCH 102 103
ENDBRANCH  70  95
ENDBRANCH  44  45
ENDBRANCH  37  39
ENDBRANCH  36  37
ENDBRANCH  35  36
ENDBRANCH   1  35
TORSDOF 20
