REMARK SMILES C[C@@H](C(=O)OCCOC(=O)c1ccc(-c2c3nc(c(-c4c(F)cc(S(=O)(=O)[O-])cc4F)c4ccc([nH]4)c(-c4c(F)cc(S(=O)(=O)[O-])cc4F)c4nc(c(-c5c(F)cc(S(=O)(=O)[O-])cc5F)c5ccc2[nH]5)C=C4)C=C3)cc1)n1ccc(C(=O)NC2CCCCCCC2)n1
REMARK SMILES IDX 3 1 4 2 2 3 1 4 77 5 78 6 92 7 79 8 80 9 81 10 82 11 83 12
REMARK SMILES IDX 84 14 85 15 86 16 87 17 91 19 90 20 89 21 88 22 5 24 6 25
REMARK SMILES IDX 7 26 8 27 9 28 10 29 11 30 12 31 76 32 13 33 75 34 14 35
REMARK SMILES IDX 15 36 16 37 69 38 17 39 74 40 68 41 70 42 18 43 73 44 67 45
REMARK SMILES IDX 66 46 19 48 53 49 32 50 52 51 33 52 36 53 51 54 71 55 34 56
REMARK SMILES IDX 35 57 50 59 72 60 37 61 20 62 21 63 30 64 22 65 23 66 29 67
REMARK SMILES IDX 31 68 24 69 25 70 26 71 27 72 28 73 54 74 55 75 64 76 56 77
REMARK SMILES IDX 57 78 63 79 65 80 58 81 59 82 60 83 61 84 62 85 38 86 39 87
REMARK SMILES IDX 48 88 40 89 41 90 47 91 49 92 42 93 43 94 44 95 45 96 46 97
REMARK H PARENT 83 13 70 47 36 58
REMARK Flexibility Score: 80.00
ROOT
ATOM      1  C   UNL     1       1.216  -0.139  -2.162  1.00  0.00     0.330 C 
ATOM      2  O   UNL     1       0.701   0.159  -3.233  1.00  0.00    -0.250 OA
ENDROOT
BRANCH   1   3
ATOM      3  C   UNL     1       0.851   0.501  -0.832  1.00  0.00     0.213 C 
ATOM      4  C   UNL     1       1.664   0.012   0.365  1.00  0.00     0.046 C 
BRANCH   3   5
ATOM      5  N   UNL     1      -0.588   0.426  -0.591  1.00  0.00    -0.258 N 
ATOM      6  C   UNL     1      -1.284  -0.538   0.078  1.00  0.00     0.110 A 
ATOM      7  N   UNL     1      -1.361   1.457  -0.974  1.00  0.00    -0.167 NA
ATOM      8  C   UNL     1      -2.588  -0.103   0.120  1.00  0.00     0.056 A 
ATOM      9  C   UNL     1      -2.601   1.155  -0.544  1.00  0.00     0.150 A 
BRANCH   9  10
ATOM     10  C   UNL     1      -3.799   1.991  -0.763  1.00  0.00     0.271 C 
ATOM     11  O   UNL     1      -4.931   1.526  -0.622  1.00  0.00    -0.267 OA
ATOM     12  N   UNL     1      -3.694   3.323  -1.105  1.00  0.00    -0.348 N 
ATOM     13  H   UNL     1      -4.549   3.785  -1.263  1.00  0.00     0.164 HD
BRANCH  12  14
ATOM     14  C   UNL     1      -2.498   4.151  -1.265  1.00  0.00     0.082 C 
BRANCH  14  15
ATOM     15  C   UNL     1      -2.110   4.173  -2.749  1.00  0.00     0.025 C 
BRANCH  15  16
ATOM     16  C   UNL     1      -0.697   4.664  -3.046  1.00  0.00     0.002 C 
BRANCH  16  17
ATOM     17  C   UNL     1      -0.361   6.097  -2.643  1.00  0.00     0.000 CG0
ATOM     18  G   UNL     1      -1.392   7.139  -3.076  1.00  0.00     0.000 G0
ENDBRANCH  16  17
ENDBRANCH  15  16
ENDBRANCH  14  15
BRANCH  14  19
ATOM     19  C   UNL     1      -2.720   5.508  -0.573  1.00  0.00     0.025 C 
BRANCH  19  20
ATOM     20  C   UNL     1      -3.336   6.623  -1.417  1.00  0.00     0.002 C 
BRANCH  20  21
ATOM     21  C   UNL     1      -2.318   7.629  -1.961  1.00  0.00     0.000 C 
BRANCH  21  22
ATOM     22  C   UNL     1      -1.392   7.139  -3.076  1.00  0.00     0.000 CG0
ATOM     23  G   UNL     1      -0.361   6.097  -2.643  1.00  0.00     0.000 G0
ENDBRANCH  21  22
ENDBRANCH  20  21
ENDBRANCH  19  20
ENDBRANCH  14  19
ENDBRANCH  12  14
ENDBRANCH   9  10
ENDBRANCH   3   5
ENDBRANCH   1   3
BRANCH   1  24
ATOM     24  O   UNL     1       2.232  -1.042  -2.044  1.00  0.00    -0.460 OA
BRANCH  24  25
ATOM     25  C   UNL     1       2.661  -1.694  -3.257  1.00  0.00     0.274 C 
BRANCH  25  26
ATOM     26  C   UNL     1       2.147  -3.130  -3.307  1.00  0.00     0.275 C 
BRANCH  26  27
ATOM     27  O   UNL     1       0.716  -3.137  -3.431  1.00  0.00    -0.458 OA
BRANCH  27  28
ATOM     28  C   UNL     1       0.034  -3.479  -2.313  1.00  0.00     0.338 C 
ATOM     29  O   UNL     1       0.504  -3.817  -1.237  1.00  0.00    -0.246 OA
BRANCH  28  30
ATOM     30  C   UNL     1      -1.411  -3.341  -2.547  1.00  0.00     0.060 A 
ATOM     31  C   UNL     1      -1.942  -2.081  -2.798  1.00  0.00     0.016 A 
ATOM     32  C   UNL     1      -2.253  -4.434  -2.350  1.00  0.00     0.016 A 
ATOM     33  C   UNL     1      -3.321  -1.888  -2.736  1.00  0.00     0.010 A 
ATOM     34  C   UNL     1      -3.642  -4.253  -2.397  1.00  0.00     0.010 A 
ATOM     35  C   UNL     1      -4.195  -2.968  -2.541  1.00  0.00    -0.014 A 
BRANCH  35  36
ATOM     36  C   UNL     1      -5.667  -2.743  -2.433  1.00  0.00     0.031 A 
ATOM     37  C   UNL     1      -6.429  -3.231  -1.224  1.00  0.00     0.074 A 
ATOM     38  C   UNL     1      -6.335  -2.079  -3.399  1.00  0.00     0.049 A 
ATOM     39  N   UNL     1      -7.722  -3.336  -1.046  1.00  0.00    -0.248 NA
ATOM     40  C   UNL     1      -5.632  -3.683  -0.072  1.00  0.00     0.031 C 
ATOM     41  C   UNL     1      -5.737  -1.503  -4.605  1.00  0.00     0.029 A 
ATOM     42  N   UNL     1      -7.667  -1.760  -3.511  1.00  0.00    -0.354 N 
ATOM     43  C   UNL     1      -7.891  -3.935   0.198  1.00  0.00     0.074 A 
ATOM     44  C   UNL     1      -6.567  -4.160   0.738  1.00  0.00     0.031 C 
ATOM     45  C   UNL     1      -6.680  -0.848  -5.297  1.00  0.00     0.029 A 
ATOM     46  C   UNL     1      -7.969  -1.043  -4.644  1.00  0.00     0.049 A 
ATOM     47  H   UNL     1      -8.341  -2.020  -2.842  1.00  0.00     0.167 HD
ATOM     48  C   UNL     1      -9.044  -4.271   0.825  1.00  0.00     0.037 A 
ATOM     49  C   UNL     1      -9.151  -0.622  -5.133  1.00  0.00     0.037 A 
ATOM     50  C   UNL     1     -10.360  -3.961   0.325  1.00  0.00     0.049 A 
ATOM     51  C   UNL     1     -10.416  -0.975  -4.407  1.00  0.00     0.074 A 
ATOM     52  C   UNL     1     -11.590  -4.263   0.885  1.00  0.00     0.029 A 
ATOM     53  N   UNL     1     -10.617  -3.242  -0.833  1.00  0.00    -0.354 N 
ATOM     54  N   UNL     1     -10.564  -1.655  -3.296  1.00  0.00    -0.248 NA
ATOM     55  C   UNL     1     -11.677  -0.534  -5.018  1.00  0.00     0.031 C 
ATOM     56  C   UNL     1     -12.591  -3.741   0.056  1.00  0.00     0.029 A 
ATOM     57  C   UNL     1     -11.983  -3.088  -1.004  1.00  0.00     0.049 A 
ATOM     58  H   UNL     1      -9.929  -2.892  -1.444  1.00  0.00     0.167 HD
ATOM     59  C   UNL     1     -11.933  -1.736  -3.082  1.00  0.00     0.074 A 
ATOM     60  C   UNL     1     -12.570  -1.009  -4.161  1.00  0.00     0.031 C 
ATOM     61  C   UNL     1     -12.602  -2.371  -2.089  1.00  0.00     0.037 A 
BRANCH  48  62
ATOM     62  C   UNL     1      -8.942  -5.051   2.107  1.00  0.00     0.058 A 
ATOM     63  C   UNL     1      -8.566  -4.456   3.320  1.00  0.00     0.135 A 
ATOM     64  C   UNL     1      -9.268  -6.418   2.123  1.00  0.00     0.135 A 
ATOM     65  F   UNL     1      -8.227  -3.158   3.358  1.00  0.00    -0.206 F 
ATOM     66  C   UNL     1      -8.493  -5.192   4.500  1.00  0.00     0.059 A 
ATOM     67  C   UNL     1      -9.225  -7.168   3.295  1.00  0.00     0.059 A 
ATOM     68  F   UNL     1      -9.636  -7.039   0.991  1.00  0.00    -0.206 F 
ATOM     69  C   UNL     1      -8.822  -6.549   4.476  1.00  0.00     0.060 A 
BRANCH  69  70
ATOM     70  S   UNL     1      -8.731  -7.496   6.012  1.00  0.00     0.124 S 
ATOM     71  O   UNL     1      -7.294  -7.722   6.129  1.00  0.00    -0.237 OA
ATOM     72  O   UNL     1      -9.308  -6.576   6.987  1.00  0.00    -0.237 OA
ATOM     73  O   UNL     1      -9.532  -8.682   5.726  1.00  0.00    -0.744 OA
ENDBRANCH  69  70
ENDBRANCH  48  62
BRANCH  49  74
ATOM     74  C   UNL     1      -9.183   0.137  -6.411  1.00  0.00     0.058 A 
ATOM     75  C   UNL     1      -9.462   1.510  -6.429  1.00  0.00     0.135 A 
ATOM     76  C   UNL     1      -8.878  -0.487  -7.631  1.00  0.00     0.135 A 
ATOM     77  F   UNL     1      -9.774   2.147  -5.290  1.00  0.00    -0.206 F 
ATOM     78  C   UNL     1      -9.426   2.244  -7.611  1.00  0.00     0.059 A 
ATOM     79  C   UNL     1      -8.811   0.229  -8.821  1.00  0.00     0.059 A 
ATOM     80  F   UNL     1      -8.594  -1.799  -7.664  1.00  0.00    -0.206 F 
ATOM     81  C   UNL     1      -9.091   1.595  -8.801  1.00  0.00     0.060 A 
BRANCH  81  82
ATOM     82  S   UNL     1      -8.946   2.563 -10.319  1.00  0.00     0.124 S 
ATOM     83  O   UNL     1     -10.338   2.655 -10.743  1.00  0.00    -0.237 OA
ATOM     84  O   UNL     1      -8.340   3.804  -9.845  1.00  0.00    -0.237 OA
ATOM     85  O   UNL     1      -8.081   1.738 -11.157  1.00  0.00    -0.744 OA
ENDBRANCH  81  82
ENDBRANCH  49  74
BRANCH  61  86
ATOM     86  C   UNL     1     -14.101  -2.307  -2.128  1.00  0.00     0.058 A 
ATOM     87  C   UNL     1     -14.840  -3.107  -3.014  1.00  0.00     0.135 A 
ATOM     88  C   UNL     1     -14.805  -1.461  -1.258  1.00  0.00     0.135 A 
ATOM     89  F   UNL     1     -14.210  -3.927  -3.870  1.00  0.00    -0.206 F 
ATOM     90  C   UNL     1     -16.229  -3.053  -3.051  1.00  0.00     0.059 A 
ATOM     91  C   UNL     1     -16.195  -1.404  -1.267  1.00  0.00     0.059 A 
ATOM     92  F   UNL     1     -14.143  -0.683  -0.389  1.00  0.00    -0.206 F 
ATOM     93  C   UNL     1     -16.898  -2.195  -2.176  1.00  0.00     0.060 A 
BRANCH  93  94
ATOM     94  S   UNL     1     -18.703  -2.142  -2.221  1.00  0.00     0.124 S 
ATOM     95  O   UNL     1     -18.943  -1.318  -3.401  1.00  0.00    -0.237 OA
ATOM     96  O   UNL     1     -19.058  -3.552  -2.350  1.00  0.00    -0.237 OA
ATOM     97  O   UNL     1     -19.055  -1.530  -0.943  1.00  0.00    -0.744 OA
ENDBRANCH  93  94
ENDBRANCH  61  86
ENDBRANCH  35  36
ENDBRANCH  28  30
ENDBRANCH  27  28
ENDBRANCH  26  27
ENDBRANCH  25  26
ENDBRANCH  24  25
ENDBRANCH   1  24
TORSDOF 17
