REMARK SMILES COc1ccc(C(=O)OCCOC(=O)c2ccc(-c3c4nc(c(-c5c(F)cc(S(=O)(=O)[O-])cc5F)c5ccc([nH]5)c(-c5c(F)cc(S(=O)(=O)[O-])cc5F)c5nc(c(-c6c(F)cc(S(=O)(=O)[O-])cc6F)c6ccc3[nH]6)C=C5)C=C4)cc2)cc1C(F)(F)F
REMARK SMILES IDX 11 1 10 2 9 3 7 4 8 5 6 6 3 7 4 8 82 9 5 10 81 11 2 12 1 13
REMARK SMILES IDX 83 14 84 15 85 16 86 17 12 18 13 19 14 20 15 21 16 22 80 23
REMARK SMILES IDX 17 24 79 25 18 26 19 27 20 28 73 29 21 30 78 31 72 32 74 33
REMARK SMILES IDX 22 34 77 35 71 36 70 37 23 39 57 40 36 41 56 42 37 43 40 44
REMARK SMILES IDX 55 45 75 46 38 47 39 48 54 50 76 51 41 52 24 53 25 54 34 55
REMARK SMILES IDX 26 56 27 57 33 58 35 59 28 60 29 61 30 62 31 63 32 64 58 65
REMARK SMILES IDX 59 66 68 67 60 68 61 69 67 70 69 71 62 72 63 73 64 74 65 75
REMARK SMILES IDX 66 76 42 77 43 78 52 79 44 80 45 81 51 82 53 83 46 84 47 85
REMARK SMILES IDX 48 86 49 87 50 88
REMARK H PARENT 74 38 40 49
REMARK Flexibility Score: inf
ROOT
ATOM      1  C   UNL     1       3.267   8.795  -1.354  1.00  0.00     0.275 C 
ENDROOT
BRANCH   1   2
ATOM      2  C   UNL     1       3.483   7.961  -0.089  1.00  0.00     0.275 C 
BRANCH   2   3
ATOM      3  O   UNL     1       3.227   6.559  -0.316  1.00  0.00    -0.458 OA
BRANCH   3   4
ATOM      4  C   UNL     1       2.046   6.087   0.155  1.00  0.00     0.338 C 
ATOM      5  O   UNL     1       1.196   6.729   0.753  1.00  0.00    -0.246 OA
BRANCH   4   6
ATOM      6  C   UNL     1       1.865   4.656  -0.196  1.00  0.00     0.060 A 
ATOM      7  C   UNL     1       1.430   1.945  -0.723  1.00  0.00     0.131 A 
ATOM      8  C   UNL     1       0.367   2.844  -0.791  1.00  0.00     0.048 A 
ATOM      9  C   UNL     1       2.727   2.384  -0.436  1.00  0.00     0.098 A 
ATOM     10  C   UNL     1       0.579   4.184  -0.482  1.00  0.00     0.019 A 
ATOM     11  C   UNL     1       2.935   3.757  -0.179  1.00  0.00     0.032 A 
BRANCH   7  12
ATOM     12  O   UNL     1       1.156   0.630  -0.974  1.00  0.00    -0.496 OA
ATOM     13  C   UNL     1       0.756  -0.035   0.226  1.00  0.00     0.278 C 
ENDBRANCH   7  12
BRANCH   9  14
ATOM     14  C   UNL     1       3.888   1.437  -0.305  1.00  0.00     0.419 C 
ATOM     15  F   UNL     1       5.037   1.943  -0.839  1.00  0.00    -0.166 F 
ATOM     16  F   UNL     1       4.180   1.189   1.006  1.00  0.00    -0.166 F 
ATOM     17  F   UNL     1       3.727   0.216  -0.880  1.00  0.00    -0.166 F 
ENDBRANCH   9  14
ENDBRANCH   4   6
ENDBRANCH   3   4
ENDBRANCH   2   3
ENDBRANCH   1   2
BRANCH   1  18
ATOM     18  O   UNL     1       1.872   8.861  -1.703  1.00  0.00    -0.458 OA
BRANCH  18  19
ATOM     19  C   UNL     1       1.496   8.013  -2.686  1.00  0.00     0.338 C 
ATOM     20  O   UNL     1       2.207   7.243  -3.310  1.00  0.00    -0.246 OA
BRANCH  19  21
ATOM     21  C   UNL     1       0.038   8.038  -2.852  1.00  0.00     0.060 A 
ATOM     22  C   UNL     1      -0.707   7.187  -2.046  1.00  0.00     0.016 A 
ATOM     23  C   UNL     1      -0.572   8.712  -3.905  1.00  0.00     0.016 A 
ATOM     24  C   UNL     1      -2.027   6.894  -2.359  1.00  0.00     0.010 A 
ATOM     25  C   UNL     1      -1.940   8.514  -4.142  1.00  0.00     0.010 A 
ATOM     26  C   UNL     1      -2.675   7.568  -3.401  1.00  0.00    -0.014 A 
BRANCH  26  27
ATOM     27  C   UNL     1      -4.103   7.261  -3.715  1.00  0.00     0.031 A 
ATOM     28  C   UNL     1      -4.501   6.829  -5.105  1.00  0.00     0.074 A 
ATOM     29  C   UNL     1      -5.043   7.349  -2.750  1.00  0.00     0.049 A 
ATOM     30  N   UNL     1      -5.698   6.690  -5.617  1.00  0.00    -0.248 NA
ATOM     31  C   UNL     1      -3.412   6.526  -6.049  1.00  0.00     0.031 C 
ATOM     32  C   UNL     1      -4.794   7.707  -1.350  1.00  0.00     0.029 A 
ATOM     33  N   UNL     1      -6.401   7.141  -2.793  1.00  0.00    -0.354 N 
ATOM     34  C   UNL     1      -5.507   6.337  -6.949  1.00  0.00     0.074 A 
ATOM     35  C   UNL     1      -4.078   6.295  -7.172  1.00  0.00     0.031 C 
ATOM     36  C   UNL     1      -5.945   7.658  -0.665  1.00  0.00     0.029 A 
ATOM     37  C   UNL     1      -7.032   7.374  -1.592  1.00  0.00     0.049 A 
ATOM     38  H   UNL     1      -6.877   6.854  -3.605  1.00  0.00     0.167 HD
ATOM     39  C   UNL     1      -6.440   6.070  -7.896  1.00  0.00     0.037 A 
ATOM     40  C   UNL     1      -8.341   7.415  -1.275  1.00  0.00     0.037 A 
ATOM     41  C   UNL     1      -7.860   6.069  -7.649  1.00  0.00     0.049 A 
ATOM     42  C   UNL     1      -9.357   7.171  -2.355  1.00  0.00     0.074 A 
ATOM     43  C   UNL     1      -8.888   5.800  -8.536  1.00  0.00     0.029 A 
ATOM     44  N   UNL     1      -8.454   6.337  -6.423  1.00  0.00    -0.354 N 
ATOM     45  N   UNL     1      -9.160   6.883  -3.620  1.00  0.00    -0.248 NA
ATOM     46  C   UNL     1     -10.771   7.273  -1.972  1.00  0.00     0.031 C 
ATOM     47  C   UNL     1     -10.102   5.954  -7.861  1.00  0.00     0.029 A 
ATOM     48  C   UNL     1      -9.832   6.258  -6.537  1.00  0.00     0.049 A 
ATOM     49  H   UNL     1      -7.967   6.551  -5.595  1.00  0.00     0.167 HD
ATOM     50  C   UNL     1     -10.426   6.743  -4.177  1.00  0.00     0.074 A 
ATOM     51  C   UNL     1     -11.379   6.962  -3.109  1.00  0.00     0.031 C 
ATOM     52  C   UNL     1     -10.768   6.464  -5.459  1.00  0.00     0.037 A 
BRANCH  39  53
ATOM     53  C   UNL     1      -5.968   5.784  -9.299  1.00  0.00     0.058 A 
ATOM     54  C   UNL     1      -5.314   4.590  -9.639  1.00  0.00     0.135 A 
ATOM     55  C   UNL     1      -6.231   6.699 -10.333  1.00  0.00     0.135 A 
ATOM     56  F   UNL     1      -5.021   3.686  -8.691  1.00  0.00    -0.206 F 
ATOM     57  C   UNL     1      -4.923   4.320 -10.948  1.00  0.00     0.059 A 
ATOM     58  C   UNL     1      -5.877   6.438 -11.654  1.00  0.00     0.059 A 
ATOM     59  F   UNL     1      -6.853   7.859 -10.067  1.00  0.00    -0.206 F 
ATOM     60  C   UNL     1      -5.213   5.249 -11.950  1.00  0.00     0.060 A 
BRANCH  60  61
ATOM     61  S   UNL     1      -4.721   4.872 -13.646  1.00  0.00     0.124 S 
ATOM     62  O   UNL     1      -3.269   5.001 -13.565  1.00  0.00    -0.237 OA
ATOM     63  O   UNL     1      -5.228   3.515 -13.822  1.00  0.00    -0.237 OA
ATOM     64  O   UNL     1      -5.397   5.898 -14.434  1.00  0.00    -0.744 OA
ENDBRANCH  60  61
ENDBRANCH  39  53
BRANCH  40  65
ATOM     65  C   UNL     1      -8.765   7.753   0.113  1.00  0.00     0.058 A 
ATOM     66  C   UNL     1      -9.422   6.815   0.921  1.00  0.00     0.135 A 
ATOM     67  C   UNL     1      -8.524   9.026   0.658  1.00  0.00     0.135 A 
ATOM     68  F   UNL     1      -9.685   5.588   0.447  1.00  0.00    -0.206 F 
ATOM     69  C   UNL     1      -9.844   7.130   2.210  1.00  0.00     0.059 A 
ATOM     70  C   UNL     1      -8.902   9.353   1.955  1.00  0.00     0.059 A 
ATOM     71  F   UNL     1      -7.887   9.960  -0.067  1.00  0.00    -0.206 F 
ATOM     72  C   UNL     1      -9.577   8.402   2.718  1.00  0.00     0.060 A 
BRANCH  72  73
ATOM     73  S   UNL     1     -10.102   8.792   4.401  1.00  0.00     0.124 S 
ATOM     74  O   UNL     1     -11.547   8.903   4.238  1.00  0.00    -0.237 OA
ATOM     75  O   UNL     1      -9.630   7.629   5.146  1.00  0.00    -0.237 OA
ATOM     76  O   UNL     1      -9.401  10.039   4.691  1.00  0.00    -0.744 OA
ENDBRANCH  72  73
ENDBRANCH  40  65
BRANCH  52  77
ATOM     77  C   UNL     1     -12.233   6.324  -5.766  1.00  0.00     0.058 A 
ATOM     78  C   UNL     1     -13.094   7.432  -5.792  1.00  0.00     0.135 A 
ATOM     79  C   UNL     1     -12.773   5.066  -6.080  1.00  0.00     0.135 A 
ATOM     80  F   UNL     1     -12.631   8.656  -5.490  1.00  0.00    -0.206 F 
ATOM     81  C   UNL     1     -14.445   7.294  -6.093  1.00  0.00     0.059 A 
ATOM     82  C   UNL     1     -14.113   4.910  -6.415  1.00  0.00     0.059 A 
ATOM     83  F   UNL     1     -11.991   3.975  -6.077  1.00  0.00    -0.206 F 
ATOM     84  C   UNL     1     -14.944   6.028  -6.407  1.00  0.00     0.060 A 
BRANCH  84  85
ATOM     85  S   UNL     1     -16.692   5.869  -6.829  1.00  0.00     0.124 S 
ATOM     86  O   UNL     1     -17.327   6.059  -5.529  1.00  0.00    -0.237 OA
ATOM     87  O   UNL     1     -16.880   6.952  -7.790  1.00  0.00    -0.237 OA
ATOM     88  O   UNL     1     -16.787   4.522  -7.384  1.00  0.00    -0.744 OA
ENDBRANCH  84  85
ENDBRANCH  52  77
ENDBRANCH  26  27
ENDBRANCH  19  21
ENDBRANCH  18  19
ENDBRANCH   1  18
TORSDOF 16
