REMARK SMILES Cn1c(=O)c2c(nc(Nc3cccc(Cl)c3Cl)n2CC(=O)OCCOC(=O)c2ccc(-c3c4nc(c(-c5c(F)cc(S(=O)(=O)[O-])cc5F)c5ccc([nH]5)c(-c5c(F)cc(S(=O)(=O)[O-])cc5F)c5nc(c(-c6c(F)cc(S(=O)(=O)[O-])cc6F)c6ccc3[nH]6)C=C5)C=C4)cc2)n(C)c1=O
REMARK SMILES IDX 23 1 22 2 20 3 21 4 19 5 18 6 1 7 2 8 3 9 96 10 4 11 5 12
REMARK SMILES IDX 94 13 97 14 6 15 95 16 7 17 8 18 9 19 10 21 11 22 16 23
REMARK SMILES IDX 12 24 14 25 17 26 13 27 15 28 24 29 25 30 26 31 27 32 28 33
REMARK SMILES IDX 29 34 93 35 30 36 92 37 31 38 32 39 33 40 86 41 34 42 91 43
REMARK SMILES IDX 85 44 87 45 35 46 90 47 84 48 83 49 36 51 70 52 49 53 69 54
REMARK SMILES IDX 50 55 53 56 68 57 88 58 51 59 52 60 67 62 89 63 54 64 37 65
REMARK SMILES IDX 38 66 47 67 39 68 40 69 46 70 48 71 41 72 42 73 43 74 44 75
REMARK SMILES IDX 45 76 71 77 72 78 81 79 73 80 74 81 80 82 82 83 75 84 76 85
REMARK SMILES IDX 77 86 78 87 79 88 55 89 56 90 65 91 57 92 58 93 64 94 66 95
REMARK SMILES IDX 59 96 60 97 61 98 62 99 63 100
REMARK H PARENT 9 20 87 50 53 61
REMARK Flexibility Score: inf
ROOT
ATOM      1  C   UNL     1      -2.750   5.706  -2.103  1.00  0.00     0.274 C 
ENDROOT
BRANCH   1   2
ATOM      2  O   UNL     1      -1.929   4.890  -2.979  1.00  0.00    -0.461 OA
BRANCH   2   3
ATOM      3  C   UNL     1      -0.690   5.379  -3.250  1.00  0.00     0.326 C 
ATOM      4  O   UNL     1      -0.354   6.535  -2.988  1.00  0.00    -0.250 OA
BRANCH   3   5
ATOM      5  C   UNL     1       0.323   4.397  -3.789  1.00  0.00     0.248 C 
BRANCH   5   6
ATOM      6  N   UNL     1      -0.107   3.090  -4.259  1.00  0.00    -0.293 N 
ATOM      7  C   UNL     1       1.097   0.044  -0.582  1.00  0.00     0.159 C 
ATOM      8  N   UNL     1       0.594   0.332  -1.910  1.00  0.00    -0.261 N 
ATOM      9  C   UNL     1       0.934   1.562  -2.466  1.00  0.00     0.282 A 
ATOM     10  C   UNL     1      -0.073  -0.683  -2.608  1.00  0.00     0.332 A 
ATOM     11  O   UNL     1       1.888   2.245  -2.095  1.00  0.00    -0.267 OA
ATOM     12  C   UNL     1       0.151   1.901  -3.603  1.00  0.00     0.154 A 
ATOM     13  N   UNL     1      -0.519  -0.369  -3.897  1.00  0.00    -0.279 N 
ATOM     14  O   UNL     1      -0.250  -1.802  -2.124  1.00  0.00    -0.247 OA
ATOM     15  C   UNL     1      -0.485   0.939  -4.319  1.00  0.00     0.170 A 
ATOM     16  C   UNL     1      -1.006  -1.422  -4.763  1.00  0.00     0.157 C 
ATOM     17  N   UNL     1      -0.970   1.435  -5.482  1.00  0.00    -0.194 NA
ATOM     18  C   UNL     1      -0.662   2.722  -5.477  1.00  0.00     0.210 A 
BRANCH  18  19
ATOM     19  N   UNL     1      -0.900   3.491  -6.561  1.00  0.00    -0.324 N 
ATOM     20  H   UNL     1      -1.323   3.005  -7.305  1.00  0.00     0.170 HD
BRANCH  19  21
ATOM     21  C   UNL     1      -0.664   4.845  -6.836  1.00  0.00     0.061 A 
ATOM     22  C   UNL     1      -1.800   5.637  -7.072  1.00  0.00     0.028 A 
ATOM     23  C   UNL     1       0.610   5.425  -7.007  1.00  0.00     0.083 A 
ATOM     24  C   UNL     1      -1.688   6.995  -7.357  1.00  0.00     0.004 A 
ATOM     25  C   UNL     1       0.718   6.808  -7.230  1.00  0.00     0.061 A 
ATOM     26  Cl  UNL     1       2.033   4.425  -6.975  1.00  0.00    -0.080 Cl
ATOM     27  C   UNL     1      -0.430   7.587  -7.400  1.00  0.00     0.022 A 
ATOM     28  Cl  UNL     1       2.241   7.626  -7.295  1.00  0.00    -0.083 Cl
ENDBRANCH  19  21
ENDBRANCH  18  19
ENDBRANCH   5   6
ENDBRANCH   3   5
ENDBRANCH   2   3
ENDBRANCH   1   2
BRANCH   1  29
ATOM     29  C   UNL     1      -2.683   5.243  -0.643  1.00  0.00     0.275 C 
BRANCH  29  30
ATOM     30  O   UNL     1      -1.409   5.513  -0.048  1.00  0.00    -0.458 OA
BRANCH  30  31
ATOM     31  C   UNL     1      -0.521   4.527  -0.302  1.00  0.00     0.338 C 
ATOM     32  O   UNL     1      -0.654   3.611  -1.087  1.00  0.00    -0.246 OA
BRANCH  31  33
ATOM     33  C   UNL     1       0.564   4.520   0.675  1.00  0.00     0.060 A 
ATOM     34  C   UNL     1       1.768   3.989   0.211  1.00  0.00     0.016 A 
ATOM     35  C   UNL     1       0.126   4.342   1.988  1.00  0.00     0.016 A 
ATOM     36  C   UNL     1       2.363   2.996   0.955  1.00  0.00     0.010 A 
ATOM     37  C   UNL     1       0.744   3.377   2.745  1.00  0.00     0.010 A 
ATOM     38  C   UNL     1       1.776   2.632   2.170  1.00  0.00    -0.014 A 
BRANCH  38  39
ATOM     39  C   UNL     1       2.371   1.543   2.928  1.00  0.00     0.031 A 
ATOM     40  C   UNL     1       3.745   1.891   3.392  1.00  0.00     0.074 A 
ATOM     41  C   UNL     1       1.630   0.474   3.291  1.00  0.00     0.049 A 
ATOM     42  N   UNL     1       4.846   1.227   3.269  1.00  0.00    -0.248 NA
ATOM     43  C   UNL     1       3.940   3.271   3.894  1.00  0.00     0.031 C 
ATOM     44  C   UNL     1       0.201   0.238   3.033  1.00  0.00     0.029 A 
ATOM     45  N   UNL     1       1.952  -0.567   4.104  1.00  0.00    -0.354 N 
ATOM     46  C   UNL     1       5.820   2.017   3.879  1.00  0.00     0.074 A 
ATOM     47  C   UNL     1       5.259   3.327   4.040  1.00  0.00     0.031 C 
ATOM     48  C   UNL     1      -0.257  -0.719   3.869  1.00  0.00     0.029 A 
ATOM     49  C   UNL     1       0.850  -1.224   4.654  1.00  0.00     0.049 A 
ATOM     50  H   UNL     1       2.882  -0.834   4.289  1.00  0.00     0.167 HD
ATOM     51  C   UNL     1       6.926   1.480   4.457  1.00  0.00     0.037 A 
ATOM     52  C   UNL     1       0.871  -1.994   5.777  1.00  0.00     0.037 A 
ATOM     53  C   UNL     1       7.210   0.174   3.932  1.00  0.00     0.049 A 
ATOM     54  C   UNL     1       2.300  -2.360   6.004  1.00  0.00     0.074 A 
ATOM     55  C   UNL     1       7.553  -0.294   2.679  1.00  0.00     0.029 A 
ATOM     56  N   UNL     1       6.755  -0.916   4.634  1.00  0.00    -0.354 N 
ATOM     57  N   UNL     1       2.996  -3.105   5.187  1.00  0.00    -0.248 NA
ATOM     58  C   UNL     1       3.080  -1.476   6.862  1.00  0.00     0.031 C 
ATOM     59  C   UNL     1       6.847  -1.521   2.536  1.00  0.00     0.029 A 
ATOM     60  C   UNL     1       6.173  -1.774   3.732  1.00  0.00     0.049 A 
ATOM     61  H   UNL     1       6.833  -1.056   5.605  1.00  0.00     0.167 HD
ATOM     62  C   UNL     1       4.247  -2.504   5.132  1.00  0.00     0.074 A 
ATOM     63  C   UNL     1       4.249  -1.525   6.218  1.00  0.00     0.031 C 
ATOM     64  C   UNL     1       5.061  -2.645   4.045  1.00  0.00     0.037 A 
BRANCH  51  65
ATOM     65  C   UNL     1       7.525   2.021   5.730  1.00  0.00     0.058 A 
ATOM     66  C   UNL     1       8.787   1.571   6.156  1.00  0.00     0.135 A 
ATOM     67  C   UNL     1       6.794   2.776   6.680  1.00  0.00     0.135 A 
ATOM     68  F   UNL     1       9.556   0.828   5.344  1.00  0.00    -0.206 F 
ATOM     69  C   UNL     1       9.268   1.814   7.444  1.00  0.00     0.059 A 
ATOM     70  C   UNL     1       7.278   3.081   7.944  1.00  0.00     0.059 A 
ATOM     71  F   UNL     1       5.534   3.175   6.465  1.00  0.00    -0.206 F 
ATOM     72  C   UNL     1       8.499   2.563   8.333  1.00  0.00     0.060 A 
BRANCH  72  73
ATOM     73  S   UNL     1       9.069   2.793  10.025  1.00  0.00     0.124 S 
ATOM     74  O   UNL     1       9.005   1.432  10.543  1.00  0.00    -0.237 OA
ATOM     75  O   UNL     1      10.406   3.340   9.819  1.00  0.00    -0.237 OA
ATOM     76  O   UNL     1       8.097   3.728  10.585  1.00  0.00    -0.744 OA
ENDBRANCH  72  73
ENDBRANCH  51  65
BRANCH  52  77
ATOM     77  C   UNL     1      -0.144  -2.017   6.876  1.00  0.00     0.058 A 
ATOM     78  C   UNL     1      -0.068  -2.961   7.918  1.00  0.00     0.135 A 
ATOM     79  C   UNL     1      -1.038  -0.946   7.087  1.00  0.00     0.135 A 
ATOM     80  F   UNL     1       0.764  -4.009   7.817  1.00  0.00    -0.206 F 
ATOM     81  C   UNL     1      -0.783  -2.817   9.117  1.00  0.00     0.059 A 
ATOM     82  C   UNL     1      -1.770  -0.790   8.264  1.00  0.00     0.059 A 
ATOM     83  F   UNL     1      -1.164   0.048   6.197  1.00  0.00    -0.206 F 
ATOM     84  C   UNL     1      -1.613  -1.710   9.290  1.00  0.00     0.060 A 
BRANCH  84  85
ATOM     85  S   UNL     1      -2.378  -1.401  10.900  1.00  0.00     0.124 S 
ATOM     86  O   UNL     1      -3.328  -2.503  11.002  1.00  0.00    -0.237 OA
ATOM     87  O   UNL     1      -1.232  -1.459  11.800  1.00  0.00    -0.237 OA
ATOM     88  O   UNL     1      -2.976  -0.076  10.742  1.00  0.00    -0.744 OA
ENDBRANCH  84  85
ENDBRANCH  52  77
BRANCH  64  89
ATOM     89  C   UNL     1       4.668  -3.639   2.979  1.00  0.00     0.058 A 
ATOM     90  C   UNL     1       3.538  -3.511   2.148  1.00  0.00     0.135 A 
ATOM     91  C   UNL     1       5.577  -4.659   2.665  1.00  0.00     0.135 A 
ATOM     92  F   UNL     1       2.675  -2.499   2.315  1.00  0.00    -0.206 F 
ATOM     93  C   UNL     1       3.309  -4.377   1.074  1.00  0.00     0.059 A 
ATOM     94  C   UNL     1       5.386  -5.512   1.583  1.00  0.00     0.059 A 
ATOM     95  F   UNL     1       6.706  -4.794   3.379  1.00  0.00    -0.206 F 
ATOM     96  C   UNL     1       4.244  -5.374   0.797  1.00  0.00     0.060 A 
BRANCH  96  97
ATOM     97  S   UNL     1       3.996  -6.453  -0.632  1.00  0.00     0.124 S 
ATOM     98  O   UNL     1       2.831  -7.234  -0.229  1.00  0.00    -0.237 OA
ATOM     99  O   UNL     1       3.781  -5.499  -1.716  1.00  0.00    -0.237 OA
ATOM    100  O   UNL     1       5.247  -7.203  -0.715  1.00  0.00    -0.744 OA
ENDBRANCH  96  97
ENDBRANCH  64  89
ENDBRANCH  38  39
ENDBRANCH  31  33
ENDBRANCH  30  31
ENDBRANCH  29  30
ENDBRANCH   1  29
TORSDOF 17
