REMARK SMILES O=C(OCCOC(=O)c1ccc(-n2cc(CSc3nc4ccccc4c(=O)n3-c3ccccc3)nn2)cc1)c1ccc(-c2c3nc(c(-c4c(F)cc(S(=O)(=O)[O-])cc4F)c4ccc([nH]4)c(-c4c(F)cc(S(=O)(=O)[O-])cc4F)c4nc(c(-c5c(F)cc(S(=O)(=O)[O-])cc5F)c5ccc2[nH]5)C=C4)C=C3)cc1
REMARK SMILES IDX 5 1 4 2 3 3 2 4 1 5 39 6 40 7 104 8 41 9 103 10 42 11 43 12
REMARK SMILES IDX 44 13 97 14 45 15 102 16 96 17 98 18 46 19 101 20 95 21
REMARK SMILES IDX 94 22 47 24 81 25 60 26 80 27 61 28 64 29 79 30 99 31 62 32
REMARK SMILES IDX 63 33 78 35 100 36 65 37 48 38 49 39 58 40 50 41 51 42 57 43
REMARK SMILES IDX 59 44 52 45 53 46 54 47 55 48 56 49 82 50 83 51 92 52 84 53
REMARK SMILES IDX 85 54 91 55 93 56 86 57 87 58 88 59 89 60 90 61 66 62 67 63
REMARK SMILES IDX 76 64 68 65 69 66 75 67 77 68 70 69 71 70 72 71 73 72 74 73
REMARK SMILES IDX 6 74 7 75 8 76 9 77 10 78 38 79 11 80 37 81 12 82 13 83
REMARK SMILES IDX 14 84 36 85 15 86 35 87 16 88 17 89 18 90 19 91 28 92 20 93
REMARK SMILES IDX 26 94 21 95 25 96 27 97 22 98 24 99 23 100 29 101 30 102
REMARK SMILES IDX 34 103 31 104 33 105 32 106
REMARK H PARENT 98 23 64 34
REMARK Flexibility Score: inf
ROOT
ATOM      1  C   UNL     1       4.480   1.189  -1.071  1.00  0.00     0.275 C 
ENDROOT
BRANCH   1   2
ATOM      2  C   UNL     1       4.615  -0.333  -1.164  1.00  0.00     0.275 C 
BRANCH   2   3
ATOM      3  O   UNL     1       3.398  -1.101  -1.214  1.00  0.00    -0.458 OA
BRANCH   3   4
ATOM      4  C   UNL     1       2.297  -0.657  -0.573  1.00  0.00     0.338 C 
ATOM      5  O   UNL     1       1.347  -0.150  -1.153  1.00  0.00    -0.246 OA
BRANCH   4   6
ATOM      6  C   UNL     1       2.220  -1.067   0.850  1.00  0.00     0.060 A 
ATOM      7  C   UNL     1       3.337  -1.382   1.635  1.00  0.00     0.016 A 
ATOM      8  C   UNL     1       0.938  -1.126   1.408  1.00  0.00     0.016 A 
ATOM      9  C   UNL     1       3.166  -1.868   2.921  1.00  0.00     0.010 A 
ATOM     10  C   UNL     1       0.770  -1.546   2.711  1.00  0.00     0.010 A 
ATOM     11  C   UNL     1       1.875  -2.007   3.423  1.00  0.00    -0.014 A 
BRANCH  11  12
ATOM     12  C   UNL     1       1.681  -2.647   4.714  1.00  0.00     0.031 A 
ATOM     13  C   UNL     1       2.292  -1.937   5.872  1.00  0.00     0.074 A 
ATOM     14  C   UNL     1       0.852  -3.707   4.819  1.00  0.00     0.049 A 
ATOM     15  N   UNL     1       3.240  -2.330   6.660  1.00  0.00    -0.248 NA
ATOM     16  C   UNL     1       1.898  -0.538   6.082  1.00  0.00     0.031 C 
ATOM     17  C   UNL     1       0.023  -4.321   3.774  1.00  0.00     0.029 A 
ATOM     18  N   UNL     1       0.484  -4.399   5.928  1.00  0.00    -0.354 N 
ATOM     19  C   UNL     1       3.374  -1.324   7.620  1.00  0.00     0.074 A 
ATOM     20  C   UNL     1       2.684  -0.177   7.097  1.00  0.00     0.031 C 
ATOM     21  C   UNL     1      -0.921  -5.102   4.343  1.00  0.00     0.029 A 
ATOM     22  C   UNL     1      -0.660  -5.176   5.766  1.00  0.00     0.049 A 
ATOM     23  H   UNL     1       0.985  -4.355   6.775  1.00  0.00     0.167 HD
ATOM     24  C   UNL     1       3.812  -1.593   8.883  1.00  0.00     0.037 A 
ATOM     25  C   UNL     1      -1.366  -5.773   6.760  1.00  0.00     0.037 A 
ATOM     26  C   UNL     1       4.478  -2.870   8.939  1.00  0.00     0.049 A 
ATOM     27  C   UNL     1      -0.442  -5.881   7.923  1.00  0.00     0.074 A 
ATOM     28  C   UNL     1       5.591  -3.411   8.326  1.00  0.00     0.029 A 
ATOM     29  N   UNL     1       3.764  -3.941   9.422  1.00  0.00    -0.354 N 
ATOM     30  N   UNL     1       0.645  -6.611   7.907  1.00  0.00    -0.248 NA
ATOM     31  C   UNL     1      -0.442  -4.789   8.885  1.00  0.00     0.031 C 
ATOM     32  C   UNL     1       5.225  -4.756   8.026  1.00  0.00     0.029 A 
ATOM     33  C   UNL     1       3.949  -4.981   8.546  1.00  0.00     0.049 A 
ATOM     34  H   UNL     1       3.220  -3.958  10.242  1.00  0.00     0.167 HD
ATOM     35  C   UNL     1       1.609  -5.837   8.540  1.00  0.00     0.074 A 
ATOM     36  C   UNL     1       0.863  -4.746   9.168  1.00  0.00     0.031 C 
ATOM     37  C   UNL     1       2.940  -5.978   8.255  1.00  0.00     0.037 A 
BRANCH  24  38
ATOM     38  C   UNL     1       3.306  -0.898  10.131  1.00  0.00     0.058 A 
ATOM     39  C   UNL     1       3.926  -1.163  11.370  1.00  0.00     0.135 A 
ATOM     40  C   UNL     1       2.067  -0.223  10.209  1.00  0.00     0.135 A 
ATOM     41  F   UNL     1       5.108  -1.798  11.421  1.00  0.00    -0.206 F 
ATOM     42  C   UNL     1       3.320  -0.859  12.592  1.00  0.00     0.059 A 
ATOM     43  C   UNL     1       1.472   0.139  11.414  1.00  0.00     0.059 A 
ATOM     44  F   UNL     1       1.318   0.027   9.131  1.00  0.00    -0.206 F 
ATOM     45  C   UNL     1       2.082  -0.225  12.601  1.00  0.00     0.060 A 
BRANCH  45  46
ATOM     46  S   UNL     1       1.244   0.059  14.170  1.00  0.00     0.124 S 
ATOM     47  O   UNL     1       0.923  -1.303  14.580  1.00  0.00    -0.237 OA
ATOM     48  O   UNL     1       2.280   0.733  14.948  1.00  0.00    -0.237 OA
ATOM     49  O   UNL     1       0.106   0.895  13.800  1.00  0.00    -0.744 OA
ENDBRANCH  45  46
ENDBRANCH  24  38
BRANCH  25  50
ATOM     50  C   UNL     1      -2.851  -5.826   6.879  1.00  0.00     0.058 A 
ATOM     51  C   UNL     1      -3.490  -6.670   7.804  1.00  0.00     0.135 A 
ATOM     52  C   UNL     1      -3.670  -4.853   6.266  1.00  0.00     0.135 A 
ATOM     53  F   UNL     1      -2.785  -7.609   8.455  1.00  0.00    -0.206 F 
ATOM     54  C   UNL     1      -4.848  -6.537   8.126  1.00  0.00     0.059 A 
ATOM     55  C   UNL     1      -5.024  -4.705   6.565  1.00  0.00     0.059 A 
ATOM     56  F   UNL     1      -3.156  -3.953   5.414  1.00  0.00    -0.206 F 
ATOM     57  C   UNL     1      -5.604  -5.538   7.512  1.00  0.00     0.060 A 
BRANCH  57  58
ATOM     58  S   UNL     1      -7.316  -5.259   8.031  1.00  0.00     0.124 S 
ATOM     59  O   UNL     1      -7.981  -6.462   7.540  1.00  0.00    -0.237 OA
ATOM     60  O   UNL     1      -7.187  -5.149   9.480  1.00  0.00    -0.237 OA
ATOM     61  O   UNL     1      -7.684  -4.023   7.345  1.00  0.00    -0.744 OA
ENDBRANCH  57  58
ENDBRANCH  25  50
BRANCH  37  62
ATOM     62  C   UNL     1       3.370  -7.136   7.385  1.00  0.00     0.058 A 
ATOM     63  C   UNL     1       3.032  -7.277   6.025  1.00  0.00     0.135 A 
ATOM     64  C   UNL     1       4.307  -8.043   7.898  1.00  0.00     0.135 A 
ATOM     65  F   UNL     1       2.232  -6.390   5.421  1.00  0.00    -0.206 F 
ATOM     66  C   UNL     1       3.564  -8.293   5.227  1.00  0.00     0.059 A 
ATOM     67  C   UNL     1       4.875  -9.046   7.115  1.00  0.00     0.059 A 
ATOM     68  F   UNL     1       4.730  -7.923   9.167  1.00  0.00    -0.206 F 
ATOM     69  C   UNL     1       4.489  -9.175   5.783  1.00  0.00     0.060 A 
BRANCH  69  70
ATOM     70  S   UNL     1       5.233 -10.445   4.736  1.00  0.00     0.124 S 
ATOM     71  O   UNL     1       4.113 -11.351   4.507  1.00  0.00    -0.237 OA
ATOM     72  O   UNL     1       5.678  -9.680   3.574  1.00  0.00    -0.237 OA
ATOM     73  O   UNL     1       6.310 -10.982   5.565  1.00  0.00    -0.744 OA
ENDBRANCH  69  70
ENDBRANCH  37  62
ENDBRANCH  11  12
ENDBRANCH   4   6
ENDBRANCH   3   4
ENDBRANCH   2   3
ENDBRANCH   1   2
BRANCH   1  74
ATOM     74  O   UNL     1       3.917   1.596   0.190  1.00  0.00    -0.458 OA
BRANCH  74  75
ATOM     75  C   UNL     1       2.849   2.429   0.125  1.00  0.00     0.338 C 
ATOM     76  O   UNL     1       2.344   2.920  -0.876  1.00  0.00    -0.246 OA
BRANCH  75  77
ATOM     77  C   UNL     1       2.325   2.628   1.485  1.00  0.00     0.060 A 
ATOM     78  C   UNL     1       1.076   2.096   1.818  1.00  0.00     0.018 A 
ATOM     79  C   UNL     1       3.055   3.370   2.419  1.00  0.00     0.018 A 
ATOM     80  C   UNL     1       0.588   2.216   3.119  1.00  0.00     0.029 A 
ATOM     81  C   UNL     1       2.535   3.561   3.702  1.00  0.00     0.029 A 
ATOM     82  C   UNL     1       1.324   2.945   4.053  1.00  0.00     0.066 A 
BRANCH  82  83
ATOM     83  N   UNL     1       0.693   3.285   5.257  1.00  0.00    -0.220 N 
ATOM     84  C   UNL     1       0.033   4.458   5.473  1.00  0.00     0.141 A 
ATOM     85  N   UNL     1       0.537   2.473   6.309  1.00  0.00    -0.062 NA
ATOM     86  C   UNL     1      -0.536   4.354   6.717  1.00  0.00     0.093 A 
ATOM     87  N   UNL     1      -0.172   3.127   7.227  1.00  0.00    -0.134 NA
BRANCH  86  88
ATOM     88  C   UNL     1      -1.148   5.389   7.588  1.00  0.00     0.138 C 
BRANCH  88  89
ATOM     89  S   UNL     1      -2.780   6.101   7.377  1.00  0.00    -0.081 SA
BRANCH  89  90
ATOM     90  C   UNL     1      -3.445   5.963   5.774  1.00  0.00     0.176 A 
ATOM     91  N   UNL     1      -4.738   5.806   5.787  1.00  0.00    -0.223 NA
ATOM     92  N   UNL     1      -2.747   6.020   4.580  1.00  0.00    -0.255 N 
ATOM     93  C   UNL     1      -5.388   5.516   4.582  1.00  0.00     0.079 A 
ATOM     94  C   UNL     1      -3.207   5.112   3.617  1.00  0.00     0.266 A 
ATOM     95  C   UNL     1      -6.770   5.641   4.451  1.00  0.00     0.029 A 
ATOM     96  C   UNL     1      -4.668   4.971   3.529  1.00  0.00     0.066 A 
ATOM     97  O   UNL     1      -2.508   4.446   2.856  1.00  0.00    -0.268 OA
ATOM     98  C   UNL     1      -7.416   5.154   3.307  1.00  0.00     0.002 A 
ATOM     99  C   UNL     1      -5.299   4.420   2.411  1.00  0.00     0.016 A 
ATOM    100  C   UNL     1      -6.686   4.505   2.309  1.00  0.00     0.001 A 
BRANCH  92 101
ATOM    101  C   UNL     1      -1.609   6.857   4.258  1.00  0.00     0.051 A 
ATOM    102  C   UNL     1      -1.112   6.888   2.937  1.00  0.00     0.027 A 
ATOM    103  C   UNL     1      -0.901   7.622   5.192  1.00  0.00     0.027 A 
ATOM    104  C   UNL     1       0.146   7.414   2.630  1.00  0.00     0.002 A 
ATOM    105  C   UNL     1       0.392   8.089   4.910  1.00  0.00     0.002 A 
ATOM    106  C   UNL     1       0.931   7.949   3.638  1.00  0.00     0.000 A 
ENDBRANCH  92 101
ENDBRANCH  89  90
ENDBRANCH  88  89
ENDBRANCH  86  88
ENDBRANCH  82  83
ENDBRANCH  75  77
ENDBRANCH  74  75
ENDBRANCH   1  74
TORSDOF 19
