REMARK SMILES C[C@@H]1CCC[C@@]1(C(=O)OCCOC(=O)c1ccc(-c2c3nc(c(-c4c(F)cc(S(=O)(=O)[O-])cc4F)c4ccc([nH]4)c(-c4c(F)cc(S(=O)(=O)[O-])cc4F)c4nc(c(-c5c(F)cc(S(=O)(=O)[O-])cc5F)c5ccc2[nH]5)C=C4)C=C3)cc1)c1ccc(Cl)cc1Cl
REMARK SMILES IDX 11 1 10 2 9 3 7 4 8 5 6 6 1 7 2 8 3 9 4 10 5 11 81 12 82 13
REMARK SMILES IDX 87 14 83 15 86 16 88 17 84 18 85 19 12 20 13 21 14 22 15 23
REMARK SMILES IDX 16 24 80 25 17 26 79 27 18 28 19 29 20 30 73 31 21 32 78 33
REMARK SMILES IDX 72 34 74 35 22 36 77 37 71 38 70 39 23 41 57 42 36 43 56 44
REMARK SMILES IDX 37 45 40 46 55 47 75 48 38 49 39 50 54 52 76 53 41 54 24 55
REMARK SMILES IDX 25 56 34 57 26 58 27 59 33 60 35 61 28 62 29 63 30 64 31 65
REMARK SMILES IDX 32 66 58 67 59 68 68 69 60 70 61 71 67 72 69 73 62 74 63 75
REMARK SMILES IDX 64 76 65 77 66 78 42 79 43 80 52 81 44 82 45 83 51 84 53 85
REMARK SMILES IDX 46 86 47 87 48 88 49 89 50 90
REMARK H PARENT 74 40 40 51
REMARK Flexibility Score: inf
ROOT
ATOM      1  C   UNL     1       3.337   3.393  -0.820  1.00  0.00     0.275 C 
ENDROOT
BRANCH   1   2
ATOM      2  C   UNL     1       2.710   3.494   0.563  1.00  0.00     0.274 C 
BRANCH   2   3
ATOM      3  O   UNL     1       2.016   2.278   0.913  1.00  0.00    -0.461 OA
BRANCH   3   4
ATOM      4  C   UNL     1       0.672   2.252   0.701  1.00  0.00     0.317 C 
ATOM      5  O   UNL     1       0.041   3.177   0.198  1.00  0.00    -0.251 OA
BRANCH   4   6
ATOM      6  C   UNL     1      -0.004   0.978   1.259  1.00  0.00     0.097 C 
ATOM      7  C   UNL     1       1.969  -0.424   0.155  1.00  0.00     0.009 C 
ATOM      8  C   UNL     1       0.893  -0.320   1.253  1.00  0.00     0.008 C 
ATOM      9  C   UNL     1      -0.086  -1.485   1.006  1.00  0.00     0.005 C 
ATOM     10  C   UNL     1      -1.175  -0.929   0.102  1.00  0.00     0.002 C 
ATOM     11  C   UNL     1      -1.072   0.594   0.178  1.00  0.00     0.024 C 
BRANCH   6  12
ATOM     12  C   UNL     1      -0.696   1.248   2.651  1.00  0.00    -0.012 A 
ATOM     13  C   UNL     1      -1.721   0.369   3.086  1.00  0.00     0.008 A 
ATOM     14  C   UNL     1      -0.425   2.326   3.534  1.00  0.00     0.046 A 
ATOM     15  C   UNL     1      -2.422   0.535   4.287  1.00  0.00     0.021 A 
ATOM     16  C   UNL     1      -1.162   2.515   4.720  1.00  0.00     0.041 A 
ATOM     17  Cl  UNL     1       0.815   3.514   3.347  1.00  0.00    -0.084 Cl
ATOM     18  C   UNL     1      -2.148   1.619   5.095  1.00  0.00     0.042 A 
ATOM     19  Cl  UNL     1      -3.015   1.850   6.560  1.00  0.00    -0.084 Cl
ENDBRANCH   6  12
ENDBRANCH   4   6
ENDBRANCH   3   4
ENDBRANCH   2   3
ENDBRANCH   1   2
BRANCH   1  20
ATOM     20  O   UNL     1       2.302   3.367  -1.813  1.00  0.00    -0.458 OA
BRANCH  20  21
ATOM     21  C   UNL     1       2.310   2.302  -2.640  1.00  0.00     0.338 C 
ATOM     22  O   UNL     1       3.117   1.382  -2.656  1.00  0.00    -0.246 OA
BRANCH  21  23
ATOM     23  C   UNL     1       1.203   2.407  -3.600  1.00  0.00     0.060 A 
ATOM     24  C   UNL     1      -0.121   2.502  -3.165  1.00  0.00     0.016 A 
ATOM     25  C   UNL     1       1.495   2.307  -4.959  1.00  0.00     0.016 A 
ATOM     26  C   UNL     1      -1.164   2.411  -4.085  1.00  0.00     0.010 A 
ATOM     27  C   UNL     1       0.453   2.294  -5.884  1.00  0.00     0.010 A 
ATOM     28  C   UNL     1      -0.885   2.309  -5.454  1.00  0.00    -0.014 A 
BRANCH  28  29
ATOM     29  C   UNL     1      -1.964   2.185  -6.464  1.00  0.00     0.031 A 
ATOM     30  C   UNL     1      -2.042   0.943  -7.308  1.00  0.00     0.074 A 
ATOM     31  C   UNL     1      -2.820   3.203  -6.670  1.00  0.00     0.049 A 
ATOM     32  N   UNL     1      -2.693   0.739  -8.422  1.00  0.00    -0.248 NA
ATOM     33  C   UNL     1      -1.265  -0.217  -6.841  1.00  0.00     0.031 C 
ATOM     34  C   UNL     1      -2.876   4.438  -5.885  1.00  0.00     0.029 A 
ATOM     35  N   UNL     1      -3.789   3.371  -7.626  1.00  0.00    -0.354 N 
ATOM     36  C   UNL     1      -2.362  -0.551  -8.822  1.00  0.00     0.074 A 
ATOM     37  C   UNL     1      -1.460  -1.086  -7.824  1.00  0.00     0.031 C 
ATOM     38  C   UNL     1      -3.821   5.241  -6.398  1.00  0.00     0.029 A 
ATOM     39  C   UNL     1      -4.383   4.611  -7.588  1.00  0.00     0.049 A 
ATOM     40  H   UNL     1      -4.036   2.674  -8.276  1.00  0.00     0.167 HD
ATOM     41  C   UNL     1      -2.768  -1.218  -9.929  1.00  0.00     0.037 A 
ATOM     42  C   UNL     1      -5.238   5.197  -8.447  1.00  0.00     0.037 A 
ATOM     43  C   UNL     1      -3.692  -0.680 -10.893  1.00  0.00     0.049 A 
ATOM     44  C   UNL     1      -5.663   4.448  -9.677  1.00  0.00     0.074 A 
ATOM     45  C   UNL     1      -4.171  -1.266 -12.051  1.00  0.00     0.029 A 
ATOM     46  N   UNL     1      -4.288   0.570 -10.800  1.00  0.00    -0.354 N 
ATOM     47  N   UNL     1      -5.296   3.255 -10.081  1.00  0.00    -0.248 NA
ATOM     48  C   UNL     1      -6.603   5.129 -10.577  1.00  0.00     0.031 C 
ATOM     49  C   UNL     1      -5.044  -0.361 -12.669  1.00  0.00     0.029 A 
ATOM     50  C   UNL     1      -5.131   0.774 -11.879  1.00  0.00     0.049 A 
ATOM     51  H   UNL     1      -4.135   1.216 -10.073  1.00  0.00     0.167 HD
ATOM     52  C   UNL     1      -5.969   3.035 -11.276  1.00  0.00     0.074 A 
ATOM     53  C   UNL     1      -6.774   4.216 -11.524  1.00  0.00     0.031 C 
ATOM     54  C   UNL     1      -5.926   1.956 -12.095  1.00  0.00     0.037 A 
BRANCH  41  55
ATOM     55  C   UNL     1      -2.187  -2.582 -10.173  1.00  0.00     0.058 A 
ATOM     56  C   UNL     1      -2.593  -3.705  -9.436  1.00  0.00     0.135 A 
ATOM     57  C   UNL     1      -1.221  -2.771 -11.175  1.00  0.00     0.135 A 
ATOM     58  F   UNL     1      -3.498  -3.576  -8.453  1.00  0.00    -0.206 F 
ATOM     59  C   UNL     1      -2.047  -4.964  -9.669  1.00  0.00     0.059 A 
ATOM     60  C   UNL     1      -0.676  -4.024 -11.439  1.00  0.00     0.059 A 
ATOM     61  F   UNL     1      -0.794  -1.729 -11.907  1.00  0.00    -0.206 F 
ATOM     62  C   UNL     1      -1.085  -5.112 -10.670  1.00  0.00     0.060 A 
BRANCH  62  63
ATOM     63  S   UNL     1      -0.380  -6.749 -10.964  1.00  0.00     0.124 S 
ATOM     64  O   UNL     1       0.565  -6.861  -9.857  1.00  0.00    -0.237 OA
ATOM     65  O   UNL     1      -1.551  -7.617 -10.885  1.00  0.00    -0.237 OA
ATOM     66  O   UNL     1       0.217  -6.628 -12.290  1.00  0.00    -0.744 OA
ENDBRANCH  62  63
ENDBRANCH  41  55
BRANCH  42  67
ATOM     67  C   UNL     1      -5.708   6.580  -8.182  1.00  0.00     0.058 A 
ATOM     68  C   UNL     1      -7.015   6.823  -7.737  1.00  0.00     0.135 A 
ATOM     69  C   UNL     1      -4.844   7.679  -8.314  1.00  0.00     0.135 A 
ATOM     70  F   UNL     1      -7.878   5.804  -7.604  1.00  0.00    -0.206 F 
ATOM     71  C   UNL     1      -7.451   8.108  -7.429  1.00  0.00     0.059 A 
ATOM     72  C   UNL     1      -5.250   8.970  -7.991  1.00  0.00     0.059 A 
ATOM     73  F   UNL     1      -3.579   7.495  -8.723  1.00  0.00    -0.206 F 
ATOM     74  C   UNL     1      -6.558   9.174  -7.553  1.00  0.00     0.060 A 
BRANCH  74  75
ATOM     75  S   UNL     1      -7.102  10.828  -7.069  1.00  0.00     0.124 S 
ATOM     76  O   UNL     1      -7.882  11.232  -8.233  1.00  0.00    -0.237 OA
ATOM     77  O   UNL     1      -7.864  10.561  -5.852  1.00  0.00    -0.237 OA
ATOM     78  O   UNL     1      -5.847  11.545  -6.867  1.00  0.00    -0.744 OA
ENDBRANCH  74  75
ENDBRANCH  42  67
BRANCH  54  79
ATOM     79  C   UNL     1      -6.798   1.992 -13.314  1.00  0.00     0.058 A 
ATOM     80  C   UNL     1      -6.433   2.721 -14.456  1.00  0.00     0.135 A 
ATOM     81  C   UNL     1      -7.991   1.255 -13.353  1.00  0.00     0.135 A 
ATOM     82  F   UNL     1      -5.304   3.447 -14.461  1.00  0.00    -0.206 F 
ATOM     83  C   UNL     1      -7.232   2.730 -15.594  1.00  0.00     0.059 A 
ATOM     84  C   UNL     1      -8.797   1.236 -14.486  1.00  0.00     0.059 A 
ATOM     85  F   UNL     1      -8.377   0.537 -12.286  1.00  0.00    -0.206 F 
ATOM     86  C   UNL     1      -8.414   1.986 -15.598  1.00  0.00     0.060 A 
BRANCH  86  87
ATOM     87  S   UNL     1      -9.432   1.977 -17.089  1.00  0.00     0.124 S 
ATOM     88  O   UNL     1     -10.127   3.254 -16.976  1.00  0.00    -0.237 OA
ATOM     89  O   UNL     1      -8.436   1.889 -18.152  1.00  0.00    -0.237 OA
ATOM     90  O   UNL     1     -10.265   0.789 -16.921  1.00  0.00    -0.744 OA
ENDBRANCH  86  87
ENDBRANCH  54  79
ENDBRANCH  28  29
ENDBRANCH  21  23
ENDBRANCH  20  21
ENDBRANCH   1  20
TORSDOF 15
