REMARK SMILES C[C@H]1SCCC[C@@]1(C(=O)OCCOC(=O)c1ccc(-c2c3nc(c(-c4c(F)cc(S(=O)(=O)[O-])cc4F)c4ccc([nH]4)c(-c4c(F)cc(S(=O)(=O)[O-])cc4F)c4nc(c(-c5c(F)cc(S(=O)(=O)[O-])cc5F)c5ccc2[nH]5)C=C4)C=C3)cc1)[NH+]1CCCC1
REMARK SMILES IDX 12 1 11 2 10 3 8 4 9 5 7 6 1 7 2 8 3 9 4 10 6 11 5 12 82 13
REMARK SMILES IDX 83 14 86 15 84 17 85 18 13 19 14 20 15 21 16 22 17 23 81 24
REMARK SMILES IDX 18 25 80 26 19 27 20 28 21 29 74 30 22 31 79 32 73 33 75 34
REMARK SMILES IDX 23 35 78 36 72 37 71 38 24 40 58 41 37 42 57 43 38 44 41 45
REMARK SMILES IDX 56 46 76 47 39 48 40 49 55 51 77 52 42 53 25 54 26 55 35 56
REMARK SMILES IDX 27 57 28 58 34 59 36 60 29 61 30 62 31 63 32 64 33 65 59 66
REMARK SMILES IDX 60 67 69 68 61 69 62 70 68 71 70 72 63 73 64 74 65 75 66 76
REMARK SMILES IDX 67 77 43 78 44 79 53 80 45 81 46 82 52 83 54 84 47 85 48 86
REMARK SMILES IDX 49 87 50 88 51 89
REMARK H PARENT 82 16 75 39 41 50
REMARK Flexibility Score: inf
ROOT
ATOM      1  C   UNL     1       0.427   6.380   2.344  1.00  0.00     0.275 C 
ENDROOT
BRANCH   1   2
ATOM      2  C   UNL     1       1.357   5.973   1.198  1.00  0.00     0.274 C 
BRANCH   2   3
ATOM      3  O   UNL     1       0.702   4.955   0.430  1.00  0.00    -0.457 OA
BRANCH   3   4
ATOM      4  C   UNL     1       1.431   4.295  -0.514  1.00  0.00     0.369 C 
ATOM      5  O   UNL     1       2.588   4.591  -0.794  1.00  0.00    -0.245 OA
BRANCH   4   6
ATOM      6  C   UNL     1       0.642   3.055  -1.120  1.00  0.00     0.207 C 
ATOM      7  C   UNL     1       1.334   1.805   1.133  1.00  0.00     0.027 C 
ATOM      8  C   UNL     1       1.368   1.848  -0.397  1.00  0.00     0.117 C 
ATOM      9  S   UNL     1       0.945   0.177  -1.017  1.00  0.00    -0.152 SA
ATOM     10  C   UNL     1       1.392   0.419  -2.747  1.00  0.00     0.070 C 
ATOM     11  C   UNL     1       1.005   2.977  -2.639  1.00  0.00     0.083 C 
ATOM     12  C   UNL     1       0.744   1.649  -3.365  1.00  0.00     0.018 C 
BRANCH   6  13
ATOM     13  N   UNL     1      -0.835   3.246  -0.889  1.00  0.00    -0.320 N 
ATOM     14  C   UNL     1      -1.812   2.257  -1.341  1.00  0.00     0.263 C 
ATOM     15  C   UNL     1      -1.372   4.567  -1.291  1.00  0.00     0.263 C 
ATOM     16  H   UNL     1      -0.764   3.124   0.121  1.00  0.00     0.349 HD
ATOM     17  C   UNL     1      -2.549   2.880  -2.515  1.00  0.00     0.067 C 
ATOM     18  C   UNL     1      -2.593   4.347  -2.169  1.00  0.00     0.067 C 
ENDBRANCH   6  13
ENDBRANCH   4   6
ENDBRANCH   3   4
ENDBRANCH   2   3
ENDBRANCH   1   2
BRANCH   1  19
ATOM     19  O   UNL     1       0.065   5.219   3.118  1.00  0.00    -0.458 OA
BRANCH  19  20
ATOM     20  C   UNL     1      -1.174   4.726   2.869  1.00  0.00     0.338 C 
ATOM     21  O   UNL     1      -2.053   5.242   2.192  1.00  0.00    -0.246 OA
BRANCH  20  22
ATOM     22  C   UNL     1      -1.294   3.381   3.455  1.00  0.00     0.060 A 
ATOM     23  C   UNL     1      -1.592   2.317   2.602  1.00  0.00     0.016 A 
ATOM     24  C   UNL     1      -1.168   3.168   4.829  1.00  0.00     0.016 A 
ATOM     25  C   UNL     1      -1.747   1.028   3.108  1.00  0.00     0.010 A 
ATOM     26  C   UNL     1      -1.362   1.881   5.344  1.00  0.00     0.010 A 
ATOM     27  C   UNL     1      -1.666   0.810   4.487  1.00  0.00    -0.014 A 
BRANCH  27  28
ATOM     28  C   UNL     1      -2.085  -0.501   5.034  1.00  0.00     0.031 A 
ATOM     29  C   UNL     1      -3.547  -0.717   5.312  1.00  0.00     0.074 A 
ATOM     30  C   UNL     1      -1.194  -1.484   5.252  1.00  0.00     0.049 A 
ATOM     31  N   UNL     1      -4.157  -1.775   5.777  1.00  0.00    -0.248 NA
ATOM     32  C   UNL     1      -4.441   0.416   5.020  1.00  0.00     0.031 C 
ATOM     33  C   UNL     1       0.239  -1.404   4.978  1.00  0.00     0.029 A 
ATOM     34  N   UNL     1      -1.370  -2.747   5.759  1.00  0.00    -0.354 N 
ATOM     35  C   UNL     1      -5.505  -1.444   5.816  1.00  0.00     0.074 A 
ATOM     36  C   UNL     1      -5.623  -0.077   5.356  1.00  0.00     0.031 C 
ATOM     37  C   UNL     1       0.818  -2.564   5.340  1.00  0.00     0.029 A 
ATOM     38  C   UNL     1      -0.202  -3.461   5.882  1.00  0.00     0.049 A 
ATOM     39  H   UNL     1      -2.251  -3.108   6.012  1.00  0.00     0.167 HD
ATOM     40  C   UNL     1      -6.553  -2.211   6.198  1.00  0.00     0.037 A 
ATOM     41  C   UNL     1       0.014  -4.693   6.385  1.00  0.00     0.037 A 
ATOM     42  C   UNL     1      -6.426  -3.553   6.697  1.00  0.00     0.049 A 
ATOM     43  C   UNL     1      -1.161  -5.504   6.872  1.00  0.00     0.074 A 
ATOM     44  C   UNL     1      -7.420  -4.405   7.146  1.00  0.00     0.029 A 
ATOM     45  N   UNL     1      -5.225  -4.236   6.823  1.00  0.00    -0.354 N 
ATOM     46  N   UNL     1      -2.434  -5.186   6.889  1.00  0.00    -0.248 NA
ATOM     47  C   UNL     1      -0.872  -6.845   7.400  1.00  0.00     0.031 C 
ATOM     48  C   UNL     1      -6.814  -5.591   7.579  1.00  0.00     0.029 A 
ATOM     49  C   UNL     1      -5.449  -5.494   7.356  1.00  0.00     0.049 A 
ATOM     50  H   UNL     1      -4.343  -3.879   6.571  1.00  0.00     0.167 HD
ATOM     51  C   UNL     1      -3.100  -6.298   7.394  1.00  0.00     0.074 A 
ATOM     52  C   UNL     1      -2.088  -7.298   7.668  1.00  0.00     0.031 C 
ATOM     53  C   UNL     1      -4.428  -6.480   7.606  1.00  0.00     0.037 A 
BRANCH  40  54
ATOM     54  C   UNL     1      -7.918  -1.589   6.121  1.00  0.00     0.058 A 
ATOM     55  C   UNL     1      -8.559  -1.377   4.890  1.00  0.00     0.135 A 
ATOM     56  C   UNL     1      -8.589  -1.191   7.288  1.00  0.00     0.135 A 
ATOM     57  F   UNL     1      -7.950  -1.717   3.743  1.00  0.00    -0.206 F 
ATOM     58  C   UNL     1      -9.807  -0.765   4.817  1.00  0.00     0.059 A 
ATOM     59  C   UNL     1      -9.847  -0.598   7.239  1.00  0.00     0.059 A 
ATOM     60  F   UNL     1      -8.016  -1.364   8.489  1.00  0.00    -0.206 F 
ATOM     61  C   UNL     1     -10.440  -0.374   5.997  1.00  0.00     0.060 A 
BRANCH  61  62
ATOM     62  S   UNL     1     -12.052   0.432   5.888  1.00  0.00     0.124 S 
ATOM     63  O   UNL     1     -11.680   1.763   5.419  1.00  0.00    -0.237 OA
ATOM     64  O   UNL     1     -12.758  -0.405   4.924  1.00  0.00    -0.237 OA
ATOM     65  O   UNL     1     -12.557   0.367   7.256  1.00  0.00    -0.744 OA
ENDBRANCH  61  62
ENDBRANCH  40  54
BRANCH  41  66
ATOM     66  C   UNL     1       1.396  -5.241   6.456  1.00  0.00     0.058 A 
ATOM     67  C   UNL     1       1.802  -6.303   5.634  1.00  0.00     0.135 A 
ATOM     68  C   UNL     1       2.336  -4.720   7.359  1.00  0.00     0.135 A 
ATOM     69  F   UNL     1       0.936  -6.844   4.763  1.00  0.00    -0.206 F 
ATOM     70  C   UNL     1       3.082  -6.842   5.717  1.00  0.00     0.059 A 
ATOM     71  C   UNL     1       3.629  -5.226   7.444  1.00  0.00     0.059 A 
ATOM     72  F   UNL     1       2.002  -3.698   8.163  1.00  0.00    -0.206 F 
ATOM     73  C   UNL     1       3.990  -6.296   6.626  1.00  0.00     0.060 A 
BRANCH  73  74
ATOM     74  S   UNL     1       5.662  -6.976   6.702  1.00  0.00     0.124 S 
ATOM     75  O   UNL     1       5.438  -8.230   7.412  1.00  0.00    -0.237 OA
ATOM     76  O   UNL     1       6.011  -7.096   5.289  1.00  0.00    -0.237 OA
ATOM     77  O   UNL     1       6.405  -5.957   7.438  1.00  0.00    -0.744 OA
ENDBRANCH  73  74
ENDBRANCH  41  66
BRANCH  53  78
ATOM     78  C   UNL     1      -4.869  -7.824   8.115  1.00  0.00     0.058 A 
ATOM     79  C   UNL     1      -4.658  -8.219   9.445  1.00  0.00     0.135 A 
ATOM     80  C   UNL     1      -5.556  -8.709   7.268  1.00  0.00     0.135 A 
ATOM     81  F   UNL     1      -4.005  -7.410  10.294  1.00  0.00    -0.206 F 
ATOM     82  C   UNL     1      -5.088  -9.457   9.911  1.00  0.00     0.059 A 
ATOM     83  C   UNL     1      -6.017  -9.941   7.719  1.00  0.00     0.059 A 
ATOM     84  F   UNL     1      -5.796  -8.373   5.990  1.00  0.00    -0.206 F 
ATOM     85  C   UNL     1      -5.765 -10.313   9.039  1.00  0.00     0.060 A 
BRANCH  85  86
ATOM     86  S   UNL     1      -6.340 -11.909   9.657  1.00  0.00     0.124 S 
ATOM     87  O   UNL     1      -5.104 -12.684   9.663  1.00  0.00    -0.237 OA
ATOM     88  O   UNL     1      -6.879 -11.564  10.969  1.00  0.00    -0.237 OA
ATOM     89  O   UNL     1      -7.334 -12.317   8.668  1.00  0.00    -0.744 OA
ENDBRANCH  85  86
ENDBRANCH  53  78
ENDBRANCH  27  28
ENDBRANCH  20  22
ENDBRANCH  19  20
ENDBRANCH   1  19
TORSDOF 15
