REMARK SMILES C[C@H](O)[C@@H](NC(=O)c1ccc(Cl)c(S(C)(=O)=O)c1)C(=O)OCCOC(=O)c1ccc(-c2c3nc(c(-c4c(F)cc(S(=O)(=O)[O-])cc4F)c4ccc([nH]4)c(-c4c(F)cc(S(=O)(=O)[O-])cc4F)c4nc(c(-c5c(F)cc(S(=O)(=O)[O-])cc5F)c5ccc2[nH]5)C=C4)C=C3)cc1
REMARK SMILES IDX 22 1 21 2 19 3 20 4 4 5 2 6 1 7 3 8 5 10 6 11 7 13 8 14 9 15
REMARK SMILES IDX 18 16 10 17 13 18 11 19 12 20 14 21 15 22 16 23 17 24 23 25
REMARK SMILES IDX 24 26 25 27 26 28 27 29 28 30 92 31 29 32 91 33 30 34 31 35
REMARK SMILES IDX 32 36 85 37 33 38 90 39 84 40 86 41 34 42 89 43 83 44 82 45
REMARK SMILES IDX 35 47 69 48 48 49 68 50 49 51 52 52 67 53 87 54 50 55 51 56
REMARK SMILES IDX 66 58 88 59 53 60 36 61 37 62 46 63 38 64 39 65 45 66 47 67
REMARK SMILES IDX 40 68 41 69 42 70 43 71 44 72 70 73 71 74 80 75 72 76 73 77
REMARK SMILES IDX 79 78 81 79 74 80 75 81 76 82 77 83 78 84 54 85 55 86 64 87
REMARK SMILES IDX 56 88 57 89 63 90 65 91 58 92 59 93 60 94 61 95 62 96
REMARK H PARENT 3 9 5 12 86 46 52 57
REMARK Flexibility Score: inf
ROOT
ATOM      1  C   UNL     1      -0.774  -5.309  -0.587  1.00  0.00     0.274 C 
ENDROOT
BRANCH   1   2
ATOM      2  O   UNL     1      -0.298  -3.946  -0.662  1.00  0.00    -0.460 OA
BRANCH   2   3
ATOM      3  C   UNL     1      -1.180  -3.020  -0.209  1.00  0.00     0.331 C 
ATOM      4  O   UNL     1      -2.229  -3.307   0.360  1.00  0.00    -0.250 OA
BRANCH   3   5
ATOM      5  C   UNL     1      -0.865  -1.573  -0.584  1.00  0.00     0.221 C 
BRANCH   5   6
ATOM      6  C   UNL     1       0.637  -1.208  -0.526  1.00  0.00     0.145 C 
ATOM      7  C   UNL     1       1.360  -1.614   0.749  1.00  0.00     0.041 C 
BRANCH   6   8
ATOM      8  O   UNL     1       0.735   0.227  -0.612  1.00  0.00    -0.391 OA
ATOM      9  H   UNL     1       0.291   0.628   0.151  1.00  0.00     0.211 HD
ENDBRANCH   6   8
ENDBRANCH   5   6
BRANCH   5  10
ATOM     10  N   UNL     1      -1.425  -1.077  -1.870  1.00  0.00    -0.336 N 
ATOM     11  C   UNL     1      -2.631  -1.298  -2.480  1.00  0.00     0.252 C 
ATOM     12  H   UNL     1      -0.821  -0.485  -2.373  1.00  0.00     0.164 HD
ATOM     13  O   UNL     1      -3.094  -0.485  -3.273  1.00  0.00    -0.269 OA
BRANCH  11  14
ATOM     14  C   UNL     1      -3.285  -2.606  -2.365  1.00  0.00     0.041 A 
ATOM     15  C   UNL     1      -4.289  -2.841  -1.431  1.00  0.00     0.015 A 
ATOM     16  C   UNL     1      -2.890  -3.608  -3.252  1.00  0.00     0.035 A 
ATOM     17  C   UNL     1      -4.830  -4.127  -1.325  1.00  0.00     0.023 A 
ATOM     18  C   UNL     1      -3.473  -4.884  -3.176  1.00  0.00     0.086 A 
ATOM     19  C   UNL     1      -4.427  -5.156  -2.192  1.00  0.00     0.059 A 
ATOM     20  Cl  UNL     1      -5.184  -6.686  -1.953  1.00  0.00    -0.083 Cl
BRANCH  18  21
ATOM     21  S   UNL     1      -2.915  -6.069  -4.374  1.00  0.00     0.177 S 
ATOM     22  C   UNL     1      -4.009  -5.779  -5.742  1.00  0.00     0.164 C 
ATOM     23  O   UNL     1      -1.582  -5.663  -4.783  1.00  0.00    -0.224 OA
ATOM     24  O   UNL     1      -3.124  -7.416  -3.885  1.00  0.00    -0.224 OA
ENDBRANCH  18  21
ENDBRANCH  11  14
ENDBRANCH   5  10
ENDBRANCH   3   5
ENDBRANCH   2   3
ENDBRANCH   1   2
BRANCH   1  25
ATOM     25  C   UNL     1      -0.582  -6.020   0.761  1.00  0.00     0.275 C 
BRANCH  25  26
ATOM     26  O   UNL     1      -1.295  -5.396   1.847  1.00  0.00    -0.458 OA
BRANCH  26  27
ATOM     27  C   UNL     1      -0.549  -4.535   2.576  1.00  0.00     0.338 C 
ATOM     28  O   UNL     1       0.643  -4.309   2.432  1.00  0.00    -0.246 OA
BRANCH  27  29
ATOM     29  C   UNL     1      -1.367  -3.753   3.517  1.00  0.00     0.060 A 
ATOM     30  C   UNL     1      -1.504  -2.383   3.271  1.00  0.00     0.016 A 
ATOM     31  C   UNL     1      -1.802  -4.295   4.725  1.00  0.00     0.016 A 
ATOM     32  C   UNL     1      -2.009  -1.535   4.246  1.00  0.00     0.010 A 
ATOM     33  C   UNL     1      -2.325  -3.442   5.706  1.00  0.00     0.010 A 
ATOM     34  C   UNL     1      -2.389  -2.054   5.487  1.00  0.00    -0.014 A 
BRANCH  34  35
ATOM     35  C   UNL     1      -2.723  -1.109   6.580  1.00  0.00     0.031 A 
ATOM     36  C   UNL     1      -1.741  -0.898   7.700  1.00  0.00     0.074 A 
ATOM     37  C   UNL     1      -3.859  -0.389   6.525  1.00  0.00     0.049 A 
ATOM     38  N   UNL     1      -1.851  -0.156   8.771  1.00  0.00    -0.248 NA
ATOM     39  C   UNL     1      -0.462  -1.620   7.601  1.00  0.00     0.031 C 
ATOM     40  C   UNL     1      -4.850  -0.460   5.450  1.00  0.00     0.029 A 
ATOM     41  N   UNL     1      -4.367   0.547   7.388  1.00  0.00    -0.354 N 
ATOM     42  C   UNL     1      -0.672  -0.340   9.486  1.00  0.00     0.074 A 
ATOM     43  C   UNL     1       0.132  -1.280   8.735  1.00  0.00     0.031 C 
ATOM     44  C   UNL     1      -5.846   0.400   5.717  1.00  0.00     0.029 A 
ATOM     45  C   UNL     1      -5.588   1.044   7.001  1.00  0.00     0.049 A 
ATOM     46  H   UNL     1      -3.901   0.836   8.206  1.00  0.00     0.167 HD
ATOM     47  C   UNL     1      -0.297   0.227  10.658  1.00  0.00     0.037 A 
ATOM     48  C   UNL     1      -6.417   1.902   7.627  1.00  0.00     0.037 A 
ATOM     49  C   UNL     1      -1.103   1.175  11.385  1.00  0.00     0.049 A 
ATOM     50  C   UNL     1      -5.999   2.481   8.952  1.00  0.00     0.074 A 
ATOM     51  C   UNL     1      -0.822   1.807  12.584  1.00  0.00     0.029 A 
ATOM     52  N   UNL     1      -2.350   1.631  10.978  1.00  0.00    -0.354 N 
ATOM     53  N   UNL     1      -4.896   2.274   9.633  1.00  0.00    -0.248 NA
ATOM     54  C   UNL     1      -6.937   3.412   9.592  1.00  0.00     0.031 C 
ATOM     55  C   UNL     1      -1.917   2.609  12.924  1.00  0.00     0.029 A 
ATOM     56  C   UNL     1      -2.857   2.524  11.909  1.00  0.00     0.049 A 
ATOM     57  H   UNL     1      -2.807   1.360  10.150  1.00  0.00     0.167 HD
ATOM     58  C   UNL     1      -4.994   3.072  10.768  1.00  0.00     0.074 A 
ATOM     59  C   UNL     1      -6.258   3.774  10.672  1.00  0.00     0.031 C 
ATOM     60  C   UNL     1      -4.119   3.213  11.795  1.00  0.00     0.037 A 
BRANCH  47  61
ATOM     61  C   UNL     1       1.025  -0.194  11.245  1.00  0.00     0.058 A 
ATOM     62  C   UNL     1       2.251   0.183  10.674  1.00  0.00     0.135 A 
ATOM     63  C   UNL     1       1.064  -0.974  12.413  1.00  0.00     0.135 A 
ATOM     64  F   UNL     1       2.276   0.912   9.547  1.00  0.00    -0.206 F 
ATOM     65  C   UNL     1       3.465  -0.221  11.222  1.00  0.00     0.059 A 
ATOM     66  C   UNL     1       2.266  -1.366  12.994  1.00  0.00     0.059 A 
ATOM     67  F   UNL     1      -0.077  -1.367  13.002  1.00  0.00    -0.206 F 
ATOM     68  C   UNL     1       3.463  -0.997  12.382  1.00  0.00     0.060 A 
BRANCH  68  69
ATOM     69  S   UNL     1       5.045  -1.516  13.080  1.00  0.00     0.124 S 
ATOM     70  O   UNL     1       5.471  -2.526  12.117  1.00  0.00    -0.237 OA
ATOM     71  O   UNL     1       5.811  -0.274  13.075  1.00  0.00    -0.237 OA
ATOM     72  O   UNL     1       4.686  -2.021  14.401  1.00  0.00    -0.744 OA
ENDBRANCH  68  69
ENDBRANCH  47  61
BRANCH  48  73
ATOM     73  C   UNL     1      -7.725   2.251   7.013  1.00  0.00     0.058 A 
ATOM     74  C   UNL     1      -7.978   3.540   6.522  1.00  0.00     0.135 A 
ATOM     75  C   UNL     1      -8.746   1.294   6.892  1.00  0.00     0.135 A 
ATOM     76  F   UNL     1      -7.038   4.492   6.622  1.00  0.00    -0.206 F 
ATOM     77  C   UNL     1      -9.199   3.874   5.945  1.00  0.00     0.059 A 
ATOM     78  C   UNL     1      -9.965   1.596   6.292  1.00  0.00     0.059 A 
ATOM     79  F   UNL     1      -8.552   0.042   7.334  1.00  0.00    -0.206 F 
ATOM     80  C   UNL     1     -10.185   2.892   5.830  1.00  0.00     0.060 A 
BRANCH  80  81
ATOM     81  S   UNL     1     -11.746   3.319   5.029  1.00  0.00     0.124 S 
ATOM     82  O   UNL     1     -12.382   4.148   6.047  1.00  0.00    -0.237 OA
ATOM     83  O   UNL     1     -11.294   4.015   3.829  1.00  0.00    -0.237 OA
ATOM     84  O   UNL     1     -12.369   2.020   4.793  1.00  0.00    -0.744 OA
ENDBRANCH  80  81
ENDBRANCH  48  73
BRANCH  60  85
ATOM     85  C   UNL     1      -4.483   4.201  12.871  1.00  0.00     0.058 A 
ATOM     86  C   UNL     1      -5.527   3.962  13.778  1.00  0.00     0.135 A 
ATOM     87  C   UNL     1      -3.771   5.405  12.995  1.00  0.00     0.135 A 
ATOM     88  F   UNL     1      -6.242   2.828  13.702  1.00  0.00    -0.206 F 
ATOM     89  C   UNL     1      -5.885   4.902  14.739  1.00  0.00     0.059 A 
ATOM     90  C   UNL     1      -4.090   6.346  13.969  1.00  0.00     0.059 A 
ATOM     91  F   UNL     1      -2.752   5.679  12.165  1.00  0.00    -0.206 F 
ATOM     92  C   UNL     1      -5.165   6.096  14.821  1.00  0.00     0.060 A 
BRANCH  92  93
ATOM     93  S   UNL     1      -5.647   7.316  16.060  1.00  0.00     0.124 S 
ATOM     94  O   UNL     1      -6.858   7.873  15.467  1.00  0.00    -0.237 OA
ATOM     95  O   UNL     1      -5.844   6.495  17.250  1.00  0.00    -0.237 OA
ATOM     96  O   UNL     1      -4.500   8.218  16.112  1.00  0.00    -0.744 OA
ENDBRANCH  92  93
ENDBRANCH  60  85
ENDBRANCH  34  35
ENDBRANCH  27  29
ENDBRANCH  26  27
ENDBRANCH  25  26
ENDBRANCH   1  25
TORSDOF 19
