REMARK SMILES O=C(OCCOC(=O)C1(c2ccccc2)CCN(S(=O)(=O)c2cccs2)CC1)c1ccc(-c2c3nc(c(-c4c(F)cc(S(=O)(=O)[O-])cc4F)c4ccc([nH]4)c(-c4c(F)cc(S(=O)(=O)[O-])cc4F)c4nc(c(-c5c(F)cc(S(=O)(=O)[O-])cc5F)c5ccc2[nH]5)C=C4)C=C3)cc1
REMARK SMILES IDX 4 1 3 2 2 3 1 4 29 5 30 6 94 7 31 8 93 9 32 10 33 11 34 12
REMARK SMILES IDX 87 13 35 14 92 15 86 16 88 17 36 18 91 19 85 20 84 21 37 23
REMARK SMILES IDX 71 24 50 25 70 26 51 27 54 28 69 29 89 30 52 31 53 32 68 34
REMARK SMILES IDX 90 35 55 36 38 37 39 38 48 39 40 40 41 41 47 42 49 43 42 44
REMARK SMILES IDX 43 45 44 46 45 47 46 48 72 49 73 50 82 51 74 52 75 53 81 54
REMARK SMILES IDX 83 55 76 56 77 57 78 58 79 59 80 60 56 61 57 62 66 63 58 64
REMARK SMILES IDX 59 65 65 66 67 67 60 68 61 69 62 70 63 71 64 72 5 73 6 74
REMARK SMILES IDX 7 75 8 76 9 77 16 78 28 79 17 80 27 81 18 82 10 83 11 84
REMARK SMILES IDX 15 85 12 86 14 87 13 88 19 89 20 90 21 91 22 92 23 93 26 94
REMARK SMILES IDX 24 95 25 96
REMARK H PARENT 88 22 54 33
REMARK Flexibility Score: inf
ROOT
ATOM      1  C   UNL     1       4.669   0.993  -1.353  1.00  0.00     0.275 C 
ENDROOT
BRANCH   1   2
ATOM      2  O   UNL     1       3.900  -0.193  -1.596  1.00  0.00    -0.458 OA
BRANCH   2   3
ATOM      3  C   UNL     1       3.822  -1.343  -0.888  1.00  0.00     0.338 C 
ATOM      4  O   UNL     1       3.137  -2.256  -1.349  1.00  0.00    -0.246 OA
BRANCH   3   5
ATOM      5  C   UNL     1       4.420  -1.548   0.473  1.00  0.00     0.060 A 
ATOM      6  C   UNL     1       5.531  -0.891   1.008  1.00  0.00     0.016 A 
ATOM      7  C   UNL     1       3.782  -2.503   1.287  1.00  0.00     0.016 A 
ATOM      8  C   UNL     1       5.933  -1.108   2.335  1.00  0.00     0.010 A 
ATOM      9  C   UNL     1       4.156  -2.698   2.623  1.00  0.00     0.010 A 
ATOM     10  C   UNL     1       5.243  -2.003   3.160  1.00  0.00    -0.014 A 
BRANCH  10  11
ATOM     11  C   UNL     1       5.799  -2.338   4.496  1.00  0.00     0.031 A 
ATOM     12  C   UNL     1       6.468  -3.669   4.656  1.00  0.00     0.074 A 
ATOM     13  C   UNL     1       5.773  -1.466   5.523  1.00  0.00     0.049 A 
ATOM     14  N   UNL     1       7.143  -4.131   5.672  1.00  0.00    -0.248 NA
ATOM     15  C   UNL     1       6.319  -4.621   3.543  1.00  0.00     0.031 C 
ATOM     16  C   UNL     1       5.034  -0.211   5.535  1.00  0.00     0.029 A 
ATOM     17  N   UNL     1       6.393  -1.481   6.750  1.00  0.00    -0.354 N 
ATOM     18  C   UNL     1       7.490  -5.426   5.320  1.00  0.00     0.074 A 
ATOM     19  C   UNL     1       6.880  -5.707   4.042  1.00  0.00     0.031 C 
ATOM     20  C   UNL     1       5.301   0.463   6.666  1.00  0.00     0.029 A 
ATOM     21  C   UNL     1       6.235  -0.311   7.466  1.00  0.00     0.049 A 
ATOM     22  H   UNL     1       6.902  -2.254   7.086  1.00  0.00     0.167 HD
ATOM     23  C   UNL     1       8.287  -6.294   5.981  1.00  0.00     0.037 A 
ATOM     24  C   UNL     1       6.810   0.097   8.616  1.00  0.00     0.037 A 
ATOM     25  C   UNL     1       8.890  -6.003   7.248  1.00  0.00     0.049 A 
ATOM     26  C   UNL     1       7.764  -0.853   9.296  1.00  0.00     0.074 A 
ATOM     27  C   UNL     1       9.683  -6.813   8.036  1.00  0.00     0.029 A 
ATOM     28  N   UNL     1       8.766  -4.788   7.909  1.00  0.00    -0.354 N 
ATOM     29  N   UNL     1       8.132  -2.056   8.918  1.00  0.00    -0.248 NA
ATOM     30  C   UNL     1       8.376  -0.405  10.554  1.00  0.00     0.031 C 
ATOM     31  C   UNL     1      10.031  -6.089   9.182  1.00  0.00     0.029 A 
ATOM     32  C   UNL     1       9.483  -4.818   9.089  1.00  0.00     0.049 A 
ATOM     33  H   UNL     1       8.244  -4.018   7.584  1.00  0.00     0.167 HD
ATOM     34  C   UNL     1       9.010  -2.509   9.893  1.00  0.00     0.074 A 
ATOM     35  C   UNL     1       9.160  -1.431  10.851  1.00  0.00     0.031 C 
ATOM     36  C   UNL     1       9.618  -3.715  10.007  1.00  0.00     0.037 A 
BRANCH  23  37
ATOM     37  C   UNL     1       8.529  -7.609   5.305  1.00  0.00     0.058 A 
ATOM     38  C   UNL     1       9.301  -7.684   4.132  1.00  0.00     0.135 A 
ATOM     39  C   UNL     1       7.904  -8.778   5.760  1.00  0.00     0.135 A 
ATOM     40  F   UNL     1       9.883  -6.581   3.634  1.00  0.00    -0.206 F 
ATOM     41  C   UNL     1       9.401  -8.863   3.405  1.00  0.00     0.059 A 
ATOM     42  C   UNL     1       8.016  -9.977   5.062  1.00  0.00     0.059 A 
ATOM     43  F   UNL     1       7.143  -8.754   6.865  1.00  0.00    -0.206 F 
ATOM     44  C   UNL     1       8.747 -10.002   3.874  1.00  0.00     0.060 A 
BRANCH  44  45
ATOM     45  S   UNL     1       8.853 -11.514   2.895  1.00  0.00     0.124 S 
ATOM     46  O   UNL     1       7.957 -11.206   1.785  1.00  0.00    -0.237 OA
ATOM     47  O   UNL     1      10.274 -11.571   2.564  1.00  0.00    -0.237 OA
ATOM     48  O   UNL     1       8.385 -12.546   3.815  1.00  0.00    -0.744 OA
ENDBRANCH  44  45
ENDBRANCH  23  37
BRANCH  24  49
ATOM     49  C   UNL     1       6.561   1.458   9.183  1.00  0.00     0.058 A 
ATOM     50  C   UNL     1       7.596   2.406   9.264  1.00  0.00     0.135 A 
ATOM     51  C   UNL     1       5.312   1.828   9.704  1.00  0.00     0.135 A 
ATOM     52  F   UNL     1       8.813   2.112   8.780  1.00  0.00    -0.206 F 
ATOM     53  C   UNL     1       7.418   3.644   9.879  1.00  0.00     0.059 A 
ATOM     54  C   UNL     1       5.100   3.072  10.299  1.00  0.00     0.059 A 
ATOM     55  F   UNL     1       4.277   0.977   9.639  1.00  0.00    -0.206 F 
ATOM     56  C   UNL     1       6.167   3.964  10.404  1.00  0.00     0.060 A 
BRANCH  56  57
ATOM     57  S   UNL     1       5.939   5.570  11.203  1.00  0.00     0.124 S 
ATOM     58  O   UNL     1       6.567   5.345  12.499  1.00  0.00    -0.237 OA
ATOM     59  O   UNL     1       6.647   6.470  10.297  1.00  0.00    -0.237 OA
ATOM     60  O   UNL     1       4.488   5.729  11.220  1.00  0.00    -0.744 OA
ENDBRANCH  56  57
ENDBRANCH  24  49
BRANCH  36  61
ATOM     61  C   UNL     1      10.503  -3.924  11.199  1.00  0.00     0.058 A 
ATOM     62  C   UNL     1       9.966  -4.114  12.481  1.00  0.00     0.135 A 
ATOM     63  C   UNL     1      11.895  -4.009  11.042  1.00  0.00     0.135 A 
ATOM     64  F   UNL     1       8.640  -4.035  12.678  1.00  0.00    -0.206 F 
ATOM     65  C   UNL     1      10.783  -4.368  13.575  1.00  0.00     0.059 A 
ATOM     66  C   UNL     1      12.728  -4.289  12.118  1.00  0.00     0.059 A 
ATOM     67  F   UNL     1      12.451  -3.844   9.832  1.00  0.00    -0.206 F 
ATOM     68  C   UNL     1      12.163  -4.458  13.382  1.00  0.00     0.060 A 
BRANCH  68  69
ATOM     69  S   UNL     1      13.209  -4.842  14.800  1.00  0.00     0.124 S 
ATOM     70  O   UNL     1      13.222  -3.567  15.508  1.00  0.00    -0.237 OA
ATOM     71  O   UNL     1      12.472  -5.922  15.450  1.00  0.00    -0.237 OA
ATOM     72  O   UNL     1      14.475  -5.236  14.190  1.00  0.00    -0.744 OA
ENDBRANCH  68  69
ENDBRANCH  36  61
ENDBRANCH  10  11
ENDBRANCH   3   5
ENDBRANCH   2   3
ENDBRANCH   1   2
BRANCH   1  73
ATOM     73  C   UNL     1       4.000   1.976  -0.399  1.00  0.00     0.274 C 
BRANCH  73  74
ATOM     74  O   UNL     1       3.430   1.347   0.762  1.00  0.00    -0.461 OA
BRANCH  74  75
ATOM     75  C   UNL     1       2.246   1.878   1.188  1.00  0.00     0.316 C 
ATOM     76  O   UNL     1       1.560   2.634   0.505  1.00  0.00    -0.251 OA
BRANCH  75  77
ATOM     77  C   UNL     1       1.910   1.537   2.668  1.00  0.00     0.095 C 
ATOM     78  C   UNL     1       2.138   0.070   3.056  1.00  0.00     0.040 C 
ATOM     79  C   UNL     1       0.382   1.757   2.842  1.00  0.00     0.040 C 
ATOM     80  C   UNL     1       1.282  -0.921   2.288  1.00  0.00     0.104 C 
ATOM     81  C   UNL     1      -0.452   0.793   1.984  1.00  0.00     0.104 C 
ATOM     82  N   UNL     1      -0.168  -0.615   2.357  1.00  0.00    -0.197 NA
BRANCH  77  83
ATOM     83  C   UNL     1       2.809   2.404   3.593  1.00  0.00    -0.031 A 
ATOM     84  C   UNL     1       2.300   3.142   4.670  1.00  0.00     0.005 A 
ATOM     85  C   UNL     1       4.215   2.406   3.428  1.00  0.00     0.005 A 
ATOM     86  C   UNL     1       3.151   3.845   5.534  1.00  0.00     0.000 A 
ATOM     87  C   UNL     1       5.063   3.116   4.282  1.00  0.00     0.000 A 
ATOM     88  C   UNL     1       4.529   3.837   5.339  1.00  0.00     0.000 A 
ENDBRANCH  77  83
BRANCH  82  89
ATOM     89  S   UNL     1      -1.025  -1.807   1.427  1.00  0.00     0.252 S 
ATOM     90  O   UNL     1      -0.720  -1.545   0.030  1.00  0.00    -0.206 OA
ATOM     91  O   UNL     1      -0.767  -3.098   2.016  1.00  0.00    -0.206 OA
BRANCH  89  92
ATOM     92  C   UNL     1      -2.772  -1.498   1.536  1.00  0.00     0.135 A 
ATOM     93  C   UNL     1      -3.546  -0.485   0.998  1.00  0.00     0.033 A 
ATOM     94  S   UNL     1      -3.732  -2.641   2.367  1.00  0.00    -0.131 S 
ATOM     95  C   UNL     1      -4.929  -0.639   1.292  1.00  0.00     0.013 A 
ATOM     96  C   UNL     1      -5.171  -1.785   2.015  1.00  0.00     0.066 A 
ENDBRANCH  89  92
ENDBRANCH  82  89
ENDBRANCH  75  77
ENDBRANCH  74  75
ENDBRANCH  73  74
ENDBRANCH   1  73
TORSDOF 17
