REMARK SMILES Cc1ccc(C)c(N2C(=O)C[C@@H](SCC(=O)OCCOC(=O)c3ccc(-c4c5nc(c(-c6c(F)cc(S(=O)(=O)[O-])cc6F)c6ccc([nH]6)c(-c6c(F)cc(S(=O)(=O)[O-])cc6F)c6nc(c(-c7c(F)cc(S(=O)(=O)[O-])cc7F)c7ccc4[nH]7)C=C6)C=C5)cc3)C2=O)c1
REMARK SMILES IDX 18 1 17 2 15 3 16 4 14 5 13 6 12 7 8 8 9 9 89 10 10 11 11 12
REMARK SMILES IDX 90 13 7 14 1 15 2 16 3 17 91 18 4 19 5 20 6 21 19 22 20 23
REMARK SMILES IDX 21 24 22 25 23 26 24 27 88 28 25 29 87 30 26 31 27 32 28 33
REMARK SMILES IDX 81 34 29 35 86 36 80 37 82 38 30 39 85 40 79 41 78 42 31 44
REMARK SMILES IDX 65 45 44 46 64 47 45 48 48 49 63 50 83 51 46 52 47 53 62 55
REMARK SMILES IDX 84 56 49 57 32 58 33 59 42 60 34 61 35 62 41 63 43 64 36 65
REMARK SMILES IDX 37 66 38 67 39 68 40 69 66 70 67 71 76 72 68 73 69 74 75 75
REMARK SMILES IDX 77 76 70 77 71 78 72 79 73 80 74 81 50 82 51 83 60 84 52 85
REMARK SMILES IDX 53 86 59 87 61 88 54 89 55 90 56 91 57 92 58 93
REMARK H PARENT 82 43 48 54
REMARK Flexibility Score: inf
ROOT
ATOM      1  C   UNL     1      -4.515   6.176   3.362  1.00  0.00     0.274 C 
ENDROOT
BRANCH   1   2
ATOM      2  O   UNL     1      -4.737   5.162   2.381  1.00  0.00    -0.461 OA
BRANCH   2   3
ATOM      3  C   UNL     1      -5.842   5.273   1.607  1.00  0.00     0.316 C 
ATOM      4  O   UNL     1      -6.809   5.966   1.890  1.00  0.00    -0.251 OA
BRANCH   3   5
ATOM      5  C   UNL     1      -5.676   4.608   0.261  1.00  0.00     0.192 C 
BRANCH   5   6
ATOM      6  S   UNL     1      -4.644   3.117   0.253  1.00  0.00    -0.136 SA
BRANCH   6   7
ATOM      7  C   UNL     1      -2.958   3.821   0.528  1.00  0.00     0.146 C 
ATOM      8  N   UNL     1      -1.330   2.276  -0.058  1.00  0.00    -0.249 N 
ATOM      9  C   UNL     1      -1.317   3.188  -1.077  1.00  0.00     0.235 C 
ATOM     10  C   UNL     1      -2.097   2.681   1.004  1.00  0.00     0.247 C 
ATOM     11  O   UNL     1      -0.644   3.162  -2.104  1.00  0.00    -0.274 OA
ATOM     12  C   UNL     1      -2.259   4.302  -0.732  1.00  0.00     0.125 C 
ATOM     13  O   UNL     1      -2.107   2.226   2.140  1.00  0.00    -0.273 OA
BRANCH   8  14
ATOM     14  C   UNL     1      -0.616   1.069  -0.058  1.00  0.00     0.055 A 
ATOM     15  C   UNL     1       3.024  -0.051  -0.057  1.00  0.00     0.044 C 
ATOM     16  C   UNL     1       1.526  -0.079  -0.054  1.00  0.00    -0.049 A 
ATOM     17  C   UNL     1       0.853  -1.302   0.028  1.00  0.00     0.004 A 
ATOM     18  C   UNL     1       0.783   1.105  -0.119  1.00  0.00     0.030 A 
ATOM     19  C   UNL     1      -0.540  -1.345   0.057  1.00  0.00     0.006 A 
ATOM     20  C   UNL     1      -1.293  -0.165   0.011  1.00  0.00    -0.027 A 
ATOM     21  C   UNL     1      -2.792  -0.294  -0.004  1.00  0.00     0.046 C 
ENDBRANCH   8  14
ENDBRANCH   6   7
ENDBRANCH   5   6
ENDBRANCH   3   5
ENDBRANCH   2   3
ENDBRANCH   1   2
BRANCH   1  22
ATOM     22  C   UNL     1      -3.152   6.825   3.084  1.00  0.00     0.275 C 
BRANCH  22  23
ATOM     23  O   UNL     1      -2.794   7.071   1.677  1.00  0.00    -0.458 OA
BRANCH  23  24
ATOM     24  C   UNL     1      -3.489   7.619   0.645  1.00  0.00     0.338 C 
ATOM     25  O   UNL     1      -3.217   7.330  -0.514  1.00  0.00    -0.246 OA
BRANCH  24  26
ATOM     26  C   UNL     1      -4.636   8.492   0.939  1.00  0.00     0.060 A 
ATOM     27  C   UNL     1      -5.747   8.525   0.079  1.00  0.00     0.016 A 
ATOM     28  C   UNL     1      -4.656   9.175   2.140  1.00  0.00     0.016 A 
ATOM     29  C   UNL     1      -6.943   9.086   0.525  1.00  0.00     0.010 A 
ATOM     30  C   UNL     1      -5.870   9.560   2.642  1.00  0.00     0.010 A 
ATOM     31  C   UNL     1      -7.016   9.543   1.844  1.00  0.00    -0.014 A 
BRANCH  31  32
ATOM     32  C   UNL     1      -8.283   9.863   2.500  1.00  0.00     0.031 A 
ATOM     33  C   UNL     1      -9.320   8.787   2.477  1.00  0.00     0.074 A 
ATOM     34  C   UNL     1      -8.377  10.910   3.352  1.00  0.00     0.049 A 
ATOM     35  N   UNL     1     -10.418   8.759   1.795  1.00  0.00    -0.248 NA
ATOM     36  C   UNL     1      -9.060   7.534   3.201  1.00  0.00     0.031 C 
ATOM     37  C   UNL     1      -7.334  11.893   3.696  1.00  0.00     0.029 A 
ATOM     38  N   UNL     1      -9.390  11.255   4.189  1.00  0.00    -0.354 N 
ATOM     39  C   UNL     1     -11.108   7.616   2.213  1.00  0.00     0.074 A 
ATOM     40  C   UNL     1     -10.134   6.803   2.885  1.00  0.00     0.031 C 
ATOM     41  C   UNL     1      -7.673  12.550   4.825  1.00  0.00     0.029 A 
ATOM     42  C   UNL     1      -9.045  12.209   5.142  1.00  0.00     0.049 A 
ATOM     43  H   UNL     1     -10.291  10.864   4.128  1.00  0.00     0.167 HD
ATOM     44  C   UNL     1     -12.475   7.583   2.219  1.00  0.00     0.037 A 
ATOM     45  C   UNL     1      -9.846  12.760   6.082  1.00  0.00     0.037 A 
ATOM     46  C   UNL     1     -12.989   8.766   1.569  1.00  0.00     0.049 A 
ATOM     47  C   UNL     1     -11.227  12.633   5.567  1.00  0.00     0.074 A 
ATOM     48  C   UNL     1     -13.025   9.267   0.287  1.00  0.00     0.029 A 
ATOM     49  N   UNL     1     -13.206   9.817   2.424  1.00  0.00    -0.354 N 
ATOM     50  N   UNL     1     -11.636  13.219   4.473  1.00  0.00    -0.248 NA
ATOM     51  C   UNL     1     -12.053  11.527   6.026  1.00  0.00     0.031 C 
ATOM     52  C   UNL     1     -12.946  10.686   0.432  1.00  0.00     0.029 A 
ATOM     53  C   UNL     1     -12.946  11.003   1.792  1.00  0.00     0.049 A 
ATOM     54  H   UNL     1     -13.507   9.731   3.357  1.00  0.00     0.167 HD
ATOM     55  C   UNL     1     -12.477  12.295   3.878  1.00  0.00     0.074 A 
ATOM     56  C   UNL     1     -12.831  11.368   4.951  1.00  0.00     0.031 C 
ATOM     57  C   UNL     1     -12.563  12.200   2.518  1.00  0.00     0.037 A 
BRANCH  44  58
ATOM     58  C   UNL     1     -13.375   6.806   3.176  1.00  0.00     0.058 A 
ATOM     59  C   UNL     1     -14.780   6.894   3.008  1.00  0.00     0.135 A 
ATOM     60  C   UNL     1     -12.961   6.243   4.401  1.00  0.00     0.135 A 
ATOM     61  F   UNL     1     -15.305   7.388   1.874  1.00  0.00    -0.206 F 
ATOM     62  C   UNL     1     -15.689   6.556   4.014  1.00  0.00     0.059 A 
ATOM     63  C   UNL     1     -13.853   5.856   5.402  1.00  0.00     0.059 A 
ATOM     64  F   UNL     1     -11.672   6.118   4.733  1.00  0.00    -0.206 F 
ATOM     65  C   UNL     1     -15.212   6.057   5.220  1.00  0.00     0.060 A 
BRANCH  65  66
ATOM     66  S   UNL     1     -16.373   5.714   6.556  1.00  0.00     0.124 S 
ATOM     67  O   UNL     1     -16.820   7.057   6.907  1.00  0.00    -0.237 OA
ATOM     68  O   UNL     1     -17.357   4.865   5.893  1.00  0.00    -0.237 OA
ATOM     69  O   UNL     1     -15.546   5.043   7.555  1.00  0.00    -0.744 OA
ENDBRANCH  65  66
ENDBRANCH  44  58
BRANCH  45  70
ATOM     70  C   UNL     1      -9.516  13.180   7.462  1.00  0.00     0.058 A 
ATOM     71  C   UNL     1     -10.329  14.076   8.175  1.00  0.00     0.135 A 
ATOM     72  C   UNL     1      -8.552  12.476   8.211  1.00  0.00     0.135 A 
ATOM     73  F   UNL     1     -11.278  14.778   7.536  1.00  0.00    -0.206 F 
ATOM     74  C   UNL     1     -10.234  14.225   9.562  1.00  0.00     0.059 A 
ATOM     75  C   UNL     1      -8.439  12.606   9.596  1.00  0.00     0.059 A 
ATOM     76  F   UNL     1      -7.756  11.570   7.622  1.00  0.00    -0.206 F 
ATOM     77  C   UNL     1      -9.301  13.466  10.269  1.00  0.00     0.060 A 
BRANCH  77  78
ATOM     78  S   UNL     1      -9.302  13.523  12.079  1.00  0.00     0.124 S 
ATOM     79  O   UNL     1      -8.805  14.869  12.338  1.00  0.00    -0.237 OA
ATOM     80  O   UNL     1     -10.708  13.291  12.394  1.00  0.00    -0.237 OA
ATOM     81  O   UNL     1      -8.396  12.439  12.452  1.00  0.00    -0.744 OA
ENDBRANCH  77  78
ENDBRANCH  45  70
BRANCH  57  82
ATOM     82  C   UNL     1     -12.089  13.375   1.702  1.00  0.00     0.058 A 
ATOM     83  C   UNL     1     -10.753  13.790   1.572  1.00  0.00     0.135 A 
ATOM     84  C   UNL     1     -13.039  14.049   0.921  1.00  0.00     0.135 A 
ATOM     85  F   UNL     1      -9.766  13.151   2.208  1.00  0.00    -0.206 F 
ATOM     86  C   UNL     1     -10.382  14.847   0.740  1.00  0.00     0.059 A 
ATOM     87  C   UNL     1     -12.691  15.087   0.062  1.00  0.00     0.059 A 
ATOM     88  F   UNL     1     -14.326  13.666   0.953  1.00  0.00    -0.206 F 
ATOM     89  C   UNL     1     -11.361  15.493  -0.011  1.00  0.00     0.060 A 
BRANCH  89  90
ATOM     90  S   UNL     1     -10.877  16.829  -1.123  1.00  0.00     0.124 S 
ATOM     91  O   UNL     1     -10.541  17.898  -0.188  1.00  0.00    -0.237 OA
ATOM     92  O   UNL     1      -9.752  16.247  -1.849  1.00  0.00    -0.237 OA
ATOM     93  O   UNL     1     -12.075  17.056  -1.926  1.00  0.00    -0.744 OA
ENDBRANCH  89  90
ENDBRANCH  57  82
ENDBRANCH  31  32
ENDBRANCH  24  26
ENDBRANCH  23  24
ENDBRANCH  22  23
ENDBRANCH   1  22
TORSDOF 17
