REMARK SMILES C[C@H]1CC[C@H]([NH2+]Cc2c(C(=O)OCCOC(=O)c3ccc(-c4c5nc(c(-c6c(F)cc(S(=O)(=O)[O-])cc6F)c6ccc([nH]6)c(-c6c(F)cc(S(=O)(=O)[O-])cc6F)c6nc(c(-c7c(F)cc(S(=O)(=O)[O-])cc7F)c7ccc4[nH]7)C=C6)C=C5)cc3)n(Cc3ccccc3F)c3ccccc23)CC1
REMARK SMILES IDX 13 1 12 2 10 3 11 4 9 5 8 6 98 7 84 8 93 9 97 10 94 11 96 12
REMARK SMILES IDX 95 13 7 14 6 15 5 18 1 19 2 20 3 21 100 22 4 23 99 24 85 25
REMARK SMILES IDX 86 26 87 27 91 28 88 29 90 30 92 31 89 32 14 33 15 34 16 35
REMARK SMILES IDX 17 36 18 37 19 38 83 39 20 40 82 41 21 42 22 43 23 44 76 45
REMARK SMILES IDX 24 46 81 47 75 48 77 49 25 50 80 51 74 52 73 53 26 55 60 56
REMARK SMILES IDX 39 57 59 58 40 59 43 60 58 61 78 62 41 63 42 64 57 66 79 67
REMARK SMILES IDX 44 68 27 69 28 70 37 71 29 72 30 73 36 74 38 75 31 76 32 77
REMARK SMILES IDX 33 78 34 79 35 80 61 81 62 82 71 83 63 84 64 85 70 86 72 87
REMARK SMILES IDX 65 88 66 89 67 90 68 91 69 92 45 93 46 94 55 95 47 96 48 97
REMARK SMILES IDX 54 98 56 99 49 100 50 101 51 102 52 103 53 104
REMARK H PARENT 6 16 6 17 77 54 43 65
REMARK Flexibility Score: inf
ROOT
ATOM      1  C   UNL     1      -2.052   0.773   2.926  1.00  0.00     0.275 C 
ENDROOT
BRANCH   1   2
ATOM      2  O   UNL     1      -3.003  -0.195   2.386  1.00  0.00    -0.457 OA
BRANCH   2   3
ATOM      3  C   UNL     1      -2.582  -1.483   2.255  1.00  0.00     0.355 C 
ATOM      4  O   UNL     1      -1.611  -1.905   2.845  1.00  0.00    -0.244 OA
BRANCH   3   5
ATOM      5  C   UNL     1      -3.372  -2.278   1.320  1.00  0.00     0.137 A 
ATOM      6  C   UNL     1      -4.052  -1.903   0.143  1.00  0.00     0.047 A 
ATOM      7  C   UNL     1      -4.620  -3.113  -0.411  1.00  0.00     0.009 A 
ATOM      8  N   UNL     1      -3.411  -3.692   1.381  1.00  0.00    -0.330 N 
ATOM      9  C   UNL     1      -4.122  -4.195   0.303  1.00  0.00     0.050 A 
ATOM     10  C   UNL     1      -5.428  -3.372  -1.545  1.00  0.00     0.011 A 
ATOM     11  C   UNL     1      -4.304  -5.514  -0.155  1.00  0.00     0.027 A 
ATOM     12  C   UNL     1      -5.670  -4.686  -1.958  1.00  0.00     0.001 A 
ATOM     13  C   UNL     1      -5.091  -5.745  -1.281  1.00  0.00     0.002 A 
BRANCH   6  14
ATOM     14  C   UNL     1      -4.218  -0.592  -0.615  1.00  0.00     0.300 C 
BRANCH  14  15
ATOM     15  N   UNL     1      -3.327   0.513  -0.281  1.00  0.00    -0.340 N 
ATOM     16  H   UNL     1      -3.854   1.377  -0.406  1.00  0.00     0.346 HD
ATOM     17  H   UNL     1      -3.021   0.316   0.672  1.00  0.00     0.346 HD
BRANCH  15  18
ATOM     18  C   UNL     1      -2.075   0.646  -1.051  1.00  0.00     0.182 C 
ATOM     19  C   UNL     1       2.358   1.022  -0.783  1.00  0.00     0.007 C 
ATOM     20  C   UNL     1       0.856   0.882  -0.557  1.00  0.00    -0.014 C 
ATOM     21  C   UNL     1       0.290  -0.321  -1.308  1.00  0.00     0.009 C 
ATOM     22  C   UNL     1       0.075   2.118  -1.005  1.00  0.00     0.009 C 
ATOM     23  C   UNL     1      -1.150  -0.557  -0.877  1.00  0.00     0.065 C 
ATOM     24  C   UNL     1      -1.415   1.992  -0.664  1.00  0.00     0.065 C 
ENDBRANCH  15  18
ENDBRANCH  14  15
ENDBRANCH   6  14
BRANCH   8  25
ATOM     25  C   UNL     1      -2.532  -4.559   2.184  1.00  0.00     0.161 C 
BRANCH  25  26
ATOM     26  C   UNL     1      -3.102  -5.370   3.327  1.00  0.00     0.008 A 
ATOM     27  C   UNL     1      -3.547  -6.691   3.141  1.00  0.00     0.008 A 
ATOM     28  C   UNL     1      -2.967  -4.926   4.647  1.00  0.00     0.128 A 
ATOM     29  C   UNL     1      -3.810  -7.535   4.227  1.00  0.00     0.001 A 
ATOM     30  C   UNL     1      -3.211  -5.767   5.737  1.00  0.00     0.039 A 
ATOM     31  F   UNL     1      -2.514  -3.691   4.898  1.00  0.00    -0.207 F 
ATOM     32  C   UNL     1      -3.625  -7.080   5.527  1.00  0.00     0.003 A 
ENDBRANCH  25  26
ENDBRANCH   8  25
ENDBRANCH   3   5
ENDBRANCH   2   3
ENDBRANCH   1   2
BRANCH   1  33
ATOM     33  C   UNL     1      -1.236   0.437   4.188  1.00  0.00     0.275 C 
BRANCH  33  34
ATOM     34  O   UNL     1       0.063  -0.032   3.760  1.00  0.00    -0.458 OA
BRANCH  34  35
ATOM     35  C   UNL     1       0.608  -1.016   4.523  1.00  0.00     0.338 C 
ATOM     36  O   UNL     1       0.479  -1.137   5.731  1.00  0.00    -0.246 OA
BRANCH  35  37
ATOM     37  C   UNL     1       1.098  -2.075   3.599  1.00  0.00     0.060 A 
ATOM     38  C   UNL     1       1.574  -1.776   2.318  1.00  0.00     0.016 A 
ATOM     39  C   UNL     1       0.786  -3.396   3.933  1.00  0.00     0.016 A 
ATOM     40  C   UNL     1       1.564  -2.765   1.329  1.00  0.00     0.010 A 
ATOM     41  C   UNL     1       0.786  -4.376   2.938  1.00  0.00     0.010 A 
ATOM     42  C   UNL     1       1.072  -4.047   1.604  1.00  0.00    -0.014 A 
BRANCH  42  43
ATOM     43  C   UNL     1       0.956  -5.046   0.528  1.00  0.00     0.031 A 
ATOM     44  C   UNL     1       1.417  -6.420   0.802  1.00  0.00     0.074 A 
ATOM     45  C   UNL     1       0.359  -4.943  -0.680  1.00  0.00     0.049 A 
ATOM     46  N   UNL     1       2.615  -6.872   0.662  1.00  0.00    -0.248 NA
ATOM     47  C   UNL     1       0.443  -7.398   1.306  1.00  0.00     0.031 C 
ATOM     48  C   UNL     1      -0.649  -3.997  -1.121  1.00  0.00     0.029 A 
ATOM     49  N   UNL     1       0.538  -5.749  -1.779  1.00  0.00    -0.354 N 
ATOM     50  C   UNL     1       2.522  -8.236   0.875  1.00  0.00     0.074 A 
ATOM     51  C   UNL     1       1.210  -8.483   1.428  1.00  0.00     0.031 C 
ATOM     52  C   UNL     1      -1.059  -4.313  -2.373  1.00  0.00     0.029 A 
ATOM     53  C   UNL     1      -0.245  -5.411  -2.876  1.00  0.00     0.049 A 
ATOM     54  H   UNL     1       1.169  -6.504  -1.788  1.00  0.00     0.167 HD
ATOM     55  C   UNL     1       3.444  -9.107   0.390  1.00  0.00     0.037 A 
ATOM     56  C   UNL     1      -0.208  -5.971  -4.113  1.00  0.00     0.037 A 
ATOM     57  C   UNL     1       4.526  -8.449  -0.294  1.00  0.00     0.049 A 
ATOM     58  C   UNL     1       1.117  -6.625  -4.281  1.00  0.00     0.074 A 
ATOM     59  C   UNL     1       5.529  -7.571   0.059  1.00  0.00     0.029 A 
ATOM     60  N   UNL     1       4.425  -8.394  -1.664  1.00  0.00    -0.354 N 
ATOM     61  N   UNL     1       2.250  -5.983  -4.353  1.00  0.00    -0.248 NA
ATOM     62  C   UNL     1       1.237  -8.072  -4.150  1.00  0.00     0.031 C 
ATOM     63  C   UNL     1       5.763  -6.759  -1.092  1.00  0.00     0.029 A 
ATOM     64  C   UNL     1       4.882  -7.169  -2.093  1.00  0.00     0.049 A 
ATOM     65  H   UNL     1       4.083  -9.113  -2.243  1.00  0.00     0.167 HD
ATOM     66  C   UNL     1       3.197  -6.876  -3.889  1.00  0.00     0.074 A 
ATOM     67  C   UNL     1       2.554  -8.178  -3.957  1.00  0.00     0.031 C 
ATOM     68  C   UNL     1       4.295  -6.444  -3.205  1.00  0.00     0.037 A 
BRANCH  55  69
ATOM     69  C   UNL     1       3.205 -10.575   0.261  1.00  0.00     0.058 A 
ATOM     70  C   UNL     1       4.274 -11.471   0.417  1.00  0.00     0.135 A 
ATOM     71  C   UNL     1       1.981 -11.117  -0.179  1.00  0.00     0.135 A 
ATOM     72  F   UNL     1       5.485 -11.025   0.788  1.00  0.00    -0.206 F 
ATOM     73  C   UNL     1       4.133 -12.834   0.169  1.00  0.00     0.059 A 
ATOM     74  C   UNL     1       1.803 -12.479  -0.387  1.00  0.00     0.059 A 
ATOM     75  F   UNL     1       0.938 -10.325  -0.474  1.00  0.00    -0.206 F 
ATOM     76  C   UNL     1       2.892 -13.328  -0.231  1.00  0.00     0.060 A 
BRANCH  76  77
ATOM     77  S   UNL     1       2.704 -15.091  -0.556  1.00  0.00     0.124 S 
ATOM     78  O   UNL     1       3.184 -15.183  -1.930  1.00  0.00    -0.237 OA
ATOM     79  O   UNL     1       3.561 -15.693   0.461  1.00  0.00    -0.237 OA
ATOM     80  O   UNL     1       1.273 -15.308  -0.366  1.00  0.00    -0.744 OA
ENDBRANCH  76  77
ENDBRANCH  55  69
BRANCH  56  81
ATOM     81  C   UNL     1      -1.240  -6.038  -5.181  1.00  0.00     0.058 A 
ATOM     82  C   UNL     1      -0.905  -6.360  -6.511  1.00  0.00     0.135 A 
ATOM     83  C   UNL     1      -2.612  -6.045  -4.873  1.00  0.00     0.135 A 
ATOM     84  F   UNL     1       0.379  -6.408  -6.898  1.00  0.00    -0.206 F 
ATOM     85  C   UNL     1      -1.868  -6.715  -7.461  1.00  0.00     0.059 A 
ATOM     86  C   UNL     1      -3.593  -6.375  -5.808  1.00  0.00     0.059 A 
ATOM     87  F   UNL     1      -3.032  -5.824  -3.620  1.00  0.00    -0.206 F 
ATOM     88  C   UNL     1      -3.211  -6.738  -7.093  1.00  0.00     0.060 A 
BRANCH  88  89
ATOM     89  S   UNL     1      -4.434  -7.379  -8.260  1.00  0.00     0.124 S 
ATOM     90  O   UNL     1      -4.461  -6.334  -9.277  1.00  0.00    -0.237 OA
ATOM     91  O   UNL     1      -3.837  -8.648  -8.665  1.00  0.00    -0.237 OA
ATOM     92  O   UNL     1      -5.644  -7.496  -7.450  1.00  0.00    -0.744 OA
ENDBRANCH  88  89
ENDBRANCH  56  81
BRANCH  68  93
ATOM     93  C   UNL     1       4.733  -5.020  -3.428  1.00  0.00     0.058 A 
ATOM     94  C   UNL     1       3.979  -3.895  -3.052  1.00  0.00     0.135 A 
ATOM     95  C   UNL     1       6.013  -4.785  -3.955  1.00  0.00     0.135 A 
ATOM     96  F   UNL     1       2.787  -4.032  -2.457  1.00  0.00    -0.206 F 
ATOM     97  C   UNL     1       4.458  -2.596  -3.227  1.00  0.00     0.059 A 
ATOM     98  C   UNL     1       6.527  -3.498  -4.106  1.00  0.00     0.059 A 
ATOM     99  F   UNL     1       6.803  -5.819  -4.290  1.00  0.00    -0.206 F 
ATOM    100  C   UNL     1       5.736  -2.406  -3.750  1.00  0.00     0.060 A 
BRANCH 100 101
ATOM    101  S   UNL     1       6.398  -0.729  -3.860  1.00  0.00     0.124 S 
ATOM    102  O   UNL     1       5.761  -0.227  -5.073  1.00  0.00    -0.237 OA
ATOM    103  O   UNL     1       5.945  -0.122  -2.610  1.00  0.00    -0.237 OA
ATOM    104  O   UNL     1       7.841  -0.940  -3.950  1.00  0.00    -0.744 OA
ENDBRANCH 100 101
ENDBRANCH  68  93
ENDBRANCH  42  43
ENDBRANCH  35  37
ENDBRANCH  34  35
ENDBRANCH  33  34
ENDBRANCH   1  33
TORSDOF 19
