REMARK SMILES O=C(OCCOC(=O)c1c(S(=O)(=O)N2CCCCC2)sc2c1CC[NH2+]C2)c1ccc(-c2c3nc(c(-c4c(F)cc(S(=O)(=O)[O-])cc4F)c4ccc([nH]4)c(-c4c(F)cc(S(=O)(=O)[O-])cc4F)c4nc(c(-c5c(F)cc(S(=O)(=O)[O-])cc5F)c5ccc2[nH]5)C=C4)C=C3)cc1
REMARK SMILES IDX 4 1 3 2 2 3 1 4 27 5 28 6 92 7 29 8 91 9 30 10 31 11 32 12
REMARK SMILES IDX 85 13 33 14 90 15 84 16 86 17 34 18 89 19 83 20 82 21 35 23
REMARK SMILES IDX 69 24 48 25 68 26 49 27 52 28 67 29 87 30 50 31 51 32 66 34
REMARK SMILES IDX 88 35 53 36 36 37 37 38 46 39 38 40 39 41 45 42 47 43 40 44
REMARK SMILES IDX 41 45 42 46 43 47 44 48 70 49 71 50 80 51 72 52 73 53 79 54
REMARK SMILES IDX 81 55 74 56 75 57 76 58 77 59 78 60 54 61 55 62 64 63 56 64
REMARK SMILES IDX 57 65 63 66 65 67 58 68 59 69 60 70 61 71 62 72 5 73 6 74
REMARK SMILES IDX 7 75 8 76 9 77 10 78 22 79 20 80 21 81 23 82 26 83 24 84
REMARK SMILES IDX 25 85 11 88 12 89 13 90 14 91 15 92 19 93 16 94 18 95 17 96
REMARK H PARENT 86 22 52 33 25 86 25 87
REMARK Flexibility Score: inf
ROOT
ATOM      1  C   UNL     1       4.782  -0.342   0.638  1.00  0.00     0.275 C 
ENDROOT
BRANCH   1   2
ATOM      2  O   UNL     1       3.721   0.357   1.310  1.00  0.00    -0.458 OA
BRANCH   2   3
ATOM      3  C   UNL     1       2.616   0.659   0.606  1.00  0.00     0.338 C 
ATOM      4  O   UNL     1       1.626  -0.053   0.533  1.00  0.00    -0.246 OA
BRANCH   3   5
ATOM      5  C   UNL     1       2.620   2.051   0.120  1.00  0.00     0.060 A 
ATOM      6  C   UNL     1       3.703   2.637  -0.541  1.00  0.00     0.016 A 
ATOM      7  C   UNL     1       1.406   2.732   0.223  1.00  0.00     0.016 A 
ATOM      8  C   UNL     1       3.566   3.918  -1.073  1.00  0.00     0.010 A 
ATOM      9  C   UNL     1       1.248   3.961  -0.391  1.00  0.00     0.010 A 
ATOM     10  C   UNL     1       2.332   4.587  -1.002  1.00  0.00    -0.014 A 
BRANCH  10  11
ATOM     11  C   UNL     1       2.163   5.884  -1.673  1.00  0.00     0.031 A 
ATOM     12  C   UNL     1       2.743   5.958  -3.052  1.00  0.00     0.074 A 
ATOM     13  C   UNL     1       1.443   6.915  -1.166  1.00  0.00     0.049 A 
ATOM     14  N   UNL     1       3.780   6.623  -3.436  1.00  0.00    -0.248 NA
ATOM     15  C   UNL     1       2.214   5.080  -4.103  1.00  0.00     0.031 C 
ATOM     16  C   UNL     1       0.614   6.959   0.045  1.00  0.00     0.029 A 
ATOM     17  N   UNL     1       1.253   8.165  -1.683  1.00  0.00    -0.354 N 
ATOM     18  C   UNL     1       3.886   6.445  -4.816  1.00  0.00     0.074 A 
ATOM     19  C   UNL     1       2.986   5.377  -5.150  1.00  0.00     0.031 C 
ATOM     20  C   UNL     1      -0.160   8.069   0.040  1.00  0.00     0.029 A 
ATOM     21  C   UNL     1       0.251   8.915  -1.064  1.00  0.00     0.049 A 
ATOM     22  H   UNL     1       1.784   8.511  -2.436  1.00  0.00     0.167 HD
ATOM     23  C   UNL     1       4.564   7.341  -5.585  1.00  0.00     0.037 A 
ATOM     24  C   UNL     1      -0.185  10.161  -1.397  1.00  0.00     0.037 A 
ATOM     25  C   UNL     1       5.421   8.158  -4.764  1.00  0.00     0.049 A 
ATOM     26  C   UNL     1       0.912  10.799  -2.167  1.00  0.00     0.074 A 
ATOM     27  C   UNL     1       6.456   7.883  -3.891  1.00  0.00     0.029 A 
ATOM     28  N   UNL     1       4.971   9.413  -4.435  1.00  0.00    -0.354 N 
ATOM     29  N   UNL     1       2.066  11.112  -1.646  1.00  0.00    -0.248 NA
ATOM     30  C   UNL     1       0.899  10.631  -3.611  1.00  0.00     0.031 C 
ATOM     31  C   UNL     1       6.215   8.734  -2.774  1.00  0.00     0.029 A 
ATOM     32  C   UNL     1       5.130   9.557  -3.081  1.00  0.00     0.049 A 
ATOM     33  H   UNL     1       4.603  10.084  -5.055  1.00  0.00     0.167 HD
ATOM     34  C   UNL     1       2.994  10.733  -2.603  1.00  0.00     0.074 A 
ATOM     35  C   UNL     1       2.213  10.510  -3.821  1.00  0.00     0.031 C 
ATOM     36  C   UNL     1       4.260  10.361  -2.253  1.00  0.00     0.037 A 
BRANCH  23  37
ATOM     37  C   UNL     1       4.194   7.744  -6.993  1.00  0.00     0.058 A 
ATOM     38  C   UNL     1       5.050   8.618  -7.699  1.00  0.00     0.135 A 
ATOM     39  C   UNL     1       2.910   7.565  -7.551  1.00  0.00     0.135 A 
ATOM     40  F   UNL     1       6.297   8.857  -7.262  1.00  0.00    -0.206 F 
ATOM     41  C   UNL     1       4.631   9.332  -8.820  1.00  0.00     0.059 A 
ATOM     42  C   UNL     1       2.487   8.236  -8.697  1.00  0.00     0.059 A 
ATOM     43  F   UNL     1       1.980   6.802  -6.966  1.00  0.00    -0.206 F 
ATOM     44  C   UNL     1       3.341   9.145  -9.303  1.00  0.00     0.060 A 
BRANCH  44  45
ATOM     45  S   UNL     1       2.787  10.120 -10.713  1.00  0.00     0.124 S 
ATOM     46  O   UNL     1       2.743  11.461 -10.143  1.00  0.00    -0.237 OA
ATOM     47  O   UNL     1       3.848   9.870 -11.683  1.00  0.00    -0.237 OA
ATOM     48  O   UNL     1       1.494   9.527 -11.042  1.00  0.00    -0.744 OA
ENDBRANCH  44  45
ENDBRANCH  23  37
BRANCH  24  49
ATOM     49  C   UNL     1      -1.564  10.727  -1.371  1.00  0.00     0.058 A 
ATOM     50  C   UNL     1      -1.797  12.102  -1.577  1.00  0.00     0.135 A 
ATOM     51  C   UNL     1      -2.695   9.892  -1.464  1.00  0.00     0.135 A 
ATOM     52  F   UNL     1      -0.780  12.975  -1.518  1.00  0.00    -0.206 F 
ATOM     53  C   UNL     1      -3.058  12.608  -1.924  1.00  0.00     0.059 A 
ATOM     54  C   UNL     1      -3.961  10.374  -1.805  1.00  0.00     0.059 A 
ATOM     55  F   UNL     1      -2.580   8.563  -1.321  1.00  0.00    -0.206 F 
ATOM     56  C   UNL     1      -4.130  11.730  -2.064  1.00  0.00     0.060 A 
BRANCH  56  57
ATOM     57  S   UNL     1      -5.708  12.344  -2.709  1.00  0.00     0.124 S 
ATOM     58  O   UNL     1      -6.193  13.159  -1.601  1.00  0.00    -0.237 OA
ATOM     59  O   UNL     1      -5.293  13.073  -3.903  1.00  0.00    -0.237 OA
ATOM     60  O   UNL     1      -6.468  11.123  -2.964  1.00  0.00    -0.744 OA
ENDBRANCH  56  57
ENDBRANCH  24  49
BRANCH  36  61
ATOM     61  C   UNL     1       4.743  10.646  -0.854  1.00  0.00     0.058 A 
ATOM     62  C   UNL     1       4.183  10.126   0.327  1.00  0.00     0.135 A 
ATOM     63  C   UNL     1       5.939  11.369  -0.727  1.00  0.00     0.135 A 
ATOM     64  F   UNL     1       3.101   9.335   0.293  1.00  0.00    -0.206 F 
ATOM     65  C   UNL     1       4.763  10.356   1.579  1.00  0.00     0.059 A 
ATOM     66  C   UNL     1       6.554  11.579   0.502  1.00  0.00     0.059 A 
ATOM     67  F   UNL     1       6.559  11.842  -1.821  1.00  0.00    -0.206 F 
ATOM     68  C   UNL     1       5.950  11.086   1.654  1.00  0.00     0.060 A 
BRANCH  68  69
ATOM     69  S   UNL     1       6.729  11.353   3.261  1.00  0.00     0.124 S 
ATOM     70  O   UNL     1       5.796  12.273   3.903  1.00  0.00    -0.237 OA
ATOM     71  O   UNL     1       6.777  10.005   3.819  1.00  0.00    -0.237 OA
ATOM     72  O   UNL     1       8.030  11.923   2.919  1.00  0.00    -0.744 OA
ENDBRANCH  68  69
ENDBRANCH  36  61
ENDBRANCH  10  11
ENDBRANCH   3   5
ENDBRANCH   2   3
ENDBRANCH   1   2
BRANCH   1  73
ATOM     73  C   UNL     1       4.391  -1.340  -0.460  1.00  0.00     0.275 C 
BRANCH  73  74
ATOM     74  O   UNL     1       3.868  -0.663  -1.621  1.00  0.00    -0.458 OA
BRANCH  74  75
ATOM     75  C   UNL     1       2.682  -1.111  -2.134  1.00  0.00     0.340 C 
ATOM     76  O   UNL     1       2.020  -2.042  -1.692  1.00  0.00    -0.246 OA
BRANCH  75  77
ATOM     77  C   UNL     1       2.285  -0.333  -3.300  1.00  0.00     0.095 A 
ATOM     78  C   UNL     1       2.970  -0.456  -4.503  1.00  0.00     0.150 A 
ATOM     79  C   UNL     1       1.147   0.548  -3.454  1.00  0.00    -0.007 A 
ATOM     80  S   UNL     1       2.464   0.725  -5.627  1.00  0.00    -0.120 S 
ATOM     81  C   UNL     1       1.127   1.147  -4.696  1.00  0.00     0.064 A 
ATOM     82  C   UNL     1       0.080   0.888  -2.463  1.00  0.00     0.099 C 
ATOM     83  C   UNL     1       0.056   2.051  -5.218  1.00  0.00     0.308 C 
ATOM     84  C   UNL     1      -1.087   1.693  -3.086  1.00  0.00     0.265 C 
ATOM     85  N   UNL     1      -0.721   2.658  -4.133  1.00  0.00    -0.342 N 
ATOM     86  H   UNL     1      -0.165   3.402  -3.711  1.00  0.00     0.346 HD
ATOM     87  H   UNL     1      -1.586   3.016  -4.538  1.00  0.00     0.346 HD
BRANCH  78  88
ATOM     88  S   UNL     1       4.217  -1.632  -5.019  1.00  0.00     0.253 S 
ATOM     89  O   UNL     1       5.460  -1.119  -4.477  1.00  0.00    -0.206 OA
ATOM     90  O   UNL     1       3.685  -2.903  -4.583  1.00  0.00    -0.206 OA
BRANCH  88  91
ATOM     91  N   UNL     1       4.344  -1.696  -6.737  1.00  0.00    -0.197 NA
ATOM     92  C   UNL     1       3.102  -2.161  -7.417  1.00  0.00     0.102 C 
ATOM     93  C   UNL     1       5.090  -0.558  -7.338  1.00  0.00     0.102 C 
ATOM     94  C   UNL     1       3.218  -2.160  -8.934  1.00  0.00     0.017 C 
ATOM     95  C   UNL     1       5.116  -0.585  -8.858  1.00  0.00     0.017 C 
ATOM     96  C   UNL     1       3.735  -0.825  -9.442  1.00  0.00     0.003 C 
ENDBRANCH  88  91
ENDBRANCH  78  88
ENDBRANCH  75  77
ENDBRANCH  74  75
ENDBRANCH  73  74
ENDBRANCH   1  73
TORSDOF 16
