REMARK SMILES O=C(OCCOC(=O)c1ccc(-c2c3nc(c(-c4c(F)cc(S(=O)(=O)[O-])cc4F)c4ccc([nH]4)c(-c4c(F)cc(S(=O)(=O)[O-])cc4F)c4nc(c(-c5c(F)cc(S(=O)(=O)[O-])cc5F)c5ccc2[nH]5)C=C4)C=C3)cc1)/C(=C/c1ccsc1)c1ccccc1
REMARK SMILES IDX 5 1 4 2 3 3 2 4 1 5 75 6 76 7 82 8 83 9 87 10 84 11 86 12
REMARK SMILES IDX 85 13 77 14 78 15 81 16 79 17 80 18 6 19 7 20 8 21 9 22
REMARK SMILES IDX 10 23 74 24 11 25 73 26 12 27 13 28 14 29 67 30 15 31 72 32
REMARK SMILES IDX 66 33 68 34 16 35 71 36 65 37 64 38 17 40 51 41 30 42 50 43
REMARK SMILES IDX 31 44 34 45 49 46 69 47 32 48 33 49 48 51 70 52 35 53 18 54
REMARK SMILES IDX 19 55 28 56 20 57 21 58 27 59 29 60 22 61 23 62 24 63 25 64
REMARK SMILES IDX 26 65 52 66 53 67 62 68 54 69 55 70 61 71 63 72 56 73 57 74
REMARK SMILES IDX 58 75 59 76 60 77 36 78 37 79 46 80 38 81 39 82 45 83 47 84
REMARK SMILES IDX 40 85 41 86 42 87 43 88 44 89
REMARK H PARENT 68 39 34 50
REMARK Flexibility Score: inf
ROOT
ATOM      1  C   UNL     1       3.726   1.772   1.381  1.00  0.00     0.275 C 
ENDROOT
BRANCH   1   2
ATOM      2  C   UNL     1       4.086   1.397  -0.059  1.00  0.00     0.275 C 
BRANCH   2   3
ATOM      3  O   UNL     1       3.103   0.568  -0.700  1.00  0.00    -0.458 OA
BRANCH   3   4
ATOM      4  C   UNL     1       3.000  -0.779  -0.761  1.00  0.00     0.338 C 
ATOM      5  O   UNL     1       2.092  -1.249  -1.451  1.00  0.00    -0.246 OA
BRANCH   4   6
ATOM      6  C   UNL     1       3.877  -1.708   0.017  1.00  0.00     0.067 C 
ATOM      7  C   UNL     1       3.227  -2.813   0.466  1.00  0.00     0.025 C 
BRANCH   6   8
ATOM      8  C   UNL     1       5.354  -1.671   0.098  1.00  0.00    -0.011 A 
ATOM      9  C   UNL     1       6.097  -2.581  -0.672  1.00  0.00     0.009 A 
ATOM     10  C   UNL     1       6.036  -0.935   1.077  1.00  0.00     0.009 A 
ATOM     11  C   UNL     1       7.468  -2.751  -0.458  1.00  0.00     0.001 A 
ATOM     12  C   UNL     1       7.416  -1.052   1.246  1.00  0.00     0.001 A 
ATOM     13  C   UNL     1       8.129  -1.974   0.490  1.00  0.00     0.000 A 
ENDBRANCH   6   8
BRANCH   7  14
ATOM     14  C   UNL     1       3.782  -3.957   1.140  1.00  0.00    -0.014 A 
ATOM     15  C   UNL     1       4.698  -3.941   2.235  1.00  0.00     0.020 A 
ATOM     16  C   UNL     1       3.444  -5.247   0.789  1.00  0.00     0.073 A 
ATOM     17  C   UNL     1       5.004  -5.205   2.687  1.00  0.00     0.065 A 
ATOM     18  S   UNL     1       4.231  -6.416   1.765  1.00  0.00    -0.152 S 
ENDBRANCH   7  14
ENDBRANCH   4   6
ENDBRANCH   3   4
ENDBRANCH   2   3
ENDBRANCH   1   2
BRANCH   1  19
ATOM     19  O   UNL     1       3.367   0.619   2.162  1.00  0.00    -0.458 OA
BRANCH  19  20
ATOM     20  C   UNL     1       2.035   0.433   2.343  1.00  0.00     0.338 C 
ATOM     21  O   UNL     1       1.151   1.199   1.993  1.00  0.00    -0.246 OA
BRANCH  20  22
ATOM     22  C   UNL     1       1.768  -0.905   2.927  1.00  0.00     0.060 A 
ATOM     23  C   UNL     1       0.556  -1.524   2.599  1.00  0.00     0.016 A 
ATOM     24  C   UNL     1       2.671  -1.562   3.770  1.00  0.00     0.016 A 
ATOM     25  C   UNL     1       0.225  -2.770   3.141  1.00  0.00     0.010 A 
ATOM     26  C   UNL     1       2.346  -2.826   4.288  1.00  0.00     0.010 A 
ATOM     27  C   UNL     1       1.103  -3.426   4.012  1.00  0.00    -0.014 A 
BRANCH  27  28
ATOM     28  C   UNL     1       0.644  -4.637   4.756  1.00  0.00     0.031 A 
ATOM     29  C   UNL     1       0.355  -4.514   6.232  1.00  0.00     0.074 A 
ATOM     30  C   UNL     1       0.421  -5.819   4.147  1.00  0.00     0.049 A 
ATOM     31  N   UNL     1      -0.181  -5.388   7.046  1.00  0.00    -0.248 NA
ATOM     32  C   UNL     1       0.703  -3.236   6.873  1.00  0.00     0.031 C 
ATOM     33  C   UNL     1       0.623  -6.095   2.728  1.00  0.00     0.029 A 
ATOM     34  N   UNL     1      -0.026  -7.020   4.652  1.00  0.00    -0.354 N 
ATOM     35  C   UNL     1      -0.268  -4.752   8.278  1.00  0.00     0.074 A 
ATOM     36  C   UNL     1       0.357  -3.458   8.131  1.00  0.00     0.031 C 
ATOM     37  C   UNL     1       0.344  -7.387   2.480  1.00  0.00     0.029 A 
ATOM     38  C   UNL     1      -0.091  -8.030   3.718  1.00  0.00     0.049 A 
ATOM     39  H   UNL     1      -0.277  -7.145   5.596  1.00  0.00     0.167 HD
ATOM     40  C   UNL     1      -0.862  -5.177   9.418  1.00  0.00     0.037 A 
ATOM     41  C   UNL     1      -0.477  -9.317   3.837  1.00  0.00     0.037 A 
ATOM     42  C   UNL     1      -1.482  -6.463   9.581  1.00  0.00     0.049 A 
ATOM     43  C   UNL     1      -1.048  -9.806   5.145  1.00  0.00     0.074 A 
ATOM     44  C   UNL     1      -2.147  -6.963  10.687  1.00  0.00     0.029 A 
ATOM     45  N   UNL     1      -1.498  -7.462   8.620  1.00  0.00    -0.354 N 
ATOM     46  N   UNL     1      -1.223  -9.152   6.268  1.00  0.00    -0.248 NA
ATOM     47  C   UNL     1      -1.521 -11.199   5.186  1.00  0.00     0.031 C 
ATOM     48  C   UNL     1      -2.515  -8.285  10.415  1.00  0.00     0.029 A 
ATOM     49  C   UNL     1      -2.135  -8.587   9.118  1.00  0.00     0.049 A 
ATOM     50  H   UNL     1      -1.114  -7.383   7.716  1.00  0.00     0.167 HD
ATOM     51  C   UNL     1      -1.892 -10.027   7.120  1.00  0.00     0.074 A 
ATOM     52  C   UNL     1      -2.072 -11.264   6.390  1.00  0.00     0.031 C 
ATOM     53  C   UNL     1      -2.338  -9.811   8.383  1.00  0.00     0.037 A 
BRANCH  40  54
ATOM     54  C   UNL     1      -0.864  -4.223  10.579  1.00  0.00     0.058 A 
ATOM     55  C   UNL     1      -1.632  -3.046  10.561  1.00  0.00     0.135 A 
ATOM     56  C   UNL     1      -0.086  -4.481  11.717  1.00  0.00     0.135 A 
ATOM     57  F   UNL     1      -2.380  -2.742   9.488  1.00  0.00    -0.206 F 
ATOM     58  C   UNL     1      -1.592  -2.136  11.611  1.00  0.00     0.059 A 
ATOM     59  C   UNL     1      -0.055  -3.599  12.793  1.00  0.00     0.059 A 
ATOM     60  F   UNL     1       0.667  -5.590  11.786  1.00  0.00    -0.206 F 
ATOM     61  C   UNL     1      -0.795  -2.419  12.720  1.00  0.00     0.060 A 
BRANCH  61  62
ATOM     62  S   UNL     1      -0.729  -1.215  14.063  1.00  0.00     0.124 S 
ATOM     63  O   UNL     1       0.074  -0.155  13.461  1.00  0.00    -0.237 OA
ATOM     64  O   UNL     1      -2.139  -0.901  14.271  1.00  0.00    -0.237 OA
ATOM     65  O   UNL     1      -0.086  -1.950  15.147  1.00  0.00    -0.744 OA
ENDBRANCH  61  62
ENDBRANCH  40  54
BRANCH  41  66
ATOM     66  C   UNL     1      -0.409 -10.235   2.664  1.00  0.00     0.058 A 
ATOM     67  C   UNL     1      -1.573 -10.672   2.015  1.00  0.00     0.135 A 
ATOM     68  C   UNL     1       0.821 -10.723   2.195  1.00  0.00     0.135 A 
ATOM     69  F   UNL     1      -2.775 -10.246   2.435  1.00  0.00    -0.206 F 
ATOM     70  C   UNL     1      -1.526 -11.578   0.959  1.00  0.00     0.059 A 
ATOM     71  C   UNL     1       0.896 -11.613   1.126  1.00  0.00     0.059 A 
ATOM     72  F   UNL     1       1.965 -10.335   2.779  1.00  0.00    -0.206 F 
ATOM     73  C   UNL     1      -0.285 -12.044   0.522  1.00  0.00     0.060 A 
BRANCH  73  74
ATOM     74  S   UNL     1      -0.237 -13.199  -0.867  1.00  0.00     0.124 S 
ATOM     75  O   UNL     1      -0.795 -14.406  -0.268  1.00  0.00    -0.237 OA
ATOM     76  O   UNL     1      -1.080 -12.527  -1.851  1.00  0.00    -0.237 OA
ATOM     77  O   UNL     1       1.181 -13.262  -1.205  1.00  0.00    -0.744 OA
ENDBRANCH  73  74
ENDBRANCH  41  66
BRANCH  53  78
ATOM     78  C   UNL     1      -3.142 -10.900   9.043  1.00  0.00     0.058 A 
ATOM     79  C   UNL     1      -2.567 -12.110   9.464  1.00  0.00     0.135 A 
ATOM     80  C   UNL     1      -4.510 -10.705   9.300  1.00  0.00     0.135 A 
ATOM     81  F   UNL     1      -1.265 -12.352   9.245  1.00  0.00    -0.206 F 
ATOM     82  C   UNL     1      -3.326 -13.099  10.085  1.00  0.00     0.059 A 
ATOM     83  C   UNL     1      -5.280 -11.666   9.948  1.00  0.00     0.059 A 
ATOM     84  F   UNL     1      -5.111  -9.562   8.934  1.00  0.00    -0.206 F 
ATOM     85  C   UNL     1      -4.683 -12.868  10.322  1.00  0.00     0.060 A 
BRANCH  85  86
ATOM     86  S   UNL     1      -5.652 -14.148  11.147  1.00  0.00     0.124 S 
ATOM     87  O   UNL     1      -5.807 -15.132  10.081  1.00  0.00    -0.237 OA
ATOM     88  O   UNL     1      -4.780 -14.541  12.249  1.00  0.00    -0.237 OA
ATOM     89  O   UNL     1      -6.873 -13.451  11.540  1.00  0.00    -0.744 OA
ENDBRANCH  85  86
ENDBRANCH  53  78
ENDBRANCH  27  28
ENDBRANCH  20  22
ENDBRANCH  19  20
ENDBRANCH   1  19
TORSDOF 16
