REMARK SMILES CCCOC(=O)c1c(NC(=O)[C@@H]2CC=CC[C@H]2C(=O)OCCOC(=O)c2ccc(-c3c4nc(c(-c5c(F)cc(S(=O)(=O)[O-])cc5F)c5ccc([nH]5)c(-c5c(F)cc(S(=O)(=O)[O-])cc5F)c5nc(c(-c6c(F)cc(S(=O)(=O)[O-])cc6F)c6ccc3[nH]6)C=C5)C=C4)cc2)sc2c1CCCC2
REMARK SMILES IDX 20 1 18 2 19 3 17 4 12 5 13 6 14 7 16 8 15 9 10 10 9 11
REMARK SMILES IDX 11 13 8 14 7 15 94 16 92 17 93 18 95 19 98 20 96 21 97 22
REMARK SMILES IDX 5 23 6 24 4 25 3 26 2 27 1 28 21 29 22 30 23 31 24 32 25 33
REMARK SMILES IDX 26 34 27 35 91 36 28 37 90 38 29 39 30 40 31 41 84 42 32 43
REMARK SMILES IDX 89 44 83 45 85 46 33 47 88 48 82 49 81 50 34 52 68 53 47 54
REMARK SMILES IDX 67 55 48 56 51 57 66 58 86 59 49 60 50 61 65 63 87 64 52 65
REMARK SMILES IDX 35 66 36 67 45 68 37 69 38 70 44 71 46 72 39 73 40 74 41 75
REMARK SMILES IDX 42 76 43 77 69 78 70 79 79 80 71 81 72 82 78 83 80 84 73 85
REMARK SMILES IDX 74 86 75 87 76 88 77 89 53 90 54 91 63 92 55 93 56 94 62 95
REMARK SMILES IDX 64 96 57 97 58 98 59 99 60 100 61 101
REMARK H PARENT 9 12 85 51 51 62
REMARK Flexibility Score: inf
ROOT
ATOM      1  O   UNL     1      -0.356   0.960   0.250  1.00  0.00    -0.462 OA
ENDROOT
BRANCH   1   2
ATOM      2  C   UNL     1      -0.151  -0.098  -0.581  1.00  0.00     0.310 C 
ATOM      3  O   UNL     1      -0.503  -0.031  -1.756  1.00  0.00    -0.252 OA
BRANCH   2   4
ATOM      4  C   UNL     1       0.534  -1.400  -0.001  1.00  0.00     0.116 C 
ATOM      5  C   UNL     1       1.483  -1.379   1.188  1.00  0.00     0.097 C 
ATOM      6  C   UNL     1       2.531  -2.510   1.000  1.00  0.00     0.041 C 
ATOM      7  C   UNL     1       1.869  -3.838   0.739  1.00  0.00    -0.030 C 
ATOM      8  C   UNL     1      -0.285  -2.678   0.337  1.00  0.00     0.043 C 
ATOM      9  C   UNL     1       0.561  -3.917   0.462  1.00  0.00    -0.030 C 
BRANCH   5  10
ATOM     10  C   UNL     1       2.135  -0.080   1.391  1.00  0.00     0.229 C 
ATOM     11  N   UNL     1       1.592   0.768   2.283  1.00  0.00    -0.317 N 
ATOM     12  H   UNL     1       2.253   1.428   2.595  1.00  0.00     0.170 HD
ATOM     13  O   UNL     1       3.190   0.205   0.826  1.00  0.00    -0.274 OA
BRANCH  11  14
ATOM     14  C   UNL     1       0.364   0.970   2.881  1.00  0.00     0.110 A 
ATOM     15  C   UNL     1      -1.000   0.600   2.942  1.00  0.00     0.098 A 
ATOM     16  C   UNL     1      -1.704   1.707   3.647  1.00  0.00    -0.017 A 
ATOM     17  S   UNL     1       0.749   2.287   3.923  1.00  0.00    -0.122 S 
ATOM     18  C   UNL     1      -0.853   2.712   4.069  1.00  0.00     0.011 A 
ATOM     19  C   UNL     1      -3.182   1.875   3.864  1.00  0.00     0.038 C 
ATOM     20  C   UNL     1      -1.210   4.073   4.563  1.00  0.00     0.047 C 
ATOM     21  C   UNL     1      -3.566   3.368   3.975  1.00  0.00     0.005 C 
ATOM     22  C   UNL     1      -2.676   4.129   4.970  1.00  0.00     0.006 C 
BRANCH  15  23
ATOM     23  C   UNL     1      -1.803  -0.563   2.374  1.00  0.00     0.341 C 
ATOM     24  O   UNL     1      -2.254  -1.434   3.110  1.00  0.00    -0.246 OA
BRANCH  23  25
ATOM     25  O   UNL     1      -2.157  -0.509   1.024  1.00  0.00    -0.462 OA
BRANCH  25  26
ATOM     26  C   UNL     1      -3.109  -1.438   0.375  1.00  0.00     0.233 C 
BRANCH  26  27
ATOM     27  C   UNL     1      -3.163  -1.425  -1.212  1.00  0.00     0.038 C 
ATOM     28  C   UNL     1      -2.278  -2.308  -2.128  1.00  0.00     0.007 C 
ENDBRANCH  26  27
ENDBRANCH  25  26
ENDBRANCH  23  25
ENDBRANCH  15  23
ENDBRANCH  11  14
ENDBRANCH   5  10
ENDBRANCH   2   4
ENDBRANCH   1   2
BRANCH   1  29
ATOM     29  C   UNL     1      -1.417   1.925  -0.079  1.00  0.00     0.274 C 
BRANCH  29  30
ATOM     30  C   UNL     1      -1.056   3.386   0.203  1.00  0.00     0.275 C 
BRANCH  30  31
ATOM     31  O   UNL     1      -0.166   3.853  -0.803  1.00  0.00    -0.458 OA
BRANCH  31  32
ATOM     32  C   UNL     1       1.118   3.492  -0.593  1.00  0.00     0.338 C 
ATOM     33  O   UNL     1       1.650   3.187   0.465  1.00  0.00    -0.246 OA
BRANCH  32  34
ATOM     34  C   UNL     1       1.652   3.248  -1.927  1.00  0.00     0.060 A 
ATOM     35  C   UNL     1       1.880   1.923  -2.306  1.00  0.00     0.016 A 
ATOM     36  C   UNL     1       1.794   4.302  -2.826  1.00  0.00     0.016 A 
ATOM     37  C   UNL     1       2.205   1.625  -3.616  1.00  0.00     0.010 A 
ATOM     38  C   UNL     1       2.188   4.014  -4.123  1.00  0.00     0.010 A 
ATOM     39  C   UNL     1       2.393   2.677  -4.511  1.00  0.00    -0.014 A 
BRANCH  39  40
ATOM     40  C   UNL     1       3.010   2.415  -5.814  1.00  0.00     0.031 A 
ATOM     41  C   UNL     1       4.490   2.595  -5.904  1.00  0.00     0.074 A 
ATOM     42  C   UNL     1       2.243   2.093  -6.866  1.00  0.00     0.049 A 
ATOM     43  N   UNL     1       5.245   2.707  -6.958  1.00  0.00    -0.248 NA
ATOM     44  C   UNL     1       5.215   2.689  -4.622  1.00  0.00     0.031 C 
ATOM     45  C   UNL     1       0.805   1.826  -6.813  1.00  0.00     0.029 A 
ATOM     46  N   UNL     1       2.564   1.972  -8.188  1.00  0.00    -0.354 N 
ATOM     47  C   UNL     1       6.527   2.927  -6.471  1.00  0.00     0.074 A 
ATOM     48  C   UNL     1       6.451   2.932  -5.028  1.00  0.00     0.031 C 
ATOM     49  C   UNL     1       0.358   1.612  -8.062  1.00  0.00     0.029 A 
ATOM     50  C   UNL     1       1.468   1.783  -8.994  1.00  0.00     0.049 A 
ATOM     51  H   UNL     1       3.487   2.015  -8.529  1.00  0.00     0.167 HD
ATOM     52  C   UNL     1       7.657   3.124  -7.184  1.00  0.00     0.037 A 
ATOM     53  C   UNL     1       1.383   1.808 -10.337  1.00  0.00     0.037 A 
ATOM     54  C   UNL     1       7.672   3.115  -8.622  1.00  0.00     0.049 A 
ATOM     55  C   UNL     1       2.647   2.073 -11.113  1.00  0.00     0.074 A 
ATOM     56  C   UNL     1       8.737   3.309  -9.479  1.00  0.00     0.029 A 
ATOM     57  N   UNL     1       6.549   2.895  -9.413  1.00  0.00    -0.354 N 
ATOM     58  N   UNL     1       3.856   2.318 -10.659  1.00  0.00    -0.248 NA
ATOM     59  C   UNL     1       2.540   2.075 -12.575  1.00  0.00     0.031 C 
ATOM     60  C   UNL     1       8.250   3.242 -10.789  1.00  0.00     0.029 A 
ATOM     61  C   UNL     1       6.891   2.957 -10.750  1.00  0.00     0.049 A 
ATOM     62  H   UNL     1       5.643   2.720  -9.070  1.00  0.00     0.167 HD
ATOM     63  C   UNL     1       4.661   2.481 -11.778  1.00  0.00     0.074 A 
ATOM     64  C   UNL     1       3.799   2.297 -12.932  1.00  0.00     0.031 C 
ATOM     65  C   UNL     1       5.988   2.756 -11.857  1.00  0.00     0.037 A 
BRANCH  52  66
ATOM     66  C   UNL     1       8.918   3.414  -6.421  1.00  0.00     0.058 A 
ATOM     67  C   UNL     1       9.562   2.434  -5.647  1.00  0.00     0.135 A 
ATOM     68  C   UNL     1       9.480   4.700  -6.444  1.00  0.00     0.135 A 
ATOM     69  F   UNL     1       9.050   1.196  -5.562  1.00  0.00    -0.206 F 
ATOM     70  C   UNL     1      10.703   2.725  -4.905  1.00  0.00     0.059 A 
ATOM     71  C   UNL     1      10.637   5.007  -5.731  1.00  0.00     0.059 A 
ATOM     72  F   UNL     1       8.898   5.681  -7.152  1.00  0.00    -0.206 F 
ATOM     73  C   UNL     1      11.233   4.016  -4.953  1.00  0.00     0.060 A 
BRANCH  73  74
ATOM     74  S   UNL     1      12.718   4.378  -3.993  1.00  0.00     0.124 S 
ATOM     75  O   UNL     1      12.187   4.415  -2.634  1.00  0.00    -0.237 OA
ATOM     76  O   UNL     1      13.578   3.240  -4.305  1.00  0.00    -0.237 OA
ATOM     77  O   UNL     1      13.164   5.661  -4.526  1.00  0.00    -0.744 OA
ENDBRANCH  73  74
ENDBRANCH  52  66
BRANCH  53  78
ATOM     78  C   UNL     1       0.072   1.608 -11.007  1.00  0.00     0.058 A 
ATOM     79  C   UNL     1      -0.195   0.441 -11.737  1.00  0.00     0.135 A 
ATOM     80  C   UNL     1      -0.958   2.558 -10.901  1.00  0.00     0.135 A 
ATOM     81  F   UNL     1       0.756  -0.495 -11.873  1.00  0.00    -0.206 F 
ATOM     82  C   UNL     1      -1.428   0.224 -12.344  1.00  0.00     0.059 A 
ATOM     83  C   UNL     1      -2.208   2.354 -11.479  1.00  0.00     0.059 A 
ATOM     84  F   UNL     1      -0.762   3.688 -10.203  1.00  0.00    -0.206 F 
ATOM     85  C   UNL     1      -2.432   1.185 -12.205  1.00  0.00     0.060 A 
BRANCH  85  86
ATOM     86  S   UNL     1      -4.046   0.866 -12.950  1.00  0.00     0.124 S 
ATOM     87  O   UNL     1      -3.759   1.050 -14.367  1.00  0.00    -0.237 OA
ATOM     88  O   UNL     1      -4.315  -0.504 -12.525  1.00  0.00    -0.237 OA
ATOM     89  O   UNL     1      -4.903   1.881 -12.342  1.00  0.00    -0.744 OA
ENDBRANCH  85  86
ENDBRANCH  53  78
BRANCH  65  90
ATOM     90  C   UNL     1       6.581   2.831 -13.233  1.00  0.00     0.058 A 
ATOM     91  C   UNL     1       6.365   3.937 -14.068  1.00  0.00     0.135 A 
ATOM     92  C   UNL     1       7.427   1.808 -13.690  1.00  0.00     0.135 A 
ATOM     93  F   UNL     1       5.559   4.935 -13.674  1.00  0.00    -0.206 F 
ATOM     94  C   UNL     1       6.955   4.017 -15.323  1.00  0.00     0.059 A 
ATOM     95  C   UNL     1       8.048   1.881 -14.930  1.00  0.00     0.059 A 
ATOM     96  F   UNL     1       7.671   0.736 -12.919  1.00  0.00    -0.206 F 
ATOM     97  C   UNL     1       7.797   2.985 -15.744  1.00  0.00     0.060 A 
BRANCH  97  98
ATOM     98  S   UNL     1       8.588   3.119 -17.360  1.00  0.00     0.124 S 
ATOM     99  O   UNL     1       7.475   2.821 -18.255  1.00  0.00    -0.237 OA
ATOM    100  O   UNL     1       9.055   4.502 -17.365  1.00  0.00    -0.237 OA
ATOM    101  O   UNL     1       9.640   2.109 -17.307  1.00  0.00    -0.744 OA
ENDBRANCH  97  98
ENDBRANCH  65  90
ENDBRANCH  39  40
ENDBRANCH  32  34
ENDBRANCH  31  32
ENDBRANCH  30  31
ENDBRANCH  29  30
ENDBRANCH   1  29
TORSDOF 20
