REMARK SMILES Cc1ccc(NC(=O)c2csc(Br)c2)c(C(=O)OCCOC(=O)c2ccc(-c3c4nc(c(-c5c(F)cc(S(=O)(=O)[O-])cc5F)c5ccc([nH]5)c(-c5c(F)cc(S(=O)(=O)[O-])cc5F)c5nc(c(-c6c(F)cc(S(=O)(=O)[O-])cc6F)c6ccc3[nH]6)C=C5)C=C4)cc2)c1
REMARK SMILES IDX 20 1 19 2 18 3 16 4 17 5 15 6 1 7 2 8 3 9 90 10 4 11 5 12
REMARK SMILES IDX 6 13 7 14 8 16 9 17 10 18 14 19 11 20 12 21 13 22 21 23
REMARK SMILES IDX 22 24 23 25 24 26 25 27 89 28 26 29 88 30 27 31 28 32 29 33
REMARK SMILES IDX 82 34 30 35 87 36 81 37 83 38 31 39 86 40 80 41 79 42 32 44
REMARK SMILES IDX 66 45 45 46 65 47 46 48 49 49 64 50 84 51 47 52 48 53 63 55
REMARK SMILES IDX 85 56 50 57 33 58 34 59 43 60 35 61 36 62 42 63 44 64 37 65
REMARK SMILES IDX 38 66 39 67 40 68 41 69 67 70 68 71 77 72 69 73 70 74 76 75
REMARK SMILES IDX 78 76 71 77 72 78 73 79 74 80 75 81 51 82 52 83 61 84 53 85
REMARK SMILES IDX 54 86 60 87 62 88 55 89 56 90 57 91 58 92 59 93
REMARK H PARENT 6 15 83 43 49 54
REMARK Flexibility Score: inf
ROOT
ATOM      1  C   UNL     1      -1.836   4.992  -2.650  1.00  0.00     0.275 C 
ENDROOT
BRANCH   1   2
ATOM      2  C   UNL     1      -0.828   4.223  -1.766  1.00  0.00     0.275 C 
BRANCH   2   3
ATOM      3  O   UNL     1      -0.843   2.775  -1.933  1.00  0.00    -0.458 OA
BRANCH   3   4
ATOM      4  C   UNL     1      -0.536   2.096  -0.790  1.00  0.00     0.340 C 
ATOM      5  O   UNL     1      -0.282   2.643   0.276  1.00  0.00    -0.246 OA
BRANCH   4   6
ATOM      6  C   UNL     1      -0.080   0.697  -0.956  1.00  0.00     0.083 A 
ATOM      7  C   UNL     1       3.484  -0.480  -0.222  1.00  0.00     0.044 C 
ATOM      8  C   UNL     1       2.041  -0.500  -0.611  1.00  0.00    -0.050 A 
ATOM      9  C   UNL     1       1.361  -1.696  -0.756  1.00  0.00     0.005 A 
ATOM     10  C   UNL     1       1.330   0.680  -0.789  1.00  0.00     0.021 A 
ATOM     11  C   UNL     1      -0.019  -1.695  -0.967  1.00  0.00     0.027 A 
ATOM     12  C   UNL     1      -0.797  -0.527  -0.933  1.00  0.00     0.056 A 
BRANCH  12  13
ATOM     13  N   UNL     1      -2.212  -0.656  -0.830  1.00  0.00    -0.321 N 
ATOM     14  C   UNL     1      -3.045  -1.714  -0.438  1.00  0.00     0.256 C 
ATOM     15  H   UNL     1      -2.702   0.160  -1.082  1.00  0.00     0.170 HD
ATOM     16  O   UNL     1      -4.253  -1.589  -0.413  1.00  0.00    -0.269 OA
BRANCH  14  17
ATOM     17  C   UNL     1      -2.545  -3.037  -0.073  1.00  0.00     0.052 A 
ATOM     18  C   UNL     1      -2.979  -4.152  -0.778  1.00  0.00     0.080 A 
ATOM     19  C   UNL     1      -1.741  -3.426   1.050  1.00  0.00     0.041 A 
ATOM     20  S   UNL     1      -2.286  -5.603  -0.208  1.00  0.00    -0.136 S 
ATOM     21  C   UNL     1      -1.495  -4.778   1.042  1.00  0.00     0.071 A 
ATOM     22  Br  UNL     1      -0.389  -5.646   2.278  1.00  0.00    -0.039 Br
ENDBRANCH  14  17
ENDBRANCH  12  13
ENDBRANCH   4   6
ENDBRANCH   3   4
ENDBRANCH   2   3
ENDBRANCH   1   2
BRANCH   1  23
ATOM     23  O   UNL     1      -3.245   4.844  -2.381  1.00  0.00    -0.458 OA
BRANCH  23  24
ATOM     24  C   UNL     1      -3.624   3.631  -1.906  1.00  0.00     0.338 C 
ATOM     25  O   UNL     1      -3.628   2.616  -2.589  1.00  0.00    -0.246 OA
BRANCH  24  26
ATOM     26  C   UNL     1      -3.612   3.718  -0.422  1.00  0.00     0.060 A 
ATOM     27  C   UNL     1      -3.336   2.553   0.300  1.00  0.00     0.016 A 
ATOM     28  C   UNL     1      -3.513   4.964   0.196  1.00  0.00     0.016 A 
ATOM     29  C   UNL     1      -2.854   2.596   1.594  1.00  0.00     0.010 A 
ATOM     30  C   UNL     1      -2.954   5.029   1.448  1.00  0.00     0.010 A 
ATOM     31  C   UNL     1      -2.632   3.845   2.138  1.00  0.00    -0.014 A 
BRANCH  31  32
ATOM     32  C   UNL     1      -2.326   4.034   3.535  1.00  0.00     0.031 A 
ATOM     33  C   UNL     1      -0.961   3.936   4.074  1.00  0.00     0.074 A 
ATOM     34  C   UNL     1      -3.421   4.470   4.188  1.00  0.00     0.049 A 
ATOM     35  N   UNL     1      -0.679   4.129   5.311  1.00  0.00    -0.248 NA
ATOM     36  C   UNL     1       0.219   3.567   3.298  1.00  0.00     0.031 C 
ATOM     37  C   UNL     1      -3.570   5.188   5.433  1.00  0.00     0.029 A 
ATOM     38  N   UNL     1      -4.729   4.155   3.827  1.00  0.00    -0.354 N 
ATOM     39  C   UNL     1       0.694   4.213   5.439  1.00  0.00     0.074 A 
ATOM     40  C   UNL     1       1.208   3.744   4.183  1.00  0.00     0.031 C 
ATOM     41  C   UNL     1      -4.838   5.030   5.863  1.00  0.00     0.029 A 
ATOM     42  C   UNL     1      -5.479   4.052   4.985  1.00  0.00     0.049 A 
ATOM     43  H   UNL     1      -5.062   4.028   2.909  1.00  0.00     0.167 HD
ATOM     44  C   UNL     1       1.178   4.815   6.562  1.00  0.00     0.037 A 
ATOM     45  C   UNL     1      -5.852   2.791   5.370  1.00  0.00     0.037 A 
ATOM     46  C   UNL     1       0.085   4.926   7.528  1.00  0.00     0.049 A 
ATOM     47  C   UNL     1      -5.138   2.411   6.645  1.00  0.00     0.074 A 
ATOM     48  C   UNL     1      -0.812   5.946   7.795  1.00  0.00     0.029 A 
ATOM     49  N   UNL     1      -0.470   3.756   8.040  1.00  0.00    -0.354 N 
ATOM     50  N   UNL     1      -3.896   2.712   6.933  1.00  0.00    -0.248 NA
ATOM     51  C   UNL     1      -5.871   1.855   7.777  1.00  0.00     0.031 C 
ATOM     52  C   UNL     1      -1.981   5.346   8.343  1.00  0.00     0.029 A 
ATOM     53  C   UNL     1      -1.780   3.975   8.425  1.00  0.00     0.049 A 
ATOM     54  H   UNL     1       0.002   2.896   8.117  1.00  0.00     0.167 HD
ATOM     55  C   UNL     1      -3.697   2.515   8.279  1.00  0.00     0.074 A 
ATOM     56  C   UNL     1      -4.953   1.950   8.751  1.00  0.00     0.031 C 
ATOM     57  C   UNL     1      -2.581   2.895   8.976  1.00  0.00     0.037 A 
BRANCH  44  58
ATOM     58  C   UNL     1       2.505   5.543   6.713  1.00  0.00     0.058 A 
ATOM     59  C   UNL     1       2.699   6.404   7.821  1.00  0.00     0.135 A 
ATOM     60  C   UNL     1       3.562   5.562   5.778  1.00  0.00     0.135 A 
ATOM     61  F   UNL     1       1.800   6.476   8.814  1.00  0.00    -0.206 F 
ATOM     62  C   UNL     1       3.803   7.251   7.956  1.00  0.00     0.059 A 
ATOM     63  C   UNL     1       4.683   6.396   5.897  1.00  0.00     0.059 A 
ATOM     64  F   UNL     1       3.567   4.786   4.691  1.00  0.00    -0.206 F 
ATOM     65  C   UNL     1       4.786   7.255   6.980  1.00  0.00     0.060 A 
BRANCH  65  66
ATOM     66  S   UNL     1       6.184   8.379   7.149  1.00  0.00     0.124 S 
ATOM     67  O   UNL     1       5.542   9.684   7.023  1.00  0.00    -0.237 OA
ATOM     68  O   UNL     1       6.691   8.046   8.476  1.00  0.00    -0.237 OA
ATOM     69  O   UNL     1       7.059   8.008   6.040  1.00  0.00    -0.744 OA
ENDBRANCH  65  66
ENDBRANCH  44  58
BRANCH  45  70
ATOM     70  C   UNL     1      -6.249   1.910   4.215  1.00  0.00     0.058 A 
ATOM     71  C   UNL     1      -7.375   2.330   3.476  1.00  0.00     0.135 A 
ATOM     72  C   UNL     1      -5.393   0.995   3.575  1.00  0.00     0.135 A 
ATOM     73  F   UNL     1      -8.255   3.183   4.026  1.00  0.00    -0.206 F 
ATOM     74  C   UNL     1      -7.547   2.017   2.131  1.00  0.00     0.059 A 
ATOM     75  C   UNL     1      -5.561   0.647   2.216  1.00  0.00     0.059 A 
ATOM     76  F   UNL     1      -4.314   0.521   4.216  1.00  0.00    -0.206 F 
ATOM     77  C   UNL     1      -6.602   1.228   1.485  1.00  0.00     0.060 A 
BRANCH  77  78
ATOM     78  S   UNL     1      -6.685   1.219  -0.335  1.00  0.00     0.124 S 
ATOM     79  O   UNL     1      -7.826   0.347  -0.585  1.00  0.00    -0.237 OA
ATOM     80  O   UNL     1      -6.895   2.637  -0.627  1.00  0.00    -0.237 OA
ATOM     81  O   UNL     1      -5.389   0.717  -0.756  1.00  0.00    -0.744 OA
ENDBRANCH  77  78
ENDBRANCH  45  70
BRANCH  57  82
ATOM     82  C   UNL     1      -2.212   2.366  10.344  1.00  0.00     0.058 A 
ATOM     83  C   UNL     1      -2.644   1.120  10.828  1.00  0.00     0.135 A 
ATOM     84  C   UNL     1      -1.264   3.038  11.156  1.00  0.00     0.135 A 
ATOM     85  F   UNL     1      -3.420   0.311  10.092  1.00  0.00    -0.206 F 
ATOM     86  C   UNL     1      -2.261   0.629  12.072  1.00  0.00     0.059 A 
ATOM     87  C   UNL     1      -0.808   2.528  12.366  1.00  0.00     0.059 A 
ATOM     88  F   UNL     1      -0.722   4.210  10.794  1.00  0.00    -0.206 F 
ATOM     89  C   UNL     1      -1.347   1.342  12.836  1.00  0.00     0.060 A 
BRANCH  89  90
ATOM     90  S   UNL     1      -0.833   0.690  14.430  1.00  0.00     0.124 S 
ATOM     91  O   UNL     1      -1.894   1.188  15.298  1.00  0.00    -0.237 OA
ATOM     92  O   UNL     1      -0.831  -0.752  14.199  1.00  0.00    -0.237 OA
ATOM     93  O   UNL     1       0.483   1.287  14.630  1.00  0.00    -0.744 OA
ENDBRANCH  89  90
ENDBRANCH  57  82
ENDBRANCH  31  32
ENDBRANCH  24  26
ENDBRANCH  23  24
ENDBRANCH   1  23
TORSDOF 16
