REMARK SMILES Cn1cc(C(=O)OCCOC(=O)c2ccc(-c3c4nc(c(-c5c(F)cc(S(=O)(=O)[O-])cc5F)c5ccc([nH]5)c(-c5c(F)cc(S(=O)(=O)[O-])cc5F)c5nc(c(-c6c(F)cc(S(=O)(=O)[O-])cc6F)c6ccc3[nH]6)C=C5)C=C4)cc2)c(C(=O)Nc2ccc(-c3nc4cc(Cl)ccc4o3)cc2)n1
REMARK SMILES IDX 8 1 7 2 5 3 6 4 4 5 1 6 2 7 3 8 99 9 79 10 80 11 81 12 82 13
REMARK SMILES IDX 83 15 84 16 98 17 85 18 97 19 86 20 87 21 88 22 96 23 89 24
REMARK SMILES IDX 95 25 90 26 94 27 91 28 93 29 92 30 9 31 10 32 11 33 12 34
REMARK SMILES IDX 13 35 14 36 78 37 15 38 77 39 16 40 17 41 18 42 71 43 19 44
REMARK SMILES IDX 76 45 70 46 72 47 20 48 75 49 69 50 68 51 21 53 55 54 34 55
REMARK SMILES IDX 54 56 35 57 38 58 53 59 73 60 36 61 37 62 52 64 74 65 39 66
REMARK SMILES IDX 22 67 23 68 32 69 24 70 25 71 31 72 33 73 26 74 27 75 28 76
REMARK SMILES IDX 29 77 30 78 56 79 57 80 66 81 58 82 59 83 65 84 67 85 60 86
REMARK SMILES IDX 61 87 62 88 63 89 64 90 40 91 41 92 50 93 42 94 43 95 49 96
REMARK SMILES IDX 51 97 44 98 45 99 46 100 47 101 48 102
REMARK H PARENT 82 14 72 52 38 63
REMARK Flexibility Score: inf
ROOT
ATOM      1  C   UNL     1       2.524  -3.486  -1.868  1.00  0.00     0.275 C 
ENDROOT
BRANCH   1   2
ATOM      2  O   UNL     1       1.700  -2.494  -1.245  1.00  0.00    -0.458 OA
BRANCH   2   3
ATOM      3  C   UNL     1       1.820  -2.273   0.095  1.00  0.00     0.342 C 
ATOM      4  O   UNL     1       2.397  -3.004   0.886  1.00  0.00    -0.246 OA
BRANCH   3   5
ATOM      5  C   UNL     1       1.067  -1.095   0.445  1.00  0.00     0.111 A 
ATOM      6  C   UNL     1      -1.996   0.783   0.227  1.00  0.00     0.173 C 
ATOM      7  N   UNL     1      -0.686   0.220   0.447  1.00  0.00    -0.274 N 
ATOM      8  C   UNL     1      -0.280  -1.022   0.117  1.00  0.00     0.125 A 
ATOM      9  N   UNL     1       0.276   0.958   0.991  1.00  0.00    -0.167 NA
ATOM     10  C   UNL     1       1.390   0.180   1.028  1.00  0.00     0.165 A 
BRANCH  10  11
ATOM     11  C   UNL     1       2.592   0.826   1.648  1.00  0.00     0.277 C 
ATOM     12  O   UNL     1       2.577   2.026   1.948  1.00  0.00    -0.267 OA
ATOM     13  N   UNL     1       3.673   0.130   2.139  1.00  0.00    -0.321 N 
ATOM     14  H   UNL     1       3.925   0.385   3.056  1.00  0.00     0.170 HD
BRANCH  13  15
ATOM     15  C   UNL     1       4.478  -0.863   1.591  1.00  0.00     0.041 A 
ATOM     16  C   UNL     1       5.197  -1.685   2.460  1.00  0.00     0.027 A 
ATOM     17  C   UNL     1       4.628  -1.025   0.223  1.00  0.00     0.027 A 
ATOM     18  C   UNL     1       5.834  -2.827   1.968  1.00  0.00     0.016 A 
ATOM     19  C   UNL     1       5.326  -2.126  -0.274  1.00  0.00     0.016 A 
ATOM     20  C   UNL     1       5.808  -3.109   0.598  1.00  0.00     0.037 A 
BRANCH  20  21
ATOM     21  C   UNL     1       5.989  -4.466   0.082  1.00  0.00     0.227 A 
ATOM     22  N   UNL     1       5.928  -4.875  -1.178  1.00  0.00    -0.209 NA
ATOM     23  O   UNL     1       5.806  -5.469   1.007  1.00  0.00    -0.436 OA
ATOM     24  C   UNL     1       5.542  -6.187  -1.077  1.00  0.00     0.111 A 
ATOM     25  C   UNL     1       5.461  -6.551   0.257  1.00  0.00     0.155 A 
ATOM     26  C   UNL     1       5.173  -7.113  -2.060  1.00  0.00     0.053 A 
ATOM     27  C   UNL     1       5.029  -7.787   0.719  1.00  0.00     0.051 A 
ATOM     28  C   UNL     1       4.701  -8.360  -1.631  1.00  0.00     0.043 A 
ATOM     29  C   UNL     1       4.629  -8.694  -0.271  1.00  0.00     0.024 A 
ATOM     30  Cl  UNL     1       4.162  -9.502  -2.804  1.00  0.00    -0.084 Cl
ENDBRANCH  20  21
ENDBRANCH  13  15
ENDBRANCH  10  11
ENDBRANCH   3   5
ENDBRANCH   2   3
ENDBRANCH   1   2
BRANCH   1  31
ATOM     31  C   UNL     1       3.008  -2.939  -3.218  1.00  0.00     0.275 C 
BRANCH  31  32
ATOM     32  O   UNL     1       3.638  -1.646  -3.064  1.00  0.00    -0.458 OA
BRANCH  32  33
ATOM     33  C   UNL     1       2.822  -0.573  -3.248  1.00  0.00     0.338 C 
ATOM     34  O   UNL     1       1.661  -0.611  -3.624  1.00  0.00    -0.246 OA
BRANCH  33  35
ATOM     35  C   UNL     1       3.485   0.678  -2.794  1.00  0.00     0.060 A 
ATOM     36  C   UNL     1       2.676   1.666  -2.216  1.00  0.00     0.016 A 
ATOM     37  C   UNL     1       4.865   0.895  -2.903  1.00  0.00     0.016 A 
ATOM     38  C   UNL     1       3.231   2.877  -1.791  1.00  0.00     0.010 A 
ATOM     39  C   UNL     1       5.421   2.114  -2.480  1.00  0.00     0.010 A 
ATOM     40  C   UNL     1       4.600   3.128  -1.957  1.00  0.00    -0.014 A 
BRANCH  40  41
ATOM     41  C   UNL     1       5.097   4.521  -1.792  1.00  0.00     0.031 A 
ATOM     42  C   UNL     1       5.037   5.441  -2.985  1.00  0.00     0.074 A 
ATOM     43  C   UNL     1       5.525   5.005  -0.611  1.00  0.00     0.049 A 
ATOM     44  N   UNL     1       5.257   6.729  -3.054  1.00  0.00    -0.248 NA
ATOM     45  C   UNL     1       4.663   4.824  -4.268  1.00  0.00     0.031 C 
ATOM     46  C   UNL     1       5.620   4.251   0.636  1.00  0.00     0.029 A 
ATOM     47  N   UNL     1       5.952   6.269  -0.274  1.00  0.00    -0.354 N 
ATOM     48  C   UNL     1       5.001   7.084  -4.372  1.00  0.00     0.074 A 
ATOM     49  C   UNL     1       4.666   5.868  -5.083  1.00  0.00     0.031 C 
ATOM     50  C   UNL     1       6.081   5.067   1.604  1.00  0.00     0.029 A 
ATOM     51  C   UNL     1       6.305   6.402   1.048  1.00  0.00     0.049 A 
ATOM     52  H   UNL     1       5.999   7.010  -0.920  1.00  0.00     0.167 HD
ATOM     53  C   UNL     1       5.016   8.312  -4.943  1.00  0.00     0.037 A 
ATOM     54  C   UNL     1       6.747   7.479   1.732  1.00  0.00     0.037 A 
ATOM     55  C   UNL     1       5.384   9.525  -4.269  1.00  0.00     0.049 A 
ATOM     56  C   UNL     1       6.865   8.818   1.045  1.00  0.00     0.074 A 
ATOM     57  C   UNL     1       5.420  10.813  -4.775  1.00  0.00     0.029 A 
ATOM     58  N   UNL     1       5.803   9.600  -2.951  1.00  0.00    -0.354 N 
ATOM     59  N   UNL     1       6.542   9.153  -0.181  1.00  0.00    -0.248 NA
ATOM     60  C   UNL     1       7.404   9.932   1.845  1.00  0.00     0.031 C 
ATOM     61  C   UNL     1       5.903  11.663  -3.773  1.00  0.00     0.029 A 
ATOM     62  C   UNL     1       6.136  10.907  -2.636  1.00  0.00     0.049 A 
ATOM     63  H   UNL     1       5.857   8.837  -2.331  1.00  0.00     0.167 HD
ATOM     64  C   UNL     1       6.808  10.516  -0.288  1.00  0.00     0.074 A 
ATOM     65  C   UNL     1       7.319  10.947   0.995  1.00  0.00     0.031 C 
ATOM     66  C   UNL     1       6.638  11.335  -1.355  1.00  0.00     0.037 A 
BRANCH  53  67
ATOM     67  C   UNL     1       4.619   8.389  -6.386  1.00  0.00     0.058 A 
ATOM     68  C   UNL     1       3.270   8.319  -6.769  1.00  0.00     0.135 A 
ATOM     69  C   UNL     1       5.587   8.533  -7.390  1.00  0.00     0.135 A 
ATOM     70  F   UNL     1       2.311   8.163  -5.843  1.00  0.00    -0.206 F 
ATOM     71  C   UNL     1       2.896   8.364  -8.107  1.00  0.00     0.059 A 
ATOM     72  C   UNL     1       5.233   8.595  -8.734  1.00  0.00     0.059 A 
ATOM     73  F   UNL     1       6.889   8.595  -7.070  1.00  0.00    -0.206 F 
ATOM     74  C   UNL     1       3.886   8.493  -9.082  1.00  0.00     0.060 A 
BRANCH  74  75
ATOM     75  S   UNL     1       3.390   8.527 -10.817  1.00  0.00     0.124 S 
ATOM     76  O   UNL     1       3.120   7.115 -11.069  1.00  0.00    -0.237 OA
ATOM     77  O   UNL     1       2.222   9.402 -10.796  1.00  0.00    -0.237 OA
ATOM     78  O   UNL     1       4.564   9.072 -11.493  1.00  0.00    -0.744 OA
ENDBRANCH  74  75
ENDBRANCH  53  67
BRANCH  54  79
ATOM     79  C   UNL     1       7.117   7.354   3.166  1.00  0.00     0.058 A 
ATOM     80  C   UNL     1       6.324   7.923   4.174  1.00  0.00     0.135 A 
ATOM     81  C   UNL     1       8.306   6.716   3.550  1.00  0.00     0.135 A 
ATOM     82  F   UNL     1       5.189   8.562   3.853  1.00  0.00    -0.206 F 
ATOM     83  C   UNL     1       6.706   7.882   5.511  1.00  0.00     0.059 A 
ATOM     84  C   UNL     1       8.701   6.648   4.882  1.00  0.00     0.059 A 
ATOM     85  F   UNL     1       9.100   6.158   2.622  1.00  0.00    -0.206 F 
ATOM     86  C   UNL     1       7.902   7.247   5.855  1.00  0.00     0.060 A 
BRANCH  86  87
ATOM     87  S   UNL     1       8.392   7.185   7.592  1.00  0.00     0.124 S 
ATOM     88  O   UNL     1       8.935   8.524   7.792  1.00  0.00    -0.237 OA
ATOM     89  O   UNL     1       7.128   6.902   8.265  1.00  0.00    -0.237 OA
ATOM     90  O   UNL     1       9.366   6.097   7.624  1.00  0.00    -0.744 OA
ENDBRANCH  86  87
ENDBRANCH  54  79
BRANCH  66  91
ATOM     91  C   UNL     1       6.987  12.789  -1.192  1.00  0.00     0.058 A 
ATOM     92  C   UNL     1       8.320  13.226  -1.187  1.00  0.00     0.135 A 
ATOM     93  C   UNL     1       5.978  13.762  -1.117  1.00  0.00     0.135 A 
ATOM     94  F   UNL     1       9.323  12.336  -1.252  1.00  0.00    -0.206 F 
ATOM     95  C   UNL     1       8.642  14.578  -1.106  1.00  0.00     0.059 A 
ATOM     96  C   UNL     1       6.276  15.121  -1.055  1.00  0.00     0.059 A 
ATOM     97  F   UNL     1       4.685  13.399  -1.129  1.00  0.00    -0.206 F 
ATOM     98  C   UNL     1       7.612  15.519  -1.043  1.00  0.00     0.060 A 
BRANCH  98  99
ATOM     99  S   UNL     1       8.037  17.275  -0.999  1.00  0.00     0.124 S 
ATOM    100  O   UNL     1       8.405  17.453   0.402  1.00  0.00    -0.237 OA
ATOM    101  O   UNL     1       9.133  17.361  -1.958  1.00  0.00    -0.237 OA
ATOM    102  O   UNL     1       6.800  17.932  -1.412  1.00  0.00    -0.744 OA
ENDBRANCH  98  99
ENDBRANCH  66  91
ENDBRANCH  40  41
ENDBRANCH  33  35
ENDBRANCH  32  33
ENDBRANCH  31  32
ENDBRANCH   1  31
TORSDOF 17
