REMARK SMILES Cc1c(N[C@@H]2CC[C@@H]([NH3+])C2)cccc1C(=O)OCCOC(=O)c1ccc(-c2c3nc(c(-c4c(F)cc(S(=O)(=O)[O-])cc4F)c4ccc([nH]4)c(-c4c(F)cc(S(=O)(=O)[O-])cc4F)c4nc(c(-c5c(F)cc(S(=O)(=O)[O-])cc5F)c5ccc2[nH]5)C=C4)C=C3)cc1
REMARK SMILES IDX 18 1 17 2 15 3 16 4 14 5 1 6 2 7 3 8 11 9 13 10 12 11 4 12
REMARK SMILES IDX 5 14 6 15 10 16 7 17 8 18 9 19 19 23 20 24 21 25 22 26 23 27
REMARK SMILES IDX 24 28 88 29 25 30 87 31 26 32 27 33 28 34 81 35 29 36 86 37
REMARK SMILES IDX 80 38 82 39 30 40 85 41 79 42 78 43 31 45 65 46 44 47 64 48
REMARK SMILES IDX 45 49 48 50 63 51 83 52 46 53 47 54 62 56 84 57 49 58 32 59
REMARK SMILES IDX 33 60 42 61 34 62 35 63 41 64 43 65 36 66 37 67 38 68 39 69
REMARK SMILES IDX 40 70 66 71 67 72 76 73 68 74 69 75 75 76 77 77 70 78 71 79
REMARK SMILES IDX 72 80 73 81 74 82 50 83 51 84 60 85 52 86 53 87 59 88 61 89
REMARK SMILES IDX 54 90 55 91 56 92 57 93 58 94
REMARK H PARENT 4 13 9 20 9 21 9 22 82 44 48 55
REMARK Flexibility Score: inf
ROOT
ATOM      1  C   UNL     1       3.540   2.868  -2.200  1.00  0.00     0.275 C 
ENDROOT
BRANCH   1   2
ATOM      2  O   UNL     1       2.477   1.897  -2.192  1.00  0.00    -0.458 OA
BRANCH   2   3
ATOM      3  C   UNL     1       2.361   1.261  -0.996  1.00  0.00     0.338 C 
ATOM      4  O   UNL     1       3.092   1.428  -0.045  1.00  0.00    -0.246 OA
BRANCH   3   5
ATOM      5  C   UNL     1       1.298   0.226  -0.976  1.00  0.00     0.065 A 
ATOM      6  C   UNL     1       3.071  -1.481  -0.350  1.00  0.00     0.047 C 
ATOM      7  C   UNL     1       1.627  -1.061  -0.502  1.00  0.00    -0.013 A 
ATOM      8  C   UNL     1       0.597  -1.990  -0.220  1.00  0.00     0.038 A 
ATOM      9  C   UNL     1      -0.732  -1.581  -0.395  1.00  0.00     0.026 A 
ATOM     10  C   UNL     1      -0.031   0.559  -1.246  1.00  0.00     0.016 A 
ATOM     11  C   UNL     1      -1.049  -0.327  -0.915  1.00  0.00     0.003 A 
BRANCH   8  12
ATOM     12  N   UNL     1       0.940  -3.281   0.133  1.00  0.00    -0.382 N 
ATOM     13  H   UNL     1       1.813  -3.379   0.577  1.00  0.00     0.160 HD
BRANCH  12  14
ATOM     14  C   UNL     1       0.199  -4.508  -0.059  1.00  0.00     0.085 C 
ATOM     15  C   UNL     1      -0.567  -4.635  -1.382  1.00  0.00     0.031 C 
ATOM     16  C   UNL     1      -0.795  -4.793   1.061  1.00  0.00     0.089 C 
ATOM     17  C   UNL     1      -1.964  -5.122  -0.991  1.00  0.00     0.067 C 
ATOM     18  C   UNL     1      -1.812  -5.728   0.406  1.00  0.00     0.182 C 
BRANCH  18  19
ATOM     19  N   UNL     1      -1.321  -7.107   0.329  1.00  0.00    -0.355 N 
ATOM     20  H   UNL     1      -0.440  -7.126  -0.184  1.00  0.00     0.344 HD
ATOM     21  H   UNL     1      -2.008  -7.686  -0.154  1.00  0.00     0.344 HD
ATOM     22  H   UNL     1      -1.173  -7.469   1.271  1.00  0.00     0.344 HD
ENDBRANCH  18  19
ENDBRANCH  12  14
ENDBRANCH   8  12
ENDBRANCH   3   5
ENDBRANCH   2   3
ENDBRANCH   1   2
BRANCH   1  23
ATOM     23  C   UNL     1       3.232   4.078  -3.099  1.00  0.00     0.275 C 
BRANCH  23  24
ATOM     24  O   UNL     1       2.133   4.940  -2.728  1.00  0.00    -0.458 OA
BRANCH  24  25
ATOM     25  C   UNL     1       1.005   4.334  -2.269  1.00  0.00     0.338 C 
ATOM     26  O   UNL     1       0.288   3.621  -2.956  1.00  0.00    -0.246 OA
BRANCH  25  27
ATOM     27  C   UNL     1       1.033   4.379  -0.778  1.00  0.00     0.060 A 
ATOM     28  C   UNL     1       0.146   3.592  -0.029  1.00  0.00     0.016 A 
ATOM     29  C   UNL     1       2.169   4.925  -0.174  1.00  0.00     0.016 A 
ATOM     30  C   UNL     1       0.458   3.235   1.280  1.00  0.00     0.010 A 
ATOM     31  C   UNL     1       2.558   4.455   1.050  1.00  0.00     0.010 A 
ATOM     32  C   UNL     1       1.686   3.645   1.791  1.00  0.00    -0.014 A 
BRANCH  32  33
ATOM     33  C   UNL     1       2.024   3.628   3.201  1.00  0.00     0.031 A 
ATOM     34  C   UNL     1       2.636   2.468   3.865  1.00  0.00     0.074 A 
ATOM     35  C   UNL     1       1.873   4.868   3.718  1.00  0.00     0.049 A 
ATOM     36  N   UNL     1       2.805   2.395   5.135  1.00  0.00    -0.248 NA
ATOM     37  C   UNL     1       3.096   1.264   3.182  1.00  0.00     0.031 C 
ATOM     38  C   UNL     1       2.338   5.479   4.945  1.00  0.00     0.029 A 
ATOM     39  N   UNL     1       1.035   5.846   3.158  1.00  0.00    -0.354 N 
ATOM     40  C   UNL     1       3.610   1.306   5.417  1.00  0.00     0.074 A 
ATOM     41  C   UNL     1       3.692   0.586   4.174  1.00  0.00     0.031 C 
ATOM     42  C   UNL     1       1.553   6.547   5.205  1.00  0.00     0.029 A 
ATOM     43  C   UNL     1       0.479   6.559   4.209  1.00  0.00     0.049 A 
ATOM     44  H   UNL     1       0.872   5.997   2.199  1.00  0.00     0.167 HD
ATOM     45  C   UNL     1       4.192   1.258   6.653  1.00  0.00     0.037 A 
ATOM     46  C   UNL     1      -0.847   6.334   4.454  1.00  0.00     0.037 A 
ATOM     47  C   UNL     1       3.605   2.319   7.475  1.00  0.00     0.049 A 
ATOM     48  C   UNL     1      -0.985   5.607   5.769  1.00  0.00     0.074 A 
ATOM     49  C   UNL     1       4.006   3.623   7.712  1.00  0.00     0.029 A 
ATOM     50  N   UNL     1       2.254   2.249   7.804  1.00  0.00    -0.354 N 
ATOM     51  N   UNL     1      -0.151   4.700   6.214  1.00  0.00    -0.248 NA
ATOM     52  C   UNL     1      -1.982   6.005   6.753  1.00  0.00     0.031 C 
ATOM     53  C   UNL     1       2.844   4.370   8.046  1.00  0.00     0.029 A 
ATOM     54  C   UNL     1       1.749   3.517   8.031  1.00  0.00     0.049 A 
ATOM     55  H   UNL     1       1.732   1.416   7.865  1.00  0.00     0.167 HD
ATOM     56  C   UNL     1      -0.416   4.474   7.541  1.00  0.00     0.074 A 
ATOM     57  C   UNL     1      -1.586   5.294   7.821  1.00  0.00     0.031 C 
ATOM     58  C   UNL     1       0.350   3.707   8.374  1.00  0.00     0.037 A 
BRANCH  45  59
ATOM     59  C   UNL     1       5.438   0.488   7.071  1.00  0.00     0.058 A 
ATOM     60  C   UNL     1       6.137   0.877   8.242  1.00  0.00     0.135 A 
ATOM     61  C   UNL     1       6.058  -0.558   6.356  1.00  0.00     0.135 A 
ATOM     62  F   UNL     1       5.657   1.823   9.062  1.00  0.00    -0.206 F 
ATOM     63  C   UNL     1       7.367   0.335   8.627  1.00  0.00     0.059 A 
ATOM     64  C   UNL     1       7.296  -1.114   6.719  1.00  0.00     0.059 A 
ATOM     65  F   UNL     1       5.494  -1.108   5.278  1.00  0.00    -0.206 F 
ATOM     66  C   UNL     1       7.954  -0.649   7.848  1.00  0.00     0.060 A 
BRANCH  66  67
ATOM     67  S   UNL     1       9.557  -1.309   8.344  1.00  0.00     0.124 S 
ATOM     68  O   UNL     1      10.419  -0.137   8.224  1.00  0.00    -0.237 OA
ATOM     69  O   UNL     1       9.296  -1.769   9.704  1.00  0.00    -0.237 OA
ATOM     70  O   UNL     1       9.809  -2.367   7.368  1.00  0.00    -0.744 OA
ENDBRANCH  66  67
ENDBRANCH  45  59
BRANCH  46  71
ATOM     71  C   UNL     1      -1.692   6.154   3.214  1.00  0.00     0.058 A 
ATOM     72  C   UNL     1      -1.613   7.148   2.207  1.00  0.00     0.135 A 
ATOM     73  C   UNL     1      -2.353   4.970   2.855  1.00  0.00     0.135 A 
ATOM     74  F   UNL     1      -1.014   8.322   2.471  1.00  0.00    -0.206 F 
ATOM     75  C   UNL     1      -2.050   6.941   0.898  1.00  0.00     0.059 A 
ATOM     76  C   UNL     1      -2.824   4.747   1.546  1.00  0.00     0.059 A 
ATOM     77  F   UNL     1      -2.492   3.975   3.743  1.00  0.00    -0.206 F 
ATOM     78  C   UNL     1      -2.634   5.725   0.566  1.00  0.00     0.060 A 
BRANCH  78  79
ATOM     79  S   UNL     1      -2.959   5.387  -1.189  1.00  0.00     0.124 S 
ATOM     80  O   UNL     1      -4.210   6.103  -1.409  1.00  0.00    -0.237 OA
ATOM     81  O   UNL     1      -1.780   5.964  -1.830  1.00  0.00    -0.237 OA
ATOM     82  O   UNL     1      -3.048   3.930  -1.235  1.00  0.00    -0.744 OA
ENDBRANCH  78  79
ENDBRANCH  46  71
BRANCH  58  83
ATOM     83  C   UNL     1      -0.143   3.163   9.690  1.00  0.00     0.058 A 
ATOM     84  C   UNL     1      -1.500   2.900   9.944  1.00  0.00     0.135 A 
ATOM     85  C   UNL     1       0.764   2.728  10.685  1.00  0.00     0.135 A 
ATOM     86  F   UNL     1      -2.445   3.128   9.020  1.00  0.00    -0.206 F 
ATOM     87  C   UNL     1      -1.938   2.356  11.145  1.00  0.00     0.059 A 
ATOM     88  C   UNL     1       0.353   2.110  11.858  1.00  0.00     0.059 A 
ATOM     89  F   UNL     1       2.091   2.872  10.547  1.00  0.00    -0.206 F 
ATOM     90  C   UNL     1      -1.005   1.970  12.099  1.00  0.00     0.060 A 
BRANCH  90  91
ATOM     91  S   UNL     1      -1.570   1.256  13.646  1.00  0.00     0.124 S 
ATOM     92  O   UNL     1      -1.770   2.454  14.456  1.00  0.00    -0.237 OA
ATOM     93  O   UNL     1      -2.786   0.551  13.251  1.00  0.00    -0.237 OA
ATOM     94  O   UNL     1      -0.459   0.398  14.045  1.00  0.00    -0.744 OA
ENDBRANCH  90  91
ENDBRANCH  58  83
ENDBRANCH  32  33
ENDBRANCH  25  27
ENDBRANCH  24  25
ENDBRANCH  23  24
ENDBRANCH   1  23
TORSDOF 17
