REMARK SMILES N#CCC(=O)N/N=C/c1ccc(OCc2ccc(C(=O)OCCOC(=O)c3ccc(-c4c5nc(c(-c6c(F)cc(S(=O)(=O)[O-])cc6F)c6ccc([nH]6)c(-c6c(F)cc(S(=O)(=O)[O-])cc6F)c6nc(c(-c7c(F)cc(S(=O)(=O)[O-])cc7F)c7ccc4[nH]7)C=C6)C=C5)cc3)cc2)c(Br)c1
REMARK SMILES IDX 19 1 20 2 18 3 15 4 16 5 94 6 17 7 93 8 14 9 13 10 12 11
REMARK SMILES IDX 9 12 10 13 97 14 11 15 95 16 96 17 8 18 7 19 6 20 4 21 5 22
REMARK SMILES IDX 3 24 2 25 1 26 21 27 22 28 23 29 24 30 25 31 26 32 27 33
REMARK SMILES IDX 28 34 92 35 29 36 91 37 30 38 31 39 32 40 85 41 33 42 90 43
REMARK SMILES IDX 84 44 86 45 34 46 89 47 83 48 82 49 35 51 69 52 48 53 68 54
REMARK SMILES IDX 49 55 52 56 67 57 87 58 50 59 51 60 66 62 88 63 53 64 36 65
REMARK SMILES IDX 37 66 46 67 38 68 39 69 45 70 47 71 40 72 41 73 42 74 43 75
REMARK SMILES IDX 44 76 70 77 71 78 80 79 72 80 73 81 79 82 81 83 74 84 75 85
REMARK SMILES IDX 76 86 77 87 78 88 54 89 55 90 64 91 56 92 57 93 63 94 65 95
REMARK SMILES IDX 58 96 59 97 60 98 61 99 62 100
REMARK H PARENT 6 23 86 50 52 61
REMARK Flexibility Score: inf
ROOT
ATOM      1  C   UNL     1      -0.962   6.492   3.692  1.00  0.00     0.338 C 
ATOM      2  O   UNL     1      -1.354   7.489   4.271  1.00  0.00    -0.246 OA
ENDROOT
BRANCH   1   3
ATOM      3  C   UNL     1      -1.136   5.140   4.262  1.00  0.00     0.060 A 
ATOM      4  C   UNL     1      -1.546   2.750   5.701  1.00  0.00    -0.011 A 
ATOM      5  C   UNL     1      -2.628   3.537   5.301  1.00  0.00     0.008 A 
ATOM      6  C   UNL     1      -0.249   3.189   5.377  1.00  0.00     0.008 A 
ATOM      7  C   UNL     1      -2.422   4.710   4.588  1.00  0.00     0.016 A 
ATOM      8  C   UNL     1      -0.042   4.367   4.641  1.00  0.00     0.016 A 
BRANCH   4   9
ATOM      9  C   UNL     1      -1.889   1.500   6.494  1.00  0.00     0.265 C 
BRANCH   9  10
ATOM     10  O   UNL     1      -0.918   0.473   6.679  1.00  0.00    -0.488 OA
BRANCH  10  11
ATOM     11  C   UNL     1      -0.135   0.058   5.647  1.00  0.00     0.134 A 
ATOM     12  C   UNL     1       1.880  -0.598   3.842  1.00  0.00    -0.004 A 
ATOM     13  C   UNL     1       2.181  -0.542   5.195  1.00  0.00     0.013 A 
ATOM     14  C   UNL     1       0.577  -0.394   3.385  1.00  0.00     0.029 A 
ATOM     15  C   UNL     1       1.166  -0.236   6.091  1.00  0.00     0.048 A 
ATOM     16  C   UNL     1      -0.443  -0.072   4.288  1.00  0.00     0.060 A 
ATOM     17  Br  UNL     1      -2.181   0.080   3.542  1.00  0.00    -0.047 Br
BRANCH  12  18
ATOM     18  C   UNL     1       2.973  -0.908   2.917  1.00  0.00     0.141 C 
ATOM     19  N   UNL     1       2.913  -1.952   2.159  1.00  0.00    -0.181 NA
BRANCH  19  20
ATOM     20  N   UNL     1       3.974  -2.186   1.343  1.00  0.00    -0.246 N 
ATOM     21  C   UNL     1       4.335  -1.457   0.237  1.00  0.00     0.254 C 
ATOM     22  O   UNL     1       5.214  -1.900  -0.509  1.00  0.00    -0.272 OA
ATOM     23  H   UNL     1       4.542  -2.958   1.569  1.00  0.00     0.193 HD
BRANCH  21  24
ATOM     24  C   UNL     1       3.747  -0.094  -0.004  1.00  0.00     0.221 C 
BRANCH  24  25
ATOM     25  C   UNL     1       2.227  -0.094  -0.004  1.00  0.00     0.072 C 
ATOM     26  N   UNL     1       0.966  -0.094  -0.004  1.00  0.00    -0.198 NA
ENDBRANCH  24  25
ENDBRANCH  21  24
ENDBRANCH  19  20
ENDBRANCH  12  18
ENDBRANCH  10  11
ENDBRANCH   9  10
ENDBRANCH   4   9
ENDBRANCH   1   3
BRANCH   1  27
ATOM     27  O   UNL     1      -0.363   6.449   2.476  1.00  0.00    -0.458 OA
BRANCH  27  28
ATOM     28  C   UNL     1      -0.224   7.729   1.823  1.00  0.00     0.275 C 
BRANCH  28  29
ATOM     29  C   UNL     1      -1.325   7.981   0.788  1.00  0.00     0.275 C 
BRANCH  29  30
ATOM     30  O   UNL     1      -2.603   8.195   1.415  1.00  0.00    -0.458 OA
BRANCH  30  31
ATOM     31  C   UNL     1      -3.405   7.110   1.431  1.00  0.00     0.338 C 
ATOM     32  O   UNL     1      -3.159   6.003   0.974  1.00  0.00    -0.246 OA
BRANCH  31  33
ATOM     33  C   UNL     1      -4.649   7.383   2.160  1.00  0.00     0.060 A 
ATOM     34  C   UNL     1      -4.641   7.228   3.540  1.00  0.00     0.016 A 
ATOM     35  C   UNL     1      -5.855   7.522   1.479  1.00  0.00     0.016 A 
ATOM     36  C   UNL     1      -5.831   6.999   4.218  1.00  0.00     0.010 A 
ATOM     37  C   UNL     1      -7.055   7.478   2.200  1.00  0.00     0.010 A 
ATOM     38  C   UNL     1      -7.062   7.157   3.570  1.00  0.00    -0.014 A 
BRANCH  38  39
ATOM     39  C   UNL     1      -8.342   6.987   4.320  1.00  0.00     0.031 A 
ATOM     40  C   UNL     1      -9.416   6.066   3.795  1.00  0.00     0.074 A 
ATOM     41  C   UNL     1      -8.551   7.669   5.467  1.00  0.00     0.049 A 
ATOM     42  N   UNL     1     -10.670   5.967   4.155  1.00  0.00    -0.248 NA
ATOM     43  C   UNL     1      -9.036   5.151   2.706  1.00  0.00     0.031 C 
ATOM     44  C   UNL     1      -7.582   8.551   6.124  1.00  0.00     0.029 A 
ATOM     45  N   UNL     1      -9.652   7.733   6.286  1.00  0.00    -0.354 N 
ATOM     46  C   UNL     1     -11.243   5.031   3.298  1.00  0.00     0.074 A 
ATOM     47  C   UNL     1     -10.200   4.598   2.394  1.00  0.00     0.031 C 
ATOM     48  C   UNL     1      -8.111   9.034   7.255  1.00  0.00     0.029 A 
ATOM     49  C   UNL     1      -9.498   8.602   7.343  1.00  0.00     0.049 A 
ATOM     50  H   UNL     1     -10.471   7.210   6.132  1.00  0.00     0.167 HD
ATOM     51  C   UNL     1     -12.522   4.582   3.270  1.00  0.00     0.037 A 
ATOM     52  C   UNL     1     -10.383   9.061   8.247  1.00  0.00     0.037 A 
ATOM     53  C   UNL     1     -13.534   4.991   4.212  1.00  0.00     0.049 A 
ATOM     54  C   UNL     1     -11.807   8.596   8.163  1.00  0.00     0.074 A 
ATOM     55  C   UNL     1     -14.856   4.588   4.286  1.00  0.00     0.029 A 
ATOM     56  N   UNL     1     -13.334   5.890   5.252  1.00  0.00    -0.354 N 
ATOM     57  N   UNL     1     -12.349   7.756   7.314  1.00  0.00    -0.248 NA
ATOM     58  C   UNL     1     -12.745   9.151   9.147  1.00  0.00     0.031 C 
ATOM     59  C   UNL     1     -15.467   5.281   5.335  1.00  0.00     0.029 A 
ATOM     60  C   UNL     1     -14.512   6.067   5.959  1.00  0.00     0.049 A 
ATOM     61  H   UNL     1     -12.480   6.335   5.456  1.00  0.00     0.167 HD
ATOM     62  C   UNL     1     -13.685   7.657   7.679  1.00  0.00     0.074 A 
ATOM     63  C   UNL     1     -13.867   8.520   8.830  1.00  0.00     0.031 C 
ATOM     64  C   UNL     1     -14.670   6.917   7.114  1.00  0.00     0.037 A 
BRANCH  51  65
ATOM     65  C   UNL     1     -12.914   3.633   2.166  1.00  0.00     0.058 A 
ATOM     66  C   UNL     1     -12.444   2.312   2.106  1.00  0.00     0.135 A 
ATOM     67  C   UNL     1     -13.805   4.051   1.161  1.00  0.00     0.135 A 
ATOM     68  F   UNL     1     -11.582   1.859   3.030  1.00  0.00    -0.206 F 
ATOM     69  C   UNL     1     -12.811   1.453   1.073  1.00  0.00     0.059 A 
ATOM     70  C   UNL     1     -14.212   3.199   0.138  1.00  0.00     0.059 A 
ATOM     71  F   UNL     1     -14.292   5.302   1.167  1.00  0.00    -0.206 F 
ATOM     72  C   UNL     1     -13.694   1.906   0.092  1.00  0.00     0.060 A 
BRANCH  72  73
ATOM     73  S   UNL     1     -14.155   0.783  -1.245  1.00  0.00     0.124 S 
ATOM     74  O   UNL     1     -12.919   0.730  -2.020  1.00  0.00    -0.237 OA
ATOM     75  O   UNL     1     -14.503  -0.436  -0.523  1.00  0.00    -0.237 OA
ATOM     76  O   UNL     1     -15.271   1.464  -1.894  1.00  0.00    -0.744 OA
ENDBRANCH  72  73
ENDBRANCH  51  65
BRANCH  52  77
ATOM     77  C   UNL     1      -9.948  10.048   9.273  1.00  0.00     0.058 A 
ATOM     78  C   UNL     1      -9.885   9.697  10.629  1.00  0.00     0.135 A 
ATOM     79  C   UNL     1      -9.549  11.347   8.916  1.00  0.00     0.135 A 
ATOM     80  F   UNL     1     -10.263   8.472  11.023  1.00  0.00    -0.206 F 
ATOM     81  C   UNL     1      -9.450  10.599  11.595  1.00  0.00     0.059 A 
ATOM     82  C   UNL     1      -9.078  12.255   9.858  1.00  0.00     0.059 A 
ATOM     83  F   UNL     1      -9.573  11.729   7.629  1.00  0.00    -0.206 F 
ATOM     84  C   UNL     1      -9.042  11.874  11.198  1.00  0.00     0.060 A 
BRANCH  84  85
ATOM     85  S   UNL     1      -8.426  13.015  12.454  1.00  0.00     0.124 S 
ATOM     86  O   UNL     1      -9.652  13.356  13.167  1.00  0.00    -0.237 OA
ATOM     87  O   UNL     1      -7.474  12.183  13.183  1.00  0.00    -0.237 OA
ATOM     88  O   UNL     1      -7.832  14.093  11.668  1.00  0.00    -0.744 OA
ENDBRANCH  84  85
ENDBRANCH  52  77
BRANCH  64  89
ATOM     89  C   UNL     1     -16.023   6.956   7.768  1.00  0.00     0.058 A 
ATOM     90  C   UNL     1     -16.862   8.076   7.676  1.00  0.00     0.135 A 
ATOM     91  C   UNL     1     -16.507   5.826   8.447  1.00  0.00     0.135 A 
ATOM     92  F   UNL     1     -16.442   9.187   7.049  1.00  0.00    -0.206 F 
ATOM     93  C   UNL     1     -18.130   8.080   8.247  1.00  0.00     0.059 A 
ATOM     94  C   UNL     1     -17.783   5.797   8.999  1.00  0.00     0.059 A 
ATOM     95  F   UNL     1     -15.745   4.726   8.559  1.00  0.00    -0.206 F 
ATOM     96  C   UNL     1     -18.584   6.933   8.901  1.00  0.00     0.060 A 
BRANCH  96  97
ATOM     97  S   UNL     1     -20.252   6.933   9.591  1.00  0.00     0.124 S 
ATOM     98  O   UNL     1     -20.094   7.816  10.742  1.00  0.00    -0.237 OA
ATOM     99  O   UNL     1     -21.045   7.466   8.487  1.00  0.00    -0.237 OA
ATOM    100  O   UNL     1     -20.491   5.528   9.905  1.00  0.00    -0.744 OA
ENDBRANCH  96  97
ENDBRANCH  64  89
ENDBRANCH  38  39
ENDBRANCH  31  33
ENDBRANCH  30  31
ENDBRANCH  29  30
ENDBRANCH  28  29
ENDBRANCH  27  28
ENDBRANCH   1  27
TORSDOF 21
