REMARK SMILES COC(=O)c1sc(SCC(=O)OCCOC(=O)c2ccc(-c3c4nc(c(-c5c(F)cc(S(=O)(=O)[O-])cc5F)c5ccc([nH]5)c(-c5c(F)cc(S(=O)(=O)[O-])cc5F)c5nc(c(-c6c(F)cc(S(=O)(=O)[O-])cc6F)c6ccc3[nH]6)C=C5)C=C4)cc2)c(NC(=O)c2ccccc2)c1O
REMARK SMILES IDX 13 1 12 2 10 3 11 4 9 5 8 6 7 7 5 8 6 9 94 10 84 11 3 12
REMARK SMILES IDX 4 13 2 14 1 15 95 16 85 18 86 19 87 21 88 22 89 23 93 24
REMARK SMILES IDX 90 25 92 26 91 27 14 28 15 29 16 30 17 31 18 32 19 33 83 34
REMARK SMILES IDX 20 35 82 36 21 37 22 38 23 39 76 40 24 41 81 42 75 43 77 44
REMARK SMILES IDX 25 45 80 46 74 47 73 48 26 50 60 51 39 52 59 53 40 54 43 55
REMARK SMILES IDX 58 56 78 57 41 58 42 59 57 61 79 62 44 63 27 64 28 65 37 66
REMARK SMILES IDX 29 67 30 68 36 69 38 70 31 71 32 72 33 73 34 74 35 75 61 76
REMARK SMILES IDX 62 77 71 78 63 79 64 80 70 81 72 82 65 83 66 84 67 85 68 86
REMARK SMILES IDX 69 87 45 88 46 89 55 90 47 91 48 92 54 93 56 94 49 95 50 96
REMARK SMILES IDX 51 97 52 98 53 99
REMARK H PARENT 95 17 85 20 77 49 43 60
REMARK Flexibility Score: inf
ROOT
ATOM      1  C   UNL     1      -2.251   9.155  -2.707  1.00  0.00     0.274 C 
ENDROOT
BRANCH   1   2
ATOM      2  O   UNL     1      -1.345   9.310  -1.583  1.00  0.00    -0.461 OA
BRANCH   2   3
ATOM      3  C   UNL     1      -1.889   9.570  -0.339  1.00  0.00     0.316 C 
ATOM      4  O   UNL     1      -3.076   9.830  -0.154  1.00  0.00    -0.251 OA
BRANCH   3   5
ATOM      5  C   UNL     1      -0.678   9.849   0.827  1.00  0.00     0.198 C 
BRANCH   5   6
ATOM      6  S   UNL     1       0.500   8.267   2.495  1.00  0.00    -0.101 SA
BRANCH   6   7
ATOM      7  C   UNL     1       0.486   6.462   2.201  1.00  0.00     0.089 A 
ATOM      8  C   UNL     1       1.229   4.116   1.768  1.00  0.00     0.157 A 
ATOM      9  S   UNL     1       1.989   5.632   2.050  1.00  0.00    -0.116 S 
ATOM     10  C   UNL     1      -0.137   4.230   1.921  1.00  0.00     0.166 A 
ATOM     11  C   UNL     1      -0.579   5.570   2.137  1.00  0.00     0.109 A 
BRANCH   8  12
ATOM     12  C   UNL     1       2.044   2.972   1.402  1.00  0.00     0.352 C 
ATOM     13  O   UNL     1       3.264   2.960   1.297  1.00  0.00    -0.245 OA
BRANCH  12  14
ATOM     14  O   UNL     1       1.222   1.918   1.123  1.00  0.00    -0.465 OA
ATOM     15  C   UNL     1       1.839   0.694   0.699  1.00  0.00     0.282 C 
ENDBRANCH  12  14
ENDBRANCH   8  12
BRANCH  10  16
ATOM     16  O   UNL     1      -1.010   3.204   1.786  1.00  0.00    -0.504 OA
ATOM     17  H   UNL     1      -0.691   2.334   1.644  1.00  0.00     0.293 HD
ENDBRANCH  10  16
BRANCH  11  18
ATOM     18  N   UNL     1      -1.937   5.859   2.202  1.00  0.00    -0.317 N 
ATOM     19  C   UNL     1      -2.519   7.089   2.061  1.00  0.00     0.255 C 
ATOM     20  H   UNL     1      -2.542   5.100   2.367  1.00  0.00     0.170 HD
ATOM     21  O   UNL     1      -3.695   7.310   2.324  1.00  0.00    -0.269 OA
BRANCH  19  22
ATOM     22  C   UNL     1      -1.633   8.175   1.621  1.00  0.00     0.040 A 
ATOM     23  C   UNL     1      -1.461   9.528   2.782  1.00  0.00     0.014 A 
ATOM     24  C   UNL     1      -0.341   7.884   0.351  1.00  0.00     0.014 A 
ATOM     25  C   UNL     1       0.008  10.566   2.729  1.00  0.00     0.001 A 
ATOM     26  C   UNL     1       1.130   8.925   0.320  1.00  0.00     0.001 A 
ATOM     27  C   UNL     1       1.294  10.264   1.518  1.00  0.00     0.000 A 
ENDBRANCH  19  22
ENDBRANCH  11  18
ENDBRANCH   6   7
ENDBRANCH   5   6
ENDBRANCH   3   5
ENDBRANCH   2   3
ENDBRANCH   1   2
BRANCH   1  28
ATOM     28  C   UNL     1      -2.076   7.773  -3.367  1.00  0.00     0.275 C 
BRANCH  28  29
ATOM     29  O   UNL     1      -3.144   6.826  -3.144  1.00  0.00    -0.458 OA
BRANCH  29  30
ATOM     30  C   UNL     1      -3.304   6.476  -1.850  1.00  0.00     0.338 C 
ATOM     31  O   UNL     1      -2.882   7.107  -0.899  1.00  0.00    -0.246 OA
BRANCH  30  32
ATOM     32  C   UNL     1      -3.811   5.110  -1.651  1.00  0.00     0.060 A 
ATOM     33  C   UNL     1      -3.959   4.709  -0.318  1.00  0.00     0.016 A 
ATOM     34  C   UNL     1      -3.867   4.172  -2.678  1.00  0.00     0.016 A 
ATOM     35  C   UNL     1      -3.923   3.367   0.011  1.00  0.00     0.010 A 
ATOM     36  C   UNL     1      -3.921   2.821  -2.346  1.00  0.00     0.010 A 
ATOM     37  C   UNL     1      -3.831   2.413  -1.003  1.00  0.00    -0.014 A 
BRANCH  37  38
ATOM     38  C   UNL     1      -3.675   1.002  -0.606  1.00  0.00     0.031 A 
ATOM     39  C   UNL     1      -4.666   0.444   0.370  1.00  0.00     0.074 A 
ATOM     40  C   UNL     1      -2.782   0.181  -1.203  1.00  0.00     0.049 A 
ATOM     41  N   UNL     1      -4.463  -0.386   1.349  1.00  0.00    -0.248 NA
ATOM     42  C   UNL     1      -6.061   0.905   0.257  1.00  0.00     0.031 C 
ATOM     43  C   UNL     1      -1.880   0.516  -2.309  1.00  0.00     0.029 A 
ATOM     44  N   UNL     1      -2.634  -1.177  -1.082  1.00  0.00    -0.354 N 
ATOM     45  C   UNL     1      -5.726  -0.692   1.853  1.00  0.00     0.074 A 
ATOM     46  C   UNL     1      -6.658   0.206   1.218  1.00  0.00     0.031 C 
ATOM     47  C   UNL     1      -1.546  -0.619  -2.954  1.00  0.00     0.029 A 
ATOM     48  C   UNL     1      -2.120  -1.748  -2.242  1.00  0.00     0.049 A 
ATOM     49  H   UNL     1      -2.864  -1.686  -0.272  1.00  0.00     0.167 HD
ATOM     50  C   UNL     1      -5.995  -1.781   2.622  1.00  0.00     0.037 A 
ATOM     51  C   UNL     1      -2.281  -3.022  -2.674  1.00  0.00     0.037 A 
ATOM     52  C   UNL     1      -4.846  -2.341   3.266  1.00  0.00     0.049 A 
ATOM     53  C   UNL     1      -2.647  -3.877  -1.521  1.00  0.00     0.074 A 
ATOM     54  C   UNL     1      -3.898  -1.868   4.153  1.00  0.00     0.029 A 
ATOM     55  N   UNL     1      -4.386  -3.570   2.862  1.00  0.00    -0.354 N 
ATOM     56  N   UNL     1      -1.839  -4.219  -0.557  1.00  0.00    -0.248 NA
ATOM     57  C   UNL     1      -4.059  -4.121  -1.264  1.00  0.00     0.031 C 
ATOM     58  C   UNL     1      -2.718  -2.620   3.894  1.00  0.00     0.029 A 
ATOM     59  C   UNL     1      -3.015  -3.489   2.845  1.00  0.00     0.049 A 
ATOM     60  H   UNL     1      -4.932  -4.355   2.629  1.00  0.00     0.167 HD
ATOM     61  C   UNL     1      -2.650  -4.333   0.560  1.00  0.00     0.074 A 
ATOM     62  C   UNL     1      -4.008  -4.403   0.038  1.00  0.00     0.031 C 
ATOM     63  C   UNL     1      -2.179  -4.066   1.815  1.00  0.00     0.037 A 
BRANCH  50  64
ATOM     64  C   UNL     1      -7.320  -2.488   2.548  1.00  0.00     0.058 A 
ATOM     65  C   UNL     1      -7.797  -3.259   3.620  1.00  0.00     0.135 A 
ATOM     66  C   UNL     1      -8.031  -2.601   1.331  1.00  0.00     0.135 A 
ATOM     67  F   UNL     1      -7.157  -3.255   4.800  1.00  0.00    -0.206 F 
ATOM     68  C   UNL     1      -8.908  -4.095   3.491  1.00  0.00     0.059 A 
ATOM     69  C   UNL     1      -9.167  -3.386   1.193  1.00  0.00     0.059 A 
ATOM     70  F   UNL     1      -7.591  -2.009   0.210  1.00  0.00    -0.206 F 
ATOM     71  C   UNL     1      -9.579  -4.158   2.270  1.00  0.00     0.060 A 
BRANCH  71  72
ATOM     72  S   UNL     1     -10.962  -5.296   2.065  1.00  0.00     0.124 S 
ATOM     73  O   UNL     1     -10.264  -6.549   1.800  1.00  0.00    -0.237 OA
ATOM     74  O   UNL     1     -11.641  -5.203   3.353  1.00  0.00    -0.237 OA
ATOM     75  O   UNL     1     -11.694  -4.726   0.937  1.00  0.00    -0.744 OA
ENDBRANCH  71  72
ENDBRANCH  50  64
BRANCH  51  76
ATOM     76  C   UNL     1      -2.406  -3.478  -4.084  1.00  0.00     0.058 A 
ATOM     77  C   UNL     1      -2.239  -4.827  -4.433  1.00  0.00     0.135 A 
ATOM     78  C   UNL     1      -2.908  -2.633  -5.098  1.00  0.00     0.135 A 
ATOM     79  F   UNL     1      -1.822  -5.715  -3.517  1.00  0.00    -0.206 F 
ATOM     80  C   UNL     1      -2.546  -5.311  -5.709  1.00  0.00     0.059 A 
ATOM     81  C   UNL     1      -3.194  -3.085  -6.383  1.00  0.00     0.059 A 
ATOM     82  F   UNL     1      -3.218  -1.352  -4.850  1.00  0.00    -0.206 F 
ATOM     83  C   UNL     1      -3.025  -4.430  -6.678  1.00  0.00     0.060 A 
BRANCH  83  84
ATOM     84  S   UNL     1      -3.516  -5.067  -8.296  1.00  0.00     0.124 S 
ATOM     85  O   UNL     1      -2.240  -5.513  -8.843  1.00  0.00    -0.237 OA
ATOM     86  O   UNL     1      -4.460  -6.119  -7.935  1.00  0.00    -0.237 OA
ATOM     87  O   UNL     1      -4.104  -3.903  -8.954  1.00  0.00    -0.744 OA
ENDBRANCH  83  84
ENDBRANCH  51  76
BRANCH  63  88
ATOM     88  C   UNL     1      -0.690  -4.025   2.043  1.00  0.00     0.058 A 
ATOM     89  C   UNL     1       0.182  -3.146   1.379  1.00  0.00     0.135 A 
ATOM     90  C   UNL     1      -0.148  -4.790   3.092  1.00  0.00     0.135 A 
ATOM     91  F   UNL     1      -0.269  -2.282   0.457  1.00  0.00    -0.206 F 
ATOM     92  C   UNL     1       1.534  -3.068   1.707  1.00  0.00     0.059 A 
ATOM     93  C   UNL     1       1.191  -4.689   3.470  1.00  0.00     0.059 A 
ATOM     94  F   UNL     1      -0.939  -5.608   3.807  1.00  0.00    -0.206 F 
ATOM     95  C   UNL     1       2.027  -3.829   2.764  1.00  0.00     0.060 A 
BRANCH  95  96
ATOM     96  S   UNL     1       3.740  -3.575   3.276  1.00  0.00     0.124 S 
ATOM     97  O   UNL     1       4.478  -4.246   2.211  1.00  0.00    -0.237 OA
ATOM     98  O   UNL     1       3.844  -2.118   3.297  1.00  0.00    -0.237 OA
ATOM     99  O   UNL     1       3.804  -4.217   4.586  1.00  0.00    -0.744 OA
ENDBRANCH  95  96
ENDBRANCH  63  88
ENDBRANCH  37  38
ENDBRANCH  30  32
ENDBRANCH  29  30
ENDBRANCH  28  29
ENDBRANCH   1  28
TORSDOF 21
