REMARK SMILES O=C(OCCOC(=O)c1ccccc1/C=C1/SC(=S)N(C2CCCC2)C1=O)c1ccc(-c2c3nc(c(-c4c(F)cc(S(=O)(=O)[O-])cc4F)c4ccc([nH]4)c(-c4c(F)cc(S(=O)(=O)[O-])cc4F)c4nc(c(-c5c(F)cc(S(=O)(=O)[O-])cc5F)c5ccc2[nH]5)C=C4)C=C3)cc1
REMARK SMILES IDX 4 1 3 2 2 3 1 4 28 5 29 6 93 7 30 8 92 9 31 10 32 11 33 12
REMARK SMILES IDX 86 13 34 14 91 15 85 16 87 17 35 18 90 19 84 20 83 21 36 23
REMARK SMILES IDX 70 24 49 25 69 26 50 27 53 28 68 29 88 30 51 31 52 32 67 34
REMARK SMILES IDX 89 35 54 36 37 37 38 38 47 39 39 40 40 41 46 42 48 43 41 44
REMARK SMILES IDX 42 45 43 46 44 47 45 48 71 49 72 50 81 51 73 52 74 53 80 54
REMARK SMILES IDX 82 55 75 56 76 57 77 58 78 59 79 60 55 61 56 62 65 63 57 64
REMARK SMILES IDX 58 65 64 66 66 67 59 68 60 69 61 70 62 71 63 72 5 73 6 74
REMARK SMILES IDX 7 75 8 76 9 77 10 78 14 79 11 80 13 81 12 82 15 83 16 84
REMARK SMILES IDX 17 85 26 86 18 87 20 88 27 89 19 90 21 91 22 92 25 93 23 94
REMARK SMILES IDX 24 95
REMARK H PARENT 87 22 53 33
REMARK Flexibility Score: inf
ROOT
ATOM      1  C   UNL     1       4.309   0.505  -1.352  1.00  0.00     0.275 C 
ENDROOT
BRANCH   1   2
ATOM      2  O   UNL     1       3.215  -0.419  -1.208  1.00  0.00    -0.458 OA
BRANCH   2   3
ATOM      3  C   UNL     1       2.946  -1.336  -0.249  1.00  0.00     0.338 C 
ATOM      4  O   UNL     1       1.995  -2.097  -0.429  1.00  0.00    -0.246 OA
BRANCH   3   5
ATOM      5  C   UNL     1       3.663  -1.434   1.066  1.00  0.00     0.060 A 
ATOM      6  C   UNL     1       4.971  -1.021   1.324  1.00  0.00     0.016 A 
ATOM      7  C   UNL     1       2.946  -2.026   2.127  1.00  0.00     0.016 A 
ATOM      8  C   UNL     1       5.532  -1.154   2.598  1.00  0.00     0.010 A 
ATOM      9  C   UNL     1       3.504  -2.170   3.404  1.00  0.00     0.010 A 
ATOM     10  C   UNL     1       4.811  -1.743   3.640  1.00  0.00    -0.014 A 
BRANCH  10  11
ATOM     11  C   UNL     1       5.510  -2.012   4.920  1.00  0.00     0.031 A 
ATOM     12  C   UNL     1       6.149  -3.343   5.111  1.00  0.00     0.074 A 
ATOM     13  C   UNL     1       5.670  -1.039   5.834  1.00  0.00     0.049 A 
ATOM     14  N   UNL     1       6.920  -3.741   6.083  1.00  0.00    -0.248 NA
ATOM     15  C   UNL     1       5.898  -4.353   4.071  1.00  0.00     0.031 C 
ATOM     16  C   UNL     1       5.075   0.275   5.703  1.00  0.00     0.029 A 
ATOM     17  N   UNL     1       6.362  -0.959   7.011  1.00  0.00    -0.354 N 
ATOM     18  C   UNL     1       7.275  -5.040   5.760  1.00  0.00     0.074 A 
ATOM     19  C   UNL     1       6.598  -5.380   4.527  1.00  0.00     0.031 C 
ATOM     20  C   UNL     1       5.443   1.062   6.722  1.00  0.00     0.029 A 
ATOM     21  C   UNL     1       6.282   0.280   7.617  1.00  0.00     0.049 A 
ATOM     22  H   UNL     1       6.869  -1.712   7.391  1.00  0.00     0.167 HD
ATOM     23  C   UNL     1       8.109  -5.861   6.434  1.00  0.00     0.037 A 
ATOM     24  C   UNL     1       6.821   0.724   8.768  1.00  0.00     0.037 A 
ATOM     25  C   UNL     1       8.721  -5.512   7.687  1.00  0.00     0.049 A 
ATOM     26  C   UNL     1       7.684  -0.240   9.534  1.00  0.00     0.074 A 
ATOM     27  C   UNL     1       9.512  -6.291   8.509  1.00  0.00     0.029 A 
ATOM     28  N   UNL     1       8.595  -4.272   8.305  1.00  0.00    -0.354 N 
ATOM     29  N   UNL     1       8.009  -1.472   9.216  1.00  0.00    -0.248 NA
ATOM     30  C   UNL     1       8.250   0.228  10.803  1.00  0.00     0.031 C 
ATOM     31  C   UNL     1       9.840  -5.532   9.639  1.00  0.00     0.029 A 
ATOM     32  C   UNL     1       9.289  -4.266   9.502  1.00  0.00     0.049 A 
ATOM     33  H   UNL     1       8.087  -3.511   7.943  1.00  0.00     0.167 HD
ATOM     34  C   UNL     1       8.826  -1.925  10.239  1.00  0.00     0.074 A 
ATOM     35  C   UNL     1       8.968  -0.824  11.174  1.00  0.00     0.031 C 
ATOM     36  C   UNL     1       9.402  -3.142  10.400  1.00  0.00     0.037 A 
BRANCH  23  37
ATOM     37  C   UNL     1       8.353  -7.207   5.824  1.00  0.00     0.058 A 
ATOM     38  C   UNL     1       9.136  -7.350   4.667  1.00  0.00     0.135 A 
ATOM     39  C   UNL     1       7.748  -8.356   6.356  1.00  0.00     0.135 A 
ATOM     40  F   UNL     1       9.703  -6.274   4.097  1.00  0.00    -0.206 F 
ATOM     41  C   UNL     1       9.288  -8.581   4.040  1.00  0.00     0.059 A 
ATOM     42  C   UNL     1       7.904  -9.602   5.757  1.00  0.00     0.059 A 
ATOM     43  F   UNL     1       6.973  -8.267   7.447  1.00  0.00    -0.206 F 
ATOM     44  C   UNL     1       8.661  -9.701   4.590  1.00  0.00     0.060 A 
BRANCH  44  45
ATOM     45  S   UNL     1       8.842 -11.287   3.749  1.00  0.00     0.124 S 
ATOM     46  O   UNL     1       7.983 -11.098   2.584  1.00  0.00    -0.237 OA
ATOM     47  O   UNL     1      10.275 -11.335   3.478  1.00  0.00    -0.237 OA
ATOM     48  O   UNL     1       8.361 -12.250   4.735  1.00  0.00    -0.744 OA
ENDBRANCH  44  45
ENDBRANCH  23  37
BRANCH  24  49
ATOM     49  C   UNL     1       6.551   2.103   9.268  1.00  0.00     0.058 A 
ATOM     50  C   UNL     1       7.572   3.059   9.384  1.00  0.00     0.135 A 
ATOM     51  C   UNL     1       5.258   2.491   9.661  1.00  0.00     0.135 A 
ATOM     52  F   UNL     1       8.826   2.747   9.023  1.00  0.00    -0.206 F 
ATOM     53  C   UNL     1       7.332   4.332   9.899  1.00  0.00     0.059 A 
ATOM     54  C   UNL     1       4.987   3.766  10.152  1.00  0.00     0.059 A 
ATOM     55  F   UNL     1       4.235   1.629   9.553  1.00  0.00    -0.206 F 
ATOM     56  C   UNL     1       6.035   4.674  10.286  1.00  0.00     0.060 A 
BRANCH  56  57
ATOM     57  S   UNL     1       5.727   6.329  10.945  1.00  0.00     0.124 S 
ATOM     58  O   UNL     1       6.306   6.225  12.279  1.00  0.00    -0.237 OA
ATOM     59  O   UNL     1       6.446   7.176  10.000  1.00  0.00    -0.237 OA
ATOM     60  O   UNL     1       4.272   6.442  10.895  1.00  0.00    -0.744 OA
ENDBRANCH  56  57
ENDBRANCH  24  49
BRANCH  36  61
ATOM     61  C   UNL     1      10.249  -3.322  11.623  1.00  0.00     0.058 A 
ATOM     62  C   UNL     1       9.676  -3.472  12.895  1.00  0.00     0.135 A 
ATOM     63  C   UNL     1      11.646  -3.382  11.512  1.00  0.00     0.135 A 
ATOM     64  F   UNL     1       8.343  -3.411  13.048  1.00  0.00    -0.206 F 
ATOM     65  C   UNL     1      10.464  -3.654  14.024  1.00  0.00     0.059 A 
ATOM     66  C   UNL     1      12.452  -3.589  12.624  1.00  0.00     0.059 A 
ATOM     67  F   UNL     1      12.236  -3.249  10.314  1.00  0.00    -0.206 F 
ATOM     68  C   UNL     1      11.852  -3.712  13.877  1.00  0.00     0.060 A 
BRANCH  68  69
ATOM     69  S   UNL     1      12.866  -3.983  15.344  1.00  0.00     0.124 S 
ATOM     70  O   UNL     1      12.841  -2.663  15.964  1.00  0.00    -0.237 OA
ATOM     71  O   UNL     1      12.128  -5.029  16.047  1.00  0.00    -0.237 OA
ATOM     72  O   UNL     1      14.153  -4.396  14.793  1.00  0.00    -0.744 OA
ENDBRANCH  68  69
ENDBRANCH  36  61
ENDBRANCH  10  11
ENDBRANCH   3   5
ENDBRANCH   2   3
ENDBRANCH   1   2
BRANCH   1  73
ATOM     73  C   UNL     1       4.124   1.822  -0.601  1.00  0.00     0.275 C 
BRANCH  73  74
ATOM     74  O   UNL     1       3.671   1.638   0.747  1.00  0.00    -0.458 OA
BRANCH  74  75
ATOM     75  C   UNL     1       2.336   1.798   0.935  1.00  0.00     0.338 C 
ATOM     76  O   UNL     1       1.526   2.100   0.073  1.00  0.00    -0.246 OA
BRANCH  75  77
ATOM     77  C   UNL     1       1.950   1.471   2.330  1.00  0.00     0.067 A 
ATOM     78  C   UNL     1       0.814   0.655   2.466  1.00  0.00     0.016 A 
ATOM     79  C   UNL     1       2.624   1.948   3.474  1.00  0.00    -0.010 A 
ATOM     80  C   UNL     1       0.356   0.286   3.729  1.00  0.00     0.001 A 
ATOM     81  C   UNL     1       2.104   1.615   4.736  1.00  0.00     0.009 A 
ATOM     82  C   UNL     1       0.996   0.774   4.863  1.00  0.00     0.001 A 
BRANCH  79  83
ATOM     83  C   UNL     1       3.875   2.731   3.438  1.00  0.00     0.030 C 
ATOM     84  C   UNL     1       4.024   3.931   2.876  1.00  0.00     0.081 C 
ATOM     85  S   UNL     1       5.533   4.654   2.507  1.00  0.00    -0.054 SA
ATOM     86  C   UNL     1       2.942   4.676   2.221  1.00  0.00     0.266 C 
ATOM     87  C   UNL     1       4.828   5.552   1.155  1.00  0.00     0.148 C 
ATOM     88  N   UNL     1       3.459   5.365   1.139  1.00  0.00    -0.290 N 
ATOM     89  O   UNL     1       1.776   4.656   2.590  1.00  0.00    -0.268 OA
ATOM     90  S   UNL     1       5.798   6.428   0.119  1.00  0.00    -0.052 S 
BRANCH  88  91
ATOM     91  C   UNL     1       2.473   5.869   0.195  1.00  0.00     0.092 C 
ATOM     92  C   UNL     1       2.233   7.367   0.271  1.00  0.00     0.025 C 
ATOM     93  C   UNL     1       2.691   5.558  -1.286  1.00  0.00     0.025 C 
ATOM     94  C   UNL     1       1.382   7.607  -0.963  1.00  0.00     0.002 C 
ATOM     95  C   UNL     1       1.962   6.678  -2.029  1.00  0.00     0.002 C 
ENDBRANCH  88  91
ENDBRANCH  79  83
ENDBRANCH  75  77
ENDBRANCH  74  75
ENDBRANCH  73  74
ENDBRANCH   1  73
TORSDOF 16
