REMARK SMILES C[C@]([NH3+])(C(=O)OCCOC(=O)c1ccc(-c2c3nc(c(-c4c(F)cc(S(=O)(=O)[O-])cc4F)c4ccc([nH]4)c(-c4c(F)cc(S(=O)(=O)[O-])cc4F)c4nc(c(-c5c(F)cc(S(=O)(=O)[O-])cc5F)c5ccc2[nH]5)C=C4)C=C3)cc1)c1ccc(F)c(Br)c1
REMARK SMILES IDX 8 1 7 2 6 3 4 4 5 5 2 6 1 7 78 8 79 9 85 10 80 11 83 12
REMARK SMILES IDX 81 13 84 14 82 15 3 16 9 20 10 21 11 22 12 23 13 24 77 25
REMARK SMILES IDX 14 26 76 27 15 28 16 29 17 30 70 31 18 32 75 33 69 34 71 35
REMARK SMILES IDX 19 36 74 37 68 38 67 39 20 41 54 42 33 43 53 44 34 45 37 46
REMARK SMILES IDX 52 47 72 48 35 49 36 50 51 52 73 53 38 54 21 55 22 56 31 57
REMARK SMILES IDX 23 58 24 59 30 60 32 61 25 62 26 63 27 64 28 65 29 66 55 67
REMARK SMILES IDX 56 68 65 69 57 70 58 71 64 72 66 73 59 74 60 75 61 76 62 77
REMARK SMILES IDX 63 78 39 79 40 80 49 81 41 82 42 83 48 84 50 85 43 86 44 87
REMARK SMILES IDX 45 88 46 89 47 90
REMARK H PARENT 3 17 3 18 3 19 71 40 37 51
REMARK Flexibility Score: inf
ROOT
ATOM      1  C   UNL     1      -3.701  -0.056   0.487  1.00  0.00     0.275 C 
ENDROOT
BRANCH   1   2
ATOM      2  C   UNL     1      -2.990   1.266   0.211  1.00  0.00     0.274 C 
BRANCH   2   3
ATOM      3  O   UNL     1      -1.579   1.041   0.019  1.00  0.00    -0.457 OA
BRANCH   3   4
ATOM      4  C   UNL     1      -0.736   1.536   0.978  1.00  0.00     0.372 C 
ATOM      5  O   UNL     1      -1.110   2.199   1.939  1.00  0.00    -0.244 OA
BRANCH   4   6
ATOM      6  C   UNL     1       0.764   1.200   0.651  1.00  0.00     0.215 C 
ATOM      7  C   UNL     1       1.406   2.487   0.103  1.00  0.00     0.098 C 
BRANCH   6   8
ATOM      8  C   UNL     1       1.527   0.716   1.902  1.00  0.00     0.025 A 
ATOM      9  C   UNL     1       2.105  -0.568   1.981  1.00  0.00     0.014 A 
ATOM     10  C   UNL     1       1.665   1.557   3.029  1.00  0.00     0.029 A 
ATOM     11  C   UNL     1       2.784  -0.993   3.128  1.00  0.00     0.041 A 
ATOM     12  C   UNL     1       2.345   1.130   4.176  1.00  0.00     0.054 A 
ATOM     13  C   UNL     1       2.904  -0.141   4.218  1.00  0.00     0.137 A 
ATOM     14  Br  UNL     1       2.459   2.281   5.671  1.00  0.00    -0.048 Br
ATOM     15  F   UNL     1       3.545  -0.577   5.310  1.00  0.00    -0.206 F 
ENDBRANCH   6   8
BRANCH   6  16
ATOM     16  N   UNL     1       0.827   0.198  -0.454  1.00  0.00    -0.340 N 
ATOM     17  H   UNL     1       0.412  -0.679  -0.141  1.00  0.00     0.345 HD
ATOM     18  H   UNL     1       1.800   0.040  -0.714  1.00  0.00     0.345 HD
ATOM     19  H   UNL     1       0.312   0.549  -1.261  1.00  0.00     0.345 HD
ENDBRANCH   6  16
ENDBRANCH   4   6
ENDBRANCH   3   4
ENDBRANCH   2   3
ENDBRANCH   1   2
BRANCH   1  20
ATOM     20  O   UNL     1      -3.297  -0.559   1.774  1.00  0.00    -0.458 OA
BRANCH  20  21
ATOM     21  C   UNL     1      -2.516  -1.662   1.756  1.00  0.00     0.338 C 
ATOM     22  O   UNL     1      -2.160  -2.305   0.786  1.00  0.00    -0.246 OA
BRANCH  21  23
ATOM     23  C   UNL     1      -2.059  -1.946   3.124  1.00  0.00     0.060 A 
ATOM     24  C   UNL     1      -1.114  -1.099   3.694  1.00  0.00     0.016 A 
ATOM     25  C   UNL     1      -2.451  -3.111   3.786  1.00  0.00     0.016 A 
ATOM     26  C   UNL     1      -0.486  -1.463   4.881  1.00  0.00     0.010 A 
ATOM     27  C   UNL     1      -1.872  -3.432   5.023  1.00  0.00     0.010 A 
ATOM     28  C   UNL     1      -0.842  -2.638   5.562  1.00  0.00    -0.014 A 
BRANCH  28  29
ATOM     29  C   UNL     1      -0.064  -3.054   6.767  1.00  0.00     0.031 A 
ATOM     30  C   UNL     1       0.662  -4.380   6.787  1.00  0.00     0.074 A 
ATOM     31  C   UNL     1       0.085  -2.218   7.816  1.00  0.00     0.049 A 
ATOM     32  N   UNL     1       1.289  -4.964   7.778  1.00  0.00    -0.248 NA
ATOM     33  C   UNL     1       0.670  -5.158   5.538  1.00  0.00     0.031 C 
ATOM     34  C   UNL     1      -0.512  -0.886   7.936  1.00  0.00     0.029 A 
ATOM     35  N   UNL     1       0.827  -2.348   8.966  1.00  0.00    -0.354 N 
ATOM     36  C   UNL     1       1.700  -6.202   7.296  1.00  0.00     0.074 A 
ATOM     37  C   UNL     1       1.264  -6.281   5.918  1.00  0.00     0.031 C 
ATOM     38  C   UNL     1      -0.044  -0.290   9.043  1.00  0.00     0.029 A 
ATOM     39  C   UNL     1       0.824  -1.222   9.756  1.00  0.00     0.049 A 
ATOM     40  H   UNL     1       1.315  -3.169   9.203  1.00  0.00     0.167 HD
ATOM     41  C   UNL     1       2.372  -7.185   7.941  1.00  0.00     0.037 A 
ATOM     42  C   UNL     1       1.439  -0.966  10.927  1.00  0.00     0.037 A 
ATOM     43  C   UNL     1       2.880  -7.080   9.284  1.00  0.00     0.049 A 
ATOM     44  C   UNL     1       2.254  -2.040  11.588  1.00  0.00     0.074 A 
ATOM     45  C   UNL     1       3.513  -8.046  10.049  1.00  0.00     0.029 A 
ATOM     46  N   UNL     1       2.863  -5.921  10.043  1.00  0.00    -0.354 N 
ATOM     47  N   UNL     1       2.495  -3.261  11.177  1.00  0.00    -0.248 NA
ATOM     48  C   UNL     1       2.856  -1.712  12.889  1.00  0.00     0.031 C 
ATOM     49  C   UNL     1       3.884  -7.468  11.270  1.00  0.00     0.029 A 
ATOM     50  C   UNL     1       3.496  -6.139  11.256  1.00  0.00     0.049 A 
ATOM     51  H   UNL     1       2.459  -5.068   9.762  1.00  0.00     0.167 HD
ATOM     52  C   UNL     1       3.251  -3.855  12.180  1.00  0.00     0.074 A 
ATOM     53  C   UNL     1       3.469  -2.847  13.197  1.00  0.00     0.031 C 
ATOM     54  C   UNL     1       3.699  -5.132  12.263  1.00  0.00     0.037 A 
BRANCH  41  55
ATOM     55  C   UNL     1       2.563  -8.483   7.212  1.00  0.00     0.058 A 
ATOM     56  C   UNL     1       3.547  -8.643   6.226  1.00  0.00     0.135 A 
ATOM     57  C   UNL     1       1.756  -9.591   7.523  1.00  0.00     0.135 A 
ATOM     58  F   UNL     1       4.328  -7.608   5.877  1.00  0.00    -0.206 F 
ATOM     59  C   UNL     1       3.714  -9.852   5.557  1.00  0.00     0.059 A 
ATOM     60  C   UNL     1       1.917 -10.814   6.880  1.00  0.00     0.059 A 
ATOM     61  F   UNL     1       0.798  -9.488   8.457  1.00  0.00    -0.206 F 
ATOM     62  C   UNL     1       2.889 -10.930   5.887  1.00  0.00     0.060 A 
BRANCH  62  63
ATOM     63  S   UNL     1       3.105 -12.497   5.016  1.00  0.00     0.124 S 
ATOM     64  O   UNL     1       2.370 -12.245   3.781  1.00  0.00    -0.237 OA
ATOM     65  O   UNL     1       4.555 -12.591   4.881  1.00  0.00    -0.237 OA
ATOM     66  O   UNL     1       2.500 -13.471   5.920  1.00  0.00    -0.744 OA
ENDBRANCH  62  63
ENDBRANCH  41  55
BRANCH  42  67
ATOM     67  C   UNL     1       1.284   0.365  11.568  1.00  0.00     0.058 A 
ATOM     68  C   UNL     1       2.342   1.285  11.580  1.00  0.00     0.135 A 
ATOM     69  C   UNL     1       0.075   0.746  12.168  1.00  0.00     0.135 A 
ATOM     70  F   UNL     1       3.522   0.958  11.031  1.00  0.00    -0.206 F 
ATOM     71  C   UNL     1       2.210   2.539  12.169  1.00  0.00     0.059 A 
ATOM     72  C   UNL     1      -0.088   2.000  12.745  1.00  0.00     0.059 A 
ATOM     73  F   UNL     1      -0.968  -0.098  12.173  1.00  0.00    -0.206 F 
ATOM     74  C   UNL     1       0.989   2.887  12.749  1.00  0.00     0.060 A 
BRANCH  74  75
ATOM     75  S   UNL     1       0.779   4.535  13.460  1.00  0.00     0.124 S 
ATOM     76  O   UNL     1       1.214   4.318  14.834  1.00  0.00    -0.237 OA
ATOM     77  O   UNL     1       1.660   5.356  12.635  1.00  0.00    -0.237 OA
ATOM     78  O   UNL     1      -0.647   4.787  13.277  1.00  0.00    -0.744 OA
ENDBRANCH  74  75
ENDBRANCH  42  67
BRANCH  54  79
ATOM     79  C   UNL     1       4.447  -5.510  13.507  1.00  0.00     0.058 A 
ATOM     80  C   UNL     1       3.766  -5.783  14.703  1.00  0.00     0.135 A 
ATOM     81  C   UNL     1       5.845  -5.615  13.504  1.00  0.00     0.135 A 
ATOM     82  F   UNL     1       2.427  -5.692  14.754  1.00  0.00    -0.206 F 
ATOM     83  C   UNL     1       4.449  -6.126  15.864  1.00  0.00     0.059 A 
ATOM     84  C   UNL     1       6.548  -5.969  14.651  1.00  0.00     0.059 A 
ATOM     85  F   UNL     1       6.540  -5.369  12.382  1.00  0.00    -0.206 F 
ATOM     86  C   UNL     1       5.842  -6.209  15.831  1.00  0.00     0.060 A 
BRANCH  86  87
ATOM     87  S   UNL     1       6.726  -6.663  17.339  1.00  0.00     0.124 S 
ATOM     88  O   UNL     1       6.781  -5.386  18.042  1.00  0.00    -0.237 OA
ATOM     89  O   UNL     1       5.853  -7.673  17.929  1.00  0.00    -0.237 OA
ATOM     90  O   UNL     1       8.003  -7.164  16.841  1.00  0.00    -0.744 OA
ENDBRANCH  86  87
ENDBRANCH  54  79
ENDBRANCH  28  29
ENDBRANCH  21  23
ENDBRANCH  20  21
ENDBRANCH   1  20
TORSDOF 16
