REMARK SMILES Cc1ccc(Cl)c(NC(=O)C[N@@H+]2CCC[C@H]2C(=O)OCCOC(=O)c2ccc(-c3c4nc(c(-c5c(F)cc(S(=O)(=O)[O-])cc5F)c5ccc([nH]5)c(-c5c(F)cc(S(=O)(=O)[O-])cc5F)c5nc(c(-c6c(F)cc(S(=O)(=O)[O-])cc6F)c6ccc3[nH]6)C=C5)C=C4)cc2)c1Cl
REMARK SMILES IDX 20 1 19 2 17 3 18 4 16 5 12 6 13 7 14 9 15 10 11 11 9 12
REMARK SMILES IDX 8 13 10 15 7 16 1 17 2 18 3 19 91 20 4 21 92 22 5 23 6 24
REMARK SMILES IDX 21 25 22 26 23 27 24 28 25 29 26 30 90 31 27 32 89 33 28 34
REMARK SMILES IDX 29 35 30 36 83 37 31 38 88 39 82 40 84 41 32 42 87 43 81 44
REMARK SMILES IDX 80 45 33 47 67 48 46 49 66 50 47 51 50 52 65 53 85 54 48 55
REMARK SMILES IDX 49 56 64 58 86 59 51 60 34 61 35 62 44 63 36 64 37 65 43 66
REMARK SMILES IDX 45 67 38 68 39 69 40 70 41 71 42 72 68 73 69 74 78 75 70 76
REMARK SMILES IDX 71 77 77 78 79 79 72 80 73 81 74 82 75 83 76 84 52 85 53 86
REMARK SMILES IDX 62 87 54 88 55 89 61 90 63 91 56 92 57 93 58 94 59 95 60 96
REMARK H PARENT 12 8 8 14 84 46 50 57
REMARK Flexibility Score: inf
ROOT
ATOM      1  C   UNL     1      -0.354   0.051  -4.306  1.00  0.00     0.274 C 
ENDROOT
BRANCH   1   2
ATOM      2  O   UNL     1       0.149  -0.398  -3.033  1.00  0.00    -0.458 OA
BRANCH   2   3
ATOM      3  C   UNL     1       1.492  -0.635  -2.940  1.00  0.00     0.365 C 
ATOM      4  O   UNL     1       2.290  -0.530  -3.863  1.00  0.00    -0.245 OA
BRANCH   3   5
ATOM      5  C   UNL     1       1.859  -1.003  -1.491  1.00  0.00     0.295 C 
ATOM      6  N   UNL     1       1.986  -2.476  -1.333  1.00  0.00    -0.315 N 
ATOM      7  C   UNL     1       3.381  -2.733  -1.764  1.00  0.00     0.263 C 
ATOM      8  H   UNL     1       1.281  -2.992  -1.861  1.00  0.00     0.349 HD
ATOM      9  C   UNL     1       4.208  -1.567  -1.245  1.00  0.00     0.068 C 
ATOM     10  C   UNL     1       3.211  -0.437  -1.056  1.00  0.00     0.083 C 
BRANCH   6  11
ATOM     11  C   UNL     1       1.823  -2.880   0.091  1.00  0.00     0.364 C 
BRANCH  11  12
ATOM     12  C   UNL     1       0.360  -3.123   0.475  1.00  0.00     0.279 C 
ATOM     13  N   UNL     1      -0.524  -2.165   0.872  1.00  0.00    -0.319 N 
ATOM     14  H   UNL     1      -1.423  -2.531   1.031  1.00  0.00     0.170 HD
ATOM     15  O   UNL     1      -0.112  -4.266   0.362  1.00  0.00    -0.268 OA
BRANCH  13  16
ATOM     16  C   UNL     1      -0.464  -0.771   1.111  1.00  0.00     0.079 A 
ATOM     17  C   UNL     1       1.847   2.139   2.095  1.00  0.00     0.046 C 
ATOM     18  C   UNL     1       0.631   1.346   1.689  1.00  0.00    -0.030 A 
ATOM     19  C   UNL     1      -0.466   2.047   1.170  1.00  0.00     0.006 A 
ATOM     20  C   UNL     1       0.590  -0.068   1.726  1.00  0.00     0.069 A 
ATOM     21  C   UNL     1      -1.585   1.367   0.706  1.00  0.00     0.023 A 
ATOM     22  Cl  UNL     1       1.725  -0.891   2.750  1.00  0.00    -0.082 Cl
ATOM     23  C   UNL     1      -1.580  -0.025   0.669  1.00  0.00     0.066 A 
ATOM     24  Cl  UNL     1      -2.973  -0.806  -0.011  1.00  0.00    -0.082 Cl
ENDBRANCH  13  16
ENDBRANCH  11  12
ENDBRANCH   6  11
ENDBRANCH   3   5
ENDBRANCH   2   3
ENDBRANCH   1   2
BRANCH   1  25
ATOM     25  C   UNL     1      -0.823   1.501  -4.195  1.00  0.00     0.275 C 
BRANCH  25  26
ATOM     26  O   UNL     1       0.322   2.359  -4.031  1.00  0.00    -0.458 OA
BRANCH  26  27
ATOM     27  C   UNL     1       0.454   2.943  -2.822  1.00  0.00     0.338 C 
ATOM     28  O   UNL     1      -0.331   2.903  -1.884  1.00  0.00    -0.246 OA
BRANCH  27  29
ATOM     29  C   UNL     1       1.760   3.606  -2.729  1.00  0.00     0.060 A 
ATOM     30  C   UNL     1       2.901   2.813  -2.698  1.00  0.00     0.016 A 
ATOM     31  C   UNL     1       1.860   4.980  -2.527  1.00  0.00     0.016 A 
ATOM     32  C   UNL     1       4.130   3.367  -2.356  1.00  0.00     0.010 A 
ATOM     33  C   UNL     1       3.122   5.556  -2.323  1.00  0.00     0.010 A 
ATOM     34  C   UNL     1       4.274   4.755  -2.211  1.00  0.00    -0.014 A 
BRANCH  34  35
ATOM     35  C   UNL     1       5.625   5.351  -1.983  1.00  0.00     0.031 A 
ATOM     36  C   UNL     1       5.885   6.269  -0.815  1.00  0.00     0.074 A 
ATOM     37  C   UNL     1       6.639   5.064  -2.829  1.00  0.00     0.049 A 
ATOM     38  N   UNL     1       6.927   7.025  -0.576  1.00  0.00    -0.248 NA
ATOM     39  C   UNL     1       4.834   6.363   0.211  1.00  0.00     0.031 C 
ATOM     40  C   UNL     1       6.551   4.170  -3.987  1.00  0.00     0.029 A 
ATOM     41  N   UNL     1       7.949   5.478  -2.840  1.00  0.00    -0.354 N 
ATOM     42  C   UNL     1       6.632   7.732   0.585  1.00  0.00     0.074 A 
ATOM     43  C   UNL     1       5.317   7.303   1.014  1.00  0.00     0.031 C 
ATOM     44  C   UNL     1       7.761   4.047  -4.548  1.00  0.00     0.029 A 
ATOM     45  C   UNL     1       8.687   4.943  -3.871  1.00  0.00     0.049 A 
ATOM     46  H   UNL     1       8.324   6.099  -2.175  1.00  0.00     0.167 HD
ATOM     47  C   UNL     1       7.386   8.660   1.225  1.00  0.00     0.037 A 
ATOM     48  C   UNL     1       9.951   5.179  -4.272  1.00  0.00     0.037 A 
ATOM     49  C   UNL     1       8.719   9.039   0.827  1.00  0.00     0.049 A 
ATOM     50  C   UNL     1      10.762   6.217  -3.557  1.00  0.00     0.074 A 
ATOM     51  C   UNL     1       9.563   9.966   1.415  1.00  0.00     0.029 A 
ATOM     52  N   UNL     1       9.410   8.496  -0.246  1.00  0.00    -0.354 N 
ATOM     53  N   UNL     1      10.431   6.942  -2.516  1.00  0.00    -0.248 NA
ATOM     54  C   UNL     1      12.100   6.499  -4.092  1.00  0.00     0.031 C 
ATOM     55  C   UNL     1      10.755  10.002   0.682  1.00  0.00     0.029 A 
ATOM     56  C   UNL     1      10.666   9.074  -0.342  1.00  0.00     0.049 A 
ATOM     57  H   UNL     1       9.060   7.803  -0.851  1.00  0.00     0.167 HD
ATOM     58  C   UNL     1      11.513   7.778  -2.280  1.00  0.00     0.074 A 
ATOM     59  C   UNL     1      12.522   7.448  -3.267  1.00  0.00     0.031 C 
ATOM     60  C   UNL     1      11.652   8.742  -1.338  1.00  0.00     0.037 A 
BRANCH  47  61
ATOM     61  C   UNL     1       6.775   9.368   2.402  1.00  0.00     0.058 A 
ATOM     62  C   UNL     1       6.646   8.756   3.658  1.00  0.00     0.135 A 
ATOM     63  C   UNL     1       6.353  10.703   2.278  1.00  0.00     0.135 A 
ATOM     64  F   UNL     1       7.019   7.478   3.827  1.00  0.00    -0.206 F 
ATOM     65  C   UNL     1       6.101   9.435   4.744  1.00  0.00     0.059 A 
ATOM     66  C   UNL     1       5.824  11.408   3.356  1.00  0.00     0.059 A 
ATOM     67  F   UNL     1       6.455  11.337   1.099  1.00  0.00    -0.206 F 
ATOM     68  C   UNL     1       5.689  10.760   4.582  1.00  0.00     0.060 A 
BRANCH  68  69
ATOM     69  S   UNL     1       4.979  11.630   5.997  1.00  0.00     0.124 S 
ATOM     70  O   UNL     1       3.636  11.060   6.043  1.00  0.00    -0.237 OA
ATOM     71  O   UNL     1       5.869  11.241   7.086  1.00  0.00    -0.237 OA
ATOM     72  O   UNL     1       5.053  13.034   5.603  1.00  0.00    -0.744 OA
ENDBRANCH  68  69
ENDBRANCH  47  61
BRANCH  48  73
ATOM     73  C   UNL     1      10.493   4.457  -5.453  1.00  0.00     0.058 A 
ATOM     74  C   UNL     1      11.464   3.458  -5.305  1.00  0.00     0.135 A 
ATOM     75  C   UNL     1      10.005   4.712  -6.745  1.00  0.00     0.135 A 
ATOM     76  F   UNL     1      11.970   3.189  -4.092  1.00  0.00    -0.206 F 
ATOM     77  C   UNL     1      11.926   2.727  -6.395  1.00  0.00     0.059 A 
ATOM     78  C   UNL     1      10.431   3.976  -7.845  1.00  0.00     0.059 A 
ATOM     79  F   UNL     1       9.064   5.651  -6.936  1.00  0.00    -0.206 F 
ATOM     80  C   UNL     1      11.396   2.987  -7.660  1.00  0.00     0.060 A 
BRANCH  80  81
ATOM     81  S   UNL     1      11.924   1.973  -9.058  1.00  0.00     0.124 S 
ATOM     82  O   UNL     1      13.190   2.602  -9.414  1.00  0.00    -0.237 OA
ATOM     83  O   UNL     1      12.016   0.643  -8.463  1.00  0.00    -0.237 OA
ATOM     84  O   UNL     1      10.838   2.145 -10.019  1.00  0.00    -0.744 OA
ENDBRANCH  80  81
ENDBRANCH  48  73
BRANCH  60  85
ATOM     85  C   UNL     1      12.943   9.506  -1.335  1.00  0.00     0.058 A 
ATOM     86  C   UNL     1      13.189  10.522  -2.271  1.00  0.00     0.135 A 
ATOM     87  C   UNL     1      13.929   9.240  -0.373  1.00  0.00     0.135 A 
ATOM     88  F   UNL     1      12.279  10.805  -3.216  1.00  0.00    -0.206 F 
ATOM     89  C   UNL     1      14.380  11.240  -2.263  1.00  0.00     0.059 A 
ATOM     90  C   UNL     1      15.120   9.957  -0.336  1.00  0.00     0.059 A 
ATOM     91  F   UNL     1      13.736   8.280   0.545  1.00  0.00    -0.206 F 
ATOM     92  C   UNL     1      15.341  10.948  -1.293  1.00  0.00     0.060 A 
BRANCH  92  93
ATOM     93  S   UNL     1      16.873  11.903  -1.274  1.00  0.00     0.124 S 
ATOM     94  O   UNL     1      17.615  11.287  -2.369  1.00  0.00    -0.237 OA
ATOM     95  O   UNL     1      16.401  13.263  -1.514  1.00  0.00    -0.237 OA
ATOM     96  O   UNL     1      17.406  11.659   0.063  1.00  0.00    -0.744 OA
ENDBRANCH  92  93
ENDBRANCH  60  85
ENDBRANCH  34  35
ENDBRANCH  27  29
ENDBRANCH  26  27
ENDBRANCH  25  26
ENDBRANCH   1  25
TORSDOF 17
