REMARK SMILES Cc1nc2sc3c(c2c2nc(CCC(=O)OCCOC(=O)c4ccc(-c5c6nc(c(-c7c(F)cc(S(=O)(=O)[O-])cc7F)c7ccc([nH]7)c(-c7c(F)cc(S(=O)(=O)[O-])cc7F)c7nc(c(-c8c(F)cc(S(=O)(=O)[O-])cc8F)c8ccc5[nH]8)C=C7)C=C6)cc4)nn12)[C@@H](C)CCC3
REMARK SMILES IDX 18 1 17 2 16 3 14 4 15 5 13 6 12 7 11 8 1 9 2 10 3 11 89 12
REMARK SMILES IDX 4 13 9 14 88 15 5 16 8 17 10 18 6 19 7 20 94 21 90 22 93 23
REMARK SMILES IDX 91 24 92 25 19 26 20 27 21 28 22 29 23 30 87 31 24 32 86 33
REMARK SMILES IDX 25 34 26 35 27 36 80 37 28 38 85 39 79 40 81 41 29 42 84 43
REMARK SMILES IDX 78 44 77 45 30 47 64 48 43 49 63 50 44 51 47 52 62 53 82 54
REMARK SMILES IDX 45 55 46 56 61 58 83 59 48 60 31 61 32 62 41 63 33 64 34 65
REMARK SMILES IDX 40 66 42 67 35 68 36 69 37 70 38 71 39 72 65 73 66 74 75 75
REMARK SMILES IDX 67 76 68 77 74 78 76 79 69 80 70 81 71 82 72 83 73 84 49 85
REMARK SMILES IDX 50 86 59 87 51 88 52 89 58 90 60 91 53 92 54 93 55 94 56 95
REMARK SMILES IDX 57 96
REMARK H PARENT 81 46 47 57
REMARK Flexibility Score: inf
ROOT
ATOM      1  C   UNL     1      -3.497   1.158   7.275  1.00  0.00     0.275 C 
ENDROOT
BRANCH   1   2
ATOM      2  C   UNL     1      -4.358   1.335   6.029  1.00  0.00     0.274 C 
BRANCH   2   3
ATOM      3  O   UNL     1      -3.597   1.646   4.846  1.00  0.00    -0.462 OA
BRANCH   3   4
ATOM      4  C   UNL     1      -3.409   2.964   4.574  1.00  0.00     0.306 C 
ATOM      5  O   UNL     1      -3.842   3.889   5.252  1.00  0.00    -0.252 OA
BRANCH   4   6
ATOM      6  C   UNL     1      -2.680   3.172   3.272  1.00  0.00     0.131 C 
BRANCH   6   7
ATOM      7  C   UNL     1      -1.166   3.061   3.372  1.00  0.00     0.091 C 
BRANCH   7   8
ATOM      8  C   UNL     1      -0.653   1.691   3.081  1.00  0.00     0.152 A 
ATOM      9  C   UNL     1       1.058  -0.168  -0.211  1.00  0.00     0.090 C 
ATOM     10  C   UNL     1       0.774  -0.777   1.127  1.00  0.00     0.131 A 
ATOM     11  N   UNL     1       1.061  -2.027   1.391  1.00  0.00    -0.222 NA
ATOM     12  N   UNL     1       0.202   0.083   2.072  1.00  0.00    -0.199 N 
ATOM     13  C   UNL     1       0.726  -2.464   2.651  1.00  0.00     0.129 A 
ATOM     14  C   UNL     1      -0.144  -0.333   3.328  1.00  0.00     0.168 A 
ATOM     15  N   UNL     1      -0.138   1.375   1.880  1.00  0.00    -0.150 NA
ATOM     16  S   UNL     1       1.023  -4.073   3.145  1.00  0.00    -0.120 S 
ATOM     17  C   UNL     1       0.114  -1.749   3.671  1.00  0.00     0.060 A 
ATOM     18  N   UNL     1      -0.686   0.657   3.990  1.00  0.00    -0.211 NA
ATOM     19  C   UNL     1       0.301  -3.808   4.667  1.00  0.00     0.011 A 
ATOM     20  C   UNL     1      -0.194  -2.524   4.824  1.00  0.00    -0.018 A 
ATOM     21  C   UNL     1       0.198  -4.892   5.691  1.00  0.00     0.047 C 
ATOM     22  C   UNL     1      -0.946  -2.104   6.064  1.00  0.00     0.018 C 
ATOM     23  C   UNL     1       0.057  -4.268   7.083  1.00  0.00     0.006 C 
ATOM     24  C   UNL     1      -2.362  -1.650   5.705  1.00  0.00     0.013 C 
ATOM     25  C   UNL     1      -1.082  -3.248   7.107  1.00  0.00     0.008 C 
ENDBRANCH   7   8
ENDBRANCH   6   7
ENDBRANCH   4   6
ENDBRANCH   3   4
ENDBRANCH   2   3
ENDBRANCH   1   2
BRANCH   1  26
ATOM     26  O   UNL     1      -3.028   2.391   7.810  1.00  0.00    -0.458 OA
BRANCH  26  27
ATOM     27  C   UNL     1      -1.822   2.748   7.325  1.00  0.00     0.338 C 
ATOM     28  O   UNL     1      -1.238   2.314   6.343  1.00  0.00    -0.246 OA
BRANCH  27  29
ATOM     29  C   UNL     1      -1.165   3.608   8.280  1.00  0.00     0.060 A 
ATOM     30  C   UNL     1      -0.572   4.795   7.851  1.00  0.00     0.016 A 
ATOM     31  C   UNL     1      -1.010   3.102   9.573  1.00  0.00     0.016 A 
ATOM     32  C   UNL     1       0.198   5.502   8.755  1.00  0.00     0.010 A 
ATOM     33  C   UNL     1      -0.235   3.800  10.465  1.00  0.00     0.010 A 
ATOM     34  C   UNL     1       0.371   4.989  10.047  1.00  0.00    -0.014 A 
BRANCH  34  35
ATOM     35  C   UNL     1       1.086   5.791  11.025  1.00  0.00     0.031 A 
ATOM     36  C   UNL     1       0.316   6.941  11.565  1.00  0.00     0.074 A 
ATOM     37  C   UNL     1       2.232   5.370  11.592  1.00  0.00     0.049 A 
ATOM     38  N   UNL     1       0.637   8.193  11.583  1.00  0.00    -0.248 NA
ATOM     39  C   UNL     1      -1.034   6.661  12.093  1.00  0.00     0.031 C 
ATOM     40  C   UNL     1       2.852   4.051  11.426  1.00  0.00     0.029 A 
ATOM     41  N   UNL     1       3.000   5.965  12.548  1.00  0.00    -0.354 N 
ATOM     42  C   UNL     1      -0.369   8.823  12.310  1.00  0.00     0.074 A 
ATOM     43  C   UNL     1      -1.441   7.875  12.460  1.00  0.00     0.031 C 
ATOM     44  C   UNL     1       3.757   3.866  12.409  1.00  0.00     0.029 A 
ATOM     45  C   UNL     1       3.876   5.094  13.179  1.00  0.00     0.049 A 
ATOM     46  H   UNL     1       2.939   6.922  12.769  1.00  0.00     0.167 HD
ATOM     47  C   UNL     1      -0.153   9.988  12.976  1.00  0.00     0.037 A 
ATOM     48  C   UNL     1       4.595   5.338  14.299  1.00  0.00     0.037 A 
ATOM     49  C   UNL     1       1.074  10.624  12.595  1.00  0.00     0.049 A 
ATOM     50  C   UNL     1       4.724   6.809  14.463  1.00  0.00     0.074 A 
ATOM     51  C   UNL     1       1.501  11.480  11.605  1.00  0.00     0.029 A 
ATOM     52  N   UNL     1       2.188  10.103  13.193  1.00  0.00    -0.354 N 
ATOM     53  N   UNL     1       5.339   7.588  13.615  1.00  0.00    -0.248 NA
ATOM     54  C   UNL     1       3.926   7.499  15.474  1.00  0.00     0.031 C 
ATOM     55  C   UNL     1       2.921  11.351  11.541  1.00  0.00     0.029 A 
ATOM     56  C   UNL     1       3.324  10.419  12.492  1.00  0.00     0.049 A 
ATOM     57  H   UNL     1       2.176   9.569  14.021  1.00  0.00     0.167 HD
ATOM     58  C   UNL     1       4.699   8.804  13.737  1.00  0.00     0.074 A 
ATOM     59  C   UNL     1       3.977   8.745  14.997  1.00  0.00     0.031 C 
ATOM     60  C   UNL     1       4.519   9.622  12.663  1.00  0.00     0.037 A 
BRANCH  47  61
ATOM     61  C   UNL     1      -0.833  10.327  14.275  1.00  0.00     0.058 A 
ATOM     62  C   UNL     1      -0.903  11.661  14.711  1.00  0.00     0.135 A 
ATOM     63  C   UNL     1      -1.171   9.342  15.232  1.00  0.00     0.135 A 
ATOM     64  F   UNL     1      -0.564  12.665  13.887  1.00  0.00    -0.206 F 
ATOM     65  C   UNL     1      -1.270  11.995  16.017  1.00  0.00     0.059 A 
ATOM     66  C   UNL     1      -1.591   9.653  16.519  1.00  0.00     0.059 A 
ATOM     67  F   UNL     1      -1.016   8.035  14.977  1.00  0.00    -0.206 F 
ATOM     68  C   UNL     1      -1.605  10.982  16.914  1.00  0.00     0.060 A 
BRANCH  68  69
ATOM     69  S   UNL     1      -2.014  11.402  18.619  1.00  0.00     0.124 S 
ATOM     70  O   UNL     1      -0.696  11.684  19.174  1.00  0.00    -0.237 OA
ATOM     71  O   UNL     1      -2.897  12.552  18.451  1.00  0.00    -0.237 OA
ATOM     72  O   UNL     1      -2.665  10.192  19.113  1.00  0.00    -0.744 OA
ENDBRANCH  68  69
ENDBRANCH  47  61
BRANCH  48  73
ATOM     73  C   UNL     1       4.949   4.384  15.379  1.00  0.00     0.058 A 
ATOM     74  C   UNL     1       5.904   4.732  16.349  1.00  0.00     0.135 A 
ATOM     75  C   UNL     1       4.166   3.244  15.652  1.00  0.00     0.135 A 
ATOM     76  F   UNL     1       6.686   5.808  16.172  1.00  0.00    -0.206 F 
ATOM     77  C   UNL     1       6.021   4.041  17.556  1.00  0.00     0.059 A 
ATOM     78  C   UNL     1       4.281   2.524  16.839  1.00  0.00     0.059 A 
ATOM     79  F   UNL     1       3.192   2.849  14.819  1.00  0.00    -0.206 F 
ATOM     80  C   UNL     1       5.183   2.955  17.803  1.00  0.00     0.060 A 
BRANCH  80  81
ATOM     81  S   UNL     1       5.180   2.205  19.445  1.00  0.00     0.124 S 
ATOM     82  O   UNL     1       6.505   1.599  19.503  1.00  0.00    -0.237 OA
ATOM     83  O   UNL     1       4.969   3.365  20.306  1.00  0.00    -0.237 OA
ATOM     84  O   UNL     1       4.064   1.264  19.386  1.00  0.00    -0.744 OA
ENDBRANCH  80  81
ENDBRANCH  48  73
BRANCH  60  85
ATOM     85  C   UNL     1       5.501   9.528  11.537  1.00  0.00     0.058 A 
ATOM     86  C   UNL     1       5.610   8.432  10.668  1.00  0.00     0.135 A 
ATOM     87  C   UNL     1       6.334  10.630  11.293  1.00  0.00     0.135 A 
ATOM     88  F   UNL     1       4.794   7.375  10.790  1.00  0.00    -0.206 F 
ATOM     89  C   UNL     1       6.536   8.415   9.624  1.00  0.00     0.059 A 
ATOM     90  C   UNL     1       7.246  10.648  10.242  1.00  0.00     0.059 A 
ATOM     91  F   UNL     1       6.244  11.726  12.066  1.00  0.00    -0.206 F 
ATOM     92  C   UNL     1       7.351   9.530   9.419  1.00  0.00     0.060 A 
BRANCH  92  93
ATOM     93  S   UNL     1       8.501   9.535   8.026  1.00  0.00     0.124 S 
ATOM     94  O   UNL     1       9.531   8.603   8.474  1.00  0.00    -0.237 OA
ATOM     95  O   UNL     1       7.665   9.073   6.922  1.00  0.00    -0.237 OA
ATOM     96  O   UNL     1       8.920  10.931   7.935  1.00  0.00    -0.744 OA
ENDBRANCH  92  93
ENDBRANCH  60  85
ENDBRANCH  34  35
ENDBRANCH  27  29
ENDBRANCH  26  27
ENDBRANCH   1  26
TORSDOF 16
