REMARK SMILES COc1ccc([C@@H]2C3=C(C[C@@H](c4ccccc4)CC3=O)Nc3ccccc3N2C(=O)CCC(=O)OCCOC(=O)c2ccc(-c3c4nc(c(-c5c(F)cc(S(=O)(=O)[O-])cc5F)c5ccc([nH]5)c(-c5c(F)cc(S(=O)(=O)[O-])cc5F)c5nc(c(-c6c(F)cc(S(=O)(=O)[O-])cc6F)c6ccc3[nH]6)C=C5)C=C4)cc2)cc1
REMARK SMILES IDX 33 1 34 2 32 3 31 4 29 5 30 6 28 7 7 8 6 10 3 11 4 12 108 13
REMARK SMILES IDX 5 14 107 15 2 16 1 17 27 18 22 19 26 20 23 21 25 22 24 23
REMARK SMILES IDX 21 24 9 26 8 27 10 28 19 29 11 31 18 32 20 33 12 34 13 35
REMARK SMILES IDX 17 36 14 37 16 38 15 39 35 40 36 41 37 42 38 43 39 44 40 45
REMARK SMILES IDX 41 46 42 47 106 48 43 49 105 50 44 51 45 52 46 53 99 54
REMARK SMILES IDX 47 55 104 56 98 57 100 58 48 59 103 60 97 61 96 62 49 64
REMARK SMILES IDX 83 65 62 66 82 67 63 68 66 69 81 70 101 71 64 72 65 73 80 75
REMARK SMILES IDX 102 76 67 77 50 78 51 79 60 80 52 81 53 82 59 83 61 84 54 85
REMARK SMILES IDX 55 86 56 87 57 88 58 89 84 90 85 91 94 92 86 93 87 94 93 95
REMARK SMILES IDX 95 96 88 97 89 98 90 99 91 100 92 101 68 102 69 103 78 104
REMARK SMILES IDX 70 105 71 106 77 107 79 108 72 109 73 110 74 111 75 112
REMARK SMILES IDX 76 113
REMARK H PARENT 21 25 100 63 66 74
REMARK Flexibility Score: 90.00
ROOT
ATOM      1  C   UNL     1       1.091   5.205   0.437  1.00  0.00     0.306 C 
ATOM      2  O   UNL     1       0.839   5.005   1.619  1.00  0.00    -0.252 OA
ENDROOT
BRANCH   1   3
ATOM      3  C   UNL     1       0.060   4.974  -0.668  1.00  0.00     0.132 C 
BRANCH   3   4
ATOM      4  C   UNL     1       0.032   5.913  -1.881  1.00  0.00     0.112 C 
BRANCH   4   5
ATOM      5  C   UNL     1       1.310   5.855  -2.668  1.00  0.00     0.228 C 
ATOM      6  O   UNL     1       1.462   4.864  -3.396  1.00  0.00    -0.274 OA
BRANCH   5   7
ATOM      7  N   UNL     1       2.261   6.875  -2.589  1.00  0.00    -0.298 N 
BRANCH   7   8
ATOM      8  C   UNL     1       3.494   6.628  -3.482  1.00  0.00     0.156 CG0
ATOM      9  G   UNL     1       4.225   7.811  -4.113  1.00  0.00     0.000 G0
BRANCH   8  10
ATOM     10  C   UNL     1       4.477   5.493  -3.104  1.00  0.00    -0.020 A 
ATOM     11  C   UNL     1       6.994   4.336  -2.723  1.00  0.00     0.118 A 
ATOM     12  C   UNL     1       6.264   4.766  -1.622  1.00  0.00     0.047 A 
ATOM     13  C   UNL     1       6.399   4.261  -3.977  1.00  0.00     0.047 A 
ATOM     14  C   UNL     1       5.003   5.337  -1.819  1.00  0.00     0.010 A 
ATOM     15  C   UNL     1       5.136   4.825  -4.165  1.00  0.00     0.010 A 
BRANCH  11  16
ATOM     16  O   UNL     1       8.334   4.091  -2.564  1.00  0.00    -0.497 OA
ATOM     17  C   UNL     1       9.081   5.164  -3.160  1.00  0.00     0.278 C 
ENDBRANCH  11  16
ENDBRANCH   8  10
ENDBRANCH   7   8
BRANCH   7  18
ATOM     18  C   UNL     1       2.205   8.014  -1.646  1.00  0.00     0.068 A 
ATOM     19  C   UNL     1       3.565   9.201  -1.812  1.00  0.00     0.062 A 
ATOM     20  C   UNL     1       1.231   8.042  -0.095  1.00  0.00     0.028 A 
ATOM     21  C   UNL     1       4.057  10.248  -0.434  1.00  0.00     0.028 A 
ATOM     22  C   UNL     1       1.758   9.078   1.310  1.00  0.00     0.002 A 
ATOM     23  C   UNL     1       3.165  10.181   1.126  1.00  0.00     0.002 A 
BRANCH  19  24
ATOM     24  N   UNL     1       3.630   9.801  -3.130  1.00  0.00    -0.357 N 
ATOM     25  H   UNL     1       3.664  10.781  -3.221  1.00  0.00     0.166 HD
BRANCH  24  26
ATOM     26  C   UNL     1       3.644   9.004  -4.261  1.00  0.00     0.025 C 
ATOM     27  C   UNL     1       4.225   7.811  -4.113  1.00  0.00     0.042 CG0
ATOM     28  C   UNL     1       3.972   9.688  -5.568  1.00  0.00     0.063 C 
ATOM     29  C   UNL     1       5.699   8.140  -3.934  1.00  0.00     0.163 C 
ATOM     30  G   UNL     1       3.494   6.628  -3.482  1.00  0.00     0.000 G0
ATOM     31  C   UNL     1       5.401  10.239  -5.532  1.00  0.00     0.033 C 
ATOM     32  C   UNL     1       6.319   9.360  -4.650  1.00  0.00     0.089 C 
ATOM     33  O   UNL     1       6.429   7.513  -3.169  1.00  0.00    -0.294 OA
BRANCH  31  34
ATOM     34  C   UNL     1       5.502  11.735  -5.218  1.00  0.00    -0.044 A 
ATOM     35  C   UNL     1       4.448  12.477  -4.658  1.00  0.00     0.004 A 
ATOM     36  C   UNL     1       6.674  12.433  -5.553  1.00  0.00     0.004 A 
ATOM     37  C   UNL     1       4.552  13.849  -4.429  1.00  0.00     0.000 A 
ATOM     38  C   UNL     1       6.773  13.814  -5.344  1.00  0.00     0.000 A 
ATOM     39  C   UNL     1       5.713  14.521  -4.781  1.00  0.00     0.000 A 
ENDBRANCH  31  34
ENDBRANCH  24  26
ENDBRANCH  19  24
ENDBRANCH   7  18
ENDBRANCH   5   7
ENDBRANCH   4   5
ENDBRANCH   3   4
ENDBRANCH   1   3
BRANCH   1  40
ATOM     40  O   UNL     1       2.263   5.733  -0.008  1.00  0.00    -0.462 OA
BRANCH  40  41
ATOM     41  C   UNL     1       2.971   6.639   0.892  1.00  0.00     0.274 C 
BRANCH  41  42
ATOM     42  C   UNL     1       3.446   8.113   0.179  1.00  0.00     0.275 C 
BRANCH  42  43
ATOM     43  O   UNL     1       2.223   9.590  -0.468  1.00  0.00    -0.458 OA
BRANCH  43  44
ATOM     44  C   UNL     1       1.451  10.548  -1.141  1.00  0.00     0.338 C 
ATOM     45  O   UNL     1       1.394  10.780  -2.346  1.00  0.00    -0.246 OA
BRANCH  44  46
ATOM     46  C   UNL     1       0.572  11.286  -0.226  1.00  0.00     0.060 A 
ATOM     47  C   UNL     1      -0.735  10.823  -0.049  1.00  0.00     0.016 A 
ATOM     48  C   UNL     1       1.051  12.410   0.450  1.00  0.00     0.016 A 
ATOM     49  C   UNL     1      -1.573  11.486   0.835  1.00  0.00     0.010 A 
ATOM     50  C   UNL     1       0.217  13.060   1.351  1.00  0.00     0.010 A 
ATOM     51  C   UNL     1      -1.103  12.614   1.523  1.00  0.00    -0.014 A 
BRANCH  51  52
ATOM     52  C   UNL     1      -2.059  13.442   2.279  1.00  0.00     0.031 A 
ATOM     53  C   UNL     1      -2.622  14.656   1.601  1.00  0.00     0.074 A 
ATOM     54  C   UNL     1      -2.430  13.092   3.522  1.00  0.00     0.049 A 
ATOM     55  N   UNL     1      -3.460  15.544   2.059  1.00  0.00    -0.248 NA
ATOM     56  C   UNL     1      -2.174  14.902   0.218  1.00  0.00     0.031 C 
ATOM     57  C   UNL     1      -1.948  11.919   4.251  1.00  0.00     0.029 A 
ATOM     58  N   UNL     1      -3.300  13.696   4.390  1.00  0.00    -0.354 N 
ATOM     59  C   UNL     1      -3.643  16.451   1.024  1.00  0.00     0.074 A 
ATOM     60  C   UNL     1      -2.802  16.030  -0.073  1.00  0.00     0.031 C 
ATOM     61  C   UNL     1      -2.528  11.892   5.464  1.00  0.00     0.029 A 
ATOM     62  C   UNL     1      -3.402  13.055   5.600  1.00  0.00     0.049 A 
ATOM     63  H   UNL     1      -3.804  14.512   4.168  1.00  0.00     0.167 HD
ATOM     64  C   UNL     1      -4.454  17.533   0.989  1.00  0.00     0.037 A 
ATOM     65  C   UNL     1      -4.116  13.385   6.692  1.00  0.00     0.037 A 
ATOM     66  C   UNL     1      -5.277  17.944   2.092  1.00  0.00     0.049 A 
ATOM     67  C   UNL     1      -4.986  14.613   6.642  1.00  0.00     0.074 A 
ATOM     68  C   UNL     1      -6.124  19.033   2.181  1.00  0.00     0.029 A 
ATOM     69  N   UNL     1      -5.352  17.275   3.306  1.00  0.00    -0.354 N 
ATOM     70  N   UNL     1      -5.153  15.464   5.656  1.00  0.00    -0.248 NA
ATOM     71  C   UNL     1      -5.768  14.922   7.845  1.00  0.00     0.031 C 
ATOM     72  C   UNL     1      -6.692  19.036   3.461  1.00  0.00     0.029 A 
ATOM     73  C   UNL     1      -6.225  17.930   4.155  1.00  0.00     0.049 A 
ATOM     74  H   UNL     1      -4.857  16.454   3.530  1.00  0.00     0.167 HD
ATOM     75  C   UNL     1      -6.065  16.406   6.117  1.00  0.00     0.074 A 
ATOM     76  C   UNL     1      -6.429  16.007   7.462  1.00  0.00     0.031 C 
ATOM     77  C   UNL     1      -6.556  17.506   5.492  1.00  0.00     0.037 A 
BRANCH  64  78
ATOM     78  C   UNL     1      -4.461  18.340  -0.275  1.00  0.00     0.058 A 
ATOM     79  C   UNL     1      -5.083  17.869  -1.442  1.00  0.00     0.135 A 
ATOM     80  C   UNL     1      -3.823  19.589  -0.330  1.00  0.00     0.135 A 
ATOM     81  F   UNL     1      -5.680  16.666  -1.451  1.00  0.00    -0.206 F 
ATOM     82  C   UNL     1      -5.053  18.596  -2.627  1.00  0.00     0.059 A 
ATOM     83  C   UNL     1      -3.798  20.344  -1.498  1.00  0.00     0.059 A 
ATOM     84  F   UNL     1      -3.200  20.078   0.754  1.00  0.00    -0.206 F 
ATOM     85  C   UNL     1      -4.403  19.832  -2.646  1.00  0.00     0.060 A 
BRANCH  85  86
ATOM     86  S   UNL     1      -4.361  20.763  -4.192  1.00  0.00     0.124 S 
ATOM     87  O   UNL     1      -3.350  20.028  -4.946  1.00  0.00    -0.237 OA
ATOM     88  O   UNL     1      -5.732  20.631  -4.675  1.00  0.00    -0.237 OA
ATOM     89  O   UNL     1      -3.976  22.105  -3.768  1.00  0.00    -0.744 OA
ENDBRANCH  85  86
ENDBRANCH  64  78
BRANCH  65  90
ATOM     90  C   UNL     1      -4.030  12.549   7.917  1.00  0.00     0.058 A 
ATOM     91  C   UNL     1      -5.099  11.737   8.321  1.00  0.00     0.135 A 
ATOM     92  C   UNL     1      -2.866  12.535   8.701  1.00  0.00     0.135 A 
ATOM     93  F   UNL     1      -6.236  11.722   7.608  1.00  0.00    -0.206 F 
ATOM     94  C   UNL     1      -5.023  10.946   9.463  1.00  0.00     0.059 A 
ATOM     95  C   UNL     1      -2.757  11.739   9.836  1.00  0.00     0.059 A 
ATOM     96  F   UNL     1      -1.810  13.286   8.350  1.00  0.00    -0.206 F 
ATOM     97  C   UNL     1      -3.846  10.953  10.214  1.00  0.00     0.060 A 
BRANCH  97  98
ATOM     98  S   UNL     1      -3.728   9.879  11.662  1.00  0.00     0.124 S 
ATOM     99  O   UNL     1      -4.498  10.630  12.647  1.00  0.00    -0.237 OA
ATOM    100  O   UNL     1      -4.338   8.643  11.182  1.00  0.00    -0.237 OA
ATOM    101  O   UNL     1      -2.290   9.805  11.905  1.00  0.00    -0.744 OA
ENDBRANCH  97  98
ENDBRANCH  65  90
BRANCH  77 102
ATOM    102  C   UNL     1      -7.540  18.339   6.259  1.00  0.00     0.058 A 
ATOM    103  C   UNL     1      -7.123  19.194   7.290  1.00  0.00     0.135 A 
ATOM    104  C   UNL     1      -8.905  18.309   5.935  1.00  0.00     0.135 A 
ATOM    105  F   UNL     1      -5.827  19.253   7.636  1.00  0.00    -0.206 F 
ATOM    106  C   UNL     1      -8.032  19.972   7.996  1.00  0.00     0.059 A 
ATOM    107  C   UNL     1      -9.829  19.095   6.613  1.00  0.00     0.059 A 
ATOM    108  F   UNL     1      -9.348  17.516   4.947  1.00  0.00    -0.206 F 
ATOM    109  C   UNL     1      -9.385  19.912   7.653  1.00  0.00     0.060 A 
BRANCH 109 110
ATOM    110  S   UNL     1     -10.559  20.936   8.564  1.00  0.00     0.124 S 
ATOM    111  O   UNL     1     -10.732  20.162   9.788  1.00  0.00    -0.237 OA
ATOM    112  O   UNL     1      -9.835  22.196   8.708  1.00  0.00    -0.237 OA
ATOM    113  O   UNL     1     -11.719  20.986   7.680  1.00  0.00    -0.744 OA
ENDBRANCH 109 110
ENDBRANCH  77 102
ENDBRANCH  51  52
ENDBRANCH  44  46
ENDBRANCH  43  44
ENDBRANCH  42  43
ENDBRANCH  41  42
ENDBRANCH  40  41
ENDBRANCH   1  40
TORSDOF 20
