REMARK SMILES C/C(=N\NC(N)=S)c1nnn(-c2ccc(C(=O)OCCOC(=O)c3ccc(-c4c5nc(c(-c6c(F)cc(S(=O)(=O)[O-])cc6F)c6ccc([nH]6)c(-c6c(F)cc(S(=O)(=O)[O-])cc6F)c6nc(c(-c7c(F)cc(S(=O)(=O)[O-])cc7F)c7ccc4[nH]7)C=C6)C=C5)cc3)cc2)c1C
REMARK SMILES IDX 19 1 18 2 16 3 17 4 15 5 12 6 13 7 91 8 14 9 90 10 11 11
REMARK SMILES IDX 8 12 9 13 92 14 10 15 93 16 2 17 1 18 3 19 4 20 5 22 7 23
REMARK SMILES IDX 6 24 20 27 21 28 22 29 23 30 24 31 25 32 89 33 26 34 88 35
REMARK SMILES IDX 27 36 28 37 29 38 82 39 30 40 87 41 81 42 83 43 31 44 86 45
REMARK SMILES IDX 80 46 79 47 32 49 66 50 45 51 65 52 46 53 49 54 64 55 84 56
REMARK SMILES IDX 47 57 48 58 63 60 85 61 50 62 33 63 34 64 43 65 35 66 36 67
REMARK SMILES IDX 42 68 44 69 37 70 38 71 39 72 40 73 41 74 67 75 68 76 77 77
REMARK SMILES IDX 69 78 70 79 76 80 78 81 71 82 72 83 73 84 74 85 75 86 51 87
REMARK SMILES IDX 52 88 61 89 53 90 54 91 60 92 62 93 55 94 56 95 57 96 58 97
REMARK SMILES IDX 59 98
REMARK H PARENT 4 21 6 25 6 26 83 48 49 59
REMARK Flexibility Score: inf
ROOT
ATOM      1  C   UNL     1       9.281   6.422  -3.754  1.00  0.00     0.275 C 
ENDROOT
BRANCH   1   2
ATOM      2  O   UNL     1       8.058   5.680  -3.629  1.00  0.00    -0.458 OA
BRANCH   2   3
ATOM      3  C   UNL     1       7.080   6.251  -2.869  1.00  0.00     0.338 C 
ATOM      4  O   UNL     1       7.195   7.213  -2.147  1.00  0.00    -0.246 OA
BRANCH   3   5
ATOM      5  C   UNL     1       5.794   5.532  -3.091  1.00  0.00     0.060 A 
ATOM      6  C   UNL     1       3.424   4.096  -3.155  1.00  0.00     0.067 A 
ATOM      7  C   UNL     1       3.387   5.433  -2.754  1.00  0.00     0.029 A 
ATOM      8  C   UNL     1       4.594   3.525  -3.667  1.00  0.00     0.029 A 
ATOM      9  C   UNL     1       4.590   6.145  -2.701  1.00  0.00     0.018 A 
ATOM     10  C   UNL     1       5.778   4.247  -3.642  1.00  0.00     0.018 A 
BRANCH   6  11
ATOM     11  N   UNL     1       2.352   3.241  -2.840  1.00  0.00    -0.217 N 
ATOM     12  C   UNL     1       1.127   1.662  -1.980  1.00  0.00     0.132 A 
ATOM     13  N   UNL     1       0.313   2.547  -2.638  1.00  0.00    -0.128 NA
ATOM     14  C   UNL     1       2.432   2.105  -2.047  1.00  0.00     0.071 A 
ATOM     15  N   UNL     1       1.061   3.554  -3.072  1.00  0.00    -0.061 NA
ATOM     16  C   UNL     1       3.655   1.659  -1.337  1.00  0.00     0.069 C 
BRANCH  12  17
ATOM     17  C   UNL     1       0.605   0.577  -1.169  1.00  0.00     0.087 C 
ATOM     18  C   UNL     1       0.564   0.817   0.317  1.00  0.00     0.071 C 
ATOM     19  N   UNL     1       0.203  -0.470  -1.827  1.00  0.00    -0.176 NA
BRANCH  19  20
ATOM     20  N   UNL     1      -0.383  -1.533  -1.208  1.00  0.00    -0.254 N 
ATOM     21  H   UNL     1      -1.329  -1.690  -1.433  1.00  0.00     0.193 HD
BRANCH  20  22
ATOM     22  C   UNL     1       0.172  -2.419  -0.307  1.00  0.00     0.184 C 
ATOM     23  S   UNL     1       1.675  -2.417   0.403  1.00  0.00    -0.040 S 
BRANCH  22  24
ATOM     24  N   UNL     1      -0.693  -3.431   0.014  1.00  0.00    -0.375 N 
ATOM     25  H   UNL     1      -1.590  -3.459  -0.391  1.00  0.00     0.159 HD
ATOM     26  H   UNL     1      -0.418  -4.131   0.649  1.00  0.00     0.159 HD
ENDBRANCH  22  24
ENDBRANCH  20  22
ENDBRANCH  19  20
ENDBRANCH  12  17
ENDBRANCH   6  11
ENDBRANCH   3   5
ENDBRANCH   2   3
ENDBRANCH   1   2
BRANCH   1  27
ATOM     27  C   UNL     1       9.216   7.383  -4.931  1.00  0.00     0.275 C 
BRANCH  27  28
ATOM     28  O   UNL     1       8.344   8.473  -4.646  1.00  0.00    -0.458 OA
BRANCH  28  29
ATOM     29  C   UNL     1       7.069   8.311  -5.065  1.00  0.00     0.338 C 
ATOM     30  O   UNL     1       6.545   7.278  -5.451  1.00  0.00    -0.246 OA
BRANCH  29  31
ATOM     31  C   UNL     1       6.439   9.625  -5.196  1.00  0.00     0.060 A 
ATOM     32  C   UNL     1       5.091   9.648  -5.566  1.00  0.00     0.016 A 
ATOM     33  C   UNL     1       7.253  10.764  -5.267  1.00  0.00     0.016 A 
ATOM     34  C   UNL     1       4.614  10.769  -6.205  1.00  0.00     0.010 A 
ATOM     35  C   UNL     1       6.778  11.876  -5.914  1.00  0.00     0.010 A 
ATOM     36  C   UNL     1       5.495  11.828  -6.451  1.00  0.00    -0.014 A 
BRANCH  36  37
ATOM     37  C   UNL     1       5.019  12.935  -7.249  1.00  0.00     0.031 A 
ATOM     38  C   UNL     1       4.024  13.773  -6.542  1.00  0.00     0.074 A 
ATOM     39  C   UNL     1       5.546  13.219  -8.455  1.00  0.00     0.049 A 
ATOM     40  N   UNL     1       2.777  13.940  -6.826  1.00  0.00    -0.248 NA
ATOM     41  C   UNL     1       4.431  14.352  -5.250  1.00  0.00     0.031 C 
ATOM     42  C   UNL     1       6.730  12.638  -9.095  1.00  0.00     0.029 A 
ATOM     43  N   UNL     1       5.180  14.190  -9.327  1.00  0.00    -0.354 N 
ATOM     44  C   UNL     1       2.293  14.824  -5.867  1.00  0.00     0.074 A 
ATOM     45  C   UNL     1       3.285  14.884  -4.827  1.00  0.00     0.031 C 
ATOM     46  C   UNL     1       7.114  13.432 -10.122  1.00  0.00     0.029 A 
ATOM     47  C   UNL     1       6.133  14.490 -10.290  1.00  0.00     0.049 A 
ATOM     48  H   UNL     1       4.308  14.645  -9.281  1.00  0.00     0.167 HD
ATOM     49  C   UNL     1       1.223  15.626  -6.116  1.00  0.00     0.037 A 
ATOM     50  C   UNL     1       6.136  15.592 -11.083  1.00  0.00     0.037 A 
ATOM     51  C   UNL     1       0.461  15.148  -7.239  1.00  0.00     0.049 A 
ATOM     52  C   UNL     1       4.745  16.132 -11.074  1.00  0.00     0.074 A 
ATOM     53  C   UNL     1      -0.223  13.977  -7.508  1.00  0.00     0.029 A 
ATOM     54  N   UNL     1       0.654  15.760  -8.455  1.00  0.00    -0.354 N 
ATOM     55  N   UNL     1       3.717  15.505 -11.583  1.00  0.00    -0.248 NA
ATOM     56  C   UNL     1       4.422  17.142 -10.075  1.00  0.00     0.031 C 
ATOM     57  C   UNL     1       0.026  13.714  -8.885  1.00  0.00     0.029 A 
ATOM     58  C   UNL     1       0.789  14.767  -9.393  1.00  0.00     0.049 A 
ATOM     59  H   UNL     1       0.689  16.729  -8.622  1.00  0.00     0.167 HD
ATOM     60  C   UNL     1       2.674  15.741 -10.696  1.00  0.00     0.074 A 
ATOM     61  C   UNL     1       3.152  16.812  -9.824  1.00  0.00     0.031 C 
ATOM     62  C   UNL     1       1.636  14.864 -10.563  1.00  0.00     0.037 A 
BRANCH  49  63
ATOM     63  C   UNL     1       1.084  17.025  -5.572  1.00  0.00     0.058 A 
ATOM     64  C   UNL     1      -0.135  17.711  -5.735  1.00  0.00     0.135 A 
ATOM     65  C   UNL     1       2.178  17.813  -5.149  1.00  0.00     0.135 A 
ATOM     66  F   UNL     1      -1.236  17.062  -6.145  1.00  0.00    -0.206 F 
ATOM     67  C   UNL     1      -0.241  19.091  -5.558  1.00  0.00     0.059 A 
ATOM     68  C   UNL     1       2.081  19.177  -4.910  1.00  0.00     0.059 A 
ATOM     69  F   UNL     1       3.420  17.324  -5.043  1.00  0.00    -0.206 F 
ATOM     70  C   UNL     1       0.879  19.816  -5.161  1.00  0.00     0.060 A 
BRANCH  70  71
ATOM     71  S   UNL     1       0.780  21.609  -5.044  1.00  0.00     0.124 S 
ATOM     72  O   UNL     1       0.651  21.983  -6.448  1.00  0.00    -0.237 OA
ATOM     73  O   UNL     1      -0.409  21.793  -4.219  1.00  0.00    -0.237 OA
ATOM     74  O   UNL     1       2.042  21.974  -4.406  1.00  0.00    -0.744 OA
ENDBRANCH  70  71
ENDBRANCH  49  63
BRANCH  50  75
ATOM     75  C   UNL     1       7.316  16.407 -11.485  1.00  0.00     0.058 A 
ATOM     76  C   UNL     1       7.222  17.381 -12.494  1.00  0.00     0.135 A 
ATOM     77  C   UNL     1       8.491  16.438 -10.705  1.00  0.00     0.135 A 
ATOM     78  F   UNL     1       6.128  17.444 -13.269  1.00  0.00    -0.206 F 
ATOM     79  C   UNL     1       8.212  18.353 -12.691  1.00  0.00     0.059 A 
ATOM     80  C   UNL     1       9.495  17.388 -10.889  1.00  0.00     0.059 A 
ATOM     81  F   UNL     1       8.662  15.599  -9.672  1.00  0.00    -0.206 F 
ATOM     82  C   UNL     1       9.339  18.359 -11.869  1.00  0.00     0.060 A 
BRANCH  82  83
ATOM     83  S   UNL     1      10.539  19.706 -12.005  1.00  0.00     0.124 S 
ATOM     84  O   UNL     1      11.160  19.427 -13.295  1.00  0.00    -0.237 OA
ATOM     85  O   UNL     1       9.685  20.887 -11.950  1.00  0.00    -0.237 OA
ATOM     86  O   UNL     1      11.402  19.510 -10.843  1.00  0.00    -0.744 OA
ENDBRANCH  82  83
ENDBRANCH  50  75
BRANCH  62  87
ATOM     87  C   UNL     1       1.486  13.758 -11.575  1.00  0.00     0.058 A 
ATOM     88  C   UNL     1       2.382  12.681 -11.708  1.00  0.00     0.135 A 
ATOM     89  C   UNL     1       0.276  13.675 -12.279  1.00  0.00     0.135 A 
ATOM     90  F   UNL     1       3.518  12.638 -10.998  1.00  0.00    -0.206 F 
ATOM     91  C   UNL     1       2.089  11.578 -12.514  1.00  0.00     0.059 A 
ATOM     92  C   UNL     1      -0.049  12.574 -13.065  1.00  0.00     0.059 A 
ATOM     93  F   UNL     1      -0.644  14.645 -12.146  1.00  0.00    -0.206 F 
ATOM     94  C   UNL     1       0.864  11.528 -13.181  1.00  0.00     0.060 A 
BRANCH  94  95
ATOM     95  S   UNL     1       0.429  10.048 -14.122  1.00  0.00     0.124 S 
ATOM     96  O   UNL     1       1.296  10.161 -15.290  1.00  0.00    -0.237 OA
ATOM     97  O   UNL     1       0.756   8.971 -13.191  1.00  0.00    -0.237 OA
ATOM     98  O   UNL     1      -0.998  10.218 -14.385  1.00  0.00    -0.744 OA
ENDBRANCH  94  95
ENDBRANCH  62  87
ENDBRANCH  36  37
ENDBRANCH  29  31
ENDBRANCH  28  29
ENDBRANCH  27  28
ENDBRANCH   1  27
TORSDOF 19
