REMARK SMILES CSCC[C@H](C(=O)OCCOC(=O)c1ccc(-c2c3nc(c(-c4c(F)cc(S(=O)(=O)[O-])cc4F)c4ccc([nH]4)c(-c4c(F)cc(S(=O)(=O)[O-])cc4F)c4nc(c(-c5c(F)cc(S(=O)(=O)[O-])cc5F)c5ccc2[nH]5)C=C4)C=C3)cc1)N1C(=O)/C(=C/c2ccc3ncccc3c2)SC1=S
REMARK SMILES IDX 9 1 8 2 6 3 7 4 5 5 4 6 3 7 2 8 1 9 80 10 81 11 96 12 82 13
REMARK SMILES IDX 83 14 95 15 97 16 84 17 85 18 86 19 94 20 87 21 93 22 88 23
REMARK SMILES IDX 92 24 89 25 91 26 90 27 10 28 11 29 12 30 13 31 14 32 15 33
REMARK SMILES IDX 79 34 16 35 78 36 17 37 18 38 19 39 72 40 20 41 77 42 71 43
REMARK SMILES IDX 73 44 21 45 76 46 70 47 69 48 22 50 56 51 35 52 55 53 36 54
REMARK SMILES IDX 39 55 54 56 74 57 37 58 38 59 53 61 75 62 40 63 23 64 24 65
REMARK SMILES IDX 33 66 25 67 26 68 32 69 34 70 27 71 28 72 29 73 30 74 31 75
REMARK SMILES IDX 57 76 58 77 67 78 59 79 60 80 66 81 68 82 61 83 62 84 63 85
REMARK SMILES IDX 64 86 65 87 41 88 42 89 51 90 43 91 44 92 50 93 52 94 45 95
REMARK SMILES IDX 46 96 47 97 48 98 49 99
REMARK H PARENT 73 49 39 60
REMARK Flexibility Score: inf
ROOT
ATOM      1  C   UNL     1       0.673   3.851  -2.418  1.00  0.00     0.274 C 
ENDROOT
BRANCH   1   2
ATOM      2  O   UNL     1       1.175   3.276  -1.187  1.00  0.00    -0.461 OA
BRANCH   2   3
ATOM      3  C   UNL     1       0.618   3.618   0.010  1.00  0.00     0.329 C 
ATOM      4  O   UNL     1      -0.436   4.227   0.130  1.00  0.00    -0.250 OA
BRANCH   3   5
ATOM      5  C   UNL     1       1.495   3.137   1.193  1.00  0.00     0.202 C 
BRANCH   5   6
ATOM      6  C   UNL     1       3.023   3.197   0.965  1.00  0.00     0.048 C 
BRANCH   6   7
ATOM      7  C   UNL     1       3.663   3.991  -0.194  1.00  0.00     0.072 C 
BRANCH   7   8
ATOM      8  S   UNL     1       3.714   5.821  -0.311  1.00  0.00    -0.165 SA
ATOM      9  C   UNL     1       1.982   6.353  -0.388  1.00  0.00     0.085 C 
ENDBRANCH   7   8
ENDBRANCH   6   7
ENDBRANCH   5   6
BRANCH   5  10
ATOM     10  N   UNL     1       1.014   3.658   2.526  1.00  0.00    -0.278 N 
ATOM     11  C   UNL     1       0.103   2.877   3.249  1.00  0.00     0.266 C 
ATOM     12  C   UNL     1       1.351   4.837   3.159  1.00  0.00     0.149 C 
ATOM     13  O   UNL     1      -0.243   1.736   2.972  1.00  0.00    -0.268 OA
ATOM     14  C   UNL     1      -0.357   3.592   4.481  1.00  0.00     0.081 C 
ATOM     15  S   UNL     1       0.169   5.224   4.385  1.00  0.00    -0.054 SA
ATOM     16  S   UNL     1       2.684   5.824   3.052  1.00  0.00    -0.052 S 
ATOM     17  C   UNL     1      -1.004   3.054   5.531  1.00  0.00     0.029 C 
BRANCH  17  18
ATOM     18  C   UNL     1      -1.405   3.859   6.704  1.00  0.00    -0.024 A 
ATOM     19  C   UNL     1      -0.815   3.683   7.956  1.00  0.00     0.010 A 
ATOM     20  C   UNL     1      -2.308   4.917   6.534  1.00  0.00     0.018 A 
ATOM     21  C   UNL     1      -1.082   4.595   8.993  1.00  0.00     0.029 A 
ATOM     22  C   UNL     1      -2.527   5.853   7.555  1.00  0.00     0.001 A 
ATOM     23  C   UNL     1      -1.906   5.701   8.810  1.00  0.00     0.070 A 
ATOM     24  C   UNL     1      -3.332   6.977   7.339  1.00  0.00     0.012 A 
ATOM     25  N   UNL     1      -2.074   6.598   9.803  1.00  0.00    -0.256 NA
ATOM     26  C   UNL     1      -3.502   7.906   8.355  1.00  0.00     0.021 A 
ATOM     27  C   UNL     1      -2.866   7.669   9.559  1.00  0.00     0.112 A 
ENDBRANCH  17  18
ENDBRANCH   5  10
ENDBRANCH   3   5
ENDBRANCH   2   3
ENDBRANCH   1   2
BRANCH   1  28
ATOM     28  C   UNL     1       0.368   2.780  -3.464  1.00  0.00     0.275 C 
BRANCH  28  29
ATOM     29  O   UNL     1      -0.771   2.025  -3.049  1.00  0.00    -0.458 OA
BRANCH  29  30
ATOM     30  C   UNL     1      -0.477   1.063  -2.147  1.00  0.00     0.338 C 
ATOM     31  O   UNL     1       0.634   0.653  -1.837  1.00  0.00    -0.246 OA
BRANCH  30  32
ATOM     32  C   UNL     1      -1.698   0.722  -1.415  1.00  0.00     0.060 A 
ATOM     33  C   UNL     1      -1.593   0.595  -0.028  1.00  0.00     0.016 A 
ATOM     34  C   UNL     1      -2.909   0.496  -2.075  1.00  0.00     0.016 A 
ATOM     35  C   UNL     1      -2.686   0.168   0.705  1.00  0.00     0.010 A 
ATOM     36  C   UNL     1      -4.008   0.069  -1.337  1.00  0.00     0.010 A 
ATOM     37  C   UNL     1      -3.882  -0.140   0.046  1.00  0.00    -0.014 A 
BRANCH  37  38
ATOM     38  C   UNL     1      -4.944  -0.831   0.799  1.00  0.00     0.031 A 
ATOM     39  C   UNL     1      -5.117  -2.310   0.604  1.00  0.00     0.074 A 
ATOM     40  C   UNL     1      -5.683  -0.144   1.684  1.00  0.00     0.049 A 
ATOM     41  N   UNL     1      -5.984  -3.119   1.150  1.00  0.00    -0.248 NA
ATOM     42  C   UNL     1      -4.190  -2.966  -0.336  1.00  0.00     0.031 C 
ATOM     43  C   UNL     1      -5.554   1.289   1.958  1.00  0.00     0.029 A 
ATOM     44  N   UNL     1      -6.685  -0.558   2.517  1.00  0.00    -0.354 N 
ATOM     45  C   UNL     1      -5.706  -4.376   0.627  1.00  0.00     0.074 A 
ATOM     46  C   UNL     1      -4.623  -4.217  -0.317  1.00  0.00     0.031 C 
ATOM     47  C   UNL     1      -6.453   1.636   2.893  1.00  0.00     0.029 A 
ATOM     48  C   UNL     1      -7.238   0.459   3.255  1.00  0.00     0.049 A 
ATOM     49  H   UNL     1      -6.981  -1.495   2.582  1.00  0.00     0.167 HD
ATOM     50  C   UNL     1      -6.293  -5.558   0.928  1.00  0.00     0.037 A 
ATOM     51  C   UNL     1      -8.280   0.439   4.106  1.00  0.00     0.037 A 
ATOM     52  C   UNL     1      -7.375  -5.687   1.870  1.00  0.00     0.049 A 
ATOM     53  C   UNL     1      -8.954  -0.879   4.380  1.00  0.00     0.074 A 
ATOM     54  C   UNL     1      -8.061  -6.827   2.245  1.00  0.00     0.029 A 
ATOM     55  N   UNL     1      -7.926  -4.633   2.587  1.00  0.00    -0.354 N 
ATOM     56  N   UNL     1      -8.686  -2.064   3.880  1.00  0.00    -0.248 NA
ATOM     57  C   UNL     1     -10.063  -0.867   5.340  1.00  0.00     0.031 C 
ATOM     58  C   UNL     1      -9.059  -6.454   3.154  1.00  0.00     0.029 A 
ATOM     59  C   UNL     1      -8.955  -5.092   3.391  1.00  0.00     0.049 A 
ATOM     60  H   UNL     1      -7.629  -3.696   2.531  1.00  0.00     0.167 HD
ATOM     61  C   UNL     1      -9.579  -2.943   4.481  1.00  0.00     0.074 A 
ATOM     62  C   UNL     1     -10.375  -2.154   5.402  1.00  0.00     0.031 C 
ATOM     63  C   UNL     1      -9.735  -4.278   4.292  1.00  0.00     0.037 A 
BRANCH  50  64
ATOM     64  C   UNL     1      -5.791  -6.788   0.222  1.00  0.00     0.058 A 
ATOM     65  C   UNL     1      -4.522  -7.328   0.491  1.00  0.00     0.135 A 
ATOM     66  C   UNL     1      -6.597  -7.455  -0.715  1.00  0.00     0.135 A 
ATOM     67  F   UNL     1      -3.697  -6.720   1.358  1.00  0.00    -0.206 F 
ATOM     68  C   UNL     1      -4.064  -8.472  -0.156  1.00  0.00     0.059 A 
ATOM     69  C   UNL     1      -6.171  -8.617  -1.353  1.00  0.00     0.059 A 
ATOM     70  F   UNL     1      -7.814  -6.979  -1.019  1.00  0.00    -0.206 F 
ATOM     71  C   UNL     1      -4.898  -9.112  -1.074  1.00  0.00     0.060 A 
BRANCH  71  72
ATOM     72  S   UNL     1      -4.296 -10.607  -1.889  1.00  0.00     0.124 S 
ATOM     73  O   UNL     1      -3.268 -10.065  -2.772  1.00  0.00    -0.237 OA
ATOM     74  O   UNL     1      -3.811 -11.399  -0.763  1.00  0.00    -0.237 OA
ATOM     75  O   UNL     1      -5.482 -11.133  -2.557  1.00  0.00    -0.744 OA
ENDBRANCH  71  72
ENDBRANCH  50  64
BRANCH  51  76
ATOM     76  C   UNL     1      -8.752   1.702   4.732  1.00  0.00     0.058 A 
ATOM     77  C   UNL     1      -8.634   1.928   6.110  1.00  0.00     0.135 A 
ATOM     78  C   UNL     1      -9.330   2.717   3.951  1.00  0.00     0.135 A 
ATOM     79  F   UNL     1      -8.091   0.989   6.900  1.00  0.00    -0.206 F 
ATOM     80  C   UNL     1      -9.093   3.103   6.698  1.00  0.00     0.059 A 
ATOM     81  C   UNL     1      -9.767   3.912   4.510  1.00  0.00     0.059 A 
ATOM     82  F   UNL     1      -9.451   2.560   2.624  1.00  0.00    -0.206 F 
ATOM     83  C   UNL     1      -9.657   4.091   5.888  1.00  0.00     0.060 A 
BRANCH  83  84
ATOM     84  S   UNL     1     -10.220   5.626   6.653  1.00  0.00     0.124 S 
ATOM     85  O   UNL     1     -11.411   5.179   7.366  1.00  0.00    -0.237 OA
ATOM     86  O   UNL     1      -9.077   5.992   7.482  1.00  0.00    -0.237 OA
ATOM     87  O   UNL     1     -10.460   6.503   5.510  1.00  0.00    -0.744 OA
ENDBRANCH  83  84
ENDBRANCH  51  76
BRANCH  63  88
ATOM     88  C   UNL     1     -10.788  -4.962   5.120  1.00  0.00     0.058 A 
ATOM     89  C   UNL     1     -12.158  -4.738   4.907  1.00  0.00     0.135 A 
ATOM     90  C   UNL     1     -10.421  -5.862   6.134  1.00  0.00     0.135 A 
ATOM     91  F   UNL     1     -12.562  -3.886   3.952  1.00  0.00    -0.206 F 
ATOM     92  C   UNL     1     -13.124  -5.341   5.704  1.00  0.00     0.059 A 
ATOM     93  C   UNL     1     -11.372  -6.505   6.919  1.00  0.00     0.059 A 
ATOM     94  F   UNL     1      -9.126  -6.126   6.369  1.00  0.00    -0.206 F 
ATOM     95  C   UNL     1     -12.720  -6.220   6.711  1.00  0.00     0.060 A 
BRANCH  95  96
ATOM     96  S   UNL     1     -13.984  -6.989   7.743  1.00  0.00     0.124 S 
ATOM     97  O   UNL     1     -14.400  -5.868   8.580  1.00  0.00    -0.237 OA
ATOM     98  O   UNL     1     -14.961  -7.441   6.757  1.00  0.00    -0.237 OA
ATOM     99  O   UNL     1     -13.259  -8.052   8.432  1.00  0.00    -0.744 OA
ENDBRANCH  95  96
ENDBRANCH  63  88
ENDBRANCH  37  38
ENDBRANCH  30  32
ENDBRANCH  29  30
ENDBRANCH  28  29
ENDBRANCH   1  28
TORSDOF 19
