REMARK SMILES O=C(OCCOC(=O)[C@H]1Cc2[nH]cnc2CN1C(=O)C[C@]12C[C@H]3C[C@H](C[C@H](C3)C1)C2)c1ccc(-c2c3nc(c(-c4c(F)cc(S(=O)(=O)[O-])cc4F)c4ccc([nH]4)c(-c4c(F)cc(S(=O)(=O)[O-])cc4F)c4nc(c(-c5c(F)cc(S(=O)(=O)[O-])cc5F)c5ccc2[nH]5)C=C4)C=C3)cc1
REMARK SMILES IDX 4 1 3 2 2 3 1 4 31 5 32 6 96 7 33 8 95 9 34 10 35 11 36 12
REMARK SMILES IDX 89 13 37 14 94 15 88 16 90 17 38 18 93 19 87 20 86 21 39 23
REMARK SMILES IDX 73 24 52 25 72 26 53 27 56 28 71 29 91 30 54 31 55 32 70 34
REMARK SMILES IDX 92 35 57 36 40 37 41 38 50 39 42 40 43 41 49 42 51 43 44 44
REMARK SMILES IDX 45 45 46 46 47 47 48 48 74 49 75 50 84 51 76 52 77 53 83 54
REMARK SMILES IDX 85 55 78 56 79 57 80 58 81 59 82 60 58 61 59 62 68 63 60 64
REMARK SMILES IDX 61 65 67 66 69 67 62 68 63 69 64 70 65 71 66 72 5 73 6 74
REMARK SMILES IDX 7 75 8 76 9 77 10 78 17 79 11 80 16 81 12 82 15 83 13 84
REMARK SMILES IDX 14 86 18 87 19 88 20 89 21 90 22 91 29 92 30 93 23 94 27 95
REMARK SMILES IDX 25 96 24 97 28 98 26 99
REMARK H PARENT 90 22 56 33 12 85
REMARK Flexibility Score: inf
ROOT
ATOM      1  C   UNL     1       4.809  -1.304   0.268  1.00  0.00     0.275 C 
ENDROOT
BRANCH   1   2
ATOM      2  O   UNL     1       3.492  -1.869   0.398  1.00  0.00    -0.458 OA
BRANCH   2   3
ATOM      3  C   UNL     1       2.385  -1.413   1.019  1.00  0.00     0.338 C 
ATOM      4  O   UNL     1       1.308  -1.970   0.811  1.00  0.00    -0.246 OA
BRANCH   3   5
ATOM      5  C   UNL     1       2.395  -0.272   1.975  1.00  0.00     0.060 A 
ATOM      6  C   UNL     1       3.502   0.127   2.727  1.00  0.00     0.016 A 
ATOM      7  C   UNL     1       1.147   0.340   2.211  1.00  0.00     0.016 A 
ATOM      8  C   UNL     1       3.342   0.995   3.790  1.00  0.00     0.010 A 
ATOM      9  C   UNL     1       0.976   1.193   3.285  1.00  0.00     0.010 A 
ATOM     10  C   UNL     1       2.064   1.436   4.113  1.00  0.00    -0.014 A 
BRANCH  10  11
ATOM     11  C   UNL     1       1.903   2.170   5.352  1.00  0.00     0.031 A 
ATOM     12  C   UNL     1       2.444   3.544   5.283  1.00  0.00     0.074 A 
ATOM     13  C   UNL     1       1.265   1.615   6.403  1.00  0.00     0.049 A 
ATOM     14  N   UNL     1       3.533   3.990   5.819  1.00  0.00    -0.248 NA
ATOM     15  C   UNL     1       1.841   4.472   4.312  1.00  0.00     0.031 C 
ATOM     16  C   UNL     1       0.539   0.340   6.429  1.00  0.00     0.029 A 
ATOM     17  N   UNL     1       1.034   2.115   7.649  1.00  0.00    -0.354 N 
ATOM     18  C   UNL     1       3.548   5.349   5.519  1.00  0.00     0.074 A 
ATOM     19  C   UNL     1       2.677   5.508   4.388  1.00  0.00     0.031 C 
ATOM     20  C   UNL     1      -0.243   0.290   7.530  1.00  0.00     0.029 A 
ATOM     21  C   UNL     1       0.019   1.459   8.348  1.00  0.00     0.049 A 
ATOM     22  H   UNL     1       1.540   2.872   8.023  1.00  0.00     0.167 HD
ATOM     23  C   UNL     1       3.964   6.248   6.457  1.00  0.00     0.037 A 
ATOM     24  C   UNL     1      -0.605   1.911   9.470  1.00  0.00     0.037 A 
ATOM     25  C   UNL     1       4.776   5.592   7.462  1.00  0.00     0.049 A 
ATOM     26  C   UNL     1       0.304   2.913  10.091  1.00  0.00     0.074 A 
ATOM     27  C   UNL     1       5.913   4.805   7.443  1.00  0.00     0.029 A 
ATOM     28  N   UNL     1       4.212   5.397   8.701  1.00  0.00    -0.354 N 
ATOM     29  N   UNL     1       1.464   2.605  10.607  1.00  0.00    -0.248 NA
ATOM     30  C   UNL     1       0.157   4.302   9.680  1.00  0.00     0.031 C 
ATOM     31  C   UNL     1       5.710   3.832   8.466  1.00  0.00     0.029 A 
ATOM     32  C   UNL     1       4.510   4.127   9.112  1.00  0.00     0.049 A 
ATOM     33  H   UNL     1       3.685   6.058   9.205  1.00  0.00     0.167 HD
ATOM     34  C   UNL     1       2.321   3.608  10.174  1.00  0.00     0.074 A 
ATOM     35  C   UNL     1       1.443   4.663   9.668  1.00  0.00     0.031 C 
ATOM     36  C   UNL     1       3.653   3.360   9.986  1.00  0.00     0.037 A 
BRANCH  23  37
ATOM     37  C   UNL     1       3.239   7.557   6.747  1.00  0.00     0.058 A 
ATOM     38  C   UNL     1       3.738   8.378   7.782  1.00  0.00     0.135 A 
ATOM     39  C   UNL     1       1.931   7.876   6.312  1.00  0.00     0.135 A 
ATOM     40  F   UNL     1       4.983   8.202   8.254  1.00  0.00    -0.206 F 
ATOM     41  C   UNL     1       2.951   9.327   8.433  1.00  0.00     0.059 A 
ATOM     42  C   UNL     1       1.146   8.849   6.917  1.00  0.00     0.059 A 
ATOM     43  F   UNL     1       1.305   7.224   5.330  1.00  0.00    -0.206 F 
ATOM     44  C   UNL     1       1.644   9.534   8.008  1.00  0.00     0.060 A 
BRANCH  44  45
ATOM     45  S   UNL     1       0.591  10.681   8.906  1.00  0.00     0.124 S 
ATOM     46  O   UNL     1       0.411   9.975  10.169  1.00  0.00    -0.237 OA
ATOM     47  O   UNL     1       1.427  11.876   8.951  1.00  0.00    -0.237 OA
ATOM     48  O   UNL     1      -0.593  10.781   8.059  1.00  0.00    -0.744 OA
ENDBRANCH  44  45
ENDBRANCH  23  37
BRANCH  24  49
ATOM     49  C   UNL     1      -2.058   1.824   9.802  1.00  0.00     0.058 A 
ATOM     50  C   UNL     1      -2.548   2.206  11.066  1.00  0.00     0.135 A 
ATOM     51  C   UNL     1      -3.034   1.632   8.802  1.00  0.00     0.135 A 
ATOM     52  F   UNL     1      -1.696   2.430  12.079  1.00  0.00    -0.206 F 
ATOM     53  C   UNL     1      -3.911   2.432  11.308  1.00  0.00     0.059 A 
ATOM     54  C   UNL     1      -4.395   1.839   9.021  1.00  0.00     0.059 A 
ATOM     55  F   UNL     1      -2.689   1.323   7.544  1.00  0.00    -0.206 F 
ATOM     56  C   UNL     1      -4.827   2.266  10.270  1.00  0.00     0.060 A 
BRANCH  56  57
ATOM     57  S   UNL     1      -6.561   2.721  10.515  1.00  0.00     0.124 S 
ATOM     58  O   UNL     1      -7.019   1.686  11.436  1.00  0.00    -0.237 OA
ATOM     59  O   UNL     1      -6.454   4.066  11.070  1.00  0.00    -0.237 OA
ATOM     60  O   UNL     1      -7.125   2.650   9.169  1.00  0.00    -0.744 OA
ENDBRANCH  56  57
ENDBRANCH  24  49
BRANCH  36  61
ATOM     61  C   UNL     1       4.234   2.101  10.572  1.00  0.00     0.058 A 
ATOM     62  C   UNL     1       3.867   0.794  10.203  1.00  0.00     0.135 A 
ATOM     63  C   UNL     1       5.310   2.237  11.462  1.00  0.00     0.135 A 
ATOM     64  F   UNL     1       2.928   0.580   9.270  1.00  0.00    -0.206 F 
ATOM     65  C   UNL     1       4.504  -0.326  10.743  1.00  0.00     0.059 A 
ATOM     66  C   UNL     1       5.981   1.138  11.985  1.00  0.00     0.059 A 
ATOM     67  F   UNL     1       5.755   3.459  11.798  1.00  0.00    -0.206 F 
ATOM     68  C   UNL     1       5.559  -0.143  11.637  1.00  0.00     0.060 A 
BRANCH  68  69
ATOM     69  S   UNL     1       6.412  -1.585  12.309  1.00  0.00     0.124 S 
ATOM     70  O   UNL     1       5.396  -2.163  13.183  1.00  0.00    -0.237 OA
ATOM     71  O   UNL     1       6.728  -2.353  11.108  1.00  0.00    -0.237 OA
ATOM     72  O   UNL     1       7.569  -1.011  12.992  1.00  0.00    -0.744 OA
ENDBRANCH  68  69
ENDBRANCH  36  61
ENDBRANCH  10  11
ENDBRANCH   3   5
ENDBRANCH   2   3
ENDBRANCH   1   2
BRANCH   1  73
ATOM     73  C   UNL     1       4.930  -0.109  -0.675  1.00  0.00     0.274 C 
BRANCH  73  74
ATOM     74  O   UNL     1       4.279   1.118  -0.277  1.00  0.00    -0.461 OA
BRANCH  74  75
ATOM     75  C   UNL     1       2.982   1.235  -0.675  1.00  0.00     0.329 C 
ATOM     76  O   UNL     1       2.335   0.269  -1.073  1.00  0.00    -0.250 OA
BRANCH  75  77
ATOM     77  C   UNL     1       2.396   2.643  -0.545  1.00  0.00     0.201 C 
ATOM     78  C   UNL     1       3.469   3.800  -0.568  1.00  0.00     0.093 C 
ATOM     79  N   UNL     1       1.122   2.982  -1.335  1.00  0.00    -0.322 N 
ATOM     80  C   UNL     1       2.784   5.113  -0.687  1.00  0.00     0.042 A 
ATOM     81  C   UNL     1       0.432   4.179  -0.780  1.00  0.00     0.178 C 
ATOM     82  N   UNL     1       3.333   6.358  -0.790  1.00  0.00    -0.348 N 
ATOM     83  C   UNL     1       1.423   5.298  -0.790  1.00  0.00     0.081 A 
ATOM     84  C   UNL     1       2.291   7.239  -0.925  1.00  0.00     0.197 A 
ATOM     85  H   UNL     1       4.292   6.581  -0.770  1.00  0.00     0.167 HD
ATOM     86  N   UNL     1       1.127   6.626  -0.930  1.00  0.00    -0.240 NA
BRANCH  79  87
ATOM     87  C   UNL     1       0.627   2.556  -2.570  1.00  0.00     0.224 C 
ATOM     88  O   UNL     1      -0.382   3.098  -3.051  1.00  0.00    -0.275 OA
BRANCH  87  89
ATOM     89  C   UNL     1       1.173   1.384  -3.397  1.00  0.00     0.107 C 
BRANCH  89  90
ATOM     90  C   UNL     1       2.471   1.567  -4.222  1.00  0.00    -0.020 C 
ATOM     91  C   UNL     1       3.403   2.610  -3.601  1.00  0.00     0.011 C 
ATOM     92  C   UNL     1       2.182   2.013  -5.678  1.00  0.00     0.011 C 
ATOM     93  C   UNL     1       3.226   0.212  -4.326  1.00  0.00     0.011 C 
ATOM     94  C   UNL     1       4.709   2.791  -4.359  1.00  0.00    -0.010 C 
ATOM     95  C   UNL     1       3.502   2.184  -6.466  1.00  0.00    -0.010 C 
ATOM     96  C   UNL     1       4.568   0.382  -5.061  1.00  0.00    -0.010 C 
ATOM     97  C   UNL     1       5.436   1.440  -4.359  1.00  0.00     0.007 C 
ATOM     98  C   UNL     1       4.376   3.245  -5.779  1.00  0.00     0.007 C 
ATOM     99  C   UNL     1       4.280   0.854  -6.493  1.00  0.00     0.007 C 
ENDBRANCH  89  90
ENDBRANCH  87  89
ENDBRANCH  79  87
ENDBRANCH  75  77
ENDBRANCH  74  75
ENDBRANCH  73  74
ENDBRANCH   1  73
TORSDOF 17
