REMARK SMILES CC[C@H]1CC[C@](CC(C)(C)O)(C(=O)OCCOC(=O)c2ccc(-c3c4nc(c(-c5c(F)cc(S(=O)(=O)[O-])cc5F)c5ccc([nH]5)c(-c5c(F)cc(S(=O)(=O)[O-])cc5F)c5nc(c(-c6c(F)cc(S(=O)(=O)[O-])cc6F)c6ccc3[nH]6)C=C5)C=C4)cc2)C1
REMARK SMILES IDX 15 1 14 2 12 3 13 4 6 5 3 6 4 7 86 8 5 9 2 10 1 11 7 12 8 13
REMARK SMILES IDX 9 14 10 15 11 16 16 18 17 19 18 20 19 21 20 22 21 23 85 24
REMARK SMILES IDX 22 25 84 26 23 27 24 28 25 29 78 30 26 31 83 32 77 33 79 34
REMARK SMILES IDX 27 35 82 36 76 37 75 38 28 40 62 41 41 42 61 43 42 44 45 45
REMARK SMILES IDX 60 46 80 47 43 48 44 49 59 51 81 52 46 53 29 54 30 55 39 56
REMARK SMILES IDX 31 57 32 58 38 59 40 60 33 61 34 62 35 63 36 64 37 65 63 66
REMARK SMILES IDX 64 67 73 68 65 69 66 70 72 71 74 72 67 73 68 74 69 75 70 76
REMARK SMILES IDX 71 77 47 78 48 79 57 80 49 81 50 82 56 83 58 84 51 85 52 86
REMARK SMILES IDX 53 87 54 88 55 89
REMARK H PARENT 11 17 79 39 45 50
REMARK Flexibility Score: inf
ROOT
ATOM      1  C   UNL     1       6.181   1.898   3.329  1.00  0.00     0.274 C 
ENDROOT
BRANCH   1   2
ATOM      2  O   UNL     1       4.868   1.306   3.305  1.00  0.00    -0.462 OA
BRANCH   2   3
ATOM      3  C   UNL     1       3.817   2.138   3.580  1.00  0.00     0.312 C 
ATOM      4  O   UNL     1       3.931   3.343   3.763  1.00  0.00    -0.252 OA
BRANCH   3   5
ATOM      5  C   UNL     1       2.520   1.333   3.824  1.00  0.00     0.071 C 
ATOM      6  C   UNL     1       0.915   0.484   2.103  1.00  0.00    -0.010 C 
ATOM      7  C   UNL     1       0.650   1.962   2.349  1.00  0.00     0.005 C 
ATOM      8  C   UNL     1       2.330   0.294   2.689  1.00  0.00     0.022 C 
ATOM      9  C   UNL     1       1.284   2.264   3.700  1.00  0.00     0.019 C 
BRANCH   6  10
ATOM     10  C   UNL     1      -0.103  -0.528   2.658  1.00  0.00     0.000 C 
ATOM     11  C   UNL     1      -1.505  -0.009   2.932  1.00  0.00     0.004 C 
ENDBRANCH   6  10
BRANCH   5  12
ATOM     12  C   UNL     1       2.730   0.839   5.291  1.00  0.00     0.053 C 
BRANCH  12  13
ATOM     13  C   UNL     1       1.831  -0.207   5.984  1.00  0.00     0.060 C 
ATOM     14  C   UNL     1       2.196  -1.646   5.606  1.00  0.00     0.042 C 
ATOM     15  C   UNL     1       2.000  -0.063   7.507  1.00  0.00     0.042 C 
BRANCH  13  16
ATOM     16  O   UNL     1       0.464   0.039   5.701  1.00  0.00    -0.390 OA
ATOM     17  H   UNL     1       0.312  -0.041   4.746  1.00  0.00     0.211 HD
ENDBRANCH  13  16
ENDBRANCH  12  13
ENDBRANCH   5  12
ENDBRANCH   3   5
ENDBRANCH   2   3
ENDBRANCH   1   2
BRANCH   1  18
ATOM     18  C   UNL     1       6.710   2.169   1.924  1.00  0.00     0.275 C 
BRANCH  18  19
ATOM     19  O   UNL     1       5.981   3.239   1.304  1.00  0.00    -0.458 OA
BRANCH  19  20
ATOM     20  C   UNL     1       5.003   2.851   0.456  1.00  0.00     0.338 C 
ATOM     21  O   UNL     1       4.712   1.718   0.118  1.00  0.00    -0.246 OA
BRANCH  20  22
ATOM     22  C   UNL     1       4.271   4.041   0.014  1.00  0.00     0.060 A 
ATOM     23  C   UNL     1       3.134   4.433   0.721  1.00  0.00     0.016 A 
ATOM     24  C   UNL     1       4.660   4.712  -1.143  1.00  0.00     0.016 A 
ATOM     25  C   UNL     1       2.344   5.476   0.250  1.00  0.00     0.010 A 
ATOM     26  C   UNL     1       3.891   5.786  -1.592  1.00  0.00     0.010 A 
ATOM     27  C   UNL     1       2.716   6.160  -0.911  1.00  0.00    -0.014 A 
BRANCH  27  28
ATOM     28  C   UNL     1       1.865   7.238  -1.465  1.00  0.00     0.031 A 
ATOM     29  C   UNL     1       1.168   7.017  -2.775  1.00  0.00     0.074 A 
ATOM     30  C   UNL     1       1.754   8.413  -0.819  1.00  0.00     0.049 A 
ATOM     31  N   UNL     1       0.593   7.885  -3.563  1.00  0.00    -0.248 NA
ATOM     32  C   UNL     1       1.127   5.631  -3.270  1.00  0.00     0.031 C 
ATOM     33  C   UNL     1       2.331   8.718   0.491  1.00  0.00     0.029 A 
ATOM     34  N   UNL     1       1.135   9.578  -1.192  1.00  0.00    -0.354 N 
ATOM     35  C   UNL     1       0.164   7.163  -4.670  1.00  0.00     0.074 A 
ATOM     36  C   UNL     1       0.541   5.783  -4.449  1.00  0.00     0.031 C 
ATOM     37  C   UNL     1       2.052   9.994   0.806  1.00  0.00     0.029 A 
ATOM     38  C   UNL     1       1.336  10.611  -0.307  1.00  0.00     0.049 A 
ATOM     39  H   UNL     1       0.598   9.667  -2.013  1.00  0.00     0.167 HD
ATOM     40  C   UNL     1      -0.476   7.620  -5.771  1.00  0.00     0.037 A 
ATOM     41  C   UNL     1       1.026  11.917  -0.408  1.00  0.00     0.037 A 
ATOM     42  C   UNL     1      -0.868   8.993  -5.957  1.00  0.00     0.049 A 
ATOM     43  C   UNL     1       0.347  12.411  -1.655  1.00  0.00     0.074 A 
ATOM     44  C   UNL     1      -1.513   9.567  -7.037  1.00  0.00     0.029 A 
ATOM     45  N   UNL     1      -0.659  10.004  -5.030  1.00  0.00    -0.354 N 
ATOM     46  N   UNL     1      -0.004  11.735  -2.724  1.00  0.00    -0.248 NA
ATOM     47  C   UNL     1       0.033  13.845  -1.721  1.00  0.00     0.031 C 
ATOM     48  C   UNL     1      -1.673  10.932  -6.774  1.00  0.00     0.029 A 
ATOM     49  C   UNL     1      -1.161  11.199  -5.513  1.00  0.00     0.049 A 
ATOM     50  H   UNL     1      -0.219   9.888  -4.157  1.00  0.00     0.167 HD
ATOM     51  C   UNL     1      -0.603  12.654  -3.577  1.00  0.00     0.074 A 
ATOM     52  C   UNL     1      -0.567  13.935  -2.901  1.00  0.00     0.031 C 
ATOM     53  C   UNL     1      -1.135  12.456  -4.808  1.00  0.00     0.037 A 
BRANCH  40  54
ATOM     54  C   UNL     1      -0.755   6.637  -6.872  1.00  0.00     0.058 A 
ATOM     55  C   UNL     1      -1.760   5.664  -6.762  1.00  0.00     0.135 A 
ATOM     56  C   UNL     1      -0.017   6.684  -8.066  1.00  0.00     0.135 A 
ATOM     57  F   UNL     1      -2.481   5.562  -5.634  1.00  0.00    -0.206 F 
ATOM     58  C   UNL     1      -2.008   4.756  -7.787  1.00  0.00     0.059 A 
ATOM     59  C   UNL     1      -0.262   5.801  -9.113  1.00  0.00     0.059 A 
ATOM     60  F   UNL     1       0.958   7.593  -8.222  1.00  0.00    -0.206 F 
ATOM     61  C   UNL     1      -1.251   4.830  -8.958  1.00  0.00     0.060 A 
BRANCH  61  62
ATOM     62  S   UNL     1      -1.579   3.647 -10.282  1.00  0.00     0.124 S 
ATOM     63  O   UNL     1      -0.945   2.441  -9.757  1.00  0.00    -0.237 OA
ATOM     64  O   UNL     1      -3.038   3.625 -10.330  1.00  0.00    -0.237 OA
ATOM     65  O   UNL     1      -0.927   4.245 -11.442  1.00  0.00    -0.744 OA
ENDBRANCH  61  62
ENDBRANCH  40  54
BRANCH  41  66
ATOM     66  C   UNL     1       1.389  12.850   0.691  1.00  0.00     0.058 A 
ATOM     67  C   UNL     1       0.406  13.398   1.526  1.00  0.00     0.135 A 
ATOM     68  C   UNL     1       2.728  13.188   0.946  1.00  0.00     0.135 A 
ATOM     69  F   UNL     1      -0.888  13.111   1.316  1.00  0.00    -0.206 F 
ATOM     70  C   UNL     1       0.734  14.255   2.572  1.00  0.00     0.059 A 
ATOM     71  C   UNL     1       3.083  14.024   1.999  1.00  0.00     0.059 A 
ATOM     72  F   UNL     1       3.707  12.680   0.182  1.00  0.00    -0.206 F 
ATOM     73  C   UNL     1       2.077  14.560   2.803  1.00  0.00     0.060 A 
BRANCH  73  74
ATOM     74  S   UNL     1       2.500  15.626   4.198  1.00  0.00     0.124 S 
ATOM     75  O   UNL     1       2.147  16.942   3.679  1.00  0.00    -0.237 OA
ATOM     76  O   UNL     1       1.641  15.106   5.257  1.00  0.00    -0.237 OA
ATOM     77  O   UNL     1       3.927  15.382   4.384  1.00  0.00    -0.744 OA
ENDBRANCH  73  74
ENDBRANCH  41  66
BRANCH  53  78
ATOM     78  C   UNL     1      -1.772  13.635  -5.483  1.00  0.00     0.058 A 
ATOM     79  C   UNL     1      -1.007  14.627  -6.112  1.00  0.00     0.135 A 
ATOM     80  C   UNL     1      -3.171  13.725  -5.569  1.00  0.00     0.135 A 
ATOM     81  F   UNL     1       0.334  14.587  -6.050  1.00  0.00    -0.206 F 
ATOM     82  C   UNL     1      -1.607  15.674  -6.803  1.00  0.00     0.059 A 
ATOM     83  C   UNL     1      -3.792  14.753  -6.270  1.00  0.00     0.059 A 
ATOM     84  F   UNL     1      -3.945  12.794  -4.989  1.00  0.00    -0.206 F 
ATOM     85  C   UNL     1      -3.001  15.726  -6.880  1.00  0.00     0.060 A 
BRANCH  85  86
ATOM     86  S   UNL     1      -3.769  17.054  -7.831  1.00  0.00     0.124 S 
ATOM     87  O   UNL     1      -3.640  18.183  -6.916  1.00  0.00    -0.237 OA
ATOM     88  O   UNL     1      -2.934  17.109  -9.027  1.00  0.00    -0.237 OA
ATOM     89  O   UNL     1      -5.130  16.572  -8.047  1.00  0.00    -0.744 OA
ENDBRANCH  85  86
ENDBRANCH  53  78
ENDBRANCH  27  28
ENDBRANCH  20  22
ENDBRANCH  19  20
ENDBRANCH  18  19
ENDBRANCH   1  18
TORSDOF 18
