REMARK SMILES COc1cccc([C@H]2CC(c3ccc(S(C)(=O)=O)cc3)=NN2c2ccc(C(=O)OCCOC(=O)c3ccc(-c4c5nc(c(-c6c(F)cc(S(=O)(=O)[O-])cc6F)c6ccc([nH]6)c(-c6c(F)cc(S(=O)(=O)[O-])cc6F)c6nc(c(-c7c(F)cc(S(=O)(=O)[O-])cc7F)c7ccc4[nH]7)C=C6)C=C5)cc3)cc2)c1
REMARK SMILES IDX 30 1 29 2 27 3 28 4 26 5 23 6 24 7 102 8 25 9 101 10 22 11
REMARK SMILES IDX 8 12 9 13 10 14 21 15 7 16 3 17 4 18 103 19 5 20 6 21 2 22
REMARK SMILES IDX 1 23 11 24 12 25 20 26 13 27 19 28 14 29 15 30 16 31 17 32
REMARK SMILES IDX 18 33 31 34 32 35 33 36 34 37 35 38 36 39 100 40 37 41 99 42
REMARK SMILES IDX 38 43 39 44 40 45 93 46 41 47 98 48 92 49 94 50 42 51 97 52
REMARK SMILES IDX 91 53 90 54 43 56 77 57 56 58 76 59 57 60 60 61 75 62 95 63
REMARK SMILES IDX 58 64 59 65 74 67 96 68 61 69 44 70 45 71 54 72 46 73 47 74
REMARK SMILES IDX 53 75 55 76 48 77 49 78 50 79 51 80 52 81 78 82 79 83 88 84
REMARK SMILES IDX 80 85 81 86 87 87 89 88 82 89 83 90 84 91 85 92 86 93 62 94
REMARK SMILES IDX 63 95 72 96 64 97 65 98 71 99 73 100 66 101 67 102 68 103
REMARK SMILES IDX 69 104 70 105
REMARK H PARENT 94 55 60 66
REMARK Flexibility Score: inf
ROOT
ATOM      1  C   UNL     1       5.018   3.436   9.535  1.00  0.00     0.275 C 
ENDROOT
BRANCH   1   2
ATOM      2  O   UNL     1       5.165   2.332   8.618  1.00  0.00    -0.458 OA
BRANCH   2   3
ATOM      3  C   UNL     1       4.386   2.401   7.510  1.00  0.00     0.338 C 
ATOM      4  O   UNL     1       3.578   3.276   7.240  1.00  0.00    -0.246 OA
BRANCH   3   5
ATOM      5  C   UNL     1       4.677   1.280   6.593  1.00  0.00     0.060 A 
ATOM      6  C   UNL     1       4.999  -0.810   4.735  1.00  0.00     0.060 A 
ATOM      7  C   UNL     1       5.067   0.524   4.329  1.00  0.00     0.029 A 
ATOM      8  C   UNL     1       4.807  -1.080   6.099  1.00  0.00     0.029 A 
ATOM      9  C   UNL     1       4.864   1.557   5.238  1.00  0.00     0.018 A 
ATOM     10  C   UNL     1       4.671  -0.043   7.034  1.00  0.00     0.018 A 
BRANCH   6  11
ATOM     11  N   UNL     1       5.078  -1.819   3.786  1.00  0.00    -0.257 N 
ATOM     12  C   UNL     1       4.040  -2.828   3.577  1.00  0.00     0.144 C 
ATOM     13  C   UNL     1       4.486  -3.508   2.275  1.00  0.00     0.091 C 
ATOM     14  C   UNL     1       5.704  -2.691   1.950  1.00  0.00     0.071 C 
ATOM     15  N   UNL     1       6.002  -1.753   2.791  1.00  0.00    -0.176 NA
BRANCH  12  16
ATOM     16  C   UNL     1       2.636  -2.240   3.500  1.00  0.00    -0.019 A 
ATOM     17  C   UNL     1       0.928  -0.885   2.402  1.00  0.00     0.119 A 
ATOM     18  C   UNL     1       0.043  -1.169   3.442  1.00  0.00     0.046 A 
ATOM     19  C   UNL     1       2.227  -1.399   2.444  1.00  0.00     0.052 A 
ATOM     20  C   UNL     1       0.435  -1.979   4.505  1.00  0.00     0.004 A 
ATOM     21  C   UNL     1       1.722  -2.514   4.532  1.00  0.00     0.006 A 
BRANCH  17  22
ATOM     22  O   UNL     1       0.411  -0.081   1.425  1.00  0.00    -0.497 OA
ATOM     23  C   UNL     1       1.110  -0.040   0.188  1.00  0.00     0.278 C 
ENDBRANCH  17  22
ENDBRANCH  12  16
BRANCH  14  24
ATOM     24  C   UNL     1       6.545  -3.020   0.793  1.00  0.00    -0.002 A 
ATOM     25  C   UNL     1       7.912  -3.224   1.011  1.00  0.00     0.011 A 
ATOM     26  C   UNL     1       5.991  -3.182  -0.479  1.00  0.00     0.011 A 
ATOM     27  C   UNL     1       8.728  -3.638  -0.041  1.00  0.00     0.021 A 
ATOM     28  C   UNL     1       6.812  -3.570  -1.542  1.00  0.00     0.021 A 
ATOM     29  C   UNL     1       8.173  -3.808  -1.313  1.00  0.00     0.067 A 
BRANCH  29  30
ATOM     30  S   UNL     1       9.207  -4.412  -2.628  1.00  0.00     0.175 S 
ATOM     31  C   UNL     1      10.425  -3.143  -2.854  1.00  0.00     0.163 C 
ATOM     32  O   UNL     1       9.866  -5.600  -2.119  1.00  0.00    -0.224 OA
ATOM     33  O   UNL     1       8.396  -4.476  -3.829  1.00  0.00    -0.224 OA
ENDBRANCH  29  30
ENDBRANCH  14  24
ENDBRANCH   6  11
ENDBRANCH   3   5
ENDBRANCH   2   3
ENDBRANCH   1   2
BRANCH   1  34
ATOM     34  C   UNL     1       6.111   4.484   9.325  1.00  0.00     0.275 C 
BRANCH  34  35
ATOM     35  O   UNL     1       5.973   5.084   8.025  1.00  0.00    -0.458 OA
BRANCH  35  36
ATOM     36  C   UNL     1       7.084   5.082   7.253  1.00  0.00     0.338 C 
ATOM     37  O   UNL     1       8.195   4.686   7.564  1.00  0.00    -0.246 OA
BRANCH  36  38
ATOM     38  C   UNL     1       6.779   5.641   5.922  1.00  0.00     0.060 A 
ATOM     39  C   UNL     1       5.719   5.132   5.179  1.00  0.00     0.016 A 
ATOM     40  C   UNL     1       7.632   6.584   5.352  1.00  0.00     0.016 A 
ATOM     41  C   UNL     1       5.590   5.452   3.827  1.00  0.00     0.010 A 
ATOM     42  C   UNL     1       7.417   7.007   4.034  1.00  0.00     0.010 A 
ATOM     43  C   UNL     1       6.424   6.411   3.235  1.00  0.00    -0.014 A 
BRANCH  43  44
ATOM     44  C   UNL     1       6.283   6.772   1.790  1.00  0.00     0.031 A 
ATOM     45  C   UNL     1       7.477   6.701   0.866  1.00  0.00     0.074 A 
ATOM     46  C   UNL     1       5.093   7.167   1.288  1.00  0.00     0.049 A 
ATOM     47  N   UNL     1       7.618   7.177  -0.346  1.00  0.00    -0.248 NA
ATOM     48  C   UNL     1       8.678   6.024   1.381  1.00  0.00     0.031 C 
ATOM     49  C   UNL     1       3.837   7.250   2.038  1.00  0.00     0.029 A 
ATOM     50  N   UNL     1       4.742   7.572   0.022  1.00  0.00    -0.354 N 
ATOM     51  C   UNL     1       8.938   6.922  -0.708  1.00  0.00     0.074 A 
ATOM     52  C   UNL     1       9.556   6.245   0.412  1.00  0.00     0.031 C 
ATOM     53  C   UNL     1       2.851   7.631   1.214  1.00  0.00     0.029 A 
ATOM     54  C   UNL     1       3.416   7.922  -0.098  1.00  0.00     0.049 A 
ATOM     55  H   UNL     1       5.378   7.609  -0.728  1.00  0.00     0.167 HD
ATOM     56  C   UNL     1       9.575   7.226  -1.865  1.00  0.00     0.037 A 
ATOM     57  C   UNL     1       2.733   8.466  -1.124  1.00  0.00     0.037 A 
ATOM     58  C   UNL     1       8.937   7.833  -3.006  1.00  0.00     0.049 A 
ATOM     59  C   UNL     1       3.460   8.806  -2.393  1.00  0.00     0.074 A 
ATOM     60  C   UNL     1       9.493   8.158  -4.232  1.00  0.00     0.029 A 
ATOM     61  N   UNL     1       7.598   8.188  -3.070  1.00  0.00    -0.354 N 
ATOM     62  N   UNL     1       4.724   8.623  -2.692  1.00  0.00    -0.248 NA
ATOM     63  C   UNL     1       2.676   9.453  -3.455  1.00  0.00     0.031 C 
ATOM     64  C   UNL     1       8.496   8.734  -5.028  1.00  0.00     0.029 A 
ATOM     65  C   UNL     1       7.311   8.735  -4.310  1.00  0.00     0.049 A 
ATOM     66  H   UNL     1       6.947   8.068  -2.341  1.00  0.00     0.167 HD
ATOM     67  C   UNL     1       4.887   9.131  -3.975  1.00  0.00     0.074 A 
ATOM     68  C   UNL     1       3.588   9.607  -4.405  1.00  0.00     0.031 C 
ATOM     69  C   UNL     1       6.014   9.205  -4.724  1.00  0.00     0.037 A 
BRANCH  56  70
ATOM     70  C   UNL     1      11.049   6.936  -1.951  1.00  0.00     0.058 A 
ATOM     71  C   UNL     1      11.546   5.631  -2.094  1.00  0.00     0.135 A 
ATOM     72  C   UNL     1      11.977   7.991  -1.930  1.00  0.00     0.135 A 
ATOM     73  F   UNL     1      10.706   4.585  -2.107  1.00  0.00    -0.206 F 
ATOM     74  C   UNL     1      12.913   5.381  -2.185  1.00  0.00     0.059 A 
ATOM     75  C   UNL     1      13.346   7.765  -2.045  1.00  0.00     0.059 A 
ATOM     76  F   UNL     1      11.556   9.258  -1.800  1.00  0.00    -0.206 F 
ATOM     77  C   UNL     1      13.806   6.454  -2.156  1.00  0.00     0.060 A 
BRANCH  77  78
ATOM     78  S   UNL     1      15.575   6.114  -2.279  1.00  0.00     0.124 S 
ATOM     79  O   UNL     1      15.868   5.616  -0.939  1.00  0.00    -0.237 OA
ATOM     80  O   UNL     1      15.631   5.122  -3.348  1.00  0.00    -0.237 OA
ATOM     81  O   UNL     1      16.149   7.416  -2.605  1.00  0.00    -0.744 OA
ENDBRANCH  77  78
ENDBRANCH  56  70
BRANCH  57  82
ATOM     82  C   UNL     1       1.286   8.773  -0.967  1.00  0.00     0.058 A 
ATOM     83  C   UNL     1       0.312   8.033  -1.652  1.00  0.00     0.135 A 
ATOM     84  C   UNL     1       0.849   9.790  -0.104  1.00  0.00     0.135 A 
ATOM     85  F   UNL     1       0.681   7.060  -2.499  1.00  0.00    -0.206 F 
ATOM     86  C   UNL     1      -1.046   8.290  -1.488  1.00  0.00     0.059 A 
ATOM     87  C   UNL     1      -0.503  10.048   0.098  1.00  0.00     0.059 A 
ATOM     88  F   UNL     1       1.742  10.520   0.582  1.00  0.00    -0.206 F 
ATOM     89  C   UNL     1      -1.443   9.296  -0.606  1.00  0.00     0.060 A 
BRANCH  89  90
ATOM     90  S   UNL     1      -3.208   9.580  -0.344  1.00  0.00     0.124 S 
ATOM     91  O   UNL     1      -3.564  10.332  -1.541  1.00  0.00    -0.237 OA
ATOM     92  O   UNL     1      -3.733   8.221  -0.264  1.00  0.00    -0.237 OA
ATOM     93  O   UNL     1      -3.242  10.330   0.908  1.00  0.00    -0.744 OA
ENDBRANCH  89  90
ENDBRANCH  57  82
BRANCH  69  94
ATOM     94  C   UNL     1       5.886   9.805  -6.095  1.00  0.00     0.058 A 
ATOM     95  C   UNL     1       5.761  11.191  -6.279  1.00  0.00     0.135 A 
ATOM     96  C   UNL     1       5.925   8.990  -7.236  1.00  0.00     0.135 A 
ATOM     97  F   UNL     1       5.710  12.011  -5.217  1.00  0.00    -0.206 F 
ATOM     98  C   UNL     1       5.658  11.747  -7.549  1.00  0.00     0.059 A 
ATOM     99  C   UNL     1       5.844   9.526  -8.517  1.00  0.00     0.059 A 
ATOM    100  F   UNL     1       6.050   7.659  -7.113  1.00  0.00    -0.206 F 
ATOM    101  C   UNL     1       5.699  10.906  -8.663  1.00  0.00     0.060 A 
BRANCH 101 102
ATOM    102  S   UNL     1       5.593  11.639 -10.309  1.00  0.00     0.124 S 
ATOM    103  O   UNL     1       4.168  11.937 -10.406  1.00  0.00    -0.237 OA
ATOM    104  O   UNL     1       6.476  12.796 -10.197  1.00  0.00    -0.237 OA
ATOM    105  O   UNL     1       6.074  10.575 -11.185  1.00  0.00    -0.744 OA
ENDBRANCH 101 102
ENDBRANCH  69  94
ENDBRANCH  43  44
ENDBRANCH  36  38
ENDBRANCH  35  36
ENDBRANCH  34  35
ENDBRANCH   1  34
TORSDOF 19
