REMARK SMILES CC1(C)CCN(C(=O)CC(C)(C)C(=O)OCCOC(=O)c2ccc(-c3c4nc(c(-c5c(F)cc(S(=O)(=O)[O-])cc5F)c5ccc([nH]5)c(-c5c(F)cc(S(=O)(=O)[O-])cc5F)c5nc(c(-c6c(F)cc(S(=O)(=O)[O-])cc6F)c6ccc3[nH]6)C=C5)C=C4)cc2)C1
REMARK SMILES IDX 16 1 15 2 13 3 14 4 10 5 11 6 12 7 9 8 7 9 8 10 6 11 1 12
REMARK SMILES IDX 2 13 3 14 4 15 87 16 5 17 17 18 18 19 19 20 20 21 21 22
REMARK SMILES IDX 22 23 86 24 23 25 85 26 24 27 25 28 26 29 79 30 27 31 84 32
REMARK SMILES IDX 78 33 80 34 28 35 83 36 77 37 76 38 29 40 63 41 42 42 62 43
REMARK SMILES IDX 43 44 46 45 61 46 81 47 44 48 45 49 60 51 82 52 47 53 30 54
REMARK SMILES IDX 31 55 40 56 32 57 33 58 39 59 41 60 34 61 35 62 36 63 37 64
REMARK SMILES IDX 38 65 64 66 65 67 74 68 66 69 67 70 73 71 75 72 68 73 69 74
REMARK SMILES IDX 70 75 71 76 72 77 48 78 49 79 58 80 50 81 51 82 57 83 59 84
REMARK SMILES IDX 52 85 53 86 54 87 55 88 56 89
REMARK H PARENT 80 39 46 50
REMARK Flexibility Score: inf
ROOT
ATOM      1  C   UNL     1       1.634   2.861  -4.995  1.00  0.00     0.274 C 
ENDROOT
BRANCH   1   2
ATOM      2  O   UNL     1       1.393   3.514  -3.732  1.00  0.00    -0.462 OA
BRANCH   2   3
ATOM      3  C   UNL     1       1.241   2.710  -2.642  1.00  0.00     0.312 C 
ATOM      4  O   UNL     1       1.258   1.489  -2.695  1.00  0.00    -0.252 OA
BRANCH   3   5
ATOM      5  C   UNL     1       0.835   3.519  -1.395  1.00  0.00     0.071 C 
ATOM      6  C   UNL     1      -0.705   3.486  -1.400  1.00  0.00     0.024 C 
ATOM      7  C   UNL     1       1.256   5.003  -1.495  1.00  0.00     0.024 C 
BRANCH   5   8
ATOM      8  C   UNL     1       1.402   2.964  -0.053  1.00  0.00     0.118 C 
BRANCH   8   9
ATOM      9  C   UNL     1       1.844   1.510  -0.003  1.00  0.00     0.223 C 
ATOM     10  O   UNL     1       3.002   1.214  -0.300  1.00  0.00    -0.275 OA
BRANCH   9  11
ATOM     11  N   UNL     1       0.934   0.561   0.385  1.00  0.00    -0.342 N 
ATOM     12  C   UNL     1      -1.449  -0.459  -1.169  1.00  0.00     0.013 C 
ATOM     13  C   UNL     1      -1.134  -0.533   0.336  1.00  0.00    -0.016 C 
ATOM     14  C   UNL     1      -2.423  -0.791   1.110  1.00  0.00     0.013 C 
ATOM     15  C   UNL     1      -0.043  -1.584   0.617  1.00  0.00     0.030 C 
ATOM     16  C   UNL     1      -0.435   0.742   0.819  1.00  0.00     0.126 C 
ATOM     17  C   UNL     1       1.262  -0.855   0.290  1.00  0.00     0.120 C 
ENDBRANCH   9  11
ENDBRANCH   8   9
ENDBRANCH   5   8
ENDBRANCH   3   5
ENDBRANCH   2   3
ENDBRANCH   1   2
BRANCH   1  18
ATOM     18  C   UNL     1       2.913   3.403  -5.626  1.00  0.00     0.275 C 
BRANCH  18  19
ATOM     19  O   UNL     1       4.041   3.081  -4.794  1.00  0.00    -0.458 OA
BRANCH  19  20
ATOM     20  C   UNL     1       4.497   4.095  -4.024  1.00  0.00     0.338 C 
ATOM     21  O   UNL     1       4.144   5.265  -4.047  1.00  0.00    -0.246 OA
BRANCH  20  22
ATOM     22  C   UNL     1       5.403   3.548  -3.008  1.00  0.00     0.060 A 
ATOM     23  C   UNL     1       4.875   3.301  -1.744  1.00  0.00     0.016 A 
ATOM     24  C   UNL     1       6.759   3.352  -3.259  1.00  0.00     0.016 A 
ATOM     25  C   UNL     1       5.695   2.872  -0.708  1.00  0.00     0.010 A 
ATOM     26  C   UNL     1       7.585   2.904  -2.219  1.00  0.00     0.010 A 
ATOM     27  C   UNL     1       7.059   2.674  -0.933  1.00  0.00    -0.014 A 
BRANCH  27  28
ATOM     28  C   UNL     1       7.940   2.314   0.204  1.00  0.00     0.031 A 
ATOM     29  C   UNL     1       8.846   3.358   0.789  1.00  0.00     0.074 A 
ATOM     30  C   UNL     1       7.887   1.085   0.750  1.00  0.00     0.049 A 
ATOM     31  N   UNL     1       9.773   3.235   1.704  1.00  0.00    -0.248 NA
ATOM     32  C   UNL     1       8.678   4.730   0.281  1.00  0.00     0.031 C 
ATOM     33  C   UNL     1       6.972   0.016   0.347  1.00  0.00     0.029 A 
ATOM     34  N   UNL     1       8.622   0.529   1.768  1.00  0.00    -0.354 N 
ATOM     35  C   UNL     1      10.314   4.504   1.866  1.00  0.00     0.074 A 
ATOM     36  C   UNL     1       9.618   5.382   0.950  1.00  0.00     0.031 C 
ATOM     37  C   UNL     1       7.206  -1.068   1.105  1.00  0.00     0.029 A 
ATOM     38  C   UNL     1       8.317  -0.789   2.011  1.00  0.00     0.049 A 
ATOM     39  H   UNL     1       9.303   1.028   2.276  1.00  0.00     0.167 HD
ATOM     40  C   UNL     1      11.303   4.898   2.703  1.00  0.00     0.037 A 
ATOM     41  C   UNL     1       8.891  -1.677   2.846  1.00  0.00     0.037 A 
ATOM     42  C   UNL     1      11.984   4.021   3.620  1.00  0.00     0.049 A 
ATOM     43  C   UNL     1      10.054  -1.240   3.698  1.00  0.00     0.074 A 
ATOM     44  C   UNL     1      13.024   4.316   4.483  1.00  0.00     0.029 A 
ATOM     45  N   UNL     1      11.687   2.678   3.795  1.00  0.00    -0.354 N 
ATOM     46  N   UNL     1      10.604  -0.053   3.799  1.00  0.00    -0.248 NA
ATOM     47  C   UNL     1      10.684  -2.267   4.540  1.00  0.00     0.031 C 
ATOM     48  C   UNL     1      13.379   3.142   5.157  1.00  0.00     0.029 A 
ATOM     49  C   UNL     1      12.533   2.126   4.743  1.00  0.00     0.049 A 
ATOM     50  H   UNL     1      10.980   2.188   3.317  1.00  0.00     0.167 HD
ATOM     51  C   UNL     1      11.629  -0.185   4.729  1.00  0.00     0.074 A 
ATOM     52  C   UNL     1      11.618  -1.565   5.170  1.00  0.00     0.031 C 
ATOM     53  C   UNL     1      12.503   0.751   5.176  1.00  0.00     0.037 A 
BRANCH  40  54
ATOM     54  C   UNL     1      11.735   6.334   2.626  1.00  0.00     0.058 A 
ATOM     55  C   UNL     1      10.957   7.372   3.161  1.00  0.00     0.135 A 
ATOM     56  C   UNL     1      12.950   6.673   2.009  1.00  0.00     0.135 A 
ATOM     57  F   UNL     1       9.777   7.103   3.742  1.00  0.00    -0.206 F 
ATOM     58  C   UNL     1      11.356   8.701   3.062  1.00  0.00     0.059 A 
ATOM     59  C   UNL     1      13.378   7.994   1.919  1.00  0.00     0.059 A 
ATOM     60  F   UNL     1      13.729   5.718   1.478  1.00  0.00    -0.206 F 
ATOM     61  C   UNL     1      12.566   9.003   2.434  1.00  0.00     0.060 A 
BRANCH  61  62
ATOM     62  S   UNL     1      13.066  10.732   2.299  1.00  0.00     0.124 S 
ATOM     63  O   UNL     1      12.186  11.207   1.236  1.00  0.00    -0.237 OA
ATOM     64  O   UNL     1      12.781  11.248   3.634  1.00  0.00    -0.237 OA
ATOM     65  O   UNL     1      14.482  10.650   1.952  1.00  0.00    -0.744 OA
ENDBRANCH  61  62
ENDBRANCH  40  54
BRANCH  41  66
ATOM     66  C   UNL     1       8.405  -3.082   2.891  1.00  0.00     0.058 A 
ATOM     67  C   UNL     1       7.745  -3.587   4.020  1.00  0.00     0.135 A 
ATOM     68  C   UNL     1       8.605  -3.953   1.807  1.00  0.00     0.135 A 
ATOM     69  F   UNL     1       7.544  -2.799   5.087  1.00  0.00    -0.206 F 
ATOM     70  C   UNL     1       7.311  -4.908   4.081  1.00  0.00     0.059 A 
ATOM     71  C   UNL     1       8.159  -5.270   1.835  1.00  0.00     0.059 A 
ATOM     72  F   UNL     1       9.230  -3.519   0.701  1.00  0.00    -0.206 F 
ATOM     73  C   UNL     1       7.523  -5.742   2.982  1.00  0.00     0.060 A 
BRANCH  73  74
ATOM     74  S   UNL     1       6.924  -7.445   3.053  1.00  0.00     0.124 S 
ATOM     75  O   UNL     1       7.915  -8.069   3.921  1.00  0.00    -0.237 OA
ATOM     76  O   UNL     1       5.590  -7.280   3.622  1.00  0.00    -0.237 OA
ATOM     77  O   UNL     1       6.951  -7.868   1.656  1.00  0.00    -0.744 OA
ENDBRANCH  73  74
ENDBRANCH  41  66
BRANCH  53  78
ATOM     78  C   UNL     1      13.498   0.325   6.219  1.00  0.00     0.058 A 
ATOM     79  C   UNL     1      14.613  -0.463   5.894  1.00  0.00     0.135 A 
ATOM     80  C   UNL     1      13.361   0.752   7.549  1.00  0.00     0.135 A 
ATOM     81  F   UNL     1      14.786  -0.903   4.637  1.00  0.00    -0.206 F 
ATOM     82  C   UNL     1      15.549  -0.830   6.856  1.00  0.00     0.059 A 
ATOM     83  C   UNL     1      14.297   0.417   8.523  1.00  0.00     0.059 A 
ATOM     84  F   UNL     1      12.318   1.516   7.910  1.00  0.00    -0.206 F 
ATOM     85  C   UNL     1      15.382  -0.384   8.169  1.00  0.00     0.060 A 
BRANCH  85  86
ATOM     86  S   UNL     1      16.620  -0.834   9.404  1.00  0.00     0.124 S 
ATOM     87  O   UNL     1      16.267  -2.223   9.681  1.00  0.00    -0.237 OA
ATOM     88  O   UNL     1      17.873  -0.631   8.683  1.00  0.00    -0.237 OA
ATOM     89  O   UNL     1      16.372   0.107  10.492  1.00  0.00    -0.744 OA
ENDBRANCH  85  86
ENDBRANCH  53  78
ENDBRANCH  27  28
ENDBRANCH  20  22
ENDBRANCH  19  20
ENDBRANCH  18  19
ENDBRANCH   1  18
TORSDOF 17
