REMARK SMILES C[C@@H](C(=O)OCCOC(=O)c1ccc(-c2c3nc(c(-c4c(F)cc(S(=O)(=O)[O-])cc4F)c4ccc([nH]4)c(-c4c(F)cc(S(=O)(=O)[O-])cc4F)c4nc(c(-c5c(F)cc(S(=O)(=O)[O-])cc5F)c5ccc2[nH]5)C=C4)C=C3)cc1)c1ccc(-c2cccc(OC(=O)NCCCc3ccccc3)c2)c(F)c1
REMARK SMILES IDX 3 1 4 2 2 3 1 4 77 5 78 6 102 7 79 8 100 9 80 10 101 11
REMARK SMILES IDX 81 12 82 13 99 14 83 15 85 16 84 17 86 18 87 19 88 20 89 21
REMARK SMILES IDX 90 23 91 24 92 25 93 26 94 27 98 28 95 29 97 30 96 31 5 32
REMARK SMILES IDX 6 33 7 34 8 35 9 36 10 37 11 38 12 39 76 40 13 41 75 42
REMARK SMILES IDX 14 43 15 44 16 45 69 46 17 47 74 48 68 49 70 50 18 51 73 52
REMARK SMILES IDX 67 53 66 54 19 56 53 57 32 58 52 59 33 60 36 61 51 62 71 63
REMARK SMILES IDX 34 64 35 65 50 67 72 68 37 69 20 70 21 71 30 72 22 73 23 74
REMARK SMILES IDX 29 75 31 76 24 77 25 78 26 79 27 80 28 81 54 82 55 83 64 84
REMARK SMILES IDX 56 85 57 86 63 87 65 88 58 89 59 90 60 91 61 92 62 93 38 94
REMARK SMILES IDX 39 95 48 96 40 97 41 98 47 99 49 100 42 101 43 102 44 103
REMARK SMILES IDX 45 104 46 105
REMARK H PARENT 89 22 70 55 36 66
REMARK Flexibility Score: inf
ROOT
ATOM      1  C   UNL     1       1.200   0.553   2.258  1.00  0.00     0.313 C 
ATOM      2  O   UNL     1       0.688   0.665   3.366  1.00  0.00    -0.252 OA
ENDROOT
BRANCH   1   3
ATOM      3  C   UNL     1       0.852  -0.573   1.260  1.00  0.00     0.126 C 
ATOM      4  C   UNL     1       1.405  -0.330  -0.147  1.00  0.00     0.025 C 
BRANCH   3   5
ATOM      5  C   UNL     1      -0.652  -0.795   1.161  1.00  0.00    -0.031 A 
ATOM      6  C   UNL     1      -1.474   0.297   0.897  1.00  0.00     0.005 A 
ATOM      7  C   UNL     1      -1.258  -2.053   1.295  1.00  0.00     0.044 A 
ATOM      8  C   UNL     1      -2.857   0.162   0.873  1.00  0.00     0.012 A 
ATOM      9  C   UNL     1      -2.661  -2.178   1.267  1.00  0.00     0.131 A 
ATOM     10  C   UNL     1      -3.492  -1.065   1.097  1.00  0.00     0.018 A 
ATOM     11  F   UNL     1      -3.189  -3.405   1.404  1.00  0.00    -0.206 F 
BRANCH  10  12
ATOM     12  C   UNL     1      -4.962  -1.051   1.228  1.00  0.00    -0.012 A 
ATOM     13  C   UNL     1      -5.748  -0.317   0.314  1.00  0.00     0.009 A 
ATOM     14  C   UNL     1      -5.594  -1.569   2.370  1.00  0.00     0.056 A 
ATOM     15  C   UNL     1      -7.090  -0.032   0.569  1.00  0.00     0.004 A 
ATOM     16  C   UNL     1      -6.935  -1.269   2.627  1.00  0.00     0.133 A 
ATOM     17  C   UNL     1      -7.683  -0.498   1.736  1.00  0.00     0.047 A 
BRANCH  16  18
ATOM     18  O   UNL     1      -7.639  -1.743   3.759  1.00  0.00    -0.410 OA
BRANCH  18  19
ATOM     19  C   UNL     1      -7.038  -2.074   4.966  1.00  0.00     0.412 C 
ATOM     20  O   UNL     1      -5.848  -1.920   5.249  1.00  0.00    -0.224 OA
ATOM     21  N   UNL     1      -7.898  -2.630   5.871  1.00  0.00    -0.321 N 
ATOM     22  H   UNL     1      -7.498  -3.074   6.654  1.00  0.00     0.167 HD
BRANCH  21  23
ATOM     23  C   UNL     1      -9.341  -2.626   5.782  1.00  0.00     0.120 C 
BRANCH  23  24
ATOM     24  C   UNL     1     -10.011  -3.972   6.051  1.00  0.00     0.026 C 
BRANCH  24  25
ATOM     25  C   UNL     1      -9.597  -4.713   7.328  1.00  0.00     0.037 C 
BRANCH  25  26
ATOM     26  C   UNL     1      -9.898  -4.130   8.690  1.00  0.00    -0.048 A 
ATOM     27  C   UNL     1     -10.540  -2.908   8.907  1.00  0.00     0.004 A 
ATOM     28  C   UNL     1      -9.473  -4.855   9.818  1.00  0.00     0.004 A 
ATOM     29  C   UNL     1     -10.656  -2.378  10.196  1.00  0.00     0.000 A 
ATOM     30  C   UNL     1      -9.618  -4.342  11.109  1.00  0.00     0.000 A 
ATOM     31  C   UNL     1     -10.184  -3.087  11.294  1.00  0.00     0.000 A 
ENDBRANCH  25  26
ENDBRANCH  24  25
ENDBRANCH  23  24
ENDBRANCH  21  23
ENDBRANCH  18  19
ENDBRANCH  16  18
ENDBRANCH  10  12
ENDBRANCH   3   5
ENDBRANCH   1   3
BRANCH   1  32
ATOM     32  O   UNL     1       2.174   1.386   1.788  1.00  0.00    -0.462 OA
BRANCH  32  33
ATOM     33  C   UNL     1       2.627   2.444   2.663  1.00  0.00     0.274 C 
BRANCH  33  34
ATOM     34  C   UNL     1       2.325   3.813   2.055  1.00  0.00     0.275 C 
BRANCH  34  35
ATOM     35  O   UNL     1       0.926   4.107   2.217  1.00  0.00    -0.458 OA
BRANCH  35  36
ATOM     36  C   UNL     1       0.214   4.294   1.082  1.00  0.00     0.338 C 
ATOM     37  O   UNL     1       0.638   4.308  -0.061  1.00  0.00    -0.246 OA
BRANCH  36  38
ATOM     38  C   UNL     1      -1.223   4.387   1.407  1.00  0.00     0.060 A 
ATOM     39  C   UNL     1      -1.782   3.394   2.196  1.00  0.00     0.016 A 
ATOM     40  C   UNL     1      -2.052   5.312   0.766  1.00  0.00     0.016 A 
ATOM     41  C   UNL     1      -3.163   3.221   2.186  1.00  0.00     0.010 A 
ATOM     42  C   UNL     1      -3.452   5.205   0.880  1.00  0.00     0.010 A 
ATOM     43  C   UNL     1      -4.039   4.106   1.531  1.00  0.00    -0.014 A 
BRANCH  43  44
ATOM     44  C   UNL     1      -5.520   3.814   1.483  1.00  0.00     0.031 A 
ATOM     45  C   UNL     1      -6.299   3.855   0.179  1.00  0.00     0.074 A 
ATOM     46  C   UNL     1      -6.182   3.383   2.581  1.00  0.00     0.049 A 
ATOM     47  N   UNL     1      -7.594   3.776  -0.018  1.00  0.00    -0.248 NA
ATOM     48  C   UNL     1      -5.525   3.981  -1.066  1.00  0.00     0.031 C 
ATOM     49  C   UNL     1      -5.579   3.143   3.892  1.00  0.00     0.029 A 
ATOM     50  N   UNL     1      -7.499   3.018   2.764  1.00  0.00    -0.354 N 
ATOM     51  C   UNL     1      -7.793   3.916  -1.390  1.00  0.00     0.074 A 
ATOM     52  C   UNL     1      -6.481   4.061  -1.983  1.00  0.00     0.031 C 
ATOM     53  C   UNL     1      -6.474   2.553   4.690  1.00  0.00     0.029 A 
ATOM     54  C   UNL     1      -7.777   2.606   4.048  1.00  0.00     0.049 A 
ATOM     55  H   UNL     1      -8.173   3.048   2.047  1.00  0.00     0.167 HD
ATOM     56  C   UNL     1      -8.956   3.930  -2.089  1.00  0.00     0.037 A 
ATOM     57  C   UNL     1      -8.942   2.391   4.694  1.00  0.00     0.037 A 
ATOM     58  C   UNL     1     -10.261   3.711  -1.513  1.00  0.00     0.049 A 
ATOM     59  C   UNL     1     -10.228   2.501   3.923  1.00  0.00     0.074 A 
ATOM     60  C   UNL     1     -11.497   3.763  -2.137  1.00  0.00     0.029 A 
ATOM     61  N   UNL     1     -10.502   3.378  -0.189  1.00  0.00    -0.354 N 
ATOM     62  N   UNL     1     -10.401   2.691   2.637  1.00  0.00    -0.248 NA
ATOM     63  C   UNL     1     -11.480   2.370   4.681  1.00  0.00     0.031 C 
ATOM     64  C   UNL     1     -12.486   3.510  -1.181  1.00  0.00     0.029 A 
ATOM     65  C   UNL     1     -11.866   3.247   0.028  1.00  0.00     0.049 A 
ATOM     66  H   UNL     1      -9.807   3.254   0.497  1.00  0.00     0.167 HD
ATOM     67  C   UNL     1     -11.777   2.685   2.434  1.00  0.00     0.074 A 
ATOM     68  C   UNL     1     -12.387   2.409   3.716  1.00  0.00     0.031 C 
ATOM     69  C   UNL     1     -12.471   2.919   1.294  1.00  0.00     0.037 A 
BRANCH  56  70
ATOM     70  C   UNL     1      -8.893   4.276  -3.556  1.00  0.00     0.058 A 
ATOM     71  C   UNL     1      -8.428   3.380  -4.530  1.00  0.00     0.135 A 
ATOM     72  C   UNL     1      -9.360   5.529  -3.993  1.00  0.00     0.135 A 
ATOM     73  F   UNL     1      -7.960   2.175  -4.170  1.00  0.00    -0.206 F 
ATOM     74  C   UNL     1      -8.402   3.724  -5.880  1.00  0.00     0.059 A 
ATOM     75  C   UNL     1      -9.369   5.883  -5.338  1.00  0.00     0.059 A 
ATOM     76  F   UNL     1      -9.824   6.423  -3.105  1.00  0.00    -0.206 F 
ATOM     77  C   UNL     1      -8.871   4.980  -6.274  1.00  0.00     0.060 A 
BRANCH  77  78
ATOM     78  S   UNL     1      -8.817   5.421  -8.025  1.00  0.00     0.124 S 
ATOM     79  O   UNL     1      -7.383   5.587  -8.238  1.00  0.00    -0.237 OA
ATOM     80  O   UNL     1      -9.421   4.253  -8.659  1.00  0.00    -0.237 OA
ATOM     81  O   UNL     1      -9.606   6.647  -8.094  1.00  0.00    -0.744 OA
ENDBRANCH  77  78
ENDBRANCH  56  70
BRANCH  57  82
ATOM     82  C   UNL     1      -8.927   2.139   6.170  1.00  0.00     0.058 A 
ATOM     83  C   UNL     1      -9.532   1.009   6.726  1.00  0.00     0.135 A 
ATOM     84  C   UNL     1      -8.294   3.024   7.065  1.00  0.00     0.135 A 
ATOM     85  F   UNL     1     -10.211   0.162   5.939  1.00  0.00    -0.206 F 
ATOM     86  C   UNL     1      -9.498   0.756   8.094  1.00  0.00     0.059 A 
ATOM     87  C   UNL     1      -8.186   2.758   8.426  1.00  0.00     0.059 A 
ATOM     88  F   UNL     1      -7.730   4.156   6.614  1.00  0.00    -0.206 F 
ATOM     89  C   UNL     1      -8.798   1.620   8.934  1.00  0.00     0.060 A 
BRANCH  89  90
ATOM     90  S   UNL     1      -8.750   1.267  10.702  1.00  0.00     0.124 S 
ATOM     91  O   UNL     1     -10.165   1.092  11.012  1.00  0.00    -0.237 OA
ATOM     92  O   UNL     1      -7.933   0.060  10.743  1.00  0.00    -0.237 OA
ATOM     93  O   UNL     1      -8.131   2.462  11.268  1.00  0.00    -0.744 OA
ENDBRANCH  89  90
ENDBRANCH  57  82
BRANCH  69  94
ATOM     94  C   UNL     1     -13.973   2.840   1.367  1.00  0.00     0.058 A 
ATOM     95  C   UNL     1     -14.729   3.798   2.063  1.00  0.00     0.135 A 
ATOM     96  C   UNL     1     -14.669   1.816   0.704  1.00  0.00     0.135 A 
ATOM     97  F   UNL     1     -14.116   4.793   2.723  1.00  0.00    -0.206 F 
ATOM     98  C   UNL     1     -16.117   3.726   2.125  1.00  0.00     0.059 A 
ATOM     99  C   UNL     1     -16.059   1.744   0.724  1.00  0.00     0.059 A 
ATOM    100  F   UNL     1     -13.999   0.877   0.017  1.00  0.00    -0.206 F 
ATOM    101  C   UNL     1     -16.773   2.697   1.449  1.00  0.00     0.060 A 
BRANCH 101 102
ATOM    102  S   UNL     1     -18.577   2.640   1.508  1.00  0.00     0.124 S 
ATOM    103  O   UNL     1     -18.812   2.195   2.878  1.00  0.00    -0.237 OA
ATOM    104  O   UNL     1     -18.942   4.023   1.219  1.00  0.00    -0.237 OA
ATOM    105  O   UNL     1     -18.921   1.676   0.467  1.00  0.00    -0.744 OA
ENDBRANCH 101 102
ENDBRANCH  69  94
ENDBRANCH  43  44
ENDBRANCH  36  38
ENDBRANCH  35  36
ENDBRANCH  34  35
ENDBRANCH  33  34
ENDBRANCH  32  33
ENDBRANCH   1  32
TORSDOF 22
