REMARK SMILES Cc1ccc(NC(=O)C[C@@H]2C[NH2+]CCO2)c(C(=O)OCCOC(=O)c2ccc(-c3c4nc(c(-c5c(F)cc(S(=O)(=O)[O-])cc5F)c5ccc([nH]5)c(-c5c(F)cc(S(=O)(=O)[O-])cc5F)c5nc(c(-c6c(F)cc(S(=O)(=O)[O-])cc6F)c6ccc3[nH]6)C=C5)C=C4)cc2)c1
REMARK SMILES IDX 20 1 19 2 17 3 18 4 16 5 1 6 2 7 3 8 91 9 4 10 5 11 6 12
REMARK SMILES IDX 7 13 8 15 9 16 10 17 11 18 15 19 12 20 14 21 13 22 21 25
REMARK SMILES IDX 22 26 23 27 24 28 25 29 26 30 90 31 27 32 89 33 28 34 29 35
REMARK SMILES IDX 30 36 83 37 31 38 88 39 82 40 84 41 32 42 87 43 81 44 80 45
REMARK SMILES IDX 33 47 67 48 46 49 66 50 47 51 50 52 65 53 85 54 48 55 49 56
REMARK SMILES IDX 64 58 86 59 51 60 34 61 35 62 44 63 36 64 37 65 43 66 45 67
REMARK SMILES IDX 38 68 39 69 40 70 41 71 42 72 68 73 69 74 78 75 70 76 71 77
REMARK SMILES IDX 77 78 79 79 72 80 73 81 74 82 75 83 76 84 52 85 53 86 62 87
REMARK SMILES IDX 54 88 55 89 61 90 63 91 56 92 57 93 58 94 59 95 60 96
REMARK H PARENT 6 14 12 23 12 24 84 46 50 57
REMARK Flexibility Score: inf
ROOT
ATOM      1  C   UNL     1      -0.685   3.989  -1.958  1.00  0.00     0.275 C 
ENDROOT
BRANCH   1   2
ATOM      2  O   UNL     1      -0.787   2.537  -1.900  1.00  0.00    -0.458 OA
BRANCH   2   3
ATOM      3  C   UNL     1      -0.520   2.045  -0.657  1.00  0.00     0.340 C 
ATOM      4  O   UNL     1      -0.346   2.747   0.329  1.00  0.00    -0.246 OA
BRANCH   3   5
ATOM      5  C   UNL     1      -0.028   0.659  -0.569  1.00  0.00     0.083 A 
ATOM      6  C   UNL     1       3.622  -0.441  -0.228  1.00  0.00     0.044 C 
ATOM      7  C   UNL     1       2.127  -0.453  -0.183  1.00  0.00    -0.050 A 
ATOM      8  C   UNL     1       1.453  -1.518   0.399  1.00  0.00     0.005 A 
ATOM      9  C   UNL     1       1.383   0.623  -0.673  1.00  0.00     0.021 A 
ATOM     10  C   UNL     1       0.062  -1.499   0.489  1.00  0.00     0.027 A 
ATOM     11  C   UNL     1      -0.717  -0.448  -0.027  1.00  0.00     0.055 A 
BRANCH  11  12
ATOM     12  N   UNL     1      -2.126  -0.557   0.080  1.00  0.00    -0.325 N 
ATOM     13  C   UNL     1      -2.901  -1.689   0.201  1.00  0.00     0.227 C 
ATOM     14  H   UNL     1      -2.619   0.294   0.067  1.00  0.00     0.169 HD
ATOM     15  O   UNL     1      -3.930  -1.652   0.882  1.00  0.00    -0.275 OA
BRANCH  13  16
ATOM     16  C   UNL     1      -2.500  -3.046  -0.360  1.00  0.00     0.138 C 
BRANCH  16  17
ATOM     17  C   UNL     1      -2.011  -3.165  -1.810  1.00  0.00     0.182 C 
ATOM     18  C   UNL     1      -1.174  -4.474  -1.922  1.00  0.00     0.293 C 
ATOM     19  O   UNL     1      -1.242  -2.028  -2.196  1.00  0.00    -0.366 OA
ATOM     20  N   UNL     1      -0.431  -4.625  -3.189  1.00  0.00    -0.342 N 
ATOM     21  C   UNL     1      -0.577  -2.175  -3.443  1.00  0.00     0.222 C 
ATOM     22  C   UNL     1       0.349  -3.389  -3.396  1.00  0.00     0.289 C 
ATOM     23  H   UNL     1      -1.084  -4.757  -3.962  1.00  0.00     0.346 HD
ATOM     24  H   UNL     1       0.185  -5.437  -3.151  1.00  0.00     0.346 HD
ENDBRANCH  16  17
ENDBRANCH  13  16
ENDBRANCH  11  12
ENDBRANCH   3   5
ENDBRANCH   2   3
ENDBRANCH   1   2
BRANCH   1  25
ATOM     25  C   UNL     1      -1.566   4.644  -3.040  1.00  0.00     0.275 C 
BRANCH  25  26
ATOM     26  O   UNL     1      -2.881   4.994  -2.575  1.00  0.00    -0.458 OA
BRANCH  26  27
ATOM     27  C   UNL     1      -3.615   3.929  -2.158  1.00  0.00     0.338 C 
ATOM     28  O   UNL     1      -3.839   2.943  -2.849  1.00  0.00    -0.246 OA
BRANCH  27  29
ATOM     29  C   UNL     1      -3.678   4.037  -0.677  1.00  0.00     0.060 A 
ATOM     30  C   UNL     1      -3.510   2.869   0.066  1.00  0.00     0.016 A 
ATOM     31  C   UNL     1      -3.549   5.282  -0.063  1.00  0.00     0.016 A 
ATOM     32  C   UNL     1      -3.077   2.924   1.395  1.00  0.00     0.010 A 
ATOM     33  C   UNL     1      -3.095   5.343   1.242  1.00  0.00     0.010 A 
ATOM     34  C   UNL     1      -2.821   4.168   1.968  1.00  0.00    -0.014 A 
BRANCH  34  35
ATOM     35  C   UNL     1      -2.485   4.381   3.376  1.00  0.00     0.031 A 
ATOM     36  C   UNL     1      -1.124   4.262   3.966  1.00  0.00     0.074 A 
ATOM     37  C   UNL     1      -3.532   4.821   4.105  1.00  0.00     0.049 A 
ATOM     38  N   UNL     1      -0.855   4.481   5.212  1.00  0.00    -0.248 NA
ATOM     39  C   UNL     1       0.057   3.823   3.236  1.00  0.00     0.031 C 
ATOM     40  C   UNL     1      -3.543   5.464   5.406  1.00  0.00     0.029 A 
ATOM     41  N   UNL     1      -4.878   4.514   3.862  1.00  0.00    -0.354 N 
ATOM     42  C   UNL     1       0.514   4.431   5.395  1.00  0.00     0.074 A 
ATOM     43  C   UNL     1       1.030   3.951   4.146  1.00  0.00     0.031 C 
ATOM     44  C   UNL     1      -4.735   5.227   5.979  1.00  0.00     0.029 A 
ATOM     45  C   UNL     1      -5.427   4.272   5.122  1.00  0.00     0.049 A 
ATOM     46  H   UNL     1      -5.337   4.477   2.992  1.00  0.00     0.167 HD
ATOM     47  C   UNL     1       1.037   4.896   6.567  1.00  0.00     0.037 A 
ATOM     48  C   UNL     1      -5.861   3.039   5.517  1.00  0.00     0.037 A 
ATOM     49  C   UNL     1      -0.021   4.949   7.572  1.00  0.00     0.049 A 
ATOM     50  C   UNL     1      -5.179   2.611   6.792  1.00  0.00     0.074 A 
ATOM     51  C   UNL     1      -0.852   5.963   8.011  1.00  0.00     0.029 A 
ATOM     52  N   UNL     1      -0.575   3.752   8.021  1.00  0.00    -0.354 N 
ATOM     53  N   UNL     1      -3.953   2.929   7.117  1.00  0.00    -0.248 NA
ATOM     54  C   UNL     1      -5.873   1.867   7.835  1.00  0.00     0.031 C 
ATOM     55  C   UNL     1      -1.988   5.355   8.607  1.00  0.00     0.029 A 
ATOM     56  C   UNL     1      -1.813   3.979   8.585  1.00  0.00     0.049 A 
ATOM     57  H   UNL     1      -0.144   2.870   7.946  1.00  0.00     0.167 HD
ATOM     58  C   UNL     1      -3.730   2.551   8.417  1.00  0.00     0.074 A 
ATOM     59  C   UNL     1      -4.947   1.857   8.808  1.00  0.00     0.031 C 
ATOM     60  C   UNL     1      -2.607   2.886   9.120  1.00  0.00     0.037 A 
BRANCH  47  61
ATOM     61  C   UNL     1       2.411   5.537   6.751  1.00  0.00     0.058 A 
ATOM     62  C   UNL     1       2.660   6.356   7.882  1.00  0.00     0.135 A 
ATOM     63  C   UNL     1       3.464   5.531   5.812  1.00  0.00     0.135 A 
ATOM     64  F   UNL     1       1.783   6.432   8.894  1.00  0.00    -0.206 F 
ATOM     65  C   UNL     1       3.797   7.164   8.018  1.00  0.00     0.059 A 
ATOM     66  C   UNL     1       4.612   6.327   5.927  1.00  0.00     0.059 A 
ATOM     67  F   UNL     1       3.443   4.761   4.722  1.00  0.00    -0.206 F 
ATOM     68  C   UNL     1       4.757   7.168   7.017  1.00  0.00     0.060 A 
BRANCH  68  69
ATOM     69  S   UNL     1       6.172   8.280   7.145  1.00  0.00     0.124 S 
ATOM     70  O   UNL     1       5.542   9.589   7.010  1.00  0.00    -0.237 OA
ATOM     71  O   UNL     1       6.703   7.962   8.466  1.00  0.00    -0.237 OA
ATOM     72  O   UNL     1       7.021   7.882   6.024  1.00  0.00    -0.744 OA
ENDBRANCH  68  69
ENDBRANCH  47  61
BRANCH  48  73
ATOM     73  C   UNL     1      -6.292   2.131   4.415  1.00  0.00     0.058 A 
ATOM     74  C   UNL     1      -7.437   2.483   3.673  1.00  0.00     0.135 A 
ATOM     75  C   UNL     1      -5.420   1.197   3.837  1.00  0.00     0.135 A 
ATOM     76  F   UNL     1      -8.314   3.366   4.176  1.00  0.00    -0.206 F 
ATOM     77  C   UNL     1      -7.630   2.049   2.364  1.00  0.00     0.059 A 
ATOM     78  C   UNL     1      -5.604   0.743   2.525  1.00  0.00     0.059 A 
ATOM     79  F   UNL     1      -4.303   0.828   4.480  1.00  0.00    -0.206 F 
ATOM     80  C   UNL     1      -6.680   1.218   1.776  1.00  0.00     0.060 A 
BRANCH  80  81
ATOM     81  S   UNL     1      -6.778   0.971  -0.021  1.00  0.00     0.124 S 
ATOM     82  O   UNL     1      -7.923   0.077  -0.143  1.00  0.00    -0.237 OA
ATOM     83  O   UNL     1      -6.990   2.338  -0.491  1.00  0.00    -0.237 OA
ATOM     84  O   UNL     1      -5.482   0.405  -0.374  1.00  0.00    -0.744 OA
ENDBRANCH  80  81
ENDBRANCH  48  73
BRANCH  60  85
ATOM     85  C   UNL     1      -2.240   2.317  10.469  1.00  0.00     0.058 A 
ATOM     86  C   UNL     1      -2.567   1.010  10.868  1.00  0.00     0.135 A 
ATOM     87  C   UNL     1      -1.413   3.041  11.361  1.00  0.00     0.135 A 
ATOM     88  F   UNL     1      -3.235   0.180  10.053  1.00  0.00    -0.206 F 
ATOM     89  C   UNL     1      -2.185   0.489  12.104  1.00  0.00     0.059 A 
ATOM     90  C   UNL     1      -0.975   2.520  12.575  1.00  0.00     0.059 A 
ATOM     91  F   UNL     1      -0.990   4.281  11.079  1.00  0.00    -0.206 F 
ATOM     92  C   UNL     1      -1.394   1.254  12.955  1.00  0.00     0.060 A 
BRANCH  92  93
ATOM     93  S   UNL     1      -0.860   0.580  14.536  1.00  0.00     0.124 S 
ATOM     94  O   UNL     1      -1.910   1.063  15.427  1.00  0.00    -0.237 OA
ATOM     95  O   UNL     1      -0.854  -0.860  14.293  1.00  0.00    -0.237 OA
ATOM     96  O   UNL     1       0.457   1.180  14.724  1.00  0.00    -0.744 OA
ENDBRANCH  92  93
ENDBRANCH  60  85
ENDBRANCH  34  35
ENDBRANCH  27  29
ENDBRANCH  26  27
ENDBRANCH  25  26
ENDBRANCH   1  25
TORSDOF 17
