REMARK SMILES Cc1nn(C)c(OCC(C)(C)[NH+](C)C)c1C(=O)OCCOC(=O)c1ccc(-c2c3nc(c(-c4c(F)cc(S(=O)(=O)[O-])cc4F)c4ccc([nH]4)c(-c4c(F)cc(S(=O)(=O)[O-])cc4F)c4nc(c(-c5c(F)cc(S(=O)(=O)[O-])cc5F)c5ccc2[nH]5)C=C4)C=C3)cc1
REMARK SMILES IDX 19 1 18 2 16 3 17 4 15 5 1 6 2 7 3 8 4 9 6 10 5 11 7 12 8 13
REMARK SMILES IDX 9 14 10 15 11 16 12 17 13 18 14 19 20 21 21 22 22 23 23 24
REMARK SMILES IDX 24 25 25 26 89 27 26 28 88 29 27 30 28 31 29 32 82 33 30 34
REMARK SMILES IDX 87 35 81 36 83 37 31 38 86 39 80 40 79 41 32 43 66 44 45 45
REMARK SMILES IDX 65 46 46 47 49 48 64 49 84 50 47 51 48 52 63 54 85 55 50 56
REMARK SMILES IDX 33 57 34 58 43 59 35 60 36 61 42 62 44 63 37 64 38 65 39 66
REMARK SMILES IDX 40 67 41 68 67 69 68 70 77 71 69 72 70 73 76 74 78 75 71 76
REMARK SMILES IDX 72 77 73 78 74 79 75 80 51 81 52 82 61 83 53 84 54 85 60 86
REMARK SMILES IDX 62 87 55 88 56 89 57 90 58 91 59 92
REMARK H PARENT 12 20 83 42 49 53
REMARK Flexibility Score: inf
ROOT
ATOM      1  C   UNL     1      -3.774  -3.329  -1.055  1.00  0.00     0.275 C 
ENDROOT
BRANCH   1   2
ATOM      2  O   UNL     1      -3.024  -2.099  -0.934  1.00  0.00    -0.458 OA
BRANCH   2   3
ATOM      3  C   UNL     1      -1.806  -2.299  -0.344  1.00  0.00     0.345 C 
ATOM      4  O   UNL     1      -1.441  -3.426  -0.060  1.00  0.00    -0.246 OA
BRANCH   3   5
ATOM      5  C   UNL     1      -0.990  -1.119  -0.116  1.00  0.00     0.144 A 
ATOM      6  C   UNL     1      -2.665   0.917  -0.362  1.00  0.00     0.070 C 
ATOM      7  C   UNL     1      -1.340   0.265  -0.209  1.00  0.00     0.078 A 
ATOM      8  N   UNL     1      -0.274   1.064  -0.077  1.00  0.00    -0.174 NA
ATOM      9  N   UNL     1       0.734   0.209   0.144  1.00  0.00    -0.236 N 
ATOM     10  C   UNL     1       0.328  -1.089   0.353  1.00  0.00     0.227 A 
ATOM     11  C   UNL     1       2.092   0.705   0.163  1.00  0.00     0.178 C 
BRANCH  10  12
ATOM     12  O   UNL     1       1.229  -1.912   0.900  1.00  0.00    -0.471 OA
BRANCH  12  13
ATOM     13  C   UNL     1       0.998  -3.301   1.105  1.00  0.00     0.299 C 
BRANCH  13  14
ATOM     14  C   UNL     1       0.280  -3.758   2.436  1.00  0.00     0.126 C 
ATOM     15  C   UNL     1      -1.013  -2.975   2.769  1.00  0.00     0.082 C 
ATOM     16  C   UNL     1      -0.105  -5.247   2.189  1.00  0.00     0.082 C 
BRANCH  14  17
ATOM     17  N   UNL     1       1.242  -3.715   3.585  1.00  0.00    -0.333 N 
ATOM     18  C   UNL     1       1.942  -2.434   3.715  1.00  0.00     0.333 C 
ATOM     19  C   UNL     1       0.687  -4.102   4.883  1.00  0.00     0.333 C 
ATOM     20  H   UNL     1       1.915  -4.436   3.326  1.00  0.00     0.348 HD
ENDBRANCH  14  17
ENDBRANCH  13  14
ENDBRANCH  12  13
ENDBRANCH  10  12
ENDBRANCH   3   5
ENDBRANCH   2   3
ENDBRANCH   1   2
BRANCH   1  21
ATOM     21  C   UNL     1      -3.413  -4.177  -2.294  1.00  0.00     0.275 C 
BRANCH  21  22
ATOM     22  O   UNL     1      -2.067  -4.707  -2.288  1.00  0.00    -0.458 OA
BRANCH  22  23
ATOM     23  C   UNL     1      -1.127  -3.941  -2.905  1.00  0.00     0.338 C 
ATOM     24  O   UNL     1      -1.357  -2.918  -3.534  1.00  0.00    -0.246 OA
BRANCH  23  25
ATOM     25  C   UNL     1       0.257  -4.382  -2.568  1.00  0.00     0.060 A 
ATOM     26  C   UNL     1       1.231  -3.385  -2.402  1.00  0.00     0.016 A 
ATOM     27  C   UNL     1       0.617  -5.721  -2.384  1.00  0.00     0.016 A 
ATOM     28  C   UNL     1       2.539  -3.717  -2.022  1.00  0.00     0.010 A 
ATOM     29  C   UNL     1       1.943  -6.056  -2.045  1.00  0.00     0.010 A 
ATOM     30  C   UNL     1       2.917  -5.058  -1.860  1.00  0.00    -0.014 A 
BRANCH  30  31
ATOM     31  C   UNL     1       4.359  -5.404  -1.678  1.00  0.00     0.031 A 
ATOM     32  C   UNL     1       5.263  -5.343  -2.884  1.00  0.00     0.074 A 
ATOM     33  C   UNL     1       4.882  -5.752  -0.484  1.00  0.00     0.049 A 
ATOM     34  N   UNL     1       6.546  -5.580  -2.974  1.00  0.00    -0.248 NA
ATOM     35  C   UNL     1       4.630  -4.961  -4.157  1.00  0.00     0.031 C 
ATOM     36  C   UNL     1       4.149  -5.824   0.776  1.00  0.00     0.029 A 
ATOM     37  N   UNL     1       6.167  -6.114  -0.138  1.00  0.00    -0.354 N 
ATOM     38  C   UNL     1       6.878  -5.361  -4.306  1.00  0.00     0.074 A 
ATOM     39  C   UNL     1       5.659  -4.984  -4.989  1.00  0.00     0.031 C 
ATOM     40  C   UNL     1       4.991  -6.200   1.757  1.00  0.00     0.029 A 
ATOM     41  C   UNL     1       6.317  -6.443   1.192  1.00  0.00     0.049 A 
ATOM     42  H   UNL     1       6.910  -6.134  -0.783  1.00  0.00     0.167 HD
ATOM     43  C   UNL     1       8.082  -5.473  -4.915  1.00  0.00     0.037 A 
ATOM     44  C   UNL     1       7.389  -6.911   1.869  1.00  0.00     0.037 A 
ATOM     45  C   UNL     1       9.288  -5.910  -4.265  1.00  0.00     0.049 A 
ATOM     46  C   UNL     1       8.696  -7.133   1.139  1.00  0.00     0.074 A 
ATOM     47  C   UNL     1      10.547  -6.074  -4.816  1.00  0.00     0.029 A 
ATOM     48  N   UNL     1       9.383  -6.282  -2.933  1.00  0.00    -0.354 N 
ATOM     49  N   UNL     1       9.002  -6.876  -0.110  1.00  0.00    -0.248 NA
ATOM     50  C   UNL     1       9.805  -7.718   1.913  1.00  0.00     0.031 C 
ATOM     51  C   UNL     1      11.389  -6.602  -3.833  1.00  0.00     0.029 A 
ATOM     52  C   UNL     1      10.672  -6.705  -2.653  1.00  0.00     0.049 A 
ATOM     53  H   UNL     1       8.644  -6.250  -2.283  1.00  0.00     0.167 HD
ATOM     54  C   UNL     1      10.341  -7.232  -0.259  1.00  0.00     0.074 A 
ATOM     55  C   UNL     1      10.792  -7.715   1.027  1.00  0.00     0.031 C 
ATOM     56  C   UNL     1      11.126  -7.163  -1.363  1.00  0.00     0.037 A 
BRANCH  43  57
ATOM     57  C   UNL     1       8.140  -5.162  -6.382  1.00  0.00     0.058 A 
ATOM     58  C   UNL     1       8.061  -3.845  -6.858  1.00  0.00     0.135 A 
ATOM     59  C   UNL     1       8.303  -6.193  -7.321  1.00  0.00     0.135 A 
ATOM     60  F   UNL     1       7.880  -2.825  -6.003  1.00  0.00    -0.206 F 
ATOM     61  C   UNL     1       8.125  -3.561  -8.218  1.00  0.00     0.059 A 
ATOM     62  C   UNL     1       8.395  -5.931  -8.683  1.00  0.00     0.059 A 
ATOM     63  F   UNL     1       8.375  -7.471  -6.916  1.00  0.00    -0.206 F 
ATOM     64  C   UNL     1       8.294  -4.611  -9.123  1.00  0.00     0.060 A 
BRANCH  64  65
ATOM     65  S   UNL     1       8.387  -4.224 -10.883  1.00  0.00     0.124 S 
ATOM     66  O   UNL     1       7.007  -3.848 -11.171  1.00  0.00    -0.237 OA
ATOM     67  O   UNL     1       9.360  -3.137 -10.911  1.00  0.00    -0.237 OA
ATOM     68  O   UNL     1       8.834  -5.477 -11.484  1.00  0.00    -0.744 OA
ENDBRANCH  64  65
ENDBRANCH  43  57
BRANCH  44  69
ATOM     69  C   UNL     1       7.291  -7.251   3.321  1.00  0.00     0.058 A 
ATOM     70  C   UNL     1       8.034  -6.553   4.286  1.00  0.00     0.135 A 
ATOM     71  C   UNL     1       6.512  -8.332   3.763  1.00  0.00     0.135 A 
ATOM     72  F   UNL     1       8.815  -5.526   3.917  1.00  0.00    -0.206 F 
ATOM     73  C   UNL     1       8.034  -6.931   5.627  1.00  0.00     0.059 A 
ATOM     74  C   UNL     1       6.471  -8.710   5.104  1.00  0.00     0.059 A 
ATOM     75  F   UNL     1       5.782  -9.040   2.887  1.00  0.00    -0.206 F 
ATOM     76  C   UNL     1       7.250  -8.014   6.026  1.00  0.00     0.060 A 
BRANCH  76  77
ATOM     77  S   UNL     1       7.250  -8.493   7.768  1.00  0.00     0.124 S 
ATOM     78  O   UNL     1       8.570  -9.098   7.908  1.00  0.00    -0.237 OA
ATOM     79  O   UNL     1       7.062  -7.211   8.440  1.00  0.00    -0.237 OA
ATOM     80  O   UNL     1       6.121  -9.414   7.864  1.00  0.00    -0.744 OA
ENDBRANCH  76  77
ENDBRANCH  44  69
BRANCH  56  81
ATOM     81  C   UNL     1      12.573  -7.563  -1.236  1.00  0.00     0.058 A 
ATOM     82  C   UNL     1      12.966  -8.902  -1.082  1.00  0.00     0.135 A 
ATOM     83  C   UNL     1      13.586  -6.595  -1.349  1.00  0.00     0.135 A 
ATOM     84  F   UNL     1      12.043  -9.869  -0.966  1.00  0.00    -0.206 F 
ATOM     85  C   UNL     1      14.310  -9.264  -1.028  1.00  0.00     0.059 A 
ATOM     86  C   UNL     1      14.935  -6.938  -1.327  1.00  0.00     0.059 A 
ATOM     87  F   UNL     1      13.269  -5.301  -1.510  1.00  0.00    -0.206 F 
ATOM     88  C   UNL     1      15.288  -8.275  -1.156  1.00  0.00     0.060 A 
BRANCH  88  89
ATOM     89  S   UNL     1      17.026  -8.764  -1.133  1.00  0.00     0.124 S 
ATOM     90  O   UNL     1      17.224  -9.086   0.277  1.00  0.00    -0.237 OA
ATOM     91  O   UNL     1      17.045  -9.899  -2.051  1.00  0.00    -0.237 OA
ATOM     92  O   UNL     1      17.722  -7.572  -1.607  1.00  0.00    -0.744 OA
ENDBRANCH  88  89
ENDBRANCH  56  81
ENDBRANCH  30  31
ENDBRANCH  23  25
ENDBRANCH  22  23
ENDBRANCH  21  22
ENDBRANCH   1  21
TORSDOF 18
