REMARK SMILES Cc1ccc(C(=O)Nc2cccc(F)c2C(=O)OCCOC(=O)c2ccc(-c3c4nc(c(-c5c(F)cc(S(=O)(=O)[O-])cc5F)c5ccc([nH]5)c(-c5c(F)cc(S(=O)(=O)[O-])cc5F)c5nc(c(-c6c(F)cc(S(=O)(=O)[O-])cc6F)c6ccc3[nH]6)C=C5)C=C4)cc2)c(F)c1
REMARK SMILES IDX 20 1 19 2 18 3 16 4 17 5 15 6 9 7 10 8 11 9 13 10 12 11
REMARK SMILES IDX 14 12 8 13 6 14 7 15 5 17 1 18 2 19 3 20 92 21 4 22 90 23
REMARK SMILES IDX 91 24 21 25 22 26 23 27 24 28 25 29 89 30 26 31 88 32 27 33
REMARK SMILES IDX 28 34 29 35 82 36 30 37 87 38 81 39 83 40 31 41 86 42 80 43
REMARK SMILES IDX 79 44 32 46 66 47 45 48 65 49 46 50 49 51 64 52 84 53 47 54
REMARK SMILES IDX 48 55 63 57 85 58 50 59 33 60 34 61 43 62 35 63 36 64 42 65
REMARK SMILES IDX 44 66 37 67 38 68 39 69 40 70 41 71 67 72 68 73 77 74 69 75
REMARK SMILES IDX 70 76 76 77 78 78 71 79 72 80 73 81 74 82 75 83 51 84 52 85
REMARK SMILES IDX 61 86 53 87 54 88 60 89 62 90 55 91 56 92 57 93 58 94 59 95
REMARK H PARENT 8 16 83 45 49 56
REMARK Flexibility Score: inf
ROOT
ATOM      1  C   UNL     1      -3.936  -7.707  -2.070  1.00  0.00     0.275 C 
ENDROOT
BRANCH   1   2
ATOM      2  C   UNL     1      -2.672  -7.252  -2.796  1.00  0.00     0.275 C 
BRANCH   2   3
ATOM      3  O   UNL     1      -1.618  -6.944  -1.859  1.00  0.00    -0.458 OA
BRANCH   3   4
ATOM      4  C   UNL     1      -1.261  -5.639  -1.791  1.00  0.00     0.343 C 
ATOM      5  O   UNL     1      -1.801  -4.727  -2.392  1.00  0.00    -0.246 OA
BRANCH   4   6
ATOM      6  C   UNL     1      -0.187  -5.413  -0.794  1.00  0.00     0.119 A 
ATOM      7  C   UNL     1      -0.201  -4.260   0.024  1.00  0.00     0.059 A 
ATOM      8  C   UNL     1       0.809  -4.056   0.967  1.00  0.00     0.027 A 
ATOM      9  C   UNL     1       1.891  -4.938   1.021  1.00  0.00     0.005 A 
ATOM     10  C   UNL     1       0.917  -6.256  -0.755  1.00  0.00     0.139 A 
ATOM     11  C   UNL     1       1.959  -6.018   0.139  1.00  0.00     0.040 A 
ATOM     12  F   UNL     1       1.039  -7.274  -1.620  1.00  0.00    -0.206 F 
BRANCH   7  13
ATOM     13  N   UNL     1      -1.260  -3.361  -0.131  1.00  0.00    -0.321 N 
ATOM     14  C   UNL     1      -1.316  -2.032  -0.476  1.00  0.00     0.258 C 
ATOM     15  O   UNL     1      -2.380  -1.630  -0.950  1.00  0.00    -0.269 OA
ATOM     16  H   UNL     1      -2.143  -3.760   0.042  1.00  0.00     0.170 HD
BRANCH  14  17
ATOM     17  C   UNL     1      -0.193  -1.100  -0.381  1.00  0.00     0.075 A 
ATOM     18  C   UNL     1       2.949   1.789   0.081  1.00  0.00     0.044 C 
ATOM     19  C   UNL     1       1.858   0.783  -0.110  1.00  0.00    -0.048 A 
ATOM     20  C   UNL     1       2.142  -0.512  -0.560  1.00  0.00     0.004 A 
ATOM     21  C   UNL     1       0.530   1.152   0.124  1.00  0.00     0.043 A 
ATOM     22  C   UNL     1       1.116  -1.442  -0.726  1.00  0.00     0.017 A 
ATOM     23  C   UNL     1      -0.483   0.211  -0.002  1.00  0.00     0.136 A 
ATOM     24  F   UNL     1      -1.737   0.597   0.270  1.00  0.00    -0.206 F 
ENDBRANCH  14  17
ENDBRANCH   7  13
ENDBRANCH   4   6
ENDBRANCH   3   4
ENDBRANCH   2   3
ENDBRANCH   1   2
BRANCH   1  25
ATOM     25  O   UNL     1      -4.587  -6.582  -1.447  1.00  0.00    -0.458 OA
BRANCH  25  26
ATOM     26  C   UNL     1      -4.657  -6.612  -0.096  1.00  0.00     0.338 C 
ATOM     27  O   UNL     1      -4.261  -7.508   0.637  1.00  0.00    -0.246 OA
BRANCH  26  28
ATOM     28  C   UNL     1      -5.178  -5.339   0.438  1.00  0.00     0.060 A 
ATOM     29  C   UNL     1      -4.507  -4.181   0.098  1.00  0.00     0.016 A 
ATOM     30  C   UNL     1      -6.115  -5.303   1.469  1.00  0.00     0.016 A 
ATOM     31  C   UNL     1      -4.565  -3.086   0.958  1.00  0.00     0.010 A 
ATOM     32  C   UNL     1      -6.329  -4.109   2.188  1.00  0.00     0.010 A 
ATOM     33  C   UNL     1      -5.486  -2.998   2.012  1.00  0.00    -0.014 A 
BRANCH  33  34
ATOM     34  C   UNL     1      -5.481  -1.791   2.925  1.00  0.00     0.031 A 
ATOM     35  C   UNL     1      -5.532  -1.944   4.436  1.00  0.00     0.074 A 
ATOM     36  C   UNL     1      -5.335  -0.535   2.435  1.00  0.00     0.049 A 
ATOM     37  N   UNL     1      -5.668  -1.022   5.361  1.00  0.00    -0.248 NA
ATOM     38  C   UNL     1      -5.441  -3.306   4.983  1.00  0.00     0.031 C 
ATOM     39  C   UNL     1      -5.215  -0.184   1.019  1.00  0.00     0.029 A 
ATOM     40  N   UNL     1      -5.198   0.681   3.072  1.00  0.00    -0.354 N 
ATOM     41  C   UNL     1      -5.775  -1.696   6.574  1.00  0.00     0.074 A 
ATOM     42  C   UNL     1      -5.682  -3.108   6.271  1.00  0.00     0.031 C 
ATOM     43  C   UNL     1      -4.872   1.104   0.904  1.00  0.00     0.029 A 
ATOM     44  C   UNL     1      -4.918   1.727   2.218  1.00  0.00     0.049 A 
ATOM     45  H   UNL     1      -5.291   0.792   4.046  1.00  0.00     0.167 HD
ATOM     46  C   UNL     1      -5.940  -1.193   7.824  1.00  0.00     0.037 A 
ATOM     47  C   UNL     1      -4.760   3.050   2.432  1.00  0.00     0.037 A 
ATOM     48  C   UNL     1      -5.941   0.215   8.142  1.00  0.00     0.049 A 
ATOM     49  C   UNL     1      -4.958   3.594   3.816  1.00  0.00     0.074 A 
ATOM     50  C   UNL     1      -6.104   0.816   9.380  1.00  0.00     0.029 A 
ATOM     51  N   UNL     1      -5.748   1.241   7.228  1.00  0.00    -0.354 N 
ATOM     52  N   UNL     1      -5.179   2.943   4.932  1.00  0.00    -0.248 NA
ATOM     53  C   UNL     1      -4.936   5.056   3.965  1.00  0.00     0.031 C 
ATOM     54  C   UNL     1      -6.062   2.204   9.206  1.00  0.00     0.029 A 
ATOM     55  C   UNL     1      -5.810   2.470   7.870  1.00  0.00     0.049 A 
ATOM     56  H   UNL     1      -5.590   1.115   6.264  1.00  0.00     0.167 HD
ATOM     57  C   UNL     1      -5.341   3.914   5.913  1.00  0.00     0.074 A 
ATOM     58  C   UNL     1      -5.151   5.197   5.266  1.00  0.00     0.031 C 
ATOM     59  C   UNL     1      -5.639   3.750   7.226  1.00  0.00     0.037 A 
BRANCH  46  60
ATOM     60  C   UNL     1      -6.203  -2.170   8.944  1.00  0.00     0.058 A 
ATOM     61  C   UNL     1      -7.476  -2.222   9.539  1.00  0.00     0.135 A 
ATOM     62  C   UNL     1      -5.220  -3.040   9.444  1.00  0.00     0.135 A 
ATOM     63  F   UNL     1      -8.457  -1.412   9.109  1.00  0.00    -0.206 F 
ATOM     64  C   UNL     1      -7.767  -3.101  10.577  1.00  0.00     0.059 A 
ATOM     65  C   UNL     1      -5.499  -3.953  10.461  1.00  0.00     0.059 A 
ATOM     66  F   UNL     1      -3.990  -3.048   8.907  1.00  0.00    -0.206 F 
ATOM     67  C   UNL     1      -6.775  -3.971  11.025  1.00  0.00     0.060 A 
BRANCH  67  68
ATOM     68  S   UNL     1      -7.199  -5.171  12.307  1.00  0.00     0.124 S 
ATOM     69  O   UNL     1      -7.332  -4.321  13.484  1.00  0.00    -0.237 OA
ATOM     70  O   UNL     1      -8.439  -5.745  11.792  1.00  0.00    -0.237 OA
ATOM     71  O   UNL     1      -6.055  -6.079  12.312  1.00  0.00    -0.744 OA
ENDBRANCH  67  68
ENDBRANCH  46  60
BRANCH  47  72
ATOM     72  C   UNL     1      -4.449   3.950   1.283  1.00  0.00     0.058 A 
ATOM     73  C   UNL     1      -5.360   4.130   0.229  1.00  0.00     0.135 A 
ATOM     74  C   UNL     1      -3.204   4.589   1.178  1.00  0.00     0.135 A 
ATOM     75  F   UNL     1      -6.572   3.554   0.280  1.00  0.00    -0.206 F 
ATOM     76  C   UNL     1      -5.025   4.845  -0.916  1.00  0.00     0.059 A 
ATOM     77  C   UNL     1      -2.860   5.345   0.059  1.00  0.00     0.059 A 
ATOM     78  F   UNL     1      -2.308   4.482   2.172  1.00  0.00    -0.206 F 
ATOM     79  C   UNL     1      -3.766   5.439  -0.998  1.00  0.00     0.060 A 
BRANCH  79  80
ATOM     80  S   UNL     1      -3.333   6.325  -2.511  1.00  0.00     0.124 S 
ATOM     81  O   UNL     1      -3.226   5.234  -3.473  1.00  0.00    -0.237 OA
ATOM     82  O   UNL     1      -4.478   7.214  -2.684  1.00  0.00    -0.237 OA
ATOM     83  O   UNL     1      -2.077   6.985  -2.169  1.00  0.00    -0.744 OA
ENDBRANCH  79  80
ENDBRANCH  47  72
BRANCH  59  84
ATOM     84  C   UNL     1      -5.779   4.991   8.066  1.00  0.00     0.058 A 
ATOM     85  C   UNL     1      -4.828   5.298   9.053  1.00  0.00     0.135 A 
ATOM     86  C   UNL     1      -6.878   5.855   7.927  1.00  0.00     0.135 A 
ATOM     87  F   UNL     1      -3.760   4.506   9.234  1.00  0.00    -0.206 F 
ATOM     88  C   UNL     1      -4.966   6.410   9.876  1.00  0.00     0.059 A 
ATOM     89  C   UNL     1      -7.021   6.990   8.720  1.00  0.00     0.059 A 
ATOM     90  F   UNL     1      -7.811   5.615   6.992  1.00  0.00    -0.206 F 
ATOM     91  C   UNL     1      -6.065   7.253   9.701  1.00  0.00     0.060 A 
BRANCH  91  92
ATOM     92  S   UNL     1      -6.205   8.713  10.754  1.00  0.00     0.124 S 
ATOM     93  O   UNL     1      -6.519   8.121  12.049  1.00  0.00    -0.237 OA
ATOM     94  O   UNL     1      -4.876   9.307  10.634  1.00  0.00    -0.237 OA
ATOM     95  O   UNL     1      -7.283   9.478  10.133  1.00  0.00    -0.744 OA
ENDBRANCH  91  92
ENDBRANCH  59  84
ENDBRANCH  33  34
ENDBRANCH  26  28
ENDBRANCH  25  26
ENDBRANCH   1  25
TORSDOF 16
