REMARK SMILES O=C(OCCOC(=O)c1cncc(OCCCc2ccccc2)n1)c1ccc(-c2c3nc(c(-c4c(F)cc(S(=O)(=O)[O-])cc4F)c4ccc([nH]4)c(-c4c(F)cc(S(=O)(=O)[O-])cc4F)c4nc(c(-c5c(F)cc(S(=O)(=O)[O-])cc5F)c5ccc2[nH]5)C=C4)C=C3)cc1
REMARK SMILES IDX 5 1 4 2 3 3 2 4 1 5 25 6 26 7 90 8 27 9 89 10 28 11 29 12
REMARK SMILES IDX 30 13 83 14 31 15 88 16 82 17 84 18 32 19 87 20 81 21 80 22
REMARK SMILES IDX 33 24 67 25 46 26 66 27 47 28 50 29 65 30 85 31 48 32 49 33
REMARK SMILES IDX 64 35 86 36 51 37 34 38 35 39 44 40 36 41 37 42 43 43 45 44
REMARK SMILES IDX 38 45 39 46 40 47 41 48 42 49 68 50 69 51 78 52 70 53 71 54
REMARK SMILES IDX 77 55 79 56 72 57 73 58 74 59 75 60 76 61 52 62 53 63 62 64
REMARK SMILES IDX 54 65 55 66 61 67 63 68 56 69 57 70 58 71 59 72 60 73 6 74
REMARK SMILES IDX 7 75 8 76 9 77 10 78 24 79 11 80 13 81 12 82 14 83 15 84
REMARK SMILES IDX 16 85 17 86 18 87 19 88 23 89 20 90 22 91 21 92
REMARK H PARENT 84 23 50 34
REMARK Flexibility Score: inf
ROOT
ATOM      1  C   UNL     1       3.739   0.084  -2.650  1.00  0.00     0.275 C 
ENDROOT
BRANCH   1   2
ATOM      2  C   UNL     1       4.693  -0.803  -1.829  1.00  0.00     0.275 C 
BRANCH   2   3
ATOM      3  O   UNL     1       4.423  -1.030  -0.431  1.00  0.00    -0.458 OA
BRANCH   3   4
ATOM      4  C   UNL     1       3.473  -0.257   0.134  1.00  0.00     0.338 C 
ATOM      5  O   UNL     1       2.282  -0.391  -0.072  1.00  0.00    -0.246 OA
BRANCH   4   6
ATOM      6  C   UNL     1       4.083   0.861   0.902  1.00  0.00     0.060 A 
ATOM      7  C   UNL     1       5.444   1.173   0.789  1.00  0.00     0.016 A 
ATOM      8  C   UNL     1       3.240   1.701   1.632  1.00  0.00     0.016 A 
ATOM      9  C   UNL     1       5.947   2.327   1.377  1.00  0.00     0.010 A 
ATOM     10  C   UNL     1       3.740   2.860   2.225  1.00  0.00     0.010 A 
ATOM     11  C   UNL     1       5.098   3.171   2.098  1.00  0.00    -0.014 A 
BRANCH  11  12
ATOM     12  C   UNL     1       5.681   4.321   2.811  1.00  0.00     0.031 A 
ATOM     13  C   UNL     1       6.059   4.137   4.246  1.00  0.00     0.074 A 
ATOM     14  C   UNL     1       5.898   5.475   2.158  1.00  0.00     0.049 A 
ATOM     15  N   UNL     1       6.742   4.928   5.025  1.00  0.00    -0.248 NA
ATOM     16  C   UNL     1       5.620   2.885   4.886  1.00  0.00     0.031 C 
ATOM     17  C   UNL     1       5.542   5.726   0.763  1.00  0.00     0.029 A 
ATOM     18  N   UNL     1       6.463   6.651   2.570  1.00  0.00    -0.354 N 
ATOM     19  C   UNL     1       6.850   4.255   6.234  1.00  0.00     0.074 A 
ATOM     20  C   UNL     1       6.102   3.025   6.111  1.00  0.00     0.031 C 
ATOM     21  C   UNL     1       5.867   6.988   0.439  1.00  0.00     0.029 A 
ATOM     22  C   UNL     1       6.489   7.621   1.595  1.00  0.00     0.049 A 
ATOM     23  H   UNL     1       6.816   6.790   3.479  1.00  0.00     0.167 HD
ATOM     24  C   UNL     1       7.545   4.628   7.334  1.00  0.00     0.037 A 
ATOM     25  C   UNL     1       6.995   8.868   1.632  1.00  0.00     0.037 A 
ATOM     26  C   UNL     1       8.248   5.880   7.421  1.00  0.00     0.049 A 
ATOM     27  C   UNL     1       7.747   9.273   2.869  1.00  0.00     0.074 A 
ATOM     28  C   UNL     1       9.001   6.384   8.463  1.00  0.00     0.029 A 
ATOM     29  N   UNL     1       8.267   6.836   6.410  1.00  0.00    -0.354 N 
ATOM     30  N   UNL     1       7.925   8.593   3.980  1.00  0.00    -0.248 NA
ATOM     31  C   UNL     1       8.411  10.580   2.846  1.00  0.00     0.031 C 
ATOM     32  C   UNL     1       9.448   7.660   8.095  1.00  0.00     0.029 A 
ATOM     33  C   UNL     1       9.008   7.933   6.806  1.00  0.00     0.049 A 
ATOM     34  H   UNL     1       7.817   6.745   5.539  1.00  0.00     0.167 HD
ATOM     35  C   UNL     1       8.762   9.366   4.771  1.00  0.00     0.074 A 
ATOM     36  C   UNL     1       9.047  10.570   4.011  1.00  0.00     0.031 C 
ATOM     37  C   UNL     1       9.266   9.105   6.004  1.00  0.00     0.037 A 
BRANCH  24  38
ATOM     38  C   UNL     1       7.547   3.674   8.495  1.00  0.00     0.058 A 
ATOM     39  C   UNL     1       8.209   2.435   8.426  1.00  0.00     0.135 A 
ATOM     40  C   UNL     1       6.840   3.970   9.671  1.00  0.00     0.135 A 
ATOM     41  F   UNL     1       8.881   2.089   7.317  1.00  0.00    -0.206 F 
ATOM     42  C   UNL     1       8.130   1.506   9.459  1.00  0.00     0.059 A 
ATOM     43  C   UNL     1       6.769   3.066  10.728  1.00  0.00     0.059 A 
ATOM     44  F   UNL     1       6.184   5.134   9.790  1.00  0.00    -0.206 F 
ATOM     45  C   UNL     1       7.397   1.827  10.603  1.00  0.00     0.060 A 
BRANCH  45  46
ATOM     46  S   UNL     1       7.263   0.595  11.916  1.00  0.00     0.124 S 
ATOM     47  O   UNL     1       6.311  -0.346  11.335  1.00  0.00    -0.237 OA
ATOM     48  O   UNL     1       8.636   0.113  12.036  1.00  0.00    -0.237 OA
ATOM     49  O   UNL     1       6.771   1.365  13.054  1.00  0.00    -0.744 OA
ENDBRANCH  45  46
ENDBRANCH  24  38
BRANCH  25  50
ATOM     50  C   UNL     1       6.891   9.749   0.438  1.00  0.00     0.058 A 
ATOM     51  C   UNL     1       8.003  10.001  -0.379  1.00  0.00     0.135 A 
ATOM     52  C   UNL     1       5.662  10.309   0.052  1.00  0.00     0.135 A 
ATOM     53  F   UNL     1       9.200   9.487  -0.057  1.00  0.00    -0.206 F 
ATOM     54  C   UNL     1       7.906  10.781  -1.528  1.00  0.00     0.059 A 
ATOM     55  C   UNL     1       5.535  11.077  -1.104  1.00  0.00     0.059 A 
ATOM     56  F   UNL     1       4.562  10.086   0.787  1.00  0.00    -0.206 F 
ATOM     57  C   UNL     1       6.665  11.311  -1.887  1.00  0.00     0.060 A 
BRANCH  57  58
ATOM     58  S   UNL     1       6.542  12.264  -3.417  1.00  0.00     0.124 S 
ATOM     59  O   UNL     1       7.247  13.490  -3.060  1.00  0.00    -0.237 OA
ATOM     60  O   UNL     1       7.221  11.395  -4.374  1.00  0.00    -0.237 OA
ATOM     61  O   UNL     1       5.103  12.399  -3.616  1.00  0.00    -0.744 OA
ENDBRANCH  57  58
ENDBRANCH  25  50
BRANCH  37  62
ATOM     62  C   UNL     1      10.207  10.124   6.573  1.00  0.00     0.058 A 
ATOM     63  C   UNL     1       9.745  11.344   7.086  1.00  0.00     0.135 A 
ATOM     64  C   UNL     1      11.582   9.850   6.642  1.00  0.00     0.135 A 
ATOM     65  F   UNL     1       8.439  11.649   7.035  1.00  0.00    -0.206 F 
ATOM     66  C   UNL     1      10.622  12.276   7.627  1.00  0.00     0.059 A 
ATOM     67  C   UNL     1      12.473  10.757   7.201  1.00  0.00     0.059 A 
ATOM     68  F   UNL     1      12.065   8.689   6.172  1.00  0.00    -0.206 F 
ATOM     69  C   UNL     1      11.985  11.973   7.678  1.00  0.00     0.060 A 
BRANCH  69  70
ATOM     70  S   UNL     1      13.114  13.177   8.406  1.00  0.00     0.124 S 
ATOM     71  O   UNL     1      13.249  14.143   7.322  1.00  0.00    -0.237 OA
ATOM     72  O   UNL     1      12.371  13.636   9.576  1.00  0.00    -0.237 OA
ATOM     73  O   UNL     1      14.306  12.387   8.700  1.00  0.00    -0.744 OA
ENDBRANCH  69  70
ENDBRANCH  37  62
ENDBRANCH  11  12
ENDBRANCH   4   6
ENDBRANCH   3   4
ENDBRANCH   2   3
ENDBRANCH   1   2
BRANCH   1  74
ATOM     74  O   UNL     1       3.522   1.383  -2.060  1.00  0.00    -0.457 OA
BRANCH  74  75
ATOM     75  C   UNL     1       2.244   1.851  -2.209  1.00  0.00     0.358 C 
ATOM     76  O   UNL     1       1.394   1.382  -2.950  1.00  0.00    -0.244 OA
BRANCH  75  77
ATOM     77  C   UNL     1       2.006   3.014  -1.324  1.00  0.00     0.170 A 
ATOM     78  C   UNL     1       2.825   4.127  -1.413  1.00  0.00     0.147 A 
ATOM     79  N   UNL     1       0.913   2.974  -0.509  1.00  0.00    -0.203 NA
ATOM     80  N   UNL     1       2.590   5.253  -0.693  1.00  0.00    -0.257 NA
ATOM     81  C   UNL     1       0.699   4.087   0.224  1.00  0.00     0.233 A 
ATOM     82  C   UNL     1       1.506   5.212   0.121  1.00  0.00     0.179 A 
BRANCH  81  83
ATOM     83  O   UNL     1      -0.447   4.146   0.978  1.00  0.00    -0.477 OA
BRANCH  83  84
ATOM     84  C   UNL     1      -0.417   3.244   2.090  1.00  0.00     0.232 C 
BRANCH  84  85
ATOM     85  C   UNL     1      -1.540   2.205   1.998  1.00  0.00     0.046 C 
BRANCH  85  86
ATOM     86  C   UNL     1      -1.170   0.914   1.256  1.00  0.00     0.039 C 
BRANCH  86  87
ATOM     87  C   UNL     1      -0.364  -0.145   1.984  1.00  0.00    -0.048 A 
ATOM     88  C   UNL     1      -0.211  -1.391   1.348  1.00  0.00     0.004 A 
ATOM     89  C   UNL     1       0.298   0.055   3.202  1.00  0.00     0.004 A 
ATOM     90  C   UNL     1       0.614  -2.383   1.883  1.00  0.00     0.000 A 
ATOM     91  C   UNL     1       1.137  -0.933   3.731  1.00  0.00     0.000 A 
ATOM     92  C   UNL     1       1.303  -2.147   3.068  1.00  0.00     0.000 A 
ENDBRANCH  86  87
ENDBRANCH  85  86
ENDBRANCH  84  85
ENDBRANCH  83  84
ENDBRANCH  81  83
ENDBRANCH  75  77
ENDBRANCH  74  75
ENDBRANCH   1  74
TORSDOF 19
