REMARK SMILES Cc1nc(-c2ccccc2)sc1C(=O)N[C@@H](CC1=c2ccccc2=NC1)C(=O)OCCOC(=O)c1ccc(-c2c3nc(c(-c4c(F)cc(S(=O)(=O)[O-])cc4F)c4ccc([nH]4)c(-c4c(F)cc(S(=O)(=O)[O-])cc4F)c4nc(c(-c5c(F)cc(S(=O)(=O)[O-])cc5F)c5ccc2[nH]5)C=C4)C=C3)cc1
REMARK SMILES IDX 30 1 29 2 27 3 28 4 16 5 15 6 13 7 14 8 12 10 1 11 2 12 3 13
REMARK SMILES IDX 4 14 11 15 5 16 6 17 10 18 7 19 9 20 8 21 17 22 18 23 19 24
REMARK SMILES IDX 26 25 20 26 24 27 25 28 21 29 23 30 22 31 31 32 32 33 33 34
REMARK SMILES IDX 34 35 35 36 36 37 100 38 37 39 99 40 38 41 39 42 40 43 93 44
REMARK SMILES IDX 41 45 98 46 92 47 94 48 42 49 97 50 91 51 90 52 43 54 77 55
REMARK SMILES IDX 56 56 76 57 57 58 60 59 75 60 95 61 58 62 59 63 74 65 96 66
REMARK SMILES IDX 61 67 44 68 45 69 54 70 46 71 47 72 53 73 55 74 48 75 49 76
REMARK SMILES IDX 50 77 51 78 52 79 78 80 79 81 88 82 80 83 81 84 87 85 89 86
REMARK SMILES IDX 82 87 83 88 84 89 85 90 86 91 62 92 63 93 72 94 64 95 65 96
REMARK SMILES IDX 71 97 73 98 66 99 67 100 68 101 69 102 70 103
REMARK H PARENT 15 9 94 53 60 64
REMARK Flexibility Score: inf
ROOT
ATOM      1  C   UNL     1      -4.684  -3.951   3.044  1.00  0.00     0.274 C 
ENDROOT
BRANCH   1   2
ATOM      2  O   UNL     1      -3.822  -3.603   1.943  1.00  0.00    -0.461 OA
BRANCH   2   3
ATOM      3  C   UNL     1      -4.332  -2.711   1.052  1.00  0.00     0.329 C 
ATOM      4  O   UNL     1      -5.481  -2.282   1.066  1.00  0.00    -0.250 OA
BRANCH   3   5
ATOM      5  C   UNL     1      -3.332  -2.324  -0.045  1.00  0.00     0.196 C 
BRANCH   5   6
ATOM      6  N   UNL     1      -1.952  -2.742   0.172  1.00  0.00    -0.338 N 
ATOM      7  C   UNL     1      -0.735  -2.169  -0.101  1.00  0.00     0.264 C 
ATOM      8  O   UNL     1       0.210  -2.960   0.011  1.00  0.00    -0.268 OA
ATOM      9  H   UNL     1      -1.878  -3.622   0.607  1.00  0.00     0.164 HD
BRANCH   7  10
ATOM     10  C   UNL     1      -0.536  -0.763  -0.442  1.00  0.00     0.115 A 
ATOM     11  C   UNL     1      -2.515   0.284  -1.836  1.00  0.00     0.068 C 
ATOM     12  C   UNL     1      -1.230   0.255  -1.094  1.00  0.00     0.062 A 
ATOM     13  N   UNL     1      -0.593   1.486  -1.102  1.00  0.00    -0.241 NA
ATOM     14  C   UNL     1       0.617   1.411  -0.606  1.00  0.00     0.124 A 
ATOM     15  S   UNL     1       1.029  -0.116   0.023  1.00  0.00    -0.108 S 
BRANCH  14  16
ATOM     16  C   UNL     1       1.536   2.546  -0.561  1.00  0.00     0.010 A 
ATOM     17  C   UNL     1       1.147   3.710   0.113  1.00  0.00     0.011 A 
ATOM     18  C   UNL     1       2.750   2.540  -1.260  1.00  0.00     0.011 A 
ATOM     19  C   UNL     1       1.965   4.839   0.118  1.00  0.00     0.001 A 
ATOM     20  C   UNL     1       3.561   3.679  -1.272  1.00  0.00     0.001 A 
ATOM     21  C   UNL     1       3.171   4.824  -0.577  1.00  0.00     0.000 A 
ENDBRANCH  14  16
ENDBRANCH   7  10
ENDBRANCH   5   6
BRANCH   5  22
ATOM     22  C   UNL     1      -3.846  -2.843  -1.406  1.00  0.00     0.070 C 
BRANCH  22  23
ATOM     23  C   UNL     1      -4.035  -4.328  -1.469  1.00  0.00    -0.037 C 
ATOM     24  C   UNL     1      -3.115  -5.266  -1.682  1.00  0.00     0.001 A 
ATOM     25  C   UNL     1      -5.386  -4.948  -1.270  1.00  0.00     0.174 C 
ATOM     26  C   UNL     1      -1.713  -5.273  -1.942  1.00  0.00     0.010 A 
ATOM     27  C   UNL     1      -3.879  -6.511  -1.510  1.00  0.00     0.065 A 
ATOM     28  N   UNL     1      -5.155  -6.413  -1.289  1.00  0.00    -0.280 NA
ATOM     29  C   UNL     1      -1.071  -6.452  -1.986  1.00  0.00     0.001 A 
ATOM     30  C   UNL     1      -3.104  -7.768  -1.572  1.00  0.00     0.028 A 
ATOM     31  C   UNL     1      -1.778  -7.705  -1.784  1.00  0.00     0.002 A 
ENDBRANCH  22  23
ENDBRANCH   5  22
ENDBRANCH   3   5
ENDBRANCH   2   3
ENDBRANCH   1   2
BRANCH   1  32
ATOM     32  C   UNL     1      -4.070  -3.502   4.370  1.00  0.00     0.275 C 
BRANCH  32  33
ATOM     33  O   UNL     1      -3.749  -2.099   4.346  1.00  0.00    -0.458 OA
BRANCH  33  34
ATOM     34  C   UNL     1      -2.459  -1.828   4.038  1.00  0.00     0.338 C 
ATOM     35  O   UNL     1      -1.571  -2.632   3.797  1.00  0.00    -0.246 OA
BRANCH  34  36
ATOM     36  C   UNL     1      -2.261  -0.378   3.933  1.00  0.00     0.060 A 
ATOM     37  C   UNL     1      -2.343   0.208   2.672  1.00  0.00     0.016 A 
ATOM     38  C   UNL     1      -1.851   0.370   5.035  1.00  0.00     0.016 A 
ATOM     39  C   UNL     1      -1.964   1.535   2.492  1.00  0.00     0.010 A 
ATOM     40  C   UNL     1      -1.516   1.719   4.862  1.00  0.00     0.010 A 
ATOM     41  C   UNL     1      -1.542   2.307   3.584  1.00  0.00    -0.014 A 
BRANCH  41  42
ATOM     42  C   UNL     1      -1.061   3.697   3.362  1.00  0.00     0.031 A 
ATOM     43  C   UNL     1       0.386   4.043   3.603  1.00  0.00     0.074 A 
ATOM     44  C   UNL     1      -1.891   4.634   2.861  1.00  0.00     0.049 A 
ATOM     45  N   UNL     1       0.975   5.211   3.549  1.00  0.00    -0.248 NA
ATOM     46  C   UNL     1       1.289   2.929   3.931  1.00  0.00     0.031 C 
ATOM     47  C   UNL     1      -3.295   4.418   2.508  1.00  0.00     0.029 A 
ATOM     48  N   UNL     1      -1.667   5.951   2.540  1.00  0.00    -0.354 N 
ATOM     49  C   UNL     1       2.312   4.975   3.848  1.00  0.00     0.074 A 
ATOM     50  C   UNL     1       2.442   3.558   4.112  1.00  0.00     0.031 C 
ATOM     51  C   UNL     1      -3.799   5.551   1.995  1.00  0.00     0.029 A 
ATOM     52  C   UNL     1      -2.778   6.594   2.046  1.00  0.00     0.049 A 
ATOM     53  H   UNL     1      -0.794   6.392   2.653  1.00  0.00     0.167 HD
ATOM     54  C   UNL     1       3.344   5.852   3.873  1.00  0.00     0.037 A 
ATOM     55  C   UNL     1      -2.970   7.884   1.708  1.00  0.00     0.037 A 
ATOM     56  C   UNL     1       3.234   7.251   3.553  1.00  0.00     0.049 A 
ATOM     57  C   UNL     1      -1.838   8.863   1.858  1.00  0.00     0.074 A 
ATOM     58  C   UNL     1       4.229   8.213   3.546  1.00  0.00     0.029 A 
ATOM     59  N   UNL     1       2.062   7.887   3.173  1.00  0.00    -0.354 N 
ATOM     60  N   UNL     1      -0.598   8.638   2.221  1.00  0.00    -0.248 NA
ATOM     61  C   UNL     1      -2.139  10.274   1.577  1.00  0.00     0.031 C 
ATOM     62  C   UNL     1       3.655   9.436   3.181  1.00  0.00     0.029 A 
ATOM     63  C   UNL     1       2.308   9.229   2.934  1.00  0.00     0.049 A 
ATOM     64  H   UNL     1       1.185   7.449   3.085  1.00  0.00     0.167 HD
ATOM     65  C   UNL     1       0.029   9.878   2.210  1.00  0.00     0.074 A 
ATOM     66  C   UNL     1      -0.961  10.847   1.786  1.00  0.00     0.031 C 
ATOM     67  C   UNL     1       1.311  10.186   2.527  1.00  0.00     0.037 A 
BRANCH  54  68
ATOM     68  C   UNL     1       4.691   5.322   4.270  1.00  0.00     0.058 A 
ATOM     69  C   UNL     1       5.482   4.579   3.381  1.00  0.00     0.135 A 
ATOM     70  C   UNL     1       5.209   5.587   5.548  1.00  0.00     0.135 A 
ATOM     71  F   UNL     1       5.029   4.290   2.153  1.00  0.00    -0.206 F 
ATOM     72  C   UNL     1       6.733   4.096   3.753  1.00  0.00     0.059 A 
ATOM     73  C   UNL     1       6.465   5.130   5.935  1.00  0.00     0.059 A 
ATOM     74  F   UNL     1       4.491   6.295   6.434  1.00  0.00    -0.206 F 
ATOM     75  C   UNL     1       7.214   4.373   5.034  1.00  0.00     0.060 A 
BRANCH  75  76
ATOM     76  S   UNL     1       8.838   3.741   5.505  1.00  0.00     0.124 S 
ATOM     77  O   UNL     1       8.547   2.328   5.728  1.00  0.00    -0.237 OA
ATOM     78  O   UNL     1       9.647   4.043   4.328  1.00  0.00    -0.237 OA
ATOM     79  O   UNL     1       9.168   4.510   6.701  1.00  0.00    -0.744 OA
ENDBRANCH  75  76
ENDBRANCH  54  68
BRANCH  55  80
ATOM     80  C   UNL     1      -4.310   8.337   1.251  1.00  0.00     0.058 A 
ATOM     81  C   UNL     1      -4.533   8.730  -0.076  1.00  0.00     0.135 A 
ATOM     82  C   UNL     1      -5.398   8.375   2.138  1.00  0.00     0.135 A 
ATOM     83  F   UNL     1      -3.520   8.727  -0.955  1.00  0.00    -0.206 F 
ATOM     84  C   UNL     1      -5.788   9.145  -0.510  1.00  0.00     0.059 A 
ATOM     85  C   UNL     1      -6.667   8.763   1.722  1.00  0.00     0.059 A 
ATOM     86  F   UNL     1      -5.237   8.005   3.417  1.00  0.00    -0.206 F 
ATOM     87  C   UNL     1      -6.850   9.154   0.397  1.00  0.00     0.060 A 
BRANCH  87  88
ATOM     88  S   UNL     1      -8.494   9.630  -0.182  1.00  0.00     0.124 S 
ATOM     89  O   UNL     1      -8.392  11.084  -0.191  1.00  0.00    -0.237 OA
ATOM     90  O   UNL     1      -8.562   8.986  -1.491  1.00  0.00    -0.237 OA
ATOM     91  O   UNL     1      -9.379   9.062   0.831  1.00  0.00    -0.744 OA
ENDBRANCH  87  88
ENDBRANCH  55  80
BRANCH  67  92
ATOM     92  C   UNL     1       1.717  11.628   2.424  1.00  0.00     0.058 A 
ATOM     93  C   UNL     1       1.339  12.563   3.400  1.00  0.00     0.135 A 
ATOM     94  C   UNL     1       2.519  12.073   1.361  1.00  0.00     0.135 A 
ATOM     95  F   UNL     1       0.564  12.189   4.429  1.00  0.00    -0.206 F 
ATOM     96  C   UNL     1       1.730  13.896   3.317  1.00  0.00     0.059 A 
ATOM     97  C   UNL     1       2.938  13.397   1.269  1.00  0.00     0.059 A 
ATOM     98  F   UNL     1       2.912  11.216   0.406  1.00  0.00    -0.206 F 
ATOM     99  C   UNL     1       2.529  14.304   2.247  1.00  0.00     0.060 A 
BRANCH  99 100
ATOM    100  S   UNL     1       3.058  16.028   2.165  1.00  0.00     0.124 S 
ATOM    101  O   UNL     1       1.853  16.681   1.665  1.00  0.00    -0.237 OA
ATOM    102  O   UNL     1       3.408  16.318   3.552  1.00  0.00    -0.237 OA
ATOM    103  O   UNL     1       4.185  15.992   1.237  1.00  0.00    -0.744 OA
ENDBRANCH  99 100
ENDBRANCH  67  92
ENDBRANCH  41  42
ENDBRANCH  34  36
ENDBRANCH  33  34
ENDBRANCH  32  33
ENDBRANCH   1  32
TORSDOF 19
