REMARK SMILES COc1ccc(-c2cc(Cl)cc3c2O[C@H](C(F)(F)F)C(C(=O)OCCOC(=O)c2ccc(-c4c5nc(c(-c6c(F)cc(S(=O)(=O)[O-])cc6F)c6ccc([nH]6)c(-c6c(F)cc(S(=O)(=O)[O-])cc6F)c6nc(c(-c7c(F)cc(S(=O)(=O)[O-])cc7F)c7ccc4[nH]7)C=C6)C=C5)cc2)=C3)cc1C
REMARK SMILES IDX 25 1 24 2 23 3 21 4 22 5 20 6 7 7 8 8 13 9 9 10 12 11 14 12
REMARK SMILES IDX 10 13 11 14 95 15 15 16 6 17 3 18 4 19 97 20 5 21 96 22
REMARK SMILES IDX 98 23 2 24 1 25 16 26 17 27 18 28 19 29 26 30 27 31 28 32
REMARK SMILES IDX 29 33 30 34 94 35 31 36 93 37 32 38 33 39 34 40 87 41 35 42
REMARK SMILES IDX 92 43 86 44 88 45 36 46 91 47 85 48 84 49 37 51 71 52 50 53
REMARK SMILES IDX 70 54 51 55 54 56 69 57 89 58 52 59 53 60 68 62 90 63 55 64
REMARK SMILES IDX 38 65 39 66 48 67 40 68 41 69 47 70 49 71 42 72 43 73 44 74
REMARK SMILES IDX 45 75 46 76 72 77 73 78 82 79 74 80 75 81 81 82 83 83 76 84
REMARK SMILES IDX 77 85 78 86 79 87 80 88 56 89 57 90 66 91 58 92 59 93 65 94
REMARK SMILES IDX 67 95 60 96 61 97 62 98 63 99 64 100
REMARK H PARENT 88 50 54 61
REMARK Flexibility Score: inf
ROOT
ATOM      1  C   UNL     1      -3.512   5.992  -2.821  1.00  0.00     0.275 C 
ENDROOT
BRANCH   1   2
ATOM      2  C   UNL     1      -2.580   5.793  -1.531  1.00  0.00     0.275 C 
BRANCH   2   3
ATOM      3  O   UNL     1      -1.211   5.907  -1.914  1.00  0.00    -0.459 OA
BRANCH   3   4
ATOM      4  C   UNL     1      -0.050   6.104  -1.298  1.00  0.00     0.338 C 
ATOM      5  O   UNL     1       0.078   5.902  -0.113  1.00  0.00    -0.246 OA
BRANCH   4   6
ATOM      6  C   UNL     1       0.910   6.836  -2.367  1.00  0.00     0.087 C 
ATOM      7  C   UNL     1       1.821   4.568  -5.657  1.00  0.00     0.026 A 
ATOM      8  C   UNL     1       2.882   4.868  -6.522  1.00  0.00     0.033 A 
ATOM      9  C   UNL     1       1.458   5.748  -4.701  1.00  0.00     0.135 A 
ATOM     10  C   UNL     1       3.708   5.973  -6.252  1.00  0.00     0.042 A 
ATOM     11  C   UNL     1       2.480   6.548  -4.234  1.00  0.00     0.019 A 
ATOM     12  O   UNL     1       0.379   6.915  -4.753  1.00  0.00    -0.475 OA
ATOM     13  Cl  UNL     1       5.078   6.218  -7.280  1.00  0.00    -0.084 Cl
ATOM     14  C   UNL     1       3.572   6.751  -5.075  1.00  0.00     0.032 A 
ATOM     15  C   UNL     1       2.225   6.819  -2.804  1.00  0.00     0.027 C 
ATOM     16  C   UNL     1       0.021   7.807  -3.177  1.00  0.00     0.316 C 
BRANCH   7  17
ATOM     17  C   UNL     1       2.113   2.887  -5.171  1.00  0.00    -0.014 A 
ATOM     18  C   UNL     1       1.863   0.512  -3.393  1.00  0.00     0.121 A 
ATOM     19  C   UNL     1       1.048   0.720  -4.494  1.00  0.00     0.047 A 
ATOM     20  C   UNL     1       3.041   1.252  -3.405  1.00  0.00    -0.008 A 
ATOM     21  C   UNL     1       1.265   1.804  -5.445  1.00  0.00     0.013 A 
ATOM     22  C   UNL     1       3.178   2.400  -4.329  1.00  0.00     0.016 A 
ATOM     23  C   UNL     1       4.097   0.919  -2.381  1.00  0.00     0.048 C 
BRANCH  18  24
ATOM     24  O   UNL     1       1.580  -0.526  -2.535  1.00  0.00    -0.496 OA
ATOM     25  C   UNL     1       1.248  -0.203  -1.172  1.00  0.00     0.278 C 
ENDBRANCH  18  24
ENDBRANCH   7  17
BRANCH  16  26
ATOM     26  C   UNL     1      -0.538   9.956  -2.882  1.00  0.00     0.430 C 
ATOM     27  F   UNL     1       0.449  10.967  -2.644  1.00  0.00    -0.167 F 
ATOM     28  F   UNL     1      -1.220  10.672  -3.922  1.00  0.00    -0.167 F 
ATOM     29  F   UNL     1      -1.406  10.424  -1.847  1.00  0.00    -0.167 F 
ENDBRANCH  16  26
ENDBRANCH   4   6
ENDBRANCH   3   4
ENDBRANCH   2   3
ENDBRANCH   1   2
BRANCH   1  30
ATOM     30  O   UNL     1      -3.599   7.206  -3.766  1.00  0.00    -0.458 OA
BRANCH  30  31
ATOM     31  C   UNL     1      -2.768   7.829  -4.689  1.00  0.00     0.338 C 
ATOM     32  O   UNL     1      -3.061   8.053  -5.855  1.00  0.00    -0.246 OA
BRANCH  31  33
ATOM     33  C   UNL     1      -1.694   8.635  -4.045  1.00  0.00     0.060 A 
ATOM     34  C   UNL     1      -0.029   9.150  -4.665  1.00  0.00     0.016 A 
ATOM     35  C   UNL     1      -1.932   8.485  -2.293  1.00  0.00     0.016 A 
ATOM     36  C   UNL     1       1.339   9.354  -3.434  1.00  0.00     0.010 A 
ATOM     37  C   UNL     1      -0.619   8.660  -1.159  1.00  0.00     0.010 A 
ATOM     38  C   UNL     1       1.002   9.106  -1.648  1.00  0.00    -0.014 A 
BRANCH  38  39
ATOM     39  C   UNL     1       1.811   9.118  -0.346  1.00  0.00     0.031 A 
ATOM     40  C   UNL     1       1.741  10.293   0.560  1.00  0.00     0.074 A 
ATOM     41  C   UNL     1       2.049   7.979   0.397  1.00  0.00     0.049 A 
ATOM     42  N   UNL     1       2.605  10.496   1.510  1.00  0.00    -0.248 NA
ATOM     43  C   UNL     1       0.726  11.342   0.476  1.00  0.00     0.031 C 
ATOM     44  C   UNL     1       1.757   7.739   1.833  1.00  0.00     0.029 A 
ATOM     45  N   UNL     1       2.463   6.725   0.034  1.00  0.00    -0.354 N 
ATOM     46  C   UNL     1       1.978  11.374   2.364  1.00  0.00     0.074 A 
ATOM     47  C   UNL     1       1.103  12.118   1.499  1.00  0.00     0.031 C 
ATOM     48  C   UNL     1       2.058   6.474   2.196  1.00  0.00     0.029 A 
ATOM     49  C   UNL     1       2.537   5.772   1.037  1.00  0.00     0.049 A 
ATOM     50  H   UNL     1       2.697   6.511  -0.897  1.00  0.00     0.167 HD
ATOM     51  C   UNL     1       1.955  11.153   3.718  1.00  0.00     0.037 A 
ATOM     52  C   UNL     1       3.405   4.731   0.954  1.00  0.00     0.037 A 
ATOM     53  C   UNL     1       2.748   9.968   4.122  1.00  0.00     0.049 A 
ATOM     54  C   UNL     1       4.710   5.348   1.457  1.00  0.00     0.074 A 
ATOM     55  C   UNL     1       2.477   8.860   4.913  1.00  0.00     0.029 A 
ATOM     56  N   UNL     1       3.983   9.697   3.522  1.00  0.00    -0.354 N 
ATOM     57  N   UNL     1       4.649   6.522   2.029  1.00  0.00    -0.248 NA
ATOM     58  C   UNL     1       6.072   4.820   1.570  1.00  0.00     0.031 C 
ATOM     59  C   UNL     1       3.531   7.915   4.745  1.00  0.00     0.029 A 
ATOM     60  C   UNL     1       4.465   8.451   3.873  1.00  0.00     0.049 A 
ATOM     61  H   UNL     1       4.452  10.320   2.921  1.00  0.00     0.167 HD
ATOM     62  C   UNL     1       5.790   6.867   2.652  1.00  0.00     0.074 A 
ATOM     63  C   UNL     1       6.694   5.791   2.290  1.00  0.00     0.031 C 
ATOM     64  C   UNL     1       5.791   7.990   3.431  1.00  0.00     0.037 A 
BRANCH  51  65
ATOM     65  C   UNL     1       1.038  11.904   4.699  1.00  0.00     0.058 A 
ATOM     66  C   UNL     1       1.271  11.836   6.092  1.00  0.00     0.135 A 
ATOM     67  C   UNL     1      -0.084  12.697   4.355  1.00  0.00     0.135 A 
ATOM     68  F   UNL     1       2.251  11.072   6.595  1.00  0.00    -0.206 F 
ATOM     69  C   UNL     1       0.511  12.543   7.037  1.00  0.00     0.059 A 
ATOM     70  C   UNL     1      -0.799  13.478   5.266  1.00  0.00     0.059 A 
ATOM     71  F   UNL     1      -0.617  12.705   3.129  1.00  0.00    -0.206 F 
ATOM     72  C   UNL     1      -0.498  13.395   6.611  1.00  0.00     0.060 A 
BRANCH  72  73
ATOM     73  S   UNL     1      -1.409  14.387   7.808  1.00  0.00     0.124 S 
ATOM     74  O   UNL     1      -2.182  13.372   8.515  1.00  0.00    -0.237 OA
ATOM     75  O   UNL     1      -0.337  15.019   8.568  1.00  0.00    -0.237 OA
ATOM     76  O   UNL     1      -2.191  15.295   6.972  1.00  0.00    -0.744 OA
ENDBRANCH  72  73
ENDBRANCH  51  65
BRANCH  52  77
ATOM     77  C   UNL     1       2.930   3.879  -0.203  1.00  0.00     0.058 A 
ATOM     78  C   UNL     1       1.681   3.202  -0.045  1.00  0.00     0.135 A 
ATOM     79  C   UNL     1       3.188   4.177  -1.512  1.00  0.00     0.135 A 
ATOM     80  F   UNL     1       1.383   2.716   1.168  1.00  0.00    -0.206 F 
ATOM     81  C   UNL     1       0.658   3.064  -1.050  1.00  0.00     0.059 A 
ATOM     82  C   UNL     1       2.151   4.034  -2.495  1.00  0.00     0.059 A 
ATOM     83  F   UNL     1       4.326   4.802  -1.871  1.00  0.00    -0.206 F 
ATOM     84  C   UNL     1       0.847   3.519  -2.335  1.00  0.00     0.060 A 
BRANCH  84  85
ATOM     85  S   UNL     1      -0.818   3.571  -3.534  1.00  0.00     0.124 S 
ATOM     86  O   UNL     1      -0.696   2.830  -4.762  1.00  0.00    -0.237 OA
ATOM     87  O   UNL     1      -1.790   2.961  -2.632  1.00  0.00    -0.237 OA
ATOM     88  O   UNL     1      -1.061   4.955  -3.881  1.00  0.00    -0.744 OA
ENDBRANCH  84  85
ENDBRANCH  52  77
BRANCH  64  89
ATOM     89  C   UNL     1       6.994   8.690   3.989  1.00  0.00     0.058 A 
ATOM     90  C   UNL     1       8.279   8.586   3.441  1.00  0.00     0.135 A 
ATOM     91  C   UNL     1       6.843   9.634   5.038  1.00  0.00     0.135 A 
ATOM     92  F   UNL     1       8.526   7.817   2.372  1.00  0.00    -0.206 F 
ATOM     93  C   UNL     1       9.356   9.306   3.953  1.00  0.00     0.059 A 
ATOM     94  C   UNL     1       7.886  10.409   5.515  1.00  0.00     0.059 A 
ATOM     95  F   UNL     1       5.665   9.852   5.641  1.00  0.00    -0.206 F 
ATOM     96  C   UNL     1       9.150  10.208   4.994  1.00  0.00     0.060 A 
BRANCH  96  97
ATOM     97  S   UNL     1      10.543  11.122   5.661  1.00  0.00     0.124 S 
ATOM     98  O   UNL     1      11.151  10.117   6.527  1.00  0.00    -0.237 OA
ATOM     99  O   UNL     1      11.298  11.464   4.460  1.00  0.00    -0.237 OA
ATOM    100  O   UNL     1       9.916  12.249   6.343  1.00  0.00    -0.744 OA
ENDBRANCH  96  97
ENDBRANCH  64  89
ENDBRANCH  38  39
ENDBRANCH  31  33
ENDBRANCH  30  31
ENDBRANCH   1  30
TORSDOF 17
