REMARK SMILES NS(=O)(=O)c1ccc(-n2nc(C(=O)NCCCC(=O)OCCOC(=O)c3ccc(-c4c5nc(c(-c6c(F)cc(S(=O)(=O)[O-])cc6F)c6ccc([nH]6)c(-c6c(F)cc(S(=O)(=O)[O-])cc6F)c6nc(c(-c7c(F)cc(S(=O)(=O)[O-])cc7F)c7ccc4[nH]7)C=C6)C=C5)cc3)cc2-c2ccccc2)cc1
REMARK SMILES IDX 18 1 19 2 17 3 16 4 15 5 14 6 12 7 13 8 11 10 9 11 10 12
REMARK SMILES IDX 93 13 92 14 8 15 5 16 6 17 101 18 7 19 100 20 2 21 3 22 4 23
REMARK SMILES IDX 1 24 94 27 95 28 99 29 96 30 98 31 97 32 20 33 21 34 22 35
REMARK SMILES IDX 23 36 24 37 25 38 26 39 27 40 91 41 28 42 90 43 29 44 30 45
REMARK SMILES IDX 31 46 84 47 32 48 89 49 83 50 85 51 33 52 88 53 82 54 81 55
REMARK SMILES IDX 34 57 68 58 47 59 67 60 48 61 51 62 66 63 86 64 49 65 50 66
REMARK SMILES IDX 65 68 87 69 52 70 35 71 36 72 45 73 37 74 38 75 44 76 46 77
REMARK SMILES IDX 39 78 40 79 41 80 42 81 43 82 69 83 70 84 79 85 71 86 72 87
REMARK SMILES IDX 78 88 80 89 73 90 74 91 75 92 76 93 77 94 53 95 54 96 63 97
REMARK SMILES IDX 55 98 56 99 62 100 64 101 57 102 58 103 59 104 60 105 61 106
REMARK H PARENT 14 9 1 25 1 26 85 56 51 67
REMARK Flexibility Score: inf
ROOT
ATOM      1  C   UNL     1       4.428   0.745  14.349  1.00  0.00     0.305 C 
ATOM      2  O   UNL     1       5.056   0.607  15.392  1.00  0.00    -0.252 OA
ENDROOT
BRANCH   1   3
ATOM      3  C   UNL     1       4.520   1.985  13.491  1.00  0.00     0.124 C 
BRANCH   3   4
ATOM      4  C   UNL     1       4.981   1.798  12.047  1.00  0.00     0.033 C 
BRANCH   4   5
ATOM      5  C   UNL     1       4.076   0.984  11.121  1.00  0.00     0.117 C 
BRANCH   5   6
ATOM      6  N   UNL     1       2.741   1.538  11.013  1.00  0.00    -0.351 N 
ATOM      7  C   UNL     1       1.934   1.750   9.919  1.00  0.00     0.271 C 
ATOM      8  O   UNL     1       0.872   2.342  10.131  1.00  0.00    -0.267 OA
ATOM      9  H   UNL     1       2.343   1.811  11.871  1.00  0.00     0.163 HD
BRANCH   7  10
ATOM     10  C   UNL     1       2.317   1.268   8.576  1.00  0.00     0.151 A 
ATOM     11  N   UNL     1       2.253   1.095   6.440  1.00  0.00    -0.232 N 
ATOM     12  N   UNL     1       1.841   1.873   7.467  1.00  0.00    -0.162 NA
ATOM     13  C   UNL     1       3.229   0.193   6.836  1.00  0.00     0.075 A 
ATOM     14  C   UNL     1       3.146   0.174   8.213  1.00  0.00     0.065 A 
BRANCH  11  15
ATOM     15  C   UNL     1       1.677   1.224   5.150  1.00  0.00     0.065 A 
ATOM     16  C   UNL     1       0.776   1.464   2.531  1.00  0.00     0.082 A 
ATOM     17  C   UNL     1       1.032   0.196   3.054  1.00  0.00     0.024 A 
ATOM     18  C   UNL     1       0.911   2.609   3.326  1.00  0.00     0.024 A 
ATOM     19  C   UNL     1       1.494   0.078   4.361  1.00  0.00     0.030 A 
ATOM     20  C   UNL     1       1.330   2.487   4.655  1.00  0.00     0.030 A 
BRANCH  16  21
ATOM     21  S   UNL     1       0.384   1.635   0.816  1.00  0.00     0.238 S 
ATOM     22  O   UNL     1       1.028   2.819   0.302  1.00  0.00    -0.207 OA
ATOM     23  O   UNL     1      -1.026   1.372   0.637  1.00  0.00    -0.207 OA
BRANCH  21  24
ATOM     24  N   UNL     1       1.193   0.348   0.098  1.00  0.00    -0.225 NA
ATOM     25  H   UNL     1       1.026   0.360  -0.908  1.00  0.00     0.137 HD
ATOM     26  H   UNL     1       0.850  -0.530   0.489  1.00  0.00     0.137 HD
ENDBRANCH  21  24
ENDBRANCH  16  21
ENDBRANCH  11  15
BRANCH  13  27
ATOM     27  C   UNL     1       4.170  -0.494   5.947  1.00  0.00     0.000 A 
ATOM     28  C   UNL     1       4.852   0.222   4.948  1.00  0.00     0.010 A 
ATOM     29  C   UNL     1       4.448  -1.855   6.111  1.00  0.00     0.010 A 
ATOM     30  C   UNL     1       5.777  -0.414   4.120  1.00  0.00     0.001 A 
ATOM     31  C   UNL     1       5.377  -2.490   5.282  1.00  0.00     0.001 A 
ATOM     32  C   UNL     1       6.040  -1.770   4.289  1.00  0.00     0.000 A 
ENDBRANCH  13  27
ENDBRANCH   7  10
ENDBRANCH   5   6
ENDBRANCH   4   5
ENDBRANCH   3   4
ENDBRANCH   1   3
BRANCH   1  33
ATOM     33  O   UNL     1       3.517  -0.142  13.865  1.00  0.00    -0.462 OA
BRANCH  33  34
ATOM     34  C   UNL     1       3.379  -1.379  14.592  1.00  0.00     0.274 C 
BRANCH  34  35
ATOM     35  C   UNL     1       4.323  -2.458  14.076  1.00  0.00     0.275 C 
BRANCH  35  36
ATOM     36  O   UNL     1       5.677  -2.136  14.387  1.00  0.00    -0.458 OA
BRANCH  36  37
ATOM     37  C   UNL     1       6.340  -1.484  13.409  1.00  0.00     0.338 C 
ATOM     38  O   UNL     1       5.865  -1.048  12.374  1.00  0.00    -0.246 OA
BRANCH  37  39
ATOM     39  C   UNL     1       7.780  -1.513  13.662  1.00  0.00     0.060 A 
ATOM     40  C   UNL     1       8.600  -0.791  12.785  1.00  0.00     0.016 A 
ATOM     41  C   UNL     1       8.288  -2.484  14.531  1.00  0.00     0.016 A 
ATOM     42  C   UNL     1       9.911  -1.186  12.637  1.00  0.00     0.010 A 
ATOM     43  C   UNL     1       9.586  -2.893  14.363  1.00  0.00     0.010 A 
ATOM     44  C   UNL     1      10.351  -2.293  13.363  1.00  0.00    -0.014 A 
BRANCH  44  45
ATOM     45  C   UNL     1      11.650  -2.848  13.052  1.00  0.00     0.031 A 
ATOM     46  C   UNL     1      12.780  -2.153  13.704  1.00  0.00     0.074 A 
ATOM     47  C   UNL     1      11.753  -4.008  12.377  1.00  0.00     0.049 A 
ATOM     48  N   UNL     1      13.763  -1.521  13.155  1.00  0.00    -0.248 NA
ATOM     49  C   UNL     1      12.727  -2.028  15.170  1.00  0.00     0.031 C 
ATOM     50  C   UNL     1      10.669  -4.923  11.998  1.00  0.00     0.029 A 
ATOM     51  N   UNL     1      12.870  -4.682  12.003  1.00  0.00    -0.354 N 
ATOM     52  C   UNL     1      14.567  -1.106  14.212  1.00  0.00     0.074 A 
ATOM     53  C   UNL     1      13.784  -1.256  15.409  1.00  0.00     0.031 C 
ATOM     54  C   UNL     1      11.199  -6.120  11.663  1.00  0.00     0.029 A 
ATOM     55  C   UNL     1      12.648  -6.014  11.685  1.00  0.00     0.049 A 
ATOM     56  H   UNL     1      13.759  -4.263  11.960  1.00  0.00     0.167 HD
ATOM     57  C   UNL     1      15.906  -0.923  14.065  1.00  0.00     0.037 A 
ATOM     58  C   UNL     1      13.599  -6.972  11.556  1.00  0.00     0.037 A 
ATOM     59  C   UNL     1      16.275  -0.808  12.679  1.00  0.00     0.049 A 
ATOM     60  C   UNL     1      14.899  -6.279  11.351  1.00  0.00     0.074 A 
ATOM     61  C   UNL     1      15.972   0.074  11.661  1.00  0.00     0.029 A 
ATOM     62  N   UNL     1      16.804  -1.922  12.074  1.00  0.00    -0.354 N 
ATOM     63  N   UNL     1      15.189  -5.557  10.302  1.00  0.00    -0.248 NA
ATOM     64  C   UNL     1      15.742  -6.042  12.514  1.00  0.00     0.031 C 
ATOM     65  C   UNL     1      15.937  -0.715  10.476  1.00  0.00     0.029 A 
ATOM     66  C   UNL     1      16.252  -2.031  10.823  1.00  0.00     0.049 A 
ATOM     67  H   UNL     1      17.465  -2.535  12.470  1.00  0.00     0.167 HD
ATOM     68  C   UNL     1      15.960  -4.509  10.786  1.00  0.00     0.074 A 
ATOM     69  C   UNL     1      16.364  -4.926  12.124  1.00  0.00     0.031 C 
ATOM     70  C   UNL     1      15.963  -3.291  10.168  1.00  0.00     0.037 A 
BRANCH  57  71
ATOM     71  C   UNL     1      16.912  -1.222  15.151  1.00  0.00     0.058 A 
ATOM     72  C   UNL     1      18.247  -0.805  14.991  1.00  0.00     0.135 A 
ATOM     73  C   UNL     1      16.680  -2.135  16.207  1.00  0.00     0.135 A 
ATOM     74  F   UNL     1      18.583   0.047  14.010  1.00  0.00    -0.206 F 
ATOM     75  C   UNL     1      19.284  -1.309  15.778  1.00  0.00     0.059 A 
ATOM     76  C   UNL     1      17.687  -2.599  17.043  1.00  0.00     0.059 A 
ATOM     77  F   UNL     1      15.487  -2.704  16.417  1.00  0.00    -0.206 F 
ATOM     78  C   UNL     1      18.993  -2.219  16.790  1.00  0.00     0.060 A 
BRANCH  78  79
ATOM     79  S   UNL     1      20.335  -2.976  17.721  1.00  0.00     0.124 S 
ATOM     80  O   UNL     1      20.918  -3.859  16.717  1.00  0.00    -0.237 OA
ATOM     81  O   UNL     1      21.136  -1.816  18.098  1.00  0.00    -0.237 OA
ATOM     82  O   UNL     1      19.646  -3.639  18.823  1.00  0.00    -0.744 OA
ENDBRANCH  78  79
ENDBRANCH  57  71
BRANCH  58  83
ATOM     83  C   UNL     1      13.498  -8.398  11.966  1.00  0.00     0.058 A 
ATOM     84  C   UNL     1      14.430  -9.352  11.527  1.00  0.00     0.135 A 
ATOM     85  C   UNL     1      12.638  -8.804  13.009  1.00  0.00     0.135 A 
ATOM     86  F   UNL     1      15.306  -9.041  10.559  1.00  0.00    -0.206 F 
ATOM     87  C   UNL     1      14.531 -10.620  12.111  1.00  0.00     0.059 A 
ATOM     88  C   UNL     1      12.709 -10.065  13.596  1.00  0.00     0.059 A 
ATOM     89  F   UNL     1      11.758  -7.952  13.556  1.00  0.00    -0.206 F 
ATOM     90  C   UNL     1      13.675 -10.961  13.158  1.00  0.00     0.060 A 
BRANCH  90  91
ATOM     91  S   UNL     1      13.905 -12.532  14.023  1.00  0.00     0.124 S 
ATOM     92  O   UNL     1      13.483 -13.496  13.013  1.00  0.00    -0.237 OA
ATOM     93  O   UNL     1      15.331 -12.509  14.328  1.00  0.00    -0.237 OA
ATOM     94  O   UNL     1      13.021 -12.415  15.180  1.00  0.00    -0.744 OA
ENDBRANCH  90  91
ENDBRANCH  58  83
BRANCH  70  95
ATOM     95  C   UNL     1      15.392  -3.209   8.774  1.00  0.00     0.058 A 
ATOM     96  C   UNL     1      14.033  -3.396   8.466  1.00  0.00     0.135 A 
ATOM     97  C   UNL     1      16.228  -2.771   7.736  1.00  0.00     0.135 A 
ATOM     98  F   UNL     1      13.148  -3.713   9.420  1.00  0.00    -0.206 F 
ATOM     99  C   UNL     1      13.535  -3.192   7.178  1.00  0.00     0.059 A 
ATOM    100  C   UNL     1      15.747  -2.531   6.451  1.00  0.00     0.059 A 
ATOM    101  F   UNL     1      17.523  -2.513   7.981  1.00  0.00    -0.206 F 
ATOM    102  C   UNL     1      14.399  -2.754   6.176  1.00  0.00     0.060 A 
BRANCH 102 103
ATOM    103  S   UNL     1      13.732  -2.395   4.537  1.00  0.00     0.124 S 
ATOM    104  O   UNL     1      13.481  -3.731   4.007  1.00  0.00    -0.237 OA
ATOM    105  O   UNL     1      12.543  -1.603   4.841  1.00  0.00    -0.237 OA
ATOM    106  O   UNL     1      14.809  -1.656   3.883  1.00  0.00    -0.744 OA
ENDBRANCH 102 103
ENDBRANCH  70  95
ENDBRANCH  44  45
ENDBRANCH  37  39
ENDBRANCH  36  37
ENDBRANCH  35  36
ENDBRANCH  34  35
ENDBRANCH  33  34
ENDBRANCH   1  33
TORSDOF 22
