REMARK SMILES Cc1ccc(-c2ccc(/C=C(\C#N)C3N=c4ccccc4=N3)o2)cc1C(=O)OCCOC(=O)c1ccc(-c2c3nc(c(-c4c(F)cc(S(=O)(=O)[O-])cc4F)c4ccc([nH]4)c(-c4c(F)cc(S(=O)(=O)[O-])cc4F)c4nc(c(-c5c(F)cc(S(=O)(=O)[O-])cc5F)c5ccc2[nH]5)C=C4)C=C3)cc1
REMARK SMILES IDX 29 1 28 2 26 3 27 4 25 5 1 6 2 7 3 8 4 9 24 10 5 11 6 12
REMARK SMILES IDX 7 13 23 14 8 15 9 16 10 17 11 18 12 19 13 20 14 21 15 22
REMARK SMILES IDX 22 23 16 24 21 25 17 26 20 27 18 28 19 29 30 30 31 31 32 32
REMARK SMILES IDX 33 33 34 34 35 35 99 36 36 37 98 38 37 39 38 40 39 41 92 42
REMARK SMILES IDX 40 43 97 44 91 45 93 46 41 47 96 48 90 49 89 50 42 52 76 53
REMARK SMILES IDX 55 54 75 55 56 56 59 57 74 58 94 59 57 60 58 61 73 63 95 64
REMARK SMILES IDX 60 65 43 66 44 67 53 68 45 69 46 70 52 71 54 72 47 73 48 74
REMARK SMILES IDX 49 75 50 76 51 77 77 78 78 79 87 80 79 81 80 82 86 83 88 84
REMARK SMILES IDX 81 85 82 86 83 87 84 88 85 89 61 90 62 91 71 92 63 93 64 94
REMARK SMILES IDX 70 95 72 96 65 97 66 98 67 99 68 100 69 101
REMARK H PARENT 93 51 59 62
REMARK Flexibility Score: inf
ROOT
ATOM      1  C   UNL     1       3.341   2.532  -1.836  1.00  0.00     0.275 C 
ENDROOT
BRANCH   1   2
ATOM      2  O   UNL     1       2.252   1.592  -2.018  1.00  0.00    -0.458 OA
BRANCH   2   3
ATOM      3  C   UNL     1       1.860   1.016  -0.852  1.00  0.00     0.338 C 
ATOM      4  O   UNL     1       2.418   1.223   0.216  1.00  0.00    -0.246 OA
BRANCH   3   5
ATOM      5  C   UNL     1       0.831  -0.052  -0.888  1.00  0.00     0.063 A 
ATOM      6  C   UNL     1       2.704  -1.710  -0.346  1.00  0.00     0.045 C 
ATOM      7  C   UNL     1       1.250  -1.329  -0.468  1.00  0.00    -0.037 A 
ATOM      8  C   UNL     1       0.278  -2.286  -0.145  1.00  0.00     0.005 A 
ATOM      9  C   UNL     1      -1.084  -1.960  -0.141  1.00  0.00     0.012 A 
ATOM     10  C   UNL     1      -0.551   0.245  -0.952  1.00  0.00     0.028 A 
ATOM     11  C   UNL     1      -1.525  -0.689  -0.522  1.00  0.00     0.018 A 
BRANCH  11  12
ATOM     12  C   UNL     1      -2.958  -0.352  -0.448  1.00  0.00     0.134 A 
ATOM     13  C   UNL     1      -3.762   0.514  -1.153  1.00  0.00     0.051 A 
ATOM     14  O   UNL     1      -3.724  -0.984   0.514  1.00  0.00    -0.457 OA
ATOM     15  C   UNL     1      -5.065   0.390  -0.617  1.00  0.00     0.051 A 
ATOM     16  C   UNL     1      -5.027  -0.512   0.443  1.00  0.00     0.128 A 
BRANCH  16  17
ATOM     17  C   UNL     1      -6.144  -0.884   1.264  1.00  0.00     0.066 C 
ATOM     18  C   UNL     1      -6.130  -1.542   2.443  1.00  0.00     0.080 C 
BRANCH  18  19
ATOM     19  C   UNL     1      -4.935  -1.987   3.067  1.00  0.00     0.099 C 
ATOM     20  N   UNL     1      -4.006  -2.419   3.633  1.00  0.00    -0.193 NA
ENDBRANCH  18  19
BRANCH  18  21
ATOM     21  C   UNL     1      -7.439  -1.863   3.159  1.00  0.00     0.263 C 
ATOM     22  N   UNL     1      -7.710  -3.330   3.099  1.00  0.00    -0.251 NA
ATOM     23  N   UNL     1      -7.433  -1.402   4.577  1.00  0.00    -0.251 NA
ATOM     24  C   UNL     1      -7.768  -3.659   4.344  1.00  0.00     0.086 A 
ATOM     25  C   UNL     1      -7.611  -2.493   5.240  1.00  0.00     0.086 A 
ATOM     26  C   UNL     1      -7.962  -4.994   4.922  1.00  0.00     0.030 A 
ATOM     27  C   UNL     1      -7.680  -2.695   6.693  1.00  0.00     0.030 A 
ATOM     28  C   UNL     1      -7.986  -5.093   6.259  1.00  0.00     0.002 A 
ATOM     29  C   UNL     1      -7.853  -3.948   7.139  1.00  0.00     0.002 A 
ENDBRANCH  18  21
ENDBRANCH  16  17
ENDBRANCH  11  12
ENDBRANCH   3   5
ENDBRANCH   2   3
ENDBRANCH   1   2
BRANCH   1  30
ATOM     30  C   UNL     1       3.222   3.833  -2.658  1.00  0.00     0.275 C 
BRANCH  30  31
ATOM     31  O   UNL     1       2.042   4.663  -2.554  1.00  0.00    -0.458 OA
BRANCH  31  32
ATOM     32  C   UNL     1       0.910   4.091  -2.062  1.00  0.00     0.338 C 
ATOM     33  O   UNL     1       0.185   3.366  -2.720  1.00  0.00    -0.246 OA
BRANCH  32  34
ATOM     34  C   UNL     1       0.918   4.201  -0.578  1.00  0.00     0.060 A 
ATOM     35  C   UNL     1       0.036   3.410   0.174  1.00  0.00     0.016 A 
ATOM     36  C   UNL     1       2.040   4.780   0.013  1.00  0.00     0.016 A 
ATOM     37  C   UNL     1       0.337   3.082   1.486  1.00  0.00     0.010 A 
ATOM     38  C   UNL     1       2.455   4.288   1.214  1.00  0.00     0.010 A 
ATOM     39  C   UNL     1       1.569   3.502   1.967  1.00  0.00    -0.014 A 
BRANCH  39  40
ATOM     40  C   UNL     1       1.910   3.519   3.371  1.00  0.00     0.031 A 
ATOM     41  C   UNL     1       2.494   2.309   3.981  1.00  0.00     0.074 A 
ATOM     42  C   UNL     1       1.788   4.802   3.802  1.00  0.00     0.049 A 
ATOM     43  N   UNL     1       2.558   2.107   5.242  1.00  0.00    -0.248 NA
ATOM     44  C   UNL     1       3.028   1.157   3.250  1.00  0.00     0.031 C 
ATOM     45  C   UNL     1       2.259   5.552   4.946  1.00  0.00     0.029 A 
ATOM     46  N   UNL     1       0.965   5.750   3.146  1.00  0.00    -0.354 N 
ATOM     47  C   UNL     1       3.490   1.103   5.462  1.00  0.00     0.074 A 
ATOM     48  C   UNL     1       3.590   0.414   4.213  1.00  0.00     0.031 C 
ATOM     49  C   UNL     1       1.449   6.623   5.116  1.00  0.00     0.029 A 
ATOM     50  C   UNL     1       0.382   6.546   4.116  1.00  0.00     0.049 A 
ATOM     51  H   UNL     1       0.831   5.827   2.174  1.00  0.00     0.167 HD
ATOM     52  C   UNL     1       4.195   1.156   6.630  1.00  0.00     0.037 A 
ATOM     53  C   UNL     1      -0.944   6.298   4.339  1.00  0.00     0.037 A 
ATOM     54  C   UNL     1       3.671   2.287   7.397  1.00  0.00     0.049 A 
ATOM     55  C   UNL     1      -1.041   5.557   5.655  1.00  0.00     0.074 A 
ATOM     56  C   UNL     1       4.078   3.608   7.474  1.00  0.00     0.029 A 
ATOM     57  N   UNL     1       2.340   2.253   7.792  1.00  0.00    -0.354 N 
ATOM     58  N   UNL     1      -0.202   4.637   6.067  1.00  0.00    -0.248 NA
ATOM     59  C   UNL     1      -1.945   6.023   6.698  1.00  0.00     0.031 C 
ATOM     60  C   UNL     1       2.934   4.380   7.828  1.00  0.00     0.029 A 
ATOM     61  C   UNL     1       1.833   3.536   7.901  1.00  0.00     0.049 A 
ATOM     62  H   UNL     1       1.829   1.431   7.971  1.00  0.00     0.167 HD
ATOM     63  C   UNL     1      -0.362   4.473   7.421  1.00  0.00     0.074 A 
ATOM     64  C   UNL     1      -1.474   5.351   7.759  1.00  0.00     0.031 C 
ATOM     65  C   UNL     1       0.435   3.727   8.247  1.00  0.00     0.037 A 
BRANCH  52  66
ATOM     66  C   UNL     1       5.485   0.450   7.014  1.00  0.00     0.058 A 
ATOM     67  C   UNL     1       6.168   0.873   8.182  1.00  0.00     0.135 A 
ATOM     68  C   UNL     1       6.136  -0.583   6.307  1.00  0.00     0.135 A 
ATOM     69  F   UNL     1       5.664   1.821   8.985  1.00  0.00    -0.206 F 
ATOM     70  C   UNL     1       7.398   0.357   8.590  1.00  0.00     0.059 A 
ATOM     71  C   UNL     1       7.374  -1.124   6.704  1.00  0.00     0.059 A 
ATOM     72  F   UNL     1       5.609  -1.126   5.205  1.00  0.00    -0.206 F 
ATOM     73  C   UNL     1       8.002  -0.639   7.843  1.00  0.00     0.060 A 
BRANCH  73  74
ATOM     74  S   UNL     1       9.589  -1.283   8.409  1.00  0.00     0.124 S 
ATOM     75  O   UNL     1      10.449  -0.108   8.304  1.00  0.00    -0.237 OA
ATOM     76  O   UNL     1       9.279  -1.720   9.766  1.00  0.00    -0.237 OA
ATOM     77  O   UNL     1       9.883  -2.354   7.462  1.00  0.00    -0.744 OA
ENDBRANCH  73  74
ENDBRANCH  52  66
BRANCH  53  78
ATOM     78  C   UNL     1      -1.744   6.089   3.067  1.00  0.00     0.058 A 
ATOM     79  C   UNL     1      -1.624   7.073   2.051  1.00  0.00     0.135 A 
ATOM     80  C   UNL     1      -2.392   4.905   2.686  1.00  0.00     0.135 A 
ATOM     81  F   UNL     1      -1.048   8.256   2.329  1.00  0.00    -0.206 F 
ATOM     82  C   UNL     1      -1.991   6.853   0.722  1.00  0.00     0.059 A 
ATOM     83  C   UNL     1      -2.804   4.671   1.353  1.00  0.00     0.059 A 
ATOM     84  F   UNL     1      -2.568   3.915   3.572  1.00  0.00    -0.206 F 
ATOM     85  C   UNL     1      -2.563   5.636   0.370  1.00  0.00     0.060 A 
BRANCH  85  86
ATOM     86  S   UNL     1      -2.789   5.284  -1.401  1.00  0.00     0.124 S 
ATOM     87  O   UNL     1      -4.040   5.975  -1.692  1.00  0.00    -0.237 OA
ATOM     88  O   UNL     1      -1.591   5.885  -1.983  1.00  0.00    -0.237 OA
ATOM     89  O   UNL     1      -2.853   3.827  -1.449  1.00  0.00    -0.744 OA
ENDBRANCH  85  86
ENDBRANCH  53  78
BRANCH  65  90
ATOM     90  C   UNL     1      -0.055   3.158   9.557  1.00  0.00     0.058 A 
ATOM     91  C   UNL     1      -1.417   2.987   9.852  1.00  0.00     0.135 A 
ATOM     92  C   UNL     1       0.848   2.606  10.501  1.00  0.00     0.135 A 
ATOM     93  F   UNL     1      -2.380   3.298   8.974  1.00  0.00    -0.206 F 
ATOM     94  C   UNL     1      -1.852   2.456  11.057  1.00  0.00     0.059 A 
ATOM     95  C   UNL     1       0.430   1.970  11.660  1.00  0.00     0.059 A 
ATOM     96  F   UNL     1       2.178   2.648  10.334  1.00  0.00    -0.206 F 
ATOM     97  C   UNL     1      -0.920   1.959  11.958  1.00  0.00     0.060 A 
BRANCH  97  98
ATOM     98  S   UNL     1      -1.490   1.306  13.526  1.00  0.00     0.124 S 
ATOM     99  O   UNL     1      -1.672   2.535  14.292  1.00  0.00    -0.237 OA
ATOM    100  O   UNL     1      -2.716   0.607  13.152  1.00  0.00    -0.237 OA
ATOM    101  O   UNL     1      -0.392   0.448  13.957  1.00  0.00    -0.744 OA
ENDBRANCH  97  98
ENDBRANCH  65  90
ENDBRANCH  39  40
ENDBRANCH  32  34
ENDBRANCH  31  32
ENDBRANCH  30  31
ENDBRANCH   1  30
TORSDOF 18
