REMARK SMILES CCCCCCNC(=O)Oc1cccc(-c2ccc(CC(=O)OCCOC(=O)c3ccc(-c4c5nc(c(-c6c(F)cc(S(=O)(=O)[O-])cc6F)c6ccc([nH]6)c(-c6c(F)cc(S(=O)(=O)[O-])cc6F)c6nc(c(-c7c(F)cc(S(=O)(=O)[O-])cc7F)c7ccc4[nH]7)C=C6)C=C5)cc3)cc2F)c1
REMARK SMILES IDX 20 1 19 2 16 3 17 4 96 5 18 6 95 7 97 8 15 9 11 10 12 11
REMARK SMILES IDX 98 12 13 13 14 14 10 15 8 16 7 17 9 19 6 20 5 21 4 22 3 23
REMARK SMILES IDX 2 24 1 25 21 26 22 27 23 28 24 29 25 30 26 31 27 32 28 33
REMARK SMILES IDX 29 34 30 35 94 36 31 37 93 38 32 39 33 40 34 41 87 42 35 43
REMARK SMILES IDX 92 44 86 45 88 46 36 47 91 48 85 49 84 50 37 52 71 53 50 54
REMARK SMILES IDX 70 55 51 56 54 57 69 58 89 59 52 60 53 61 68 63 90 64 55 65
REMARK SMILES IDX 38 66 39 67 48 68 40 69 41 70 47 71 49 72 42 73 43 74 44 75
REMARK SMILES IDX 45 76 46 77 72 78 73 79 82 80 74 81 75 82 81 83 83 84 76 85
REMARK SMILES IDX 77 86 78 87 79 88 80 89 56 90 57 91 66 92 58 93 59 94 65 95
REMARK SMILES IDX 67 96 60 97 61 98 62 99 63 100 64 101
REMARK H PARENT 7 18 88 51 54 62
REMARK Flexibility Score: inf
ROOT
ATOM      1  C   UNL     1      -4.572   9.693  -8.905  1.00  0.00     0.158 C 
ENDROOT
BRANCH   1   2
ATOM      2  C   UNL     1      -4.810   9.301  -7.467  1.00  0.00    -0.034 A 
ATOM      3  C   UNL     1      -5.098   8.491  -4.764  1.00  0.00     0.018 A 
ATOM      4  C   UNL     1      -4.823   9.826  -5.087  1.00  0.00     0.012 A 
ATOM      5  C   UNL     1      -5.246   7.582  -5.820  1.00  0.00     0.131 A 
ATOM      6  C   UNL     1      -4.675  10.225  -6.421  1.00  0.00     0.005 A 
ATOM      7  C   UNL     1      -5.111   7.973  -7.150  1.00  0.00     0.044 A 
ATOM      8  F   UNL     1      -5.514   6.291  -5.567  1.00  0.00    -0.206 F 
BRANCH   3   9
ATOM      9  C   UNL     1      -5.185   8.047  -3.371  1.00  0.00    -0.012 A 
ATOM     10  C   UNL     1      -4.313   6.730  -1.531  1.00  0.00     0.133 A 
ATOM     11  C   UNL     1      -5.378   7.111  -0.720  1.00  0.00     0.047 A 
ATOM     12  C   UNL     1      -4.218   7.175  -2.849  1.00  0.00     0.056 A 
ATOM     13  C   UNL     1      -6.339   7.986  -1.224  1.00  0.00     0.004 A 
ATOM     14  C   UNL     1      -6.240   8.456  -2.538  1.00  0.00     0.009 A 
BRANCH  10  15
ATOM     15  O   UNL     1      -3.410   5.786  -1.021  1.00  0.00    -0.410 OA
BRANCH  15  16
ATOM     16  C   UNL     1      -2.064   6.125  -1.055  1.00  0.00     0.412 C 
ATOM     17  N   UNL     1      -1.242   5.106  -0.657  1.00  0.00    -0.321 N 
ATOM     18  H   UNL     1      -0.277   5.301  -0.643  1.00  0.00     0.167 HD
ATOM     19  O   UNL     1      -1.598   7.206  -1.391  1.00  0.00    -0.224 OA
BRANCH  17  20
ATOM     20  C   UNL     1      -1.638   3.773  -0.255  1.00  0.00     0.119 C 
BRANCH  20  21
ATOM     21  C   UNL     1      -1.026   2.698  -1.154  1.00  0.00     0.021 C 
BRANCH  21  22
ATOM     22  C   UNL     1       0.504   2.609  -1.108  1.00  0.00     0.002 C 
BRANCH  22  23
ATOM     23  C   UNL     1       1.112   2.348   0.274  1.00  0.00    -0.000 C 
BRANCH  23  24
ATOM     24  C   UNL     1       0.634   1.073   0.973  1.00  0.00    -0.003 C 
ATOM     25  C   UNL     1       0.997  -0.199   0.221  1.00  0.00     0.004 C 
ENDBRANCH  23  24
ENDBRANCH  22  23
ENDBRANCH  21  22
ENDBRANCH  20  21
ENDBRANCH  17  20
ENDBRANCH  15  16
ENDBRANCH  10  15
ENDBRANCH   3   9
ENDBRANCH   1   2
BRANCH   1  26
ATOM     26  C   UNL     1      -5.585  10.601  -9.557  1.00  0.00     0.310 C 
ATOM     27  O   UNL     1      -5.317  11.244 -10.567  1.00  0.00    -0.252 OA
BRANCH  26  28
ATOM     28  O   UNL     1      -6.805  10.581  -8.958  1.00  0.00    -0.462 OA
BRANCH  28  29
ATOM     29  C   UNL     1      -7.803  11.433  -9.551  1.00  0.00     0.274 C 
BRANCH  29  30
ATOM     30  C   UNL     1      -7.909  12.761  -8.805  1.00  0.00     0.275 C 
BRANCH  30  31
ATOM     31  O   UNL     1      -6.655  13.463  -8.853  1.00  0.00    -0.458 OA
BRANCH  31  32
ATOM     32  C   UNL     1      -6.047  13.654  -7.661  1.00  0.00     0.338 C 
ATOM     33  O   UNL     1      -6.455  13.340  -6.556  1.00  0.00    -0.246 OA
BRANCH  32  34
ATOM     34  C   UNL     1      -4.749  14.309  -7.872  1.00  0.00     0.060 A 
ATOM     35  C   UNL     1      -3.658  13.559  -8.315  1.00  0.00     0.016 A 
ATOM     36  C   UNL     1      -4.592  15.646  -7.506  1.00  0.00     0.016 A 
ATOM     37  C   UNL     1      -2.389  14.134  -8.352  1.00  0.00     0.010 A 
ATOM     38  C   UNL     1      -3.329  16.236  -7.598  1.00  0.00     0.010 A 
ATOM     39  C   UNL     1      -2.213  15.479  -7.997  1.00  0.00    -0.014 A 
BRANCH  39  40
ATOM     40  C   UNL     1      -0.863  16.096  -8.019  1.00  0.00     0.031 A 
ATOM     41  C   UNL     1      -0.214  16.533  -6.734  1.00  0.00     0.074 A 
ATOM     42  C   UNL     1      -0.231  16.284  -9.193  1.00  0.00     0.049 A 
ATOM     43  N   UNL     1       0.884  17.219  -6.554  1.00  0.00    -0.248 NA
ATOM     44  C   UNL     1      -0.899  16.156  -5.487  1.00  0.00     0.031 C 
ATOM     45  C   UNL     1      -0.742  15.875 -10.503  1.00  0.00     0.029 A 
ATOM     46  N   UNL     1       0.973  16.878  -9.475  1.00  0.00    -0.354 N 
ATOM     47  C   UNL     1       1.009  17.386  -5.180  1.00  0.00     0.074 A 
ATOM     48  C   UNL     1      -0.135  16.737  -4.572  1.00  0.00     0.031 C 
ATOM     49  C   UNL     1       0.143  16.228 -11.448  1.00  0.00     0.029 A 
ATOM     50  C   UNL     1       1.254  16.937 -10.819  1.00  0.00     0.049 A 
ATOM     51  H   UNL     1       1.577  17.228  -8.782  1.00  0.00     0.167 HD
ATOM     52  C   UNL     1       1.987  18.020  -4.490  1.00  0.00     0.037 A 
ATOM     53  C   UNL     1       2.271  17.527 -11.476  1.00  0.00     0.037 A 
ATOM     54  C   UNL     1       3.136  18.639  -5.101  1.00  0.00     0.049 A 
ATOM     55  C   UNL     1       3.325  18.258 -10.692  1.00  0.00     0.074 A 
ATOM     56  C   UNL     1       4.194  19.286  -4.487  1.00  0.00     0.029 A 
ATOM     57  N   UNL     1       3.377  18.686  -6.467  1.00  0.00    -0.354 N 
ATOM     58  N   UNL     1       3.423  18.419  -9.394  1.00  0.00    -0.248 NA
ATOM     59  C   UNL     1       4.402  18.896 -11.461  1.00  0.00     0.031 C 
ATOM     60  C   UNL     1       5.059  19.755  -5.484  1.00  0.00     0.029 A 
ATOM     61  C   UNL     1       4.559  19.365  -6.716  1.00  0.00     0.049 A 
ATOM     62  H   UNL     1       2.795  18.295  -7.157  1.00  0.00     0.167 HD
ATOM     63  C   UNL     1       4.580  19.162  -9.189  1.00  0.00     0.074 A 
ATOM     64  C   UNL     1       5.154  19.408 -10.497  1.00  0.00     0.031 C 
ATOM     65  C   UNL     1       5.118  19.600  -8.024  1.00  0.00     0.037 A 
BRANCH  52  66
ATOM     66  C   UNL     1       1.844  18.102  -2.996  1.00  0.00     0.058 A 
ATOM     67  C   UNL     1       2.047  16.987  -2.168  1.00  0.00     0.135 A 
ATOM     68  C   UNL     1       1.525  19.324  -2.381  1.00  0.00     0.135 A 
ATOM     69  F   UNL     1       2.340  15.792  -2.705  1.00  0.00    -0.206 F 
ATOM     70  C   UNL     1       1.912  17.073  -0.786  1.00  0.00     0.059 A 
ATOM     71  C   UNL     1       1.407  19.438  -0.999  1.00  0.00     0.059 A 
ATOM     72  F   UNL     1       1.320  20.422  -3.125  1.00  0.00    -0.206 F 
ATOM     73  C   UNL     1       1.588  18.303  -0.210  1.00  0.00     0.060 A 
BRANCH  73  74
ATOM     74  S   UNL     1       1.412  18.403   1.584  1.00  0.00     0.124 S 
ATOM     75  O   UNL     1       0.111  17.771   1.784  1.00  0.00    -0.237 OA
ATOM     76  O   UNL     1       2.564  17.642   2.057  1.00  0.00    -0.237 OA
ATOM     77  O   UNL     1       1.461  19.837   1.851  1.00  0.00    -0.744 OA
ENDBRANCH  73  74
ENDBRANCH  52  66
BRANCH  53  78
ATOM     78  C   UNL     1       2.325  17.465 -12.959  1.00  0.00     0.058 A 
ATOM     79  C   UNL     1       3.278  16.672 -13.614  1.00  0.00     0.135 A 
ATOM     80  C   UNL     1       1.407  18.175 -13.750  1.00  0.00     0.135 A 
ATOM     81  F   UNL     1       4.181  15.984 -12.900  1.00  0.00    -0.206 F 
ATOM     82  C   UNL     1       3.324  16.588 -15.001  1.00  0.00     0.059 A 
ATOM     83  C   UNL     1       1.419  18.088 -15.138  1.00  0.00     0.059 A 
ATOM     84  F   UNL     1       0.468  18.938 -13.169  1.00  0.00    -0.206 F 
ATOM     85  C   UNL     1       2.387  17.297 -15.755  1.00  0.00     0.060 A 
BRANCH  85  86
ATOM     86  S   UNL     1       2.414  17.132 -17.553  1.00  0.00     0.124 S 
ATOM     87  O   UNL     1       3.557  17.965 -17.907  1.00  0.00    -0.237 OA
ATOM     88  O   UNL     1       2.593  15.694 -17.729  1.00  0.00    -0.237 OA
ATOM     89  O   UNL     1       1.108  17.645 -17.956  1.00  0.00    -0.744 OA
ENDBRANCH  85  86
ENDBRANCH  53  78
BRANCH  65  90
ATOM     90  C   UNL     1       6.407  20.366  -8.108  1.00  0.00     0.058 A 
ATOM     91  C   UNL     1       6.444  21.698  -8.548  1.00  0.00     0.135 A 
ATOM     92  C   UNL     1       7.614  19.774  -7.704  1.00  0.00     0.135 A 
ATOM     93  F   UNL     1       5.318  22.307  -8.954  1.00  0.00    -0.206 F 
ATOM     94  C   UNL     1       7.636  22.412  -8.602  1.00  0.00     0.059 A 
ATOM     95  C   UNL     1       8.815  20.476  -7.729  1.00  0.00     0.059 A 
ATOM     96  F   UNL     1       7.631  18.504  -7.267  1.00  0.00    -0.206 F 
ATOM     97  C   UNL     1       8.818  21.791  -8.191  1.00  0.00     0.060 A 
BRANCH  97  98
ATOM     98  S   UNL     1      10.356  22.735  -8.235  1.00  0.00     0.124 S 
ATOM     99  O   UNL     1      10.671  22.716  -9.660  1.00  0.00    -0.237 OA
ATOM    100  O   UNL     1       9.948  24.028  -7.694  1.00  0.00    -0.237 OA
ATOM    101  O   UNL     1      11.254  21.961  -7.383  1.00  0.00    -0.744 OA
ENDBRANCH  97  98
ENDBRANCH  65  90
ENDBRANCH  39  40
ENDBRANCH  32  34
ENDBRANCH  31  32
ENDBRANCH  30  31
ENDBRANCH  29  30
ENDBRANCH  28  29
ENDBRANCH  26  28
ENDBRANCH   1  26
TORSDOF 23
