REMARK SMILES COc1ccc(/C=C2/SC(=S)N(CC(=O)OCCOC(=O)c3ccc(-c4c5nc(c(-c6c(F)cc(S(=O)(=O)[O-])cc6F)c6ccc([nH]6)c(-c6c(F)cc(S(=O)(=O)[O-])cc6F)c6nc(c(-c7c(F)cc(S(=O)(=O)[O-])cc7F)c7ccc4[nH]7)C=C6)C=C5)cc3)C2=O)cc1[N+](=O)[O-]
REMARK SMILES IDX 17 1 16 2 14 3 15 4 13 5 12 6 7 7 8 8 9 9 88 10 10 11 89 12
REMARK SMILES IDX 11 13 6 14 3 15 4 16 91 17 5 18 90 19 2 20 1 21 92 22 93 23
REMARK SMILES IDX 94 24 18 25 19 26 20 27 21 28 22 29 23 30 87 31 24 32 86 33
REMARK SMILES IDX 25 34 26 35 27 36 80 37 28 38 85 39 79 40 81 41 29 42 84 43
REMARK SMILES IDX 78 44 77 45 30 47 64 48 43 49 63 50 44 51 47 52 62 53 82 54
REMARK SMILES IDX 45 55 46 56 61 58 83 59 48 60 31 61 32 62 41 63 33 64 34 65
REMARK SMILES IDX 40 66 42 67 35 68 36 69 37 70 38 71 39 72 65 73 66 74 75 75
REMARK SMILES IDX 67 76 68 77 74 78 76 79 69 80 70 81 71 82 72 83 73 84 49 85
REMARK SMILES IDX 50 86 59 87 51 88 52 89 58 90 60 91 53 92 54 93 55 94 56 95
REMARK SMILES IDX 57 96
REMARK H PARENT 81 46 47 57
REMARK Flexibility Score: inf
ROOT
ATOM      1  C   UNL     1       7.914  -3.082  -4.209  1.00  0.00     0.274 C 
ENDROOT
BRANCH   1   2
ATOM      2  O   UNL     1       6.865  -3.514  -5.106  1.00  0.00    -0.461 OA
BRANCH   2   3
ATOM      3  C   UNL     1       6.692  -4.859  -5.211  1.00  0.00     0.326 C 
ATOM      4  O   UNL     1       7.379  -5.693  -4.629  1.00  0.00    -0.250 OA
BRANCH   3   5
ATOM      5  C   UNL     1       5.579  -5.274  -6.169  1.00  0.00     0.250 C 
BRANCH   5   6
ATOM      6  N   UNL     1       4.750  -4.205  -6.727  1.00  0.00    -0.282 N 
ATOM      7  C   UNL     1       2.013  -1.845  -6.276  1.00  0.00     0.029 C 
ATOM      8  C   UNL     1       2.932  -2.699  -6.752  1.00  0.00     0.081 C 
ATOM      9  S   UNL     1       3.607  -2.549  -8.334  1.00  0.00    -0.054 SA
ATOM     10  C   UNL     1       3.608  -3.821  -6.040  1.00  0.00     0.266 C 
ATOM     11  C   UNL     1       4.955  -3.619  -7.953  1.00  0.00     0.148 C 
ATOM     12  O   UNL     1       3.147  -4.390  -5.065  1.00  0.00    -0.268 OA
ATOM     13  S   UNL     1       6.235  -3.840  -9.000  1.00  0.00    -0.052 S 
BRANCH   7  14
ATOM     14  C   UNL     1       1.655  -1.700  -4.862  1.00  0.00    -0.017 A 
ATOM     15  C   UNL     1       1.079  -1.360  -2.119  1.00  0.00     0.196 A 
ATOM     16  C   UNL     1       0.149  -1.959  -2.977  1.00  0.00     0.054 A 
ATOM     17  C   UNL     1       2.302  -0.945  -2.644  1.00  0.00     0.311 A 
ATOM     18  C   UNL     1       0.432  -2.127  -4.342  1.00  0.00     0.012 A 
ATOM     19  C   UNL     1       2.576  -1.079  -4.012  1.00  0.00     0.098 A 
BRANCH  15  20
ATOM     20  O   UNL     1       0.735  -1.291  -0.798  1.00  0.00    -0.490 OA
ATOM     21  C   UNL     1       0.452   0.045  -0.380  1.00  0.00     0.278 C 
ENDBRANCH  15  20
BRANCH  17  22
ATOM     22  N   UNL     1       3.356  -0.398  -1.805  1.00  0.00     0.066 N 
ATOM     23  O   UNL     1       3.966   0.592  -2.241  1.00  0.00    -0.258 OA
ATOM     24  O   UNL     1       3.593  -0.942  -0.718  1.00  0.00    -0.258 OA
ENDBRANCH  17  22
ENDBRANCH   7  14
ENDBRANCH   5   6
ENDBRANCH   3   5
ENDBRANCH   2   3
ENDBRANCH   1   2
BRANCH   1  25
ATOM     25  C   UNL     1       7.370  -2.515  -2.893  1.00  0.00     0.275 C 
BRANCH  25  26
ATOM     26  O   UNL     1       6.612  -3.490  -2.155  1.00  0.00    -0.458 OA
BRANCH  26  27
ATOM     27  C   UNL     1       5.295  -3.478  -2.464  1.00  0.00     0.338 C 
ATOM     28  O   UNL     1       4.768  -2.750  -3.289  1.00  0.00    -0.246 OA
BRANCH  27  29
ATOM     29  C   UNL     1       4.554  -4.524  -1.749  1.00  0.00     0.060 A 
ATOM     30  C   UNL     1       4.206  -5.678  -2.450  1.00  0.00     0.016 A 
ATOM     31  C   UNL     1       4.038  -4.287  -0.476  1.00  0.00     0.016 A 
ATOM     32  C   UNL     1       3.289  -6.574  -1.909  1.00  0.00     0.010 A 
ATOM     33  C   UNL     1       3.143  -5.205   0.083  1.00  0.00     0.010 A 
ATOM     34  C   UNL     1       2.741  -6.340  -0.642  1.00  0.00    -0.014 A 
BRANCH  34  35
ATOM     35  C   UNL     1       1.726  -7.274  -0.100  1.00  0.00     0.031 A 
ATOM     36  C   UNL     1       0.285  -6.856   0.000  1.00  0.00     0.074 A 
ATOM     37  C   UNL     1       2.103  -8.509   0.279  1.00  0.00     0.049 A 
ATOM     38  N   UNL     1      -0.729  -7.509   0.508  1.00  0.00    -0.248 NA
ATOM     39  C   UNL     1      -0.061  -5.532  -0.540  1.00  0.00     0.031 C 
ATOM     40  C   UNL     1       3.466  -9.037   0.192  1.00  0.00     0.029 A 
ATOM     41  N   UNL     1       1.378  -9.543   0.815  1.00  0.00    -0.354 N 
ATOM     42  C   UNL     1      -1.829  -6.672   0.371  1.00  0.00     0.074 A 
ATOM     43  C   UNL     1      -1.356  -5.457  -0.260  1.00  0.00     0.031 C 
ATOM     44  C   UNL     1       3.479 -10.296   0.656  1.00  0.00     0.029 A 
ATOM     45  C   UNL     1       2.138 -10.648   1.114  1.00  0.00     0.049 A 
ATOM     46  H   UNL     1       0.407  -9.498   0.969  1.00  0.00     0.167 HD
ATOM     47  C   UNL     1      -3.114  -6.899   0.738  1.00  0.00     0.037 A 
ATOM     48  C   UNL     1       1.799 -11.804   1.715  1.00  0.00     0.037 A 
ATOM     49  C   UNL     1      -3.577  -8.115   1.357  1.00  0.00     0.049 A 
ATOM     50  C   UNL     1       0.375 -12.018   2.142  1.00  0.00     0.074 A 
ATOM     51  C   UNL     1      -4.858  -8.440   1.769  1.00  0.00     0.029 A 
ATOM     52  N   UNL     1      -2.775  -9.209   1.652  1.00  0.00    -0.354 N 
ATOM     53  N   UNL     1      -0.651 -11.210   2.019  1.00  0.00    -0.248 NA
ATOM     54  C   UNL     1       0.062 -13.298   2.791  1.00  0.00     0.031 C 
ATOM     55  C   UNL     1      -4.826  -9.718   2.338  1.00  0.00     0.029 A 
ATOM     56  C   UNL     1      -3.532 -10.205   2.248  1.00  0.00     0.049 A 
ATOM     57  H   UNL     1      -1.810  -9.268   1.466  1.00  0.00     0.167 HD
ATOM     58  C   UNL     1      -1.737 -11.892   2.556  1.00  0.00     0.074 A 
ATOM     59  C   UNL     1      -1.244 -13.181   2.997  1.00  0.00     0.031 C 
ATOM     60  C   UNL     1      -3.025 -11.486   2.673  1.00  0.00     0.037 A 
BRANCH  47  61
ATOM     61  C   UNL     1      -4.107  -5.795   0.503  1.00  0.00     0.058 A 
ATOM     62  C   UNL     1      -4.591  -5.497  -0.778  1.00  0.00     0.135 A 
ATOM     63  C   UNL     1      -4.603  -5.043   1.583  1.00  0.00     0.135 A 
ATOM     64  F   UNL     1      -4.140  -6.174  -1.846  1.00  0.00    -0.206 F 
ATOM     65  C   UNL     1      -5.512  -4.474  -0.988  1.00  0.00     0.059 A 
ATOM     66  C   UNL     1      -5.539  -4.030   1.399  1.00  0.00     0.059 A 
ATOM     67  F   UNL     1      -4.175  -5.289   2.831  1.00  0.00    -0.206 F 
ATOM     68  C   UNL     1      -5.975  -3.742   0.105  1.00  0.00     0.060 A 
BRANCH  68  69
ATOM     69  S   UNL     1      -7.156  -2.407  -0.182  1.00  0.00     0.124 S 
ATOM     70  O   UNL     1      -6.289  -1.367  -0.729  1.00  0.00    -0.237 OA
ATOM     71  O   UNL     1      -8.091  -3.010  -1.125  1.00  0.00    -0.237 OA
ATOM     72  O   UNL     1      -7.696  -2.138   1.147  1.00  0.00    -0.744 OA
ENDBRANCH  68  69
ENDBRANCH  47  61
BRANCH  48  73
ATOM     73  C   UNL     1       2.837 -12.838   1.956  1.00  0.00     0.058 A 
ATOM     74  C   UNL     1       2.861 -14.026   1.212  1.00  0.00     0.135 A 
ATOM     75  C   UNL     1       3.842 -12.644   2.916  1.00  0.00     0.135 A 
ATOM     76  F   UNL     1       1.916 -14.257   0.288  1.00  0.00    -0.206 F 
ATOM     77  C   UNL     1       3.841 -14.991   1.416  1.00  0.00     0.059 A 
ATOM     78  C   UNL     1       4.846 -13.584   3.122  1.00  0.00     0.059 A 
ATOM     79  F   UNL     1       3.870 -11.516   3.643  1.00  0.00    -0.206 F 
ATOM     80  C   UNL     1       4.832 -14.759   2.372  1.00  0.00     0.060 A 
BRANCH  80  81
ATOM     81  S   UNL     1       6.136 -15.989   2.591  1.00  0.00     0.124 S 
ATOM     82  O   UNL     1       5.449 -17.008   3.376  1.00  0.00    -0.237 OA
ATOM     83  O   UNL     1       6.454 -16.352   1.213  1.00  0.00    -0.237 OA
ATOM     84  O   UNL     1       7.180 -15.248   3.291  1.00  0.00    -0.744 OA
ENDBRANCH  80  81
ENDBRANCH  48  73
BRANCH  60  85
ATOM     85  C   UNL     1      -3.998 -12.464   3.267  1.00  0.00     0.058 A 
ATOM     86  C   UNL     1      -4.033 -12.723   4.646  1.00  0.00     0.135 A 
ATOM     87  C   UNL     1      -4.926 -13.127   2.449  1.00  0.00     0.135 A 
ATOM     88  F   UNL     1      -3.160 -12.120   5.468  1.00  0.00    -0.206 F 
ATOM     89  C   UNL     1      -4.940 -13.626   5.191  1.00  0.00     0.059 A 
ATOM     90  C   UNL     1      -5.856 -14.017   2.975  1.00  0.00     0.059 A 
ATOM     91  F   UNL     1      -4.939 -12.907   1.125  1.00  0.00    -0.206 F 
ATOM     92  C   UNL     1      -5.847 -14.270   4.347  1.00  0.00     0.060 A 
BRANCH  92  93
ATOM     93  S   UNL     1      -7.038 -15.423   5.064  1.00  0.00     0.124 S 
ATOM     94  O   UNL     1      -6.213 -16.610   5.264  1.00  0.00    -0.237 OA
ATOM     95  O   UNL     1      -7.456 -14.730   6.279  1.00  0.00    -0.237 OA
ATOM     96  O   UNL     1      -8.063 -15.535   4.031  1.00  0.00    -0.744 OA
ENDBRANCH  92  93
ENDBRANCH  60  85
ENDBRANCH  34  35
ENDBRANCH  27  29
ENDBRANCH  26  27
ENDBRANCH  25  26
ENDBRANCH   1  25
TORSDOF 18
