REMARK SMILES CCC(=O)Nc1ccc2nc(N3CC[NH+](CC(=O)N4CCCC4)CC3)cc(C(=O)OCCOC(=O)c3ccc(-c4c5nc(c(-c6c(F)cc(S(=O)(=O)[O-])cc6F)c6ccc([nH]6)c(-c6c(F)cc(S(=O)(=O)[O-])cc6F)c6nc(c(-c7c(F)cc(S(=O)(=O)[O-])cc7F)c7ccc4[nH]7)C=C6)C=C5)cc3)c2c1
REMARK SMILES IDX 31 1 30 2 28 3 29 4 27 5 6 6 7 7 103 8 8 9 102 10 9 11 10 12
REMARK SMILES IDX 26 13 11 14 5 15 3 16 4 17 2 19 1 20 12 21 13 22 25 23 14 24
REMARK SMILES IDX 24 25 15 26 16 28 17 29 18 30 19 31 20 32 23 33 21 34 22 35
REMARK SMILES IDX 32 36 33 37 34 38 35 39 36 40 37 41 101 42 38 43 100 44
REMARK SMILES IDX 39 45 40 46 41 47 94 48 42 49 99 50 93 51 95 52 43 53 98 54
REMARK SMILES IDX 92 55 91 56 44 58 78 59 57 60 77 61 58 62 61 63 76 64 96 65
REMARK SMILES IDX 59 66 60 67 75 69 97 70 62 71 45 72 46 73 55 74 47 75 48 76
REMARK SMILES IDX 54 77 56 78 49 79 50 80 51 81 52 82 53 83 79 84 80 85 89 86
REMARK SMILES IDX 81 87 82 88 88 89 90 90 83 91 84 92 85 93 86 94 87 95 63 96
REMARK SMILES IDX 64 97 73 98 65 99 66 100 72 101 74 102 67 103 68 104 69 105
REMARK SMILES IDX 70 106 71 107
REMARK H PARENT 5 18 15 27 95 57 61 68
REMARK Flexibility Score: inf
ROOT
ATOM      1  C   UNL     1       5.992   1.597  -5.629  1.00  0.00     0.275 C 
ENDROOT
BRANCH   1   2
ATOM      2  O   UNL     1       5.491   1.922  -4.315  1.00  0.00    -0.458 OA
BRANCH   2   3
ATOM      3  C   UNL     1       6.392   1.831  -3.311  1.00  0.00     0.339 C 
ATOM      4  O   UNL     1       7.579   1.557  -3.418  1.00  0.00    -0.246 OA
BRANCH   3   5
ATOM      5  C   UNL     1       5.784   2.098  -1.995  1.00  0.00     0.073 A 
ATOM      6  C   UNL     1       2.992  -0.365  -1.521  1.00  0.00     0.041 A 
ATOM      7  C   UNL     1       2.862  -0.271  -0.143  1.00  0.00     0.028 A 
ATOM      8  C   UNL     1       4.028   0.303  -2.163  1.00  0.00     0.037 A 
ATOM      9  C   UNL     1       3.643   0.633   0.564  1.00  0.00     0.031 A 
ATOM     10  C   UNL     1       4.793   1.263  -1.452  1.00  0.00     0.017 A 
ATOM     11  C   UNL     1       4.553   1.446  -0.081  1.00  0.00     0.074 A 
ATOM     12  N   UNL     1       5.159   2.372   0.662  1.00  0.00    -0.231 NA
ATOM     13  C   UNL     1       6.366   3.109  -1.222  1.00  0.00     0.063 A 
ATOM     14  C   UNL     1       6.027   3.243   0.112  1.00  0.00     0.130 A 
BRANCH   6  15
ATOM     15  N   UNL     1       2.064  -1.080  -2.281  1.00  0.00    -0.326 N 
ATOM     16  C   UNL     1       0.696  -0.977  -2.208  1.00  0.00     0.224 C 
ATOM     17  O   UNL     1      -0.004  -1.781  -2.828  1.00  0.00    -0.275 OA
ATOM     18  H   UNL     1       2.426  -1.721  -2.934  1.00  0.00     0.169 HD
BRANCH  16  19
ATOM     19  C   UNL     1       0.066   0.204  -1.475  1.00  0.00     0.097 C 
ATOM     20  C   UNL     1      -0.374  -0.102  -0.056  1.00  0.00     0.014 C 
ENDBRANCH  16  19
ENDBRANCH   6  15
BRANCH  14  21
ATOM     21  N   UNL     1       6.576   4.207   0.946  1.00  0.00    -0.345 N 
ATOM     22  C   UNL     1       7.428   5.280   0.412  1.00  0.00     0.179 C 
ATOM     23  C   UNL     1       6.798   3.735   2.317  1.00  0.00     0.179 C 
ATOM     24  C   UNL     1       7.894   6.294   1.483  1.00  0.00     0.284 C 
ATOM     25  C   UNL     1       7.326   4.804   3.281  1.00  0.00     0.284 C 
ATOM     26  N   UNL     1       8.333   5.720   2.760  1.00  0.00    -0.324 N 
ATOM     27  H   UNL     1       8.388   6.497   3.420  1.00  0.00     0.348 HD
BRANCH  26  28
ATOM     28  C   UNL     1       9.733   5.276   2.841  1.00  0.00     0.363 C 
BRANCH  28  29
ATOM     29  C   UNL     1      10.308   4.528   1.632  1.00  0.00     0.277 C 
ATOM     30  O   UNL     1      10.528   5.127   0.574  1.00  0.00    -0.268 OA
ATOM     31  N   UNL     1      10.625   3.192   1.748  1.00  0.00    -0.338 N 
ATOM     32  C   UNL     1      10.325   2.266   2.826  1.00  0.00     0.119 C 
ATOM     33  C   UNL     1      11.409   2.544   0.707  1.00  0.00     0.119 C 
ATOM     34  C   UNL     1      11.233   1.071   2.571  1.00  0.00     0.023 C 
ATOM     35  C   UNL     1      11.379   1.065   1.055  1.00  0.00     0.023 C 
ENDBRANCH  28  29
ENDBRANCH  26  28
ENDBRANCH  14  21
ENDBRANCH   3   5
ENDBRANCH   2   3
ENDBRANCH   1   2
BRANCH   1  36
ATOM     36  C   UNL     1       6.155   2.850  -6.483  1.00  0.00     0.275 C 
BRANCH  36  37
ATOM     37  O   UNL     1       7.208   3.668  -5.950  1.00  0.00    -0.458 OA
BRANCH  37  38
ATOM     38  C   UNL     1       6.803   4.795  -5.328  1.00  0.00     0.338 C 
ATOM     39  O   UNL     1       5.659   5.219  -5.229  1.00  0.00    -0.246 OA
BRANCH  38  40
ATOM     40  C   UNL     1       7.955   5.472  -4.720  1.00  0.00     0.060 A 
ATOM     41  C   UNL     1       8.622   4.864  -3.659  1.00  0.00     0.016 A 
ATOM     42  C   UNL     1       8.266   6.778  -5.092  1.00  0.00     0.016 A 
ATOM     43  C   UNL     1       9.503   5.607  -2.878  1.00  0.00     0.010 A 
ATOM     44  C   UNL     1       9.236   7.484  -4.374  1.00  0.00     0.010 A 
ATOM     45  C   UNL     1       9.822   6.929  -3.221  1.00  0.00    -0.014 A 
BRANCH  45  46
ATOM     46  C   UNL     1      10.700   7.754  -2.343  1.00  0.00     0.031 A 
ATOM     47  C   UNL     1      10.188   9.062  -1.789  1.00  0.00     0.074 A 
ATOM     48  C   UNL     1      11.942   7.343  -2.018  1.00  0.00     0.049 A 
ATOM     49  N   UNL     1      10.847  10.031  -1.207  1.00  0.00    -0.248 NA
ATOM     50  C   UNL     1       8.747   9.326  -1.936  1.00  0.00     0.031 C 
ATOM     51  C   UNL     1      12.555   6.078  -2.427  1.00  0.00     0.029 A 
ATOM     52  N   UNL     1      12.909   7.943  -1.250  1.00  0.00    -0.354 N 
ATOM     53  C   UNL     1       9.923  11.050  -1.002  1.00  0.00     0.074 A 
ATOM     54  C   UNL     1       8.652  10.575  -1.502  1.00  0.00     0.031 C 
ATOM     55  C   UNL     1      13.763   5.967  -1.854  1.00  0.00     0.029 A 
ATOM     56  C   UNL     1      14.050   7.190  -1.113  1.00  0.00     0.049 A 
ATOM     57  H   UNL     1      12.796   8.829  -0.836  1.00  0.00     0.167 HD
ATOM     58  C   UNL     1      10.125  12.275  -0.458  1.00  0.00     0.037 A 
ATOM     59  C   UNL     1      15.211   7.461  -0.486  1.00  0.00     0.037 A 
ATOM     60  C   UNL     1      11.371  12.703   0.122  1.00  0.00     0.049 A 
ATOM     61  C   UNL     1      15.393   8.798   0.173  1.00  0.00     0.074 A 
ATOM     62  C   UNL     1      11.689  13.929   0.683  1.00  0.00     0.029 A 
ATOM     63  N   UNL     1      12.495  11.901   0.256  1.00  0.00    -0.354 N 
ATOM     64  N   UNL     1      14.550   9.800   0.248  1.00  0.00    -0.248 NA
ATOM     65  C   UNL     1      16.692   9.053   0.809  1.00  0.00     0.031 C 
ATOM     66  C   UNL     1      13.007  13.868   1.151  1.00  0.00     0.029 A 
ATOM     67  C   UNL     1      13.501  12.597   0.904  1.00  0.00     0.049 A 
ATOM     68  H   UNL     1      12.566  10.972  -0.064  1.00  0.00     0.167 HD
ATOM     69  C   UNL     1      15.217  10.805   0.937  1.00  0.00     0.074 A 
ATOM     70  C   UNL     1      16.524  10.282   1.280  1.00  0.00     0.031 C 
ATOM     71  C   UNL     1      14.790  12.055   1.244  1.00  0.00     0.037 A 
BRANCH  58  72
ATOM     72  C   UNL     1       8.986  13.254  -0.507  1.00  0.00     0.058 A 
ATOM     73  C   UNL     1       7.876  13.157   0.344  1.00  0.00     0.135 A 
ATOM     74  C   UNL     1       9.020  14.322  -1.420  1.00  0.00     0.135 A 
ATOM     75  F   UNL     1       7.782  12.144   1.220  1.00  0.00    -0.206 F 
ATOM     76  C   UNL     1       6.826  14.070   0.277  1.00  0.00     0.059 A 
ATOM     77  C   UNL     1       7.993  15.259  -1.490  1.00  0.00     0.059 A 
ATOM     78  F   UNL     1      10.059  14.461  -2.259  1.00  0.00    -0.206 F 
ATOM     79  C   UNL     1       6.892  15.115  -0.648  1.00  0.00     0.060 A 
BRANCH  79  80
ATOM     80  S   UNL     1       5.527  16.294  -0.733  1.00  0.00     0.124 S 
ATOM     81  O   UNL     1       4.544  15.544  -1.508  1.00  0.00    -0.237 OA
ATOM     82  O   UNL     1       5.198  16.503   0.673  1.00  0.00    -0.237 OA
ATOM     83  O   UNL     1       6.117  17.445  -1.411  1.00  0.00    -0.744 OA
ENDBRANCH  79  80
ENDBRANCH  58  72
BRANCH  59  84
ATOM     84  C   UNL     1      16.297   6.448  -0.478  1.00  0.00     0.058 A 
ATOM     85  C   UNL     1      16.620   5.749   0.694  1.00  0.00     0.135 A 
ATOM     86  C   UNL     1      17.006   6.129  -1.647  1.00  0.00     0.135 A 
ATOM     87  F   UNL     1      15.977   6.025   1.839  1.00  0.00    -0.206 F 
ATOM     88  C   UNL     1      17.606   4.768   0.708  1.00  0.00     0.059 A 
ATOM     89  C   UNL     1      17.979   5.136  -1.663  1.00  0.00     0.059 A 
ATOM     90  F   UNL     1      16.726   6.762  -2.797  1.00  0.00    -0.206 F 
ATOM     91  C   UNL     1      18.276   4.464  -0.478  1.00  0.00     0.060 A 
BRANCH  91  92
ATOM     92  S   UNL     1      19.494   3.130  -0.479  1.00  0.00     0.124 S 
ATOM     93  O   UNL     1      20.674   3.810   0.044  1.00  0.00    -0.237 OA
ATOM     94  O   UNL     1      18.881   2.145   0.407  1.00  0.00    -0.237 OA
ATOM     95  O   UNL     1      19.557   2.740  -1.884  1.00  0.00    -0.744 OA
ENDBRANCH  91  92
ENDBRANCH  59  84
BRANCH  71  96
ATOM     96  C   UNL     1      15.740  12.929   2.008  1.00  0.00     0.058 A 
ATOM     97  C   UNL     1      16.819  13.563   1.375  1.00  0.00     0.135 A 
ATOM     98  C   UNL     1      15.551  13.156   3.380  1.00  0.00     0.135 A 
ATOM     99  F   UNL     1      17.043  13.371   0.066  1.00  0.00    -0.206 F 
ATOM    100  C   UNL     1      17.696  14.377   2.083  1.00  0.00     0.059 A 
ATOM    101  C   UNL     1      16.406  13.980   4.104  1.00  0.00     0.059 A 
ATOM    102  F   UNL     1      14.527  12.576   4.027  1.00  0.00    -0.206 F 
ATOM    103  C   UNL     1      17.484  14.576   3.449  1.00  0.00     0.060 A 
BRANCH 103 104
ATOM    104  S   UNL     1      18.617  15.646   4.361  1.00  0.00     0.124 S 
ATOM    105  O   UNL     1      19.748  14.752   4.585  1.00  0.00    -0.237 OA
ATOM    106  O   UNL     1      18.849  16.738   3.420  1.00  0.00    -0.237 OA
ATOM    107  O   UNL     1      17.854  16.007   5.552  1.00  0.00    -0.744 OA
ENDBRANCH 103 104
ENDBRANCH  71  96
ENDBRANCH  45  46
ENDBRANCH  38  40
ENDBRANCH  37  38
ENDBRANCH  36  37
ENDBRANCH   1  36
TORSDOF 19
