REMARK SMILES CNc1nccc(-c2cc(C(=O)OCCOC(=O)c3ccc(-c4c5nc(c(-c6c(F)cc(S(=O)(=O)[O-])cc6F)c6ccc([nH]6)c(-c6c(F)cc(S(=O)(=O)[O-])cc6F)c6nc(c(-c7c(F)cc(S(=O)(=O)[O-])cc7F)c7ccc4[nH]7)C=C6)C=C5)cc3)ccn2)n1
REMARK SMILES IDX 15 1 14 2 13 3 11 4 12 5 10 6 8 7 9 8 87 9 86 10 85 11 7 12
REMARK SMILES IDX 3 13 4 14 88 15 5 16 6 17 2 18 1 19 16 21 17 22 18 23 19 24
REMARK SMILES IDX 20 25 84 26 21 27 83 28 22 29 23 30 24 31 77 32 25 33 82 34
REMARK SMILES IDX 76 35 78 36 26 37 81 38 75 39 74 40 27 42 61 43 40 44 60 45
REMARK SMILES IDX 41 46 44 47 59 48 79 49 42 50 43 51 58 53 80 54 45 55 28 56
REMARK SMILES IDX 29 57 38 58 30 59 31 60 37 61 39 62 32 63 33 64 34 65 35 66
REMARK SMILES IDX 36 67 62 68 63 69 72 70 64 71 65 72 71 73 73 74 66 75 67 76
REMARK SMILES IDX 68 77 69 78 70 79 46 80 47 81 56 82 48 83 49 84 55 85 57 86
REMARK SMILES IDX 50 87 51 88 52 89 53 90 54 91
REMARK H PARENT 2 20 78 41 44 52
REMARK Flexibility Score: inf
ROOT
ATOM      1  C   UNL     1      -3.762   4.867   7.121  1.00  0.00     0.275 C 
ENDROOT
BRANCH   1   2
ATOM      2  C   UNL     1      -3.686   3.367   7.418  1.00  0.00     0.275 C 
BRANCH   2   3
ATOM      3  O   UNL     1      -3.504   2.597   6.211  1.00  0.00    -0.458 OA
BRANCH   3   4
ATOM      4  C   UNL     1      -4.600   1.944   5.747  1.00  0.00     0.338 C 
ATOM      5  O   UNL     1      -5.701   1.914   6.263  1.00  0.00    -0.246 OA
BRANCH   4   6
ATOM      6  C   UNL     1      -4.305   1.293   4.449  1.00  0.00     0.063 A 
ATOM      7  C   UNL     1      -2.909  -0.015   3.026  1.00  0.00     0.090 A 
ATOM      8  C   UNL     1      -3.086   0.663   4.228  1.00  0.00     0.046 A 
ATOM      9  N   UNL     1      -3.841  -0.009   2.038  1.00  0.00    -0.255 NA
ATOM     10  C   UNL     1      -5.002   0.627   2.268  1.00  0.00     0.112 A 
ATOM     11  C   UNL     1      -5.296   1.234   3.469  1.00  0.00     0.036 A 
BRANCH   7  12
ATOM     12  C   UNL     1      -1.788  -0.937   2.822  1.00  0.00     0.094 A 
ATOM     13  C   UNL     1      -0.021  -1.591   1.514  1.00  0.00     0.222 A 
ATOM     14  N   UNL     1       0.183  -2.700   2.240  1.00  0.00    -0.222 NA
ATOM     15  N   UNL     1      -0.979  -0.697   1.770  1.00  0.00    -0.211 NA
ATOM     16  C   UNL     1      -0.623  -2.894   3.297  1.00  0.00     0.117 A 
ATOM     17  C   UNL     1      -1.629  -2.035   3.644  1.00  0.00     0.051 A 
BRANCH  13  18
ATOM     18  N   UNL     1       0.866  -1.379   0.498  1.00  0.00    -0.357 N 
ATOM     19  C   UNL     1       0.933  -0.124  -0.192  1.00  0.00     0.143 C 
ATOM     20  H   UNL     1       1.475  -2.105   0.233  1.00  0.00     0.163 HD
ENDBRANCH  13  18
ENDBRANCH   7  12
ENDBRANCH   4   6
ENDBRANCH   3   4
ENDBRANCH   2   3
ENDBRANCH   1   2
BRANCH   1  21
ATOM     21  O   UNL     1      -4.980   5.194   6.428  1.00  0.00    -0.458 OA
BRANCH  21  22
ATOM     22  C   UNL     1      -4.845   5.362   5.093  1.00  0.00     0.338 C 
ATOM     23  O   UNL     1      -3.816   5.303   4.441  1.00  0.00    -0.246 OA
BRANCH  22  24
ATOM     24  C   UNL     1      -6.164   5.505   4.463  1.00  0.00     0.060 A 
ATOM     25  C   UNL     1      -6.843   4.338   4.143  1.00  0.00     0.016 A 
ATOM     26  C   UNL     1      -6.637   6.731   4.009  1.00  0.00     0.016 A 
ATOM     27  C   UNL     1      -7.909   4.360   3.253  1.00  0.00     0.010 A 
ATOM     28  C   UNL     1      -7.799   6.766   3.224  1.00  0.00     0.010 A 
ATOM     29  C   UNL     1      -8.425   5.577   2.798  1.00  0.00    -0.014 A 
BRANCH  29  30
ATOM     30  C   UNL     1      -9.600   5.592   1.876  1.00  0.00     0.031 A 
ATOM     31  C   UNL     1      -9.522   6.317   0.554  1.00  0.00     0.074 A 
ATOM     32  C   UNL     1     -10.739   4.950   2.216  1.00  0.00     0.049 A 
ATOM     33  N   UNL     1     -10.482   6.603  -0.288  1.00  0.00    -0.248 NA
ATOM     34  C   UNL     1      -8.196   6.798   0.130  1.00  0.00     0.031 C 
ATOM     35  C   UNL     1     -10.944   4.175   3.445  1.00  0.00     0.029 A 
ATOM     36  N   UNL     1     -11.946   4.846   1.566  1.00  0.00    -0.354 N 
ATOM     37  C   UNL     1      -9.892   7.351  -1.303  1.00  0.00     0.074 A 
ATOM     38  C   UNL     1      -8.489   7.473  -0.974  1.00  0.00     0.031 C 
ATOM     39  C   UNL     1     -12.181   3.658   3.446  1.00  0.00     0.029 A 
ATOM     40  C   UNL     1     -12.898   4.152   2.279  1.00  0.00     0.049 A 
ATOM     41  H   UNL     1     -12.114   5.232   0.676  1.00  0.00     0.167 HD
ATOM     42  C   UNL     1     -10.473   7.887  -2.403  1.00  0.00     0.037 A 
ATOM     43  C   UNL     1     -14.217   3.982   2.063  1.00  0.00     0.037 A 
ATOM     44  C   UNL     1     -11.859   7.702  -2.752  1.00  0.00     0.049 A 
ATOM     45  C   UNL     1     -14.841   4.612   0.850  1.00  0.00     0.074 A 
ATOM     46  C   UNL     1     -12.530   8.165  -3.872  1.00  0.00     0.029 A 
ATOM     47  N   UNL     1     -12.784   6.997  -1.997  1.00  0.00    -0.354 N 
ATOM     48  N   UNL     1     -14.272   5.331  -0.088  1.00  0.00    -0.248 NA
ATOM     49  C   UNL     1     -16.286   4.423   0.670  1.00  0.00     0.031 C 
ATOM     50  C   UNL     1     -13.872   7.791  -3.763  1.00  0.00     0.029 A 
ATOM     51  C   UNL     1     -14.025   7.037  -2.611  1.00  0.00     0.049 A 
ATOM     52  H   UNL     1     -12.587   6.535  -1.150  1.00  0.00     0.167 HD
ATOM     53  C   UNL     1     -15.285   5.659  -0.981  1.00  0.00     0.074 A 
ATOM     54  C   UNL     1     -16.497   5.044  -0.482  1.00  0.00     0.031 C 
ATOM     55  C   UNL     1     -15.219   6.406  -2.110  1.00  0.00     0.037 A 
BRANCH  42  56
ATOM     56  C   UNL     1      -9.638   8.758  -3.304  1.00  0.00     0.058 A 
ATOM     57  C   UNL     1      -8.651   8.236  -4.154  1.00  0.00     0.135 A 
ATOM     58  C   UNL     1      -9.902  10.137  -3.382  1.00  0.00     0.135 A 
ATOM     59  F   UNL     1      -8.344   6.930  -4.111  1.00  0.00    -0.206 F 
ATOM     60  C   UNL     1      -7.954   9.049  -5.044  1.00  0.00     0.059 A 
ATOM     61  C   UNL     1      -9.238  10.963  -4.283  1.00  0.00     0.059 A 
ATOM     62  F   UNL     1     -10.834  10.692  -2.590  1.00  0.00    -0.206 F 
ATOM     63  C   UNL     1      -8.261  10.410  -5.108  1.00  0.00     0.060 A 
BRANCH  63  64
ATOM     64  S   UNL     1      -7.383  11.440  -6.303  1.00  0.00     0.124 S 
ATOM     65  O   UNL     1      -6.045  11.488  -5.721  1.00  0.00    -0.237 OA
ATOM     66  O   UNL     1      -7.511  10.665  -7.534  1.00  0.00    -0.237 OA
ATOM     67  O   UNL     1      -8.121  12.698  -6.278  1.00  0.00    -0.744 OA
ENDBRANCH  63  64
ENDBRANCH  42  56
BRANCH  43  68
ATOM     68  C   UNL     1     -15.050   3.247   3.056  1.00  0.00     0.058 A 
ATOM     69  C   UNL     1     -15.677   2.035   2.732  1.00  0.00     0.135 A 
ATOM     70  C   UNL     1     -15.249   3.754   4.352  1.00  0.00     0.135 A 
ATOM     71  F   UNL     1     -15.526   1.509   1.506  1.00  0.00    -0.206 F 
ATOM     72  C   UNL     1     -16.492   1.368   3.642  1.00  0.00     0.059 A 
ATOM     73  C   UNL     1     -16.027   3.087   5.291  1.00  0.00     0.059 A 
ATOM     74  F   UNL     1     -14.662   4.903   4.723  1.00  0.00    -0.206 F 
ATOM     75  C   UNL     1     -16.661   1.904   4.920  1.00  0.00     0.060 A 
BRANCH  75  76
ATOM     76  S   UNL     1     -17.707   1.025   6.100  1.00  0.00     0.124 S 
ATOM     77  O   UNL     1     -19.038   1.292   5.565  1.00  0.00    -0.237 OA
ATOM     78  O   UNL     1     -17.230  -0.348   5.970  1.00  0.00    -0.237 OA
ATOM     79  O   UNL     1     -17.396   1.672   7.371  1.00  0.00    -0.744 OA
ENDBRANCH  75  76
ENDBRANCH  43  68
BRANCH  55  80
ATOM     80  C   UNL     1     -16.482   6.558  -2.913  1.00  0.00     0.058 A 
ATOM     81  C   UNL     1     -17.553   7.348  -2.468  1.00  0.00     0.135 A 
ATOM     82  C   UNL     1     -16.598   5.940  -4.168  1.00  0.00     0.135 A 
ATOM     83  F   UNL     1     -17.496   7.953  -1.271  1.00  0.00    -0.206 F 
ATOM     84  C   UNL     1     -18.707   7.500  -3.230  1.00  0.00     0.059 A 
ATOM     85  C   UNL     1     -17.729   6.104  -4.961  1.00  0.00     0.059 A 
ATOM     86  F   UNL     1     -15.599   5.180  -4.644  1.00  0.00    -0.206 F 
ATOM     87  C   UNL     1     -18.784   6.877  -4.477  1.00  0.00     0.060 A 
BRANCH  87  88
ATOM     88  S   UNL     1     -20.272   7.111  -5.470  1.00  0.00     0.124 S 
ATOM     89  O   UNL     1     -21.243   6.303  -4.739  1.00  0.00    -0.237 OA
ATOM     90  O   UNL     1     -20.469   8.556  -5.400  1.00  0.00    -0.237 OA
ATOM     91  O   UNL     1     -19.891   6.598  -6.782  1.00  0.00    -0.744 OA
ENDBRANCH  87  88
ENDBRANCH  55  80
ENDBRANCH  29  30
ENDBRANCH  22  24
ENDBRANCH  21  22
ENDBRANCH   1  21
TORSDOF 16
