REMARK SMILES CC(C)[C@H](NC(=O)c1cc2cc(Cl)ccc2n1C)C(=O)N[C@@H](C(=O)OCCOC(=O)c1ccc(-c2c3nc(c(-c4c(F)cc(S(=O)(=O)[O-])cc4F)c4ccc([nH]4)c(-c4c(F)cc(S(=O)(=O)[O-])cc4F)c4nc(c(-c5c(F)cc(S(=O)(=O)[O-])cc5F)c5ccc2[nH]5)C=C4)C=C3)cc1)c1ccccc1
REMARK SMILES IDX 26 1 25 2 23 3 24 4 22 5 21 6 19 7 20 8 4 10 2 11 1 12 3 13
REMARK SMILES IDX 5 14 6 15 7 17 8 18 9 19 17 20 10 21 16 22 18 23 11 24 15 25
REMARK SMILES IDX 12 26 14 27 13 28 97 29 98 30 102 31 99 32 101 33 100 34
REMARK SMILES IDX 27 35 28 36 29 37 30 38 31 39 32 40 96 41 33 42 95 43 34 44
REMARK SMILES IDX 35 45 36 46 89 47 37 48 94 49 88 50 90 51 38 52 93 53 87 54
REMARK SMILES IDX 86 55 39 57 73 58 52 59 72 60 53 61 56 62 71 63 91 64 54 65
REMARK SMILES IDX 55 66 70 68 92 69 57 70 40 71 41 72 50 73 42 74 43 75 49 76
REMARK SMILES IDX 51 77 44 78 45 79 46 80 47 81 48 82 74 83 75 84 84 85 76 86
REMARK SMILES IDX 77 87 83 88 85 89 78 90 79 91 80 92 81 93 82 94 58 95 59 96
REMARK SMILES IDX 68 97 60 98 61 99 67 100 69 101 62 102 63 103 64 104 65 105
REMARK SMILES IDX 66 106
REMARK H PARENT 21 9 5 16 90 56 56 67
REMARK Flexibility Score: inf
ROOT
ATOM      1  C   UNL     1       2.260   5.110  -2.176  1.00  0.00     0.274 C 
ENDROOT
BRANCH   1   2
ATOM      2  O   UNL     1       0.837   4.864  -1.954  1.00  0.00    -0.460 OA
BRANCH   2   3
ATOM      3  C   UNL     1       0.552   3.906  -1.025  1.00  0.00     0.333 C 
ATOM      4  O   UNL     1       1.419   3.281  -0.412  1.00  0.00    -0.249 OA
BRANCH   3   5
ATOM      5  C   UNL     1      -0.933   3.607  -0.803  1.00  0.00     0.223 C 
BRANCH   5   6
ATOM      6  N   UNL     1      -1.634   2.957  -1.883  1.00  0.00    -0.337 N 
ATOM      7  C   UNL     1      -2.155   1.694  -1.780  1.00  0.00     0.243 C 
ATOM      8  O   UNL     1      -3.276   1.515  -2.264  1.00  0.00    -0.273 OA
ATOM      9  H   UNL     1      -1.743   3.443  -2.732  1.00  0.00     0.164 HD
BRANCH   7  10
ATOM     10  C   UNL     1      -1.385   0.550  -1.060  1.00  0.00     0.174 C 
BRANCH  10  11
ATOM     11  C   UNL     1      -1.822   0.274   0.400  1.00  0.00     0.015 C 
ATOM     12  C   UNL     1      -0.907   0.862   1.467  1.00  0.00     0.010 C 
ATOM     13  C   UNL     1      -3.294   0.578   0.702  1.00  0.00     0.010 C 
ENDBRANCH  10  11
BRANCH  10  14
ATOM     14  N   UNL     1       0.074   0.702  -1.209  1.00  0.00    -0.339 N 
ATOM     15  C   UNL     1       0.904   0.271  -2.207  1.00  0.00     0.268 C 
ATOM     16  H   UNL     1       0.520   1.188  -0.478  1.00  0.00     0.164 HD
ATOM     17  O   UNL     1       2.108   0.497  -2.115  1.00  0.00    -0.268 OA
BRANCH  15  18
ATOM     18  C   UNL     1       0.343  -0.475  -3.301  1.00  0.00     0.107 A 
ATOM     19  C   UNL     1       0.713  -1.755  -3.682  1.00  0.00     0.042 A 
ATOM     20  N   UNL     1      -0.555  -0.037  -4.247  1.00  0.00    -0.340 N 
ATOM     21  C   UNL     1      -0.102  -2.152  -4.771  1.00  0.00     0.002 A 
ATOM     22  C   UNL     1      -0.959  -1.088  -5.046  1.00  0.00     0.048 A 
ATOM     23  C   UNL     1      -0.914   1.334  -4.530  1.00  0.00     0.150 C 
ATOM     24  C   UNL     1      -0.194  -3.320  -5.548  1.00  0.00     0.030 A 
ATOM     25  C   UNL     1      -1.966  -1.160  -6.018  1.00  0.00     0.028 A 
ATOM     26  C   UNL     1      -1.172  -3.388  -6.544  1.00  0.00     0.041 A 
ATOM     27  C   UNL     1      -2.060  -2.337  -6.762  1.00  0.00     0.023 A 
ATOM     28  Cl  UNL     1      -1.278  -4.798  -7.528  1.00  0.00    -0.084 Cl
ENDBRANCH  15  18
ENDBRANCH  10  14
ENDBRANCH   7  10
ENDBRANCH   5   6
BRANCH   5  29
ATOM     29  C   UNL     1      -1.918   4.535  -0.111  1.00  0.00    -0.014 A 
ATOM     30  C   UNL     1      -2.604   4.052   1.034  1.00  0.00     0.006 A 
ATOM     31  C   UNL     1      -2.329   5.753  -0.651  1.00  0.00     0.006 A 
ATOM     32  C   UNL     1      -3.725   4.693   1.549  1.00  0.00     0.000 A 
ATOM     33  C   UNL     1      -3.428   6.425  -0.099  1.00  0.00     0.000 A 
ATOM     34  C   UNL     1      -4.143   5.883   0.974  1.00  0.00     0.000 A 
ENDBRANCH   5  29
ENDBRANCH   3   5
ENDBRANCH   2   3
ENDBRANCH   1   2
BRANCH   1  35
ATOM     35  C   UNL     1       2.539   6.611  -2.393  1.00  0.00     0.275 C 
BRANCH  35  36
ATOM     36  O   UNL     1       2.695   7.268  -1.113  1.00  0.00    -0.458 OA
BRANCH  36  37
ATOM     37  C   UNL     1       1.634   7.995  -0.658  1.00  0.00     0.338 C 
ATOM     38  O   UNL     1       0.816   8.589  -1.321  1.00  0.00    -0.246 OA
BRANCH  37  39
ATOM     39  C   UNL     1       1.387   7.502   0.716  1.00  0.00     0.060 A 
ATOM     40  C   UNL     1       1.619   8.083   1.953  1.00  0.00     0.016 A 
ATOM     41  C   UNL     1       0.961   6.194   0.704  1.00  0.00     0.016 A 
ATOM     42  C   UNL     1       1.383   7.300   3.124  1.00  0.00     0.010 A 
ATOM     43  C   UNL     1       0.320   5.683   1.793  1.00  0.00     0.010 A 
ATOM     44  C   UNL     1       0.766   6.037   3.036  1.00  0.00    -0.014 A 
BRANCH  44  45
ATOM     45  C   UNL     1       0.178   5.214   4.106  1.00  0.00     0.031 A 
ATOM     46  C   UNL     1      -0.913   5.878   4.862  1.00  0.00     0.074 A 
ATOM     47  C   UNL     1       0.324   3.861   4.231  1.00  0.00     0.049 A 
ATOM     48  N   UNL     1      -0.887   6.219   6.102  1.00  0.00    -0.248 NA
ATOM     49  C   UNL     1      -2.145   6.282   4.173  1.00  0.00     0.031 C 
ATOM     50  C   UNL     1       1.127   2.941   3.409  1.00  0.00     0.029 A 
ATOM     51  N   UNL     1      -0.268   2.993   5.126  1.00  0.00    -0.354 N 
ATOM     52  C   UNL     1      -2.164   6.670   6.409  1.00  0.00     0.074 A 
ATOM     53  C   UNL     1      -2.872   6.792   5.166  1.00  0.00     0.031 C 
ATOM     54  C   UNL     1       0.908   1.653   3.789  1.00  0.00     0.029 A 
ATOM     55  C   UNL     1       0.015   1.623   4.937  1.00  0.00     0.049 A 
ATOM     56  H   UNL     1      -0.852   3.310   5.852  1.00  0.00     0.167 HD
ATOM     57  C   UNL     1      -2.593   6.728   7.696  1.00  0.00     0.037 A 
ATOM     58  C   UNL     1      -0.407   0.570   5.707  1.00  0.00     0.037 A 
ATOM     59  C   UNL     1      -1.492   6.584   8.613  1.00  0.00     0.049 A 
ATOM     60  C   UNL     1      -0.581   1.166   7.052  1.00  0.00     0.074 A 
ATOM     61  C   UNL     1      -0.333   7.297   8.840  1.00  0.00     0.029 A 
ATOM     62  N   UNL     1      -1.288   5.330   9.132  1.00  0.00    -0.354 N 
ATOM     63  N   UNL     1       0.405   1.613   7.777  1.00  0.00    -0.248 NA
ATOM     64  C   UNL     1      -1.913   1.520   7.513  1.00  0.00     0.031 C 
ATOM     65  C   UNL     1       0.667   6.312   9.090  1.00  0.00     0.029 A 
ATOM     66  C   UNL     1       0.058   5.056   9.075  1.00  0.00     0.049 A 
ATOM     67  H   UNL     1      -1.984   4.730   9.485  1.00  0.00     0.167 HD
ATOM     68  C   UNL     1      -0.146   2.646   8.506  1.00  0.00     0.074 A 
ATOM     69  C   UNL     1      -1.587   2.424   8.440  1.00  0.00     0.031 C 
ATOM     70  C   UNL     1       0.604   3.731   8.851  1.00  0.00     0.037 A 
BRANCH  57  71
ATOM     71  C   UNL     1      -4.023   6.574   8.122  1.00  0.00     0.058 A 
ATOM     72  C   UNL     1      -4.401   6.976   9.416  1.00  0.00     0.135 A 
ATOM     73  C   UNL     1      -4.965   5.801   7.408  1.00  0.00     0.135 A 
ATOM     74  F   UNL     1      -3.565   7.699  10.176  1.00  0.00    -0.206 F 
ATOM     75  C   UNL     1      -5.613   6.591   9.986  1.00  0.00     0.059 A 
ATOM     76  C   UNL     1      -6.200   5.445   7.941  1.00  0.00     0.059 A 
ATOM     77  F   UNL     1      -4.684   5.283   6.204  1.00  0.00    -0.206 F 
ATOM     78  C   UNL     1      -6.499   5.814   9.245  1.00  0.00     0.060 A 
BRANCH  78  79
ATOM     79  S   UNL     1      -8.016   5.236  10.027  1.00  0.00     0.124 S 
ATOM     80  O   UNL     1      -7.495   4.292  11.008  1.00  0.00    -0.237 OA
ATOM     81  O   UNL     1      -8.570   6.476  10.563  1.00  0.00    -0.237 OA
ATOM     82  O   UNL     1      -8.763   4.650   8.918  1.00  0.00    -0.744 OA
ENDBRANCH  78  79
ENDBRANCH  57  71
BRANCH  58  83
ATOM     83  C   UNL     1      -0.695  -0.906   5.546  1.00  0.00     0.058 A 
ATOM     84  C   UNL     1      -0.835  -1.766   6.656  1.00  0.00     0.135 A 
ATOM     85  C   UNL     1      -1.208  -1.441   4.359  1.00  0.00     0.135 A 
ATOM     86  F   UNL     1      -0.354  -1.404   7.854  1.00  0.00    -0.206 F 
ATOM     87  C   UNL     1      -1.534  -2.988   6.601  1.00  0.00     0.059 A 
ATOM     88  C   UNL     1      -1.918  -2.642   4.265  1.00  0.00     0.059 A 
ATOM     89  F   UNL     1      -1.095  -0.775   3.225  1.00  0.00    -0.206 F 
ATOM     90  C   UNL     1      -2.113  -3.398   5.404  1.00  0.00     0.060 A 
BRANCH  90  91
ATOM     91  S   UNL     1      -3.220  -4.828   5.359  1.00  0.00     0.124 S 
ATOM     92  O   UNL     1      -2.284  -5.940   5.475  1.00  0.00    -0.237 OA
ATOM     93  O   UNL     1      -4.080  -4.592   6.513  1.00  0.00    -0.237 OA
ATOM     94  O   UNL     1      -3.882  -4.702   4.061  1.00  0.00    -0.744 OA
ENDBRANCH  90  91
ENDBRANCH  58  83
BRANCH  70  95
ATOM     95  C   UNL     1       2.111   3.607   8.791  1.00  0.00     0.058 A 
ATOM     96  C   UNL     1       2.864   3.344   7.633  1.00  0.00     0.135 A 
ATOM     97  C   UNL     1       2.833   3.906   9.958  1.00  0.00     0.135 A 
ATOM     98  F   UNL     1       2.272   3.132   6.452  1.00  0.00    -0.206 F 
ATOM     99  C   UNL     1       4.261   3.352   7.639  1.00  0.00     0.059 A 
ATOM    100  C   UNL     1       4.225   3.958   9.979  1.00  0.00     0.059 A 
ATOM    101  F   UNL     1       2.181   4.209  11.092  1.00  0.00    -0.206 F 
ATOM    102  C   UNL     1       4.934   3.671   8.816  1.00  0.00     0.060 A 
BRANCH 102 103
ATOM    103  S   UNL     1       6.735   3.792   8.796  1.00  0.00     0.124 S 
ATOM    104  O   UNL     1       7.137   2.393   8.684  1.00  0.00    -0.237 OA
ATOM    105  O   UNL     1       6.985   4.619   7.619  1.00  0.00    -0.237 OA
ATOM    106  O   UNL     1       7.049   4.431  10.072  1.00  0.00    -0.744 OA
ENDBRANCH 102 103
ENDBRANCH  70  95
ENDBRANCH  44  45
ENDBRANCH  37  39
ENDBRANCH  36  37
ENDBRANCH  35  36
ENDBRANCH   1  35
TORSDOF 20
