REMARK SMILES CC(C)C[C@H](NC(=O)[C@@H](NC(=O)[C@H](C)NC(=O)CNC(=O)OCc1ccccc1)C(C)C)C(=O)OCCOC(=O)c1ccc(-c2c3nc(c(-c4c(F)cc(S(=O)(=O)[O-])cc4F)c4ccc([nH]4)c(-c4c(F)cc(S(=O)(=O)[O-])cc4F)c4nc(c(-c5c(F)cc(S(=O)(=O)[O-])cc5F)c5ccc2[nH]5)C=C4)C=C3)cc1
REMARK SMILES IDX 5 1 4 2 2 3 1 4 3 5 33 6 34 7 35 8 36 9 37 10 38 11 39 12
REMARK SMILES IDX 40 13 41 14 42 15 106 16 43 17 105 18 44 19 45 20 46 21
REMARK SMILES IDX 99 22 47 23 104 24 98 25 100 26 48 27 103 28 97 29 96 30
REMARK SMILES IDX 49 32 83 33 62 34 82 35 63 36 66 37 81 38 101 39 64 40 65 41
REMARK SMILES IDX 80 43 102 44 67 45 50 46 51 47 60 48 52 49 53 50 59 51 61 52
REMARK SMILES IDX 54 53 55 54 56 55 57 56 58 57 84 58 85 59 94 60 86 61 87 62
REMARK SMILES IDX 93 63 95 64 88 65 89 66 90 67 91 68 92 69 68 70 69 71 78 72
REMARK SMILES IDX 70 73 71 74 77 75 79 76 72 77 73 78 74 79 75 80 76 81 6 82
REMARK SMILES IDX 7 83 8 85 9 86 10 87 11 88 12 90 13 91 14 92 15 93 16 94
REMARK SMILES IDX 17 96 18 97 19 98 20 99 21 101 22 102 23 103 24 104 25 105
REMARK SMILES IDX 29 106 26 107 28 108 27 109 30 110 31 111 32 112
REMARK H PARENT 100 31 66 42 6 84 10 89 15 95 19 100
REMARK Flexibility Score: inf
ROOT
ATOM      1  C   UNL     1       2.483   1.353  -2.264  1.00  0.00     0.192 C 
ENDROOT
BRANCH   1   2
ATOM      2  C   UNL     1       1.164   2.124  -2.128  1.00  0.00     0.040 C 
BRANCH   2   3
ATOM      3  C   UNL     1       0.816   3.177  -3.203  1.00  0.00    -0.015 C 
ATOM      4  C   UNL     1       1.023   2.741  -4.653  1.00  0.00     0.007 C 
ATOM      5  C   UNL     1      -0.654   3.582  -3.039  1.00  0.00     0.007 C 
ENDBRANCH   2   3
ENDBRANCH   1   2
BRANCH   1   6
ATOM      6  C   UNL     1       3.605   2.379  -2.542  1.00  0.00     0.328 C 
ATOM      7  O   UNL     1       3.963   2.686  -3.674  1.00  0.00    -0.250 OA
BRANCH   6   8
ATOM      8  O   UNL     1       4.013   3.038  -1.418  1.00  0.00    -0.461 OA
BRANCH   8   9
ATOM      9  C   UNL     1       4.841   4.193  -1.673  1.00  0.00     0.274 C 
BRANCH   9  10
ATOM     10  C   UNL     1       6.346   3.896  -1.626  1.00  0.00     0.275 C 
BRANCH  10  11
ATOM     11  O   UNL     1       6.783   3.002  -2.665  1.00  0.00    -0.458 OA
BRANCH  11  12
ATOM     12  C   UNL     1       6.637   1.687  -2.372  1.00  0.00     0.338 C 
ATOM     13  O   UNL     1       6.197   1.228  -1.328  1.00  0.00    -0.246 OA
BRANCH  12  14
ATOM     14  C   UNL     1       6.930   0.845  -3.549  1.00  0.00     0.060 A 
ATOM     15  C   UNL     1       6.061  -0.219  -3.800  1.00  0.00     0.016 A 
ATOM     16  C   UNL     1       8.057   1.035  -4.356  1.00  0.00     0.016 A 
ATOM     17  C   UNL     1       6.320  -1.103  -4.843  1.00  0.00     0.010 A 
ATOM     18  C   UNL     1       8.313   0.142  -5.407  1.00  0.00     0.010 A 
ATOM     19  C   UNL     1       7.447  -0.937  -5.652  1.00  0.00    -0.014 A 
BRANCH  19  20
ATOM     20  C   UNL     1       7.752  -1.972  -6.668  1.00  0.00     0.031 A 
ATOM     21  C   UNL     1       8.709  -3.074  -6.318  1.00  0.00     0.074 A 
ATOM     22  C   UNL     1       7.123  -1.977  -7.859  1.00  0.00     0.049 A 
ATOM     23  N   UNL     1       9.167  -4.043  -7.066  1.00  0.00    -0.248 NA
ATOM     24  C   UNL     1       9.207  -3.090  -4.933  1.00  0.00     0.031 C 
ATOM     25  C   UNL     1       6.095  -1.025  -8.277  1.00  0.00     0.029 A 
ATOM     26  N   UNL     1       7.259  -2.819  -8.935  1.00  0.00    -0.354 N 
ATOM     27  C   UNL     1      10.015  -4.780  -6.249  1.00  0.00     0.074 A 
ATOM     28  C   UNL     1      10.016  -4.139  -4.950  1.00  0.00     0.031 C 
ATOM     29  C   UNL     1       5.706  -1.325  -9.529  1.00  0.00     0.029 A 
ATOM     30  C   UNL     1       6.485  -2.463 -10.014  1.00  0.00     0.049 A 
ATOM     31  H   UNL     1       7.855  -3.603  -8.935  1.00  0.00     0.167 HD
ATOM     32  C   UNL     1      10.730  -5.888  -6.556  1.00  0.00     0.037 A 
ATOM     33  C   UNL     1       6.436  -2.978 -11.260  1.00  0.00     0.037 A 
ATOM     34  C   UNL     1      10.727  -6.520  -7.848  1.00  0.00     0.049 A 
ATOM     35  C   UNL     1       7.322  -4.148 -11.610  1.00  0.00     0.074 A 
ATOM     36  C   UNL     1      11.438  -7.632  -8.264  1.00  0.00     0.029 A 
ATOM     37  N   UNL     1       9.980  -6.094  -8.936  1.00  0.00    -0.354 N 
ATOM     38  N   UNL     1       8.150  -4.815 -10.842  1.00  0.00    -0.248 NA
ATOM     39  C   UNL     1       7.274  -4.628 -12.999  1.00  0.00     0.031 C 
ATOM     40  C   UNL     1      11.153  -7.853  -9.616  1.00  0.00     0.029 A 
ATOM     41  C   UNL     1      10.229  -6.907 -10.030  1.00  0.00     0.049 A 
ATOM     42  H   UNL     1       9.363  -5.327  -8.932  1.00  0.00     0.167 HD
ATOM     43  C   UNL     1       8.705  -5.805 -11.648  1.00  0.00     0.074 A 
ATOM     44  C   UNL     1       8.110  -5.657 -12.960  1.00  0.00     0.031 C 
ATOM     45  C   UNL     1       9.624  -6.751 -11.329  1.00  0.00     0.037 A 
BRANCH  32  46
ATOM     46  C   UNL     1      11.615  -6.453  -5.482  1.00  0.00     0.058 A 
ATOM     47  C   UNL     1      11.094  -7.160  -4.388  1.00  0.00     0.135 A 
ATOM     48  C   UNL     1      13.007  -6.290  -5.558  1.00  0.00     0.135 A 
ATOM     49  F   UNL     1       9.768  -7.325  -4.258  1.00  0.00    -0.206 F 
ATOM     50  C   UNL     1      11.923  -7.665  -3.390  1.00  0.00     0.059 A 
ATOM     51  C   UNL     1      13.856  -6.806  -4.584  1.00  0.00     0.059 A 
ATOM     52  F   UNL     1      13.554  -5.617  -6.582  1.00  0.00    -0.206 F 
ATOM     53  C   UNL     1      13.303  -7.478  -3.495  1.00  0.00     0.060 A 
BRANCH  53  54
ATOM     54  S   UNL     1      14.367  -8.127  -2.190  1.00  0.00     0.124 S 
ATOM     55  O   UNL     1      14.114  -7.178  -1.110  1.00  0.00    -0.237 OA
ATOM     56  O   UNL     1      13.833  -9.471  -1.989  1.00  0.00    -0.237 OA
ATOM     57  O   UNL     1      15.701  -8.068  -2.778  1.00  0.00    -0.744 OA
ENDBRANCH  53  54
ENDBRANCH  32  46
BRANCH  33  58
ATOM     58  C   UNL     1       5.554  -2.364 -12.289  1.00  0.00     0.058 A 
ATOM     59  C   UNL     1       4.439  -3.046 -12.796  1.00  0.00     0.135 A 
ATOM     60  C   UNL     1       5.827  -1.085 -12.803  1.00  0.00     0.135 A 
ATOM     61  F   UNL     1       4.146  -4.277 -12.350  1.00  0.00    -0.206 F 
ATOM     62  C   UNL     1       3.632  -2.490 -13.786  1.00  0.00     0.059 A 
ATOM     63  C   UNL     1       5.021  -0.499 -13.773  1.00  0.00     0.059 A 
ATOM     64  F   UNL     1       6.880  -0.388 -12.349  1.00  0.00    -0.206 F 
ATOM     65  C   UNL     1       3.933  -1.215 -14.269  1.00  0.00     0.060 A 
BRANCH  65  66
ATOM     66  S   UNL     1       2.865  -0.484 -15.529  1.00  0.00     0.124 S 
ATOM     67  O   UNL     1       3.273  -1.218 -16.721  1.00  0.00    -0.237 OA
ATOM     68  O   UNL     1       1.532  -0.786 -15.018  1.00  0.00    -0.237 OA
ATOM     69  O   UNL     1       3.232   0.928 -15.501  1.00  0.00    -0.744 OA
ENDBRANCH  65  66
ENDBRANCH  33  58
BRANCH  45  70
ATOM     70  C   UNL     1      10.024  -7.723 -12.406  1.00  0.00     0.058 A 
ATOM     71  C   UNL     1      10.864  -7.347 -13.464  1.00  0.00     0.135 A 
ATOM     72  C   UNL     1       9.610  -9.064 -12.342  1.00  0.00     0.135 A 
ATOM     73  F   UNL     1      11.284  -6.076 -13.575  1.00  0.00    -0.206 F 
ATOM     74  C   UNL     1      11.267  -8.261 -14.433  1.00  0.00     0.059 A 
ATOM     75  C   UNL     1      10.020 -10.001 -13.286  1.00  0.00     0.059 A 
ATOM     76  F   UNL     1       8.814  -9.480 -11.344  1.00  0.00    -0.206 F 
ATOM     77  C   UNL     1      10.841  -9.587 -14.334  1.00  0.00     0.060 A 
BRANCH  77  78
ATOM     78  S   UNL     1      11.404 -10.775 -15.573  1.00  0.00     0.124 S 
ATOM     79  O   UNL     1      10.577 -10.417 -16.720  1.00  0.00    -0.237 OA
ATOM     80  O   UNL     1      12.824 -10.457 -15.691  1.00  0.00    -0.237 OA
ATOM     81  O   UNL     1      11.108 -12.068 -14.964  1.00  0.00    -0.744 OA
ENDBRANCH  77  78
ENDBRANCH  45  70
ENDBRANCH  19  20
ENDBRANCH  12  14
ENDBRANCH  11  12
ENDBRANCH  10  11
ENDBRANCH   9  10
ENDBRANCH   8   9
ENDBRANCH   6   8
ENDBRANCH   1   6
BRANCH   1  82
ATOM     82  N   UNL     1       2.770   0.520  -1.082  1.00  0.00    -0.341 N 
ATOM     83  C   UNL     1       2.325  -0.653  -0.566  1.00  0.00     0.243 C 
ATOM     84  H   UNL     1       3.471   0.920  -0.518  1.00  0.00     0.164 HD
ATOM     85  O   UNL     1       3.015  -1.086   0.371  1.00  0.00    -0.273 OA
BRANCH  83  86
ATOM     86  C   UNL     1       1.082  -1.512  -1.012  1.00  0.00     0.174 C 
BRANCH  86  87
ATOM     87  N   UNL     1      -0.087  -0.838  -1.593  1.00  0.00    -0.342 N 
ATOM     88  C   UNL     1      -0.643  -0.629  -2.808  1.00  0.00     0.242 C 
ATOM     89  H   UNL     1      -0.626  -0.412  -0.889  1.00  0.00     0.164 HD
ATOM     90  O   UNL     1      -1.773  -0.117  -2.777  1.00  0.00    -0.273 OA
BRANCH  88  91
ATOM     91  C   UNL     1      -0.077  -1.086  -4.165  1.00  0.00     0.168 C 
ATOM     92  C   UNL     1      -0.674  -2.453  -4.499  1.00  0.00     0.041 C 
BRANCH  91  93
ATOM     93  N   UNL     1       1.368  -1.088  -4.296  1.00  0.00    -0.343 N 
ATOM     94  C   UNL     1       2.189  -0.905  -5.358  1.00  0.00     0.240 C 
ATOM     95  H   UNL     1       1.844  -1.253  -3.450  1.00  0.00     0.164 HD
ATOM     96  O   UNL     1       3.362  -1.233  -5.175  1.00  0.00    -0.273 OA
BRANCH  94  97
ATOM     97  C   UNL     1       1.749  -0.281  -6.676  1.00  0.00     0.219 C 
BRANCH  97  98
ATOM     98  N   UNL     1       0.927  -1.187  -7.435  1.00  0.00    -0.312 N 
ATOM     99  C   UNL     1      -0.413  -1.074  -7.606  1.00  0.00     0.407 C 
ATOM    100  H   UNL     1       1.375  -1.951  -7.865  1.00  0.00     0.167 HD
ATOM    101  O   UNL     1      -1.073  -2.024  -8.018  1.00  0.00    -0.225 OA
BRANCH  99 102
ATOM    102  O   UNL     1      -0.902   0.112  -7.173  1.00  0.00    -0.445 OA
BRANCH 102 103
ATOM    103  C   UNL     1      -2.328   0.219  -7.054  1.00  0.00     0.270 C 
BRANCH 103 104
ATOM    104  C   UNL     1      -2.992   0.280  -8.399  1.00  0.00    -0.011 A 
ATOM    105  C   UNL     1      -2.884   1.422  -9.201  1.00  0.00     0.007 A 
ATOM    106  C   UNL     1      -3.626  -0.861  -8.911  1.00  0.00     0.007 A 
ATOM    107  C   UNL     1      -3.375   1.406 -10.506  1.00  0.00     0.000 A 
ATOM    108  C   UNL     1      -4.098  -0.881 -10.219  1.00  0.00     0.000 A 
ATOM    109  C   UNL     1      -3.968   0.252 -11.018  1.00  0.00     0.000 A 
ENDBRANCH 103 104
ENDBRANCH 102 103
ENDBRANCH  99 102
ENDBRANCH  97  98
ENDBRANCH  94  97
ENDBRANCH  91  93
ENDBRANCH  88  91
ENDBRANCH  86  87
BRANCH  86 110
ATOM    110  C   UNL     1       1.327  -2.952  -1.560  1.00  0.00     0.015 C 
ATOM    111  C   UNL     1       2.563  -3.655  -0.998  1.00  0.00     0.010 C 
ATOM    112  C   UNL     1       0.100  -3.853  -1.325  1.00  0.00     0.010 C 
ENDBRANCH  86 110
ENDBRANCH  83  86
ENDBRANCH   1  82
TORSDOF 27
