REMARK SMILES O=C(OCCOC(=O)[C@@]12CCC[C@@H](C[NH2+]1)C2)c1ccc(-c2c3nc(c(-c4c(F)cc(S(=O)(=O)[O-])cc4F)c4ccc([nH]4)c(-c4c(F)cc(S(=O)(=O)[O-])cc4F)c4nc(c(-c5c(F)cc(S(=O)(=O)[O-])cc5F)c5ccc2[nH]5)C=C4)C=C3)cc1
REMARK SMILES IDX 3 1 2 2 1 3 17 4 18 5 82 6 19 7 81 8 20 9 21 10 22 11 75 12
REMARK SMILES IDX 23 13 80 14 74 15 76 16 24 17 79 18 73 19 72 20 25 22 59 23
REMARK SMILES IDX 38 24 58 25 39 26 42 27 57 28 77 29 40 30 41 31 56 33 78 34
REMARK SMILES IDX 43 35 26 36 27 37 36 38 28 39 29 40 35 41 37 42 30 43 31 44
REMARK SMILES IDX 32 45 33 46 34 47 60 48 61 49 70 50 62 51 63 52 69 53 71 54
REMARK SMILES IDX 64 55 65 56 66 57 67 58 68 59 44 60 45 61 54 62 46 63 47 64
REMARK SMILES IDX 53 65 55 66 48 67 49 68 50 69 51 70 52 71 4 72 5 73 6 74
REMARK SMILES IDX 7 75 8 76 9 77 10 78 15 79 16 80 11 81 14 82 13 85 12 86
REMARK H PARENT 76 21 42 32 15 83 15 84
REMARK Flexibility Score: inf
ROOT
ATOM      1  O   UNL     1       3.420  -0.641   0.989  1.00  0.00    -0.458 OA
ENDROOT
BRANCH   1   2
ATOM      2  C   UNL     1       3.428   0.711   0.952  1.00  0.00     0.338 C 
ATOM      3  O   UNL     1       2.649   1.293   1.708  1.00  0.00    -0.246 OA
BRANCH   2   4
ATOM      4  C   UNL     1       4.229   1.554  -0.007  1.00  0.00     0.060 A 
ATOM      5  C   UNL     1       5.260   1.147  -0.868  1.00  0.00     0.016 A 
ATOM      6  C   UNL     1       3.790   2.884  -0.125  1.00  0.00     0.016 A 
ATOM      7  C   UNL     1       5.755   1.984  -1.889  1.00  0.00     0.010 A 
ATOM      8  C   UNL     1       4.233   3.692  -1.177  1.00  0.00     0.010 A 
ATOM      9  C   UNL     1       5.214   3.250  -2.087  1.00  0.00    -0.014 A 
BRANCH   9  10
ATOM     10  C   UNL     1       5.707   4.212  -3.117  1.00  0.00     0.031 A 
ATOM     11  C   UNL     1       6.152   5.550  -2.607  1.00  0.00     0.074 A 
ATOM     12  C   UNL     1       5.660   3.994  -4.449  1.00  0.00     0.049 A 
ATOM     13  N   UNL     1       6.287   6.683  -3.237  1.00  0.00    -0.248 NA
ATOM     14  C   UNL     1       6.399   5.627  -1.155  1.00  0.00     0.031 C 
ATOM     15  C   UNL     1       5.309   2.739  -5.104  1.00  0.00     0.029 A 
ATOM     16  N   UNL     1       5.852   4.862  -5.504  1.00  0.00    -0.354 N 
ATOM     17  C   UNL     1       6.600   7.600  -2.245  1.00  0.00     0.074 A 
ATOM     18  C   UNL     1       6.442   6.933  -0.974  1.00  0.00     0.031 C 
ATOM     19  C   UNL     1       5.223   2.935  -6.433  1.00  0.00     0.029 A 
ATOM     20  C   UNL     1       5.490   4.335  -6.727  1.00  0.00     0.049 A 
ATOM     21  H   UNL     1       6.213   5.772  -5.394  1.00  0.00     0.167 HD
ATOM     22  C   UNL     1       7.090   8.852  -2.376  1.00  0.00     0.037 A 
ATOM     23  C   UNL     1       5.360   4.920  -7.937  1.00  0.00     0.037 A 
ATOM     24  C   UNL     1       7.329   9.467  -3.646  1.00  0.00     0.049 A 
ATOM     25  C   UNL     1       5.798   6.353  -8.085  1.00  0.00     0.074 A 
ATOM     26  C   UNL     1       7.912  10.688  -3.919  1.00  0.00     0.029 A 
ATOM     27  N   UNL     1       6.999   8.889  -4.864  1.00  0.00    -0.354 N 
ATOM     28  N   UNL     1       6.179   7.192  -7.151  1.00  0.00    -0.248 NA
ATOM     29  C   UNL     1       5.858   6.903  -9.447  1.00  0.00     0.031 C 
ATOM     30  C   UNL     1       7.903  10.864  -5.306  1.00  0.00     0.029 A 
ATOM     31  C   UNL     1       7.359   9.731  -5.897  1.00  0.00     0.049 A 
ATOM     32  H   UNL     1       6.572   8.009  -4.975  1.00  0.00     0.167 HD
ATOM     33  C   UNL     1       6.615   8.331  -7.816  1.00  0.00     0.074 A 
ATOM     34  C   UNL     1       6.399   8.096  -9.229  1.00  0.00     0.031 C 
ATOM     35  C   UNL     1       7.182   9.449  -7.301  1.00  0.00     0.037 A 
BRANCH  22  36
ATOM     36  C   UNL     1       7.434   9.564  -1.099  1.00  0.00     0.058 A 
ATOM     37  C   UNL     1       8.438   9.078  -0.239  1.00  0.00     0.135 A 
ATOM     38  C   UNL     1       6.675  10.660  -0.667  1.00  0.00     0.135 A 
ATOM     39  F   UNL     1       9.181   8.017  -0.596  1.00  0.00    -0.206 F 
ATOM     40  C   UNL     1       8.604   9.585   1.042  1.00  0.00     0.059 A 
ATOM     41  C   UNL     1       6.858  11.215   0.596  1.00  0.00     0.059 A 
ATOM     42  F   UNL     1       5.711  11.169  -1.450  1.00  0.00    -0.206 F 
ATOM     43  C   UNL     1       7.796  10.643   1.456  1.00  0.00     0.060 A 
BRANCH  43  44
ATOM     44  S   UNL     1       7.966  11.237   3.151  1.00  0.00     0.124 S 
ATOM     45  O   UNL     1       7.296  10.176   3.897  1.00  0.00    -0.237 OA
ATOM     46  O   UNL     1       9.415  11.306   3.314  1.00  0.00    -0.237 OA
ATOM     47  O   UNL     1       7.278  12.523   3.129  1.00  0.00    -0.744 OA
ENDBRANCH  43  44
ENDBRANCH  22  36
BRANCH  23  48
ATOM     48  C   UNL     1       4.847   4.149  -9.107  1.00  0.00     0.058 A 
ATOM     49  C   UNL     1       5.711   3.677 -10.106  1.00  0.00     0.135 A 
ATOM     50  C   UNL     1       3.477   3.868  -9.253  1.00  0.00     0.135 A 
ATOM     51  F   UNL     1       7.027   3.927 -10.023  1.00  0.00    -0.206 F 
ATOM     52  C   UNL     1       5.243   2.964 -11.207  1.00  0.00     0.059 A 
ATOM     53  C   UNL     1       2.985   3.147 -10.342  1.00  0.00     0.059 A 
ATOM     54  F   UNL     1       2.602   4.289  -8.327  1.00  0.00    -0.206 F 
ATOM     55  C   UNL     1       3.877   2.698 -11.315  1.00  0.00     0.060 A 
BRANCH  55  56
ATOM     56  S   UNL     1       3.296   1.722 -12.724  1.00  0.00     0.124 S 
ATOM     57  O   UNL     1       3.579   2.615 -13.842  1.00  0.00    -0.237 OA
ATOM     58  O   UNL     1       4.135   0.532 -12.630  1.00  0.00    -0.237 OA
ATOM     59  O   UNL     1       1.882   1.510 -12.429  1.00  0.00    -0.744 OA
ENDBRANCH  55  56
ENDBRANCH  23  48
BRANCH  35  60
ATOM     60  C   UNL     1       7.725  10.472  -8.254  1.00  0.00     0.058 A 
ATOM     61  C   UNL     1       6.894  11.374  -8.930  1.00  0.00     0.135 A 
ATOM     62  C   UNL     1       9.116  10.649  -8.352  1.00  0.00     0.135 A 
ATOM     63  F   UNL     1       5.560  11.236  -8.877  1.00  0.00    -0.206 F 
ATOM     64  C   UNL     1       7.424  12.436  -9.654  1.00  0.00     0.059 A 
ATOM     65  C   UNL     1       9.666  11.719  -9.045  1.00  0.00     0.059 A 
ATOM     66  F   UNL     1       9.951   9.811  -7.715  1.00  0.00    -0.206 F 
ATOM     67  C   UNL     1       8.810  12.612  -9.687  1.00  0.00     0.060 A 
BRANCH  67  68
ATOM     68  S   UNL     1       9.477  14.069 -10.516  1.00  0.00     0.124 S 
ATOM     69  O   UNL     1       9.267  13.732 -11.920  1.00  0.00    -0.237 OA
ATOM     70  O   UNL     1       8.636  15.139  -9.988  1.00  0.00    -0.237 OA
ATOM     71  O   UNL     1      10.870  14.103 -10.079  1.00  0.00    -0.744 OA
ENDBRANCH  67  68
ENDBRANCH  35  60
ENDBRANCH   9  10
ENDBRANCH   2   4
ENDBRANCH   1   2
BRANCH   1  72
ATOM     72  C   UNL     1       4.211  -1.593   0.266  1.00  0.00     0.275 C 
BRANCH  72  73
ATOM     73  C   UNL     1       3.604  -1.981  -1.086  1.00  0.00     0.274 C 
BRANCH  73  74
ATOM     74  O   UNL     1       3.206  -0.844  -1.867  1.00  0.00    -0.457 OA
BRANCH  74  75
ATOM     75  C   UNL     1       1.911  -0.786  -2.337  1.00  0.00     0.368 C 
ATOM     76  O   UNL     1       1.047  -1.612  -2.104  1.00  0.00    -0.245 OA
BRANCH  75  77
ATOM     77  C   UNL     1       1.736   0.470  -3.229  1.00  0.00     0.194 C 
ATOM     78  C   UNL     1       1.779   1.718  -2.338  1.00  0.00     0.081 C 
ATOM     79  N   UNL     1       2.857   0.515  -4.236  1.00  0.00    -0.332 N 
ATOM     80  C   UNL     1       0.486   0.604  -4.088  1.00  0.00     0.090 C 
ATOM     81  C   UNL     1       1.191   2.992  -2.949  1.00  0.00     0.008 C 
ATOM     82  C   UNL     1       2.271   0.926  -5.519  1.00  0.00     0.265 C 
ATOM     83  H   UNL     1       3.284  -0.407  -4.325  1.00  0.00     0.347 HD
ATOM     84  H   UNL     1       3.582   1.170  -3.942  1.00  0.00     0.347 HD
ATOM     85  C   UNL     1       0.994   1.639  -5.106  1.00  0.00     0.051 C 
ATOM     86  C   UNL     1       1.351   3.009  -4.462  1.00  0.00     0.010 C 
ENDBRANCH  75  77
ENDBRANCH  74  75
ENDBRANCH  73  74
ENDBRANCH  72  73
ENDBRANCH   1  72
TORSDOF 14
