REMARK SMILES C[C@@H](Oc1ccc(-c2ccccc2)cc1)C(=O)N1CCC[C@H](C(=O)OCCOC(=O)c2ccc(-c3c4nc(c(-c5c(F)cc(S(=O)(=O)[O-])cc5F)c5ccc([nH]5)c(-c5c(F)cc(S(=O)(=O)[O-])cc5F)c5nc(c(-c6c(F)cc(S(=O)(=O)[O-])cc6F)c6ccc3[nH]6)C=C5)C=C4)cc2)C1
REMARK SMILES IDX 26 1 25 2 23 3 24 4 22 5 18 6 19 7 97 8 20 9 21 10 16 11
REMARK SMILES IDX 17 12 2 13 1 14 3 15 4 16 5 17 15 18 6 19 14 20 7 21 8 22
REMARK SMILES IDX 9 23 13 24 10 25 12 26 11 27 27 28 28 29 29 30 30 31 31 32
REMARK SMILES IDX 32 33 96 34 33 35 95 36 34 37 35 38 36 39 89 40 37 41 94 42
REMARK SMILES IDX 88 43 90 44 38 45 93 46 87 47 86 48 39 50 73 51 52 52 72 53
REMARK SMILES IDX 53 54 56 55 71 56 91 57 54 58 55 59 70 61 92 62 57 63 40 64
REMARK SMILES IDX 41 65 50 66 42 67 43 68 49 69 51 70 44 71 45 72 46 73 47 74
REMARK SMILES IDX 48 75 74 76 75 77 84 78 76 79 77 80 83 81 85 82 78 83 79 84
REMARK SMILES IDX 80 85 81 86 82 87 58 88 59 89 68 90 60 91 61 92 67 93 69 94
REMARK SMILES IDX 62 95 63 96 64 97 65 98 66 99
REMARK H PARENT 90 49 56 60
REMARK Flexibility Score: inf
ROOT
ATOM      1  C   UNL     1      -3.205   1.591  -1.742  1.00  0.00     0.274 C 
ENDROOT
BRANCH   1   2
ATOM      2  O   UNL     1      -3.290   0.897  -0.483  1.00  0.00    -0.462 OA
BRANCH   2   3
ATOM      3  C   UNL     1      -2.383   1.217   0.472  1.00  0.00     0.310 C 
ATOM      4  O   UNL     1      -1.494   2.050   0.334  1.00  0.00    -0.252 OA
BRANCH   3   5
ATOM      5  C   UNL     1      -2.531   0.390   1.741  1.00  0.00     0.119 C 
ATOM      6  N   UNL     1      -1.758  -1.745   0.819  1.00  0.00    -0.339 N 
ATOM      7  C   UNL     1      -3.027  -2.424   1.068  1.00  0.00     0.119 C 
ATOM      8  C   UNL     1      -1.445  -0.681   1.770  1.00  0.00     0.134 C 
ATOM      9  C   UNL     1      -4.202  -1.453   1.117  1.00  0.00     0.022 C 
ATOM     10  C   UNL     1      -3.916  -0.223   1.983  1.00  0.00     0.019 C 
BRANCH   6  11
ATOM     11  C   UNL     1      -0.969  -2.128  -0.260  1.00  0.00     0.263 C 
ATOM     12  O   UNL     1      -1.425  -2.834  -1.167  1.00  0.00    -0.271 OA
BRANCH  11  13
ATOM     13  C   UNL     1       0.512  -1.694  -0.324  1.00  0.00     0.259 C 
ATOM     14  C   UNL     1       0.689  -0.256  -0.806  1.00  0.00     0.064 C 
BRANCH  13  15
ATOM     15  O   UNL     1       1.082  -1.903   0.974  1.00  0.00    -0.481 OA
BRANCH  15  16
ATOM     16  C   UNL     1       2.409  -2.210   0.939  1.00  0.00     0.120 A 
ATOM     17  C   UNL     1       2.810  -3.541   0.889  1.00  0.00     0.047 A 
ATOM     18  C   UNL     1       3.337  -1.194   1.124  1.00  0.00     0.047 A 
ATOM     19  C   UNL     1       4.166  -3.857   1.024  1.00  0.00     0.012 A 
ATOM     20  C   UNL     1       4.688  -1.513   1.252  1.00  0.00     0.012 A 
ATOM     21  C   UNL     1       5.126  -2.849   1.226  1.00  0.00    -0.018 A 
BRANCH  21  22
ATOM     22  C   UNL     1       6.543  -3.171   1.462  1.00  0.00    -0.018 A 
ATOM     23  C   UNL     1       7.264  -4.006   0.595  1.00  0.00     0.009 A 
ATOM     24  C   UNL     1       7.217  -2.637   2.575  1.00  0.00     0.009 A 
ATOM     25  C   UNL     1       8.614  -4.286   0.826  1.00  0.00     0.001 A 
ATOM     26  C   UNL     1       8.565  -2.914   2.807  1.00  0.00     0.001 A 
ATOM     27  C   UNL     1       9.264  -3.737   1.930  1.00  0.00     0.000 A 
ENDBRANCH  21  22
ENDBRANCH  15  16
ENDBRANCH  13  15
ENDBRANCH  11  13
ENDBRANCH   6  11
ENDBRANCH   3   5
ENDBRANCH   2   3
ENDBRANCH   1   2
BRANCH   1  28
ATOM     28  C   UNL     1      -4.322   2.627  -1.877  1.00  0.00     0.275 C 
BRANCH  28  29
ATOM     29  O   UNL     1      -4.136   3.711  -0.949  1.00  0.00    -0.458 OA
BRANCH  29  30
ATOM     30  C   UNL     1      -4.773   3.555   0.234  1.00  0.00     0.338 C 
ATOM     31  O   UNL     1      -5.537   2.660   0.551  1.00  0.00    -0.246 OA
BRANCH  30  32
ATOM     32  C   UNL     1      -4.285   4.557   1.192  1.00  0.00     0.060 A 
ATOM     33  C   UNL     1      -3.606   4.090   2.320  1.00  0.00     0.016 A 
ATOM     34  C   UNL     1      -4.569   5.915   1.044  1.00  0.00     0.016 A 
ATOM     35  C   UNL     1      -3.219   4.974   3.318  1.00  0.00     0.010 A 
ATOM     36  C   UNL     1      -4.186   6.805   2.053  1.00  0.00     0.010 A 
ATOM     37  C   UNL     1      -3.530   6.334   3.205  1.00  0.00    -0.014 A 
BRANCH  37  38
ATOM     38  C   UNL     1      -3.255   7.224   4.356  1.00  0.00     0.031 A 
ATOM     39  C   UNL     1      -4.387   7.636   5.256  1.00  0.00     0.074 A 
ATOM     40  C   UNL     1      -1.992   7.594   4.635  1.00  0.00     0.049 A 
ATOM     41  N   UNL     1      -4.367   8.410   6.309  1.00  0.00    -0.248 NA
ATOM     42  C   UNL     1      -5.718   7.103   4.925  1.00  0.00     0.031 C 
ATOM     43  C   UNL     1      -0.810   7.212   3.861  1.00  0.00     0.029 A 
ATOM     44  N   UNL     1      -1.492   8.363   5.654  1.00  0.00    -0.354 N 
ATOM     45  C   UNL     1      -5.681   8.473   6.758  1.00  0.00     0.074 A 
ATOM     46  C   UNL     1      -6.476   7.671   5.852  1.00  0.00     0.031 C 
ATOM     47  C   UNL     1       0.281   7.742   4.439  1.00  0.00     0.029 A 
ATOM     48  C   UNL     1      -0.129   8.526   5.602  1.00  0.00     0.049 A 
ATOM     49  H   UNL     1      -2.056   8.759   6.357  1.00  0.00     0.167 HD
ATOM     50  C   UNL     1      -6.176   9.135   7.830  1.00  0.00     0.037 A 
ATOM     51  C   UNL     1       0.693   9.240   6.395  1.00  0.00     0.037 A 
ATOM     52  C   UNL     1      -5.377   9.916   8.737  1.00  0.00     0.049 A 
ATOM     53  C   UNL     1       0.113   9.991   7.563  1.00  0.00     0.074 A 
ATOM     54  C   UNL     1      -5.782  10.629   9.851  1.00  0.00     0.029 A 
ATOM     55  N   UNL     1      -4.003  10.083   8.635  1.00  0.00    -0.354 N 
ATOM     56  N   UNL     1      -1.135  10.058   7.963  1.00  0.00    -0.248 NA
ATOM     57  C   UNL     1       1.053  10.762   8.387  1.00  0.00     0.031 C 
ATOM     58  C   UNL     1      -4.657  11.250  10.407  1.00  0.00     0.029 A 
ATOM     59  C   UNL     1      -3.546  10.895   9.660  1.00  0.00     0.049 A 
ATOM     60  H   UNL     1      -3.436   9.683   7.936  1.00  0.00     0.167 HD
ATOM     61  C   UNL     1      -1.129  10.870   9.092  1.00  0.00     0.074 A 
ATOM     62  C   UNL     1       0.250  11.252   9.322  1.00  0.00     0.031 C 
ATOM     63  C   UNL     1      -2.169  11.266   9.867  1.00  0.00     0.037 A 
BRANCH  50  64
ATOM     64  C   UNL     1      -7.660   9.064   8.057  1.00  0.00     0.058 A 
ATOM     65  C   UNL     1      -8.278   7.905   8.552  1.00  0.00     0.135 A 
ATOM     66  C   UNL     1      -8.473  10.175   7.784  1.00  0.00     0.135 A 
ATOM     67  F   UNL     1      -7.549   6.807   8.809  1.00  0.00    -0.206 F 
ATOM     68  C   UNL     1      -9.655   7.841   8.741  1.00  0.00     0.059 A 
ATOM     69  C   UNL     1      -9.849  10.141   7.986  1.00  0.00     0.059 A 
ATOM     70  F   UNL     1      -7.932  11.307   7.305  1.00  0.00    -0.206 F 
ATOM     71  C   UNL     1     -10.433   8.963   8.451  1.00  0.00     0.060 A 
BRANCH  71  72
ATOM     72  S   UNL     1     -12.220   8.866   8.691  1.00  0.00     0.124 S 
ATOM     73  O   UNL     1     -12.627   8.081   7.530  1.00  0.00    -0.237 OA
ATOM     74  O   UNL     1     -12.328   8.191   9.981  1.00  0.00    -0.237 OA
ATOM     75  O   UNL     1     -12.640  10.264   8.682  1.00  0.00    -0.744 OA
ENDBRANCH  71  72
ENDBRANCH  50  64
BRANCH  51  76
ATOM     76  C   UNL     1       2.149   9.289   6.102  1.00  0.00     0.058 A 
ATOM     77  C   UNL     1       3.077   8.639   6.927  1.00  0.00     0.135 A 
ATOM     78  C   UNL     1       2.638   9.980   4.982  1.00  0.00     0.135 A 
ATOM     79  F   UNL     1       2.658   7.974   8.014  1.00  0.00    -0.206 F 
ATOM     80  C   UNL     1       4.442   8.680   6.660  1.00  0.00     0.059 A 
ATOM     81  C   UNL     1       3.995  10.016   4.681  1.00  0.00     0.059 A 
ATOM     82  F   UNL     1       1.787  10.609   4.156  1.00  0.00    -0.206 F 
ATOM     83  C   UNL     1       4.891   9.370   5.532  1.00  0.00     0.060 A 
BRANCH  83  84
ATOM     84  S   UNL     1       6.658   9.372   5.158  1.00  0.00     0.124 S 
ATOM     85  O   UNL     1       7.158  10.354   6.112  1.00  0.00    -0.237 OA
ATOM     86  O   UNL     1       7.031   7.984   5.414  1.00  0.00    -0.237 OA
ATOM     87  O   UNL     1       6.700   9.774   3.755  1.00  0.00    -0.744 OA
ENDBRANCH  83  84
ENDBRANCH  51  76
BRANCH  63  88
ATOM     88  C   UNL     1      -1.845  12.143  11.043  1.00  0.00     0.058 A 
ATOM     89  C   UNL     1      -1.510  13.496  10.879  1.00  0.00     0.135 A 
ATOM     90  C   UNL     1      -1.883  11.628  12.348  1.00  0.00     0.135 A 
ATOM     91  F   UNL     1      -1.455  14.034   9.650  1.00  0.00    -0.206 F 
ATOM     92  C   UNL     1      -1.190  14.301  11.967  1.00  0.00     0.059 A 
ATOM     93  C   UNL     1      -1.589  12.420  13.452  1.00  0.00     0.059 A 
ATOM     94  F   UNL     1      -2.209  10.343  12.558  1.00  0.00    -0.206 F 
ATOM     95  C   UNL     1      -1.225  13.752  13.250  1.00  0.00     0.060 A 
BRANCH  95  96
ATOM     96  S   UNL     1      -0.809  14.801  14.659  1.00  0.00     0.124 S 
ATOM     97  O   UNL     1       0.649  14.810  14.596  1.00  0.00    -0.237 OA
ATOM     98  O   UNL     1      -1.466  16.060  14.321  1.00  0.00    -0.237 OA
ATOM     99  O   UNL     1      -1.385  14.087  15.793  1.00  0.00    -0.744 OA
ENDBRANCH  95  96
ENDBRANCH  63  88
ENDBRANCH  37  38
ENDBRANCH  30  32
ENDBRANCH  29  30
ENDBRANCH  28  29
ENDBRANCH   1  28
TORSDOF 19
