REMARK SMILES C[C@H](C(=O)OCCOC(=O)c1ccc(-c2c3nc(c(-c4c(F)cc(S(=O)(=O)[O-])cc4F)c4ccc([nH]4)c(-c4c(F)cc(S(=O)(=O)[O-])cc4F)c4nc(c(-c5c(F)cc(S(=O)(=O)[O-])cc5F)c5ccc2[nH]5)C=C4)C=C3)cc1)[C@H](C)[NH+]1CCN(S(C)(=O)=O)CC1
REMARK SMILES IDX 6 1 5 2 3 3 4 4 2 5 1 6 77 7 78 8 79 9 80 10 88 11 81 13
REMARK SMILES IDX 87 14 82 15 83 16 84 17 85 18 86 19 7 20 8 21 9 22 10 23
REMARK SMILES IDX 11 24 12 25 76 26 13 27 75 28 14 29 15 30 16 31 69 32 17 33
REMARK SMILES IDX 74 34 68 35 70 36 18 37 73 38 67 39 66 40 19 42 53 43 32 44
REMARK SMILES IDX 52 45 33 46 36 47 51 48 71 49 34 50 35 51 50 53 72 54 37 55
REMARK SMILES IDX 20 56 21 57 30 58 22 59 23 60 29 61 31 62 24 63 25 64 26 65
REMARK SMILES IDX 27 66 28 67 54 68 55 69 64 70 56 71 57 72 63 73 65 74 58 75
REMARK SMILES IDX 59 76 60 77 61 78 62 79 38 80 39 81 48 82 40 83 41 84 47 85
REMARK SMILES IDX 49 86 42 87 43 88 44 89 45 90 46 91
REMARK H PARENT 79 12 70 41 36 52
REMARK Flexibility Score: inf
ROOT
ATOM      1  C   UNL     1      -3.688  -1.512  -3.960  1.00  0.00     0.274 C 
ENDROOT
BRANCH   1   2
ATOM      2  O   UNL     1      -3.328  -0.903  -2.696  1.00  0.00    -0.462 OA
BRANCH   2   3
ATOM      3  C   UNL     1      -2.064  -1.163  -2.262  1.00  0.00     0.314 C 
ATOM      4  O   UNL     1      -1.280  -1.843  -2.915  1.00  0.00    -0.252 OA
BRANCH   3   5
ATOM      5  C   UNL     1      -1.720  -0.612  -0.871  1.00  0.00     0.154 C 
ATOM      6  C   UNL     1      -2.844   0.212  -0.241  1.00  0.00     0.026 C 
BRANCH   5   7
ATOM      7  C   UNL     1      -1.136  -1.716   0.116  1.00  0.00     0.195 C 
ATOM      8  C   UNL     1       0.380  -1.868  -0.143  1.00  0.00     0.076 C 
BRANCH   7   9
ATOM      9  N   UNL     1      -1.930  -2.942   0.361  1.00  0.00    -0.330 N 
ATOM     10  C   UNL     1      -3.003  -3.249  -0.560  1.00  0.00     0.279 C 
ATOM     11  C   UNL     1      -1.332  -4.206   0.851  1.00  0.00     0.279 C 
ATOM     12  H   UNL     1      -2.289  -2.513   1.214  1.00  0.00     0.348 HD
ATOM     13  C   UNL     1      -2.471  -4.101  -1.720  1.00  0.00     0.163 C 
ATOM     14  C   UNL     1      -1.355  -5.503  -0.065  1.00  0.00     0.163 C 
ATOM     15  N   UNL     1      -2.303  -5.451  -1.212  1.00  0.00    -0.191 NA
BRANCH  15  16
ATOM     16  S   UNL     1      -3.510  -6.550  -1.540  1.00  0.00     0.211 S 
ATOM     17  C   UNL     1      -4.968  -5.801  -0.829  1.00  0.00     0.176 C 
ATOM     18  O   UNL     1      -3.730  -6.535  -2.976  1.00  0.00    -0.212 OA
ATOM     19  O   UNL     1      -3.241  -7.780  -0.837  1.00  0.00    -0.212 OA
ENDBRANCH  15  16
ENDBRANCH   7   9
ENDBRANCH   5   7
ENDBRANCH   3   5
ENDBRANCH   2   3
ENDBRANCH   1   2
BRANCH   1  20
ATOM     20  C   UNL     1      -3.524  -0.551  -5.136  1.00  0.00     0.275 C 
BRANCH  20  21
ATOM     21  O   UNL     1      -2.166  -0.095  -5.234  1.00  0.00    -0.458 OA
BRANCH  21  22
ATOM     22  C   UNL     1      -1.927   1.055  -4.565  1.00  0.00     0.338 C 
ATOM     23  O   UNL     1      -2.742   1.758  -3.990  1.00  0.00    -0.246 OA
BRANCH  22  24
ATOM     24  C   UNL     1      -0.490   1.337  -4.510  1.00  0.00     0.060 A 
ATOM     25  C   UNL     1       0.307   0.633  -3.611  1.00  0.00     0.016 A 
ATOM     26  C   UNL     1       0.017   2.450  -5.164  1.00  0.00     0.016 A 
ATOM     27  C   UNL     1       1.553   1.088  -3.248  1.00  0.00     0.010 A 
ATOM     28  C   UNL     1       1.328   2.842  -4.899  1.00  0.00     0.010 A 
ATOM     29  C   UNL     1       2.085   2.181  -3.913  1.00  0.00    -0.014 A 
BRANCH  29  30
ATOM     30  C   UNL     1       3.413   2.672  -3.519  1.00  0.00     0.031 A 
ATOM     31  C   UNL     1       3.522   4.070  -3.004  1.00  0.00     0.074 A 
ATOM     32  C   UNL     1       4.482   1.863  -3.625  1.00  0.00     0.049 A 
ATOM     33  N   UNL     1       4.574   4.830  -2.913  1.00  0.00    -0.248 NA
ATOM     34  C   UNL     1       2.268   4.708  -2.562  1.00  0.00     0.031 C 
ATOM     35  C   UNL     1       4.449   0.444  -3.998  1.00  0.00     0.029 A 
ATOM     36  N   UNL     1       5.813   2.126  -3.447  1.00  0.00    -0.354 N 
ATOM     37  C   UNL     1       4.103   6.063  -2.485  1.00  0.00     0.074 A 
ATOM     38  C   UNL     1       2.671   5.947  -2.321  1.00  0.00     0.031 C 
ATOM     39  C   UNL     1       5.701  -0.035  -4.025  1.00  0.00     0.029 A 
ATOM     40  C   UNL     1       6.620   1.067  -3.789  1.00  0.00     0.049 A 
ATOM     41  H   UNL     1       6.157   2.984  -3.109  1.00  0.00     0.167 HD
ATOM     42  C   UNL     1       4.822   7.188  -2.276  1.00  0.00     0.037 A 
ATOM     43  C   UNL     1       7.950   1.021  -3.976  1.00  0.00     0.037 A 
ATOM     44  C   UNL     1       6.253   7.231  -2.422  1.00  0.00     0.049 A 
ATOM     45  C   UNL     1       8.721   2.298  -3.801  1.00  0.00     0.074 A 
ATOM     46  C   UNL     1       7.109   8.300  -2.241  1.00  0.00     0.029 A 
ATOM     47  N   UNL     1       7.040   6.141  -2.779  1.00  0.00    -0.354 N 
ATOM     48  N   UNL     1       8.275   3.489  -3.474  1.00  0.00    -0.248 NA
ATOM     49  C   UNL     1      10.165   2.233  -4.038  1.00  0.00     0.031 C 
ATOM     50  C   UNL     1       8.407   7.867  -2.535  1.00  0.00     0.029 A 
ATOM     51  C   UNL     1       8.369   6.514  -2.839  1.00  0.00     0.049 A 
ATOM     52  H   UNL     1       6.699   5.235  -2.962  1.00  0.00     0.167 HD
ATOM     53  C   UNL     1       9.390   4.314  -3.437  1.00  0.00     0.074 A 
ATOM     54  C   UNL     1      10.531   3.478  -3.766  1.00  0.00     0.031 C 
ATOM     55  C   UNL     1       9.473   5.639  -3.158  1.00  0.00     0.037 A 
BRANCH  42  56
ATOM     56  C   UNL     1       4.074   8.447  -1.940  1.00  0.00     0.058 A 
ATOM     57  C   UNL     1       3.415   8.627  -0.714  1.00  0.00     0.135 A 
ATOM     58  C   UNL     1       4.018   9.499  -2.870  1.00  0.00     0.135 A 
ATOM     59  F   UNL     1       3.408   7.644   0.202  1.00  0.00    -0.206 F 
ATOM     60  C   UNL     1       2.709   9.793  -0.431  1.00  0.00     0.059 A 
ATOM     61  C   UNL     1       3.345  10.685  -2.597  1.00  0.00     0.059 A 
ATOM     62  F   UNL     1       4.616   9.376  -4.066  1.00  0.00    -0.206 F 
ATOM     63  C   UNL     1       2.682  10.818  -1.378  1.00  0.00     0.060 A 
BRANCH  63  64
ATOM     64  S   UNL     1       1.774  12.329  -0.990  1.00  0.00     0.124 S 
ATOM     65  O   UNL     1       0.392  11.866  -1.066  1.00  0.00    -0.237 OA
ATOM     66  O   UNL     1       2.262  12.649   0.348  1.00  0.00    -0.237 OA
ATOM     67  O   UNL     1       2.184  13.253  -2.042  1.00  0.00    -0.744 OA
ENDBRANCH  63  64
ENDBRANCH  42  56
BRANCH  43  68
ATOM     68  C   UNL     1       8.603  -0.245  -4.398  1.00  0.00     0.058 A 
ATOM     69  C   UNL     1       9.474  -0.923  -3.535  1.00  0.00     0.135 A 
ATOM     70  C   UNL     1       8.348  -0.823  -5.654  1.00  0.00     0.135 A 
ATOM     71  F   UNL     1       9.751  -0.412  -2.326  1.00  0.00    -0.206 F 
ATOM     72  C   UNL     1      10.083  -2.117  -3.905  1.00  0.00     0.059 A 
ATOM     73  C   UNL     1       8.919  -2.033  -6.034  1.00  0.00     0.059 A 
ATOM     74  F   UNL     1       7.505  -0.227  -6.512  1.00  0.00    -0.206 F 
ATOM     75  C   UNL     1       9.796  -2.667  -5.156  1.00  0.00     0.060 A 
BRANCH  75  76
ATOM     76  S   UNL     1      10.564  -4.238  -5.605  1.00  0.00     0.124 S 
ATOM     77  O   UNL     1      11.951  -3.837  -5.808  1.00  0.00    -0.237 OA
ATOM     78  O   UNL     1      10.300  -5.054  -4.424  1.00  0.00    -0.237 OA
ATOM     79  O   UNL     1       9.839  -4.635  -6.808  1.00  0.00    -0.744 OA
ENDBRANCH  75  76
ENDBRANCH  43  68
BRANCH  55  80
ATOM     80  C   UNL     1      10.847   6.241  -3.141  1.00  0.00     0.058 A 
ATOM     81  C   UNL     1      11.570   6.469  -4.321  1.00  0.00     0.135 A 
ATOM     82  C   UNL     1      11.422   6.640  -1.924  1.00  0.00     0.135 A 
ATOM     83  F   UNL     1      11.066   6.094  -5.507  1.00  0.00    -0.206 F 
ATOM     84  C   UNL     1      12.831   7.051  -4.292  1.00  0.00     0.059 A 
ATOM     85  C   UNL     1      12.666   7.255  -1.875  1.00  0.00     0.059 A 
ATOM     86  F   UNL     1      10.763   6.451  -0.769  1.00  0.00    -0.206 F 
ATOM     87  C   UNL     1      13.368   7.445  -3.064  1.00  0.00     0.060 A 
BRANCH  87  88
ATOM     88  S   UNL     1      14.988   8.236  -3.046  1.00  0.00     0.124 S 
ATOM     89  O   UNL     1      15.868   7.108  -3.329  1.00  0.00    -0.237 OA
ATOM     90  O   UNL     1      14.862   9.227  -4.111  1.00  0.00    -0.237 OA
ATOM     91  O   UNL     1      15.083   8.785  -1.696  1.00  0.00    -0.744 OA
ENDBRANCH  87  88
ENDBRANCH  55  80
ENDBRANCH  29  30
ENDBRANCH  22  24
ENDBRANCH  21  22
ENDBRANCH  20  21
ENDBRANCH   1  20
TORSDOF 17
