REMARK SMILES COc1cc([C@@H]2CC(=O)Nc3c(C(=O)OCCOC(=O)c4ccc(-c5c6nc(c(-c7c(F)cc(S(=O)(=O)[O-])cc7F)c7ccc([nH]7)c(-c7c(F)cc(S(=O)(=O)[O-])cc7F)c7nc(c(-c8c(F)cc(S(=O)(=O)[O-])cc8F)c8ccc5[nH]8)C=C7)C=C6)cc4)cn(-c4ccc(F)cc4)c32)c(OC)c2c1OCO2
REMARK SMILES IDX 17 1 16 2 15 3 13 4 14 5 12 6 6 7 7 8 96 9 8 10 11 11 88 12
REMARK SMILES IDX 9 13 10 14 87 15 5 17 3 18 4 19 101 20 100 21 102 22 97 23
REMARK SMILES IDX 104 24 103 25 2 26 1 27 98 28 99 29 89 30 90 31 95 32 91 33
REMARK SMILES IDX 94 34 92 35 93 36 18 37 19 38 20 39 21 40 22 41 86 42 23 43
REMARK SMILES IDX 85 44 24 45 25 46 26 47 79 48 27 49 84 50 78 51 80 52 28 53
REMARK SMILES IDX 83 54 77 55 76 56 29 58 63 59 42 60 62 61 43 62 46 63 61 64
REMARK SMILES IDX 81 65 44 66 45 67 60 69 82 70 47 71 30 72 31 73 40 74 32 75
REMARK SMILES IDX 33 76 39 77 41 78 34 79 35 80 36 81 37 82 38 83 64 84 65 85
REMARK SMILES IDX 74 86 66 87 67 88 73 89 75 90 68 91 69 92 70 93 71 94 72 95
REMARK SMILES IDX 48 96 49 97 58 98 50 99 51 100 57 101 59 102 52 103 53 104
REMARK SMILES IDX 54 105 55 106 56 107
REMARK H PARENT 10 16 80 57 46 68
REMARK Flexibility Score: inf
ROOT
ATOM      1  C   UNL     1       0.369   1.579  12.427  1.00  0.00     0.275 C 
ENDROOT
BRANCH   1   2
ATOM      2  C   UNL     1       1.535   1.343  11.477  1.00  0.00     0.275 C 
BRANCH   2   3
ATOM      3  O   UNL     1       1.118   1.472  10.109  1.00  0.00    -0.458 OA
BRANCH   3   4
ATOM      4  C   UNL     1       0.558   0.357   9.544  1.00  0.00     0.341 C 
ATOM      5  O   UNL     1       0.627  -0.773  10.023  1.00  0.00    -0.246 OA
BRANCH   4   6
ATOM      6  C   UNL     1      -0.158   0.659   8.319  1.00  0.00     0.102 A 
ATOM      7  C   UNL     1      -0.571   2.473   5.149  1.00  0.00     0.082 C 
ATOM      8  C   UNL     1      -0.340   3.916   5.637  1.00  0.00     0.115 C 
ATOM      9  C   UNL     1      -0.700   1.569   6.332  1.00  0.00     0.055 A 
ATOM     10  C   UNL     1       0.555   4.047   6.864  1.00  0.00     0.225 C 
ATOM     11  C   UNL     1      -0.122   1.838   7.548  1.00  0.00     0.078 A 
ATOM     12  N   UNL     1      -1.375   0.373   6.443  1.00  0.00    -0.317 N 
ATOM     13  O   UNL     1       1.233   5.056   7.065  1.00  0.00    -0.275 OA
ATOM     14  N   UNL     1       0.508   3.037   7.791  1.00  0.00    -0.324 N 
ATOM     15  C   UNL     1      -1.047  -0.183   7.663  1.00  0.00     0.109 A 
ATOM     16  H   UNL     1       0.942   3.175   8.664  1.00  0.00     0.170 HD
BRANCH   7  17
ATOM     17  C   UNL     1       0.520   2.018   4.162  1.00  0.00     0.012 A 
ATOM     18  C   UNL     1       1.026   1.366   1.846  1.00  0.00     0.165 A 
ATOM     19  C   UNL     1       0.145   1.878   2.800  1.00  0.00     0.059 A 
ATOM     20  C   UNL     1       2.314   1.073   2.250  1.00  0.00     0.211 A 
ATOM     21  C   UNL     1       2.715   1.239   3.560  1.00  0.00     0.211 A 
ATOM     22  O   UNL     1       3.330   0.620   1.459  1.00  0.00    -0.449 OA
ATOM     23  C   UNL     1       1.850   1.700   4.540  1.00  0.00     0.168 A 
ATOM     24  O   UNL     1       4.023   0.886   3.732  1.00  0.00    -0.449 OA
ATOM     25  C   UNL     1       4.421   0.589   2.390  1.00  0.00     0.468 C 
BRANCH  18  26
ATOM     26  O   UNL     1       0.532   1.236   0.580  1.00  0.00    -0.493 OA
ATOM     27  C   UNL     1       0.905   0.020  -0.064  1.00  0.00     0.278 C 
ENDBRANCH  18  26
BRANCH  23  28
ATOM     28  O   UNL     1       2.169   1.863   5.850  1.00  0.00    -0.492 OA
ATOM     29  C   UNL     1       3.498   1.684   6.304  1.00  0.00     0.278 C 
ENDBRANCH  23  28
ENDBRANCH   7  17
BRANCH  12  30
ATOM     30  C   UNL     1      -2.207  -0.241   5.484  1.00  0.00     0.046 A 
ATOM     31  C   UNL     1      -1.679  -0.604   4.243  1.00  0.00     0.029 A 
ATOM     32  C   UNL     1      -3.551  -0.486   5.791  1.00  0.00     0.029 A 
ATOM     33  C   UNL     1      -2.510  -1.169   3.278  1.00  0.00     0.041 A 
ATOM     34  C   UNL     1      -4.381  -1.043   4.814  1.00  0.00     0.041 A 
ATOM     35  C   UNL     1      -3.855  -1.372   3.567  1.00  0.00     0.123 A 
ATOM     36  F   UNL     1      -4.653  -1.901   2.629  1.00  0.00    -0.207 F 
ENDBRANCH  12  30
ENDBRANCH   4   6
ENDBRANCH   3   4
ENDBRANCH   2   3
ENDBRANCH   1   2
BRANCH   1  37
ATOM     37  O   UNL     1      -0.577   0.518  12.335  1.00  0.00    -0.458 OA
BRANCH  37  38
ATOM     38  C   UNL     1      -1.625   0.756  11.514  1.00  0.00     0.338 C 
ATOM     39  O   UNL     1      -1.719   1.631  10.671  1.00  0.00    -0.246 OA
BRANCH  38  40
ATOM     40  C   UNL     1      -2.748  -0.077  11.933  1.00  0.00     0.060 A 
ATOM     41  C   UNL     1      -3.879  -0.108  11.110  1.00  0.00     0.016 A 
ATOM     42  C   UNL     1      -2.773  -0.511  13.264  1.00  0.00     0.016 A 
ATOM     43  C   UNL     1      -5.094  -0.399  11.689  1.00  0.00     0.010 A 
ATOM     44  C   UNL     1      -3.984  -0.768  13.843  1.00  0.00     0.010 A 
ATOM     45  C   UNL     1      -5.133  -0.632  13.066  1.00  0.00    -0.014 A 
BRANCH  45  46
ATOM     46  C   UNL     1      -6.408  -0.865  13.706  1.00  0.00     0.031 A 
ATOM     47  C   UNL     1      -6.941  -2.214  13.403  1.00  0.00     0.074 A 
ATOM     48  C   UNL     1      -6.885  -0.002  14.624  1.00  0.00     0.049 A 
ATOM     49  N   UNL     1      -8.017  -2.525  12.760  1.00  0.00    -0.248 NA
ATOM     50  C   UNL     1      -6.052  -3.364  13.663  1.00  0.00     0.031 C 
ATOM     51  C   UNL     1      -6.225   1.197  15.155  1.00  0.00     0.029 A 
ATOM     52  N   UNL     1      -8.011  -0.082  15.377  1.00  0.00    -0.354 N 
ATOM     53  C   UNL     1      -8.063  -3.916  12.788  1.00  0.00     0.074 A 
ATOM     54  C   UNL     1      -6.735  -4.358  13.100  1.00  0.00     0.031 C 
ATOM     55  C   UNL     1      -6.850   1.587  16.290  1.00  0.00     0.029 A 
ATOM     56  C   UNL     1      -8.015   0.745  16.497  1.00  0.00     0.049 A 
ATOM     57  H   UNL     1      -8.763  -0.675  15.151  1.00  0.00     0.167 HD
ATOM     58  C   UNL     1      -9.254  -4.566  12.898  1.00  0.00     0.037 A 
ATOM     59  C   UNL     1      -8.871   0.666  17.548  1.00  0.00     0.037 A 
ATOM     60  C   UNL     1     -10.338  -3.714  12.467  1.00  0.00     0.049 A 
ATOM     61  C   UNL     1     -10.047  -0.123  17.086  1.00  0.00     0.074 A 
ATOM     62  C   UNL     1     -10.634  -3.041  11.296  1.00  0.00     0.029 A 
ATOM     63  N   UNL     1     -11.119  -3.135  13.439  1.00  0.00    -0.354 N 
ATOM     64  N   UNL     1     -10.869   0.282  16.154  1.00  0.00    -0.248 NA
ATOM     65  C   UNL     1     -10.023  -1.562  17.307  1.00  0.00     0.031 C 
ATOM     66  C   UNL     1     -11.217  -1.808  11.711  1.00  0.00     0.029 A 
ATOM     67  C   UNL     1     -11.310  -1.819  13.104  1.00  0.00     0.049 A 
ATOM     68  H   UNL     1     -11.478  -3.586  14.237  1.00  0.00     0.167 HD
ATOM     69  C   UNL     1     -11.143  -0.851  15.397  1.00  0.00     0.074 A 
ATOM     70  C   UNL     1     -10.658  -1.969  16.204  1.00  0.00     0.031 C 
ATOM     71  C   UNL     1     -11.467  -0.753  14.073  1.00  0.00     0.037 A 
BRANCH  58  72
ATOM     72  C   UNL     1      -9.464  -5.764  13.807  1.00  0.00     0.058 A 
ATOM     73  C   UNL     1     -10.738  -6.369  13.836  1.00  0.00     0.135 A 
ATOM     74  C   UNL     1      -8.591  -6.156  14.851  1.00  0.00     0.135 A 
ATOM     75  F   UNL     1     -11.645  -6.096  12.886  1.00  0.00    -0.206 F 
ATOM     76  C   UNL     1     -11.151  -7.194  14.883  1.00  0.00     0.059 A 
ATOM     77  C   UNL     1      -8.966  -7.016  15.875  1.00  0.00     0.059 A 
ATOM     78  F   UNL     1      -7.356  -5.669  14.999  1.00  0.00    -0.206 F 
ATOM     79  C   UNL     1     -10.264  -7.488  15.912  1.00  0.00     0.060 A 
BRANCH  79  80
ATOM     80  S   UNL     1     -10.827  -8.437  17.331  1.00  0.00     0.124 S 
ATOM     81  O   UNL     1     -11.759  -7.502  17.949  1.00  0.00    -0.237 OA
ATOM     82  O   UNL     1     -11.419  -9.608  16.692  1.00  0.00    -0.237 OA
ATOM     83  O   UNL     1      -9.597  -8.691  18.076  1.00  0.00    -0.744 OA
ENDBRANCH  79  80
ENDBRANCH  58  72
BRANCH  59  84
ATOM     84  C   UNL     1      -8.560   0.892  18.988  1.00  0.00     0.058 A 
ATOM     85  C   UNL     1      -9.576   1.032  19.951  1.00  0.00     0.135 A 
ATOM     86  C   UNL     1      -7.254   0.719  19.493  1.00  0.00     0.135 A 
ATOM     87  F   UNL     1     -10.854   1.168  19.567  1.00  0.00    -0.206 F 
ATOM     88  C   UNL     1      -9.316   0.979  21.329  1.00  0.00     0.059 A 
ATOM     89  C   UNL     1      -6.970   0.674  20.858  1.00  0.00     0.059 A 
ATOM     90  F   UNL     1      -6.217   0.500  18.672  1.00  0.00    -0.206 F 
ATOM     91  C   UNL     1      -8.008   0.786  21.772  1.00  0.00     0.060 A 
BRANCH  91  92
ATOM     92  S   UNL     1      -7.678   0.580  23.540  1.00  0.00     0.124 S 
ATOM     93  O   UNL     1      -7.967   1.913  24.059  1.00  0.00    -0.237 OA
ATOM     94  O   UNL     1      -8.623  -0.467  23.912  1.00  0.00    -0.237 OA
ATOM     95  O   UNL     1      -6.271   0.189  23.580  1.00  0.00    -0.744 OA
ENDBRANCH  91  92
ENDBRANCH  59  84
BRANCH  71  96
ATOM     96  C   UNL     1     -11.801   0.612  13.520  1.00  0.00     0.058 A 
ATOM     97  C   UNL     1     -10.883   1.673  13.412  1.00  0.00     0.135 A 
ATOM     98  C   UNL     1     -13.057   0.794  12.925  1.00  0.00     0.135 A 
ATOM     99  F   UNL     1      -9.628   1.547  13.862  1.00  0.00    -0.206 F 
ATOM    100  C   UNL     1     -11.211   2.871  12.771  1.00  0.00     0.059 A 
ATOM    101  C   UNL     1     -13.396   1.967  12.254  1.00  0.00     0.059 A 
ATOM    102  F   UNL     1     -13.957  -0.203  12.937  1.00  0.00    -0.206 F 
ATOM    103  C   UNL     1     -12.471   3.006  12.190  1.00  0.00     0.060 A 
BRANCH 103 104
ATOM    104  S   UNL     1     -12.865   4.518  11.283  1.00  0.00     0.124 S 
ATOM    105  O   UNL     1     -12.984   5.499  12.356  1.00  0.00    -0.237 OA
ATOM    106  O   UNL     1     -11.707   4.674  10.407  1.00  0.00    -0.237 OA
ATOM    107  O   UNL     1     -14.113   4.189  10.597  1.00  0.00    -0.744 OA
ENDBRANCH 103 104
ENDBRANCH  71  96
ENDBRANCH  45  46
ENDBRANCH  38  40
ENDBRANCH  37  38
ENDBRANCH   1  37
TORSDOF 18
