REMARK SMILES C[C@@H](C(=O)OCCOC(=O)c1ccc(-c2c3nc(c(-c4c(F)cc(S(=O)(=O)[O-])cc4F)c4ccc([nH]4)c(-c4c(F)cc(S(=O)(=O)[O-])cc4F)c4nc(c(-c5c(F)cc(S(=O)(=O)[O-])cc5F)c5ccc2[nH]5)C=C4)C=C3)cc1)c1ccc(C[C@H]2CCC[C@@H]2O)cc1-c1ccc(O)cc1
REMARK SMILES IDX 6 1 5 2 3 3 4 4 2 5 1 6 77 7 78 8 89 9 79 10 88 11 80 12
REMARK SMILES IDX 90 13 91 14 96 15 92 16 95 17 93 18 94 19 81 21 82 22 83 23
REMARK SMILES IDX 86 24 84 25 85 26 87 27 7 29 8 30 9 31 10 32 11 33 12 34
REMARK SMILES IDX 76 35 13 36 75 37 14 38 15 39 16 40 69 41 17 42 74 43 68 44
REMARK SMILES IDX 70 45 18 46 73 47 67 48 66 49 19 51 53 52 32 53 52 54 33 55
REMARK SMILES IDX 36 56 51 57 71 58 34 59 35 60 50 62 72 63 37 64 20 65 21 66
REMARK SMILES IDX 30 67 22 68 23 69 29 70 31 71 24 72 25 73 26 74 27 75 28 76
REMARK SMILES IDX 54 77 55 78 64 79 56 80 57 81 63 82 65 83 58 84 59 85 60 86
REMARK SMILES IDX 61 87 62 88 38 89 39 90 48 91 40 92 41 93 47 94 49 95 42 96
REMARK SMILES IDX 43 97 44 98 45 99 46 100
REMARK H PARENT 94 20 87 28 70 50 36 61
REMARK Flexibility Score: inf
ROOT
ATOM      1  C   UNL     1       3.550  -2.084   2.846  1.00  0.00     0.274 C 
ENDROOT
BRANCH   1   2
ATOM      2  O   UNL     1       3.118  -1.607   1.553  1.00  0.00    -0.462 OA
BRANCH   2   3
ATOM      3  C   UNL     1       1.918  -2.114   1.142  1.00  0.00     0.313 C 
ATOM      4  O   UNL     1       1.286  -2.880   1.853  1.00  0.00    -0.252 OA
BRANCH   3   5
ATOM      5  C   UNL     1       1.500  -1.660  -0.276  1.00  0.00     0.127 C 
ATOM      6  C   UNL     1       2.070  -0.246  -0.517  1.00  0.00     0.025 C 
BRANCH   5   7
ATOM      7  C   UNL     1      -0.030  -1.734  -0.509  1.00  0.00    -0.026 A 
ATOM      8  C   UNL     1      -0.764  -0.523  -0.631  1.00  0.00     0.005 A 
ATOM      9  C   UNL     1      -0.766  -2.954  -0.491  1.00  0.00    -0.014 A 
ATOM     10  C   UNL     1      -2.148  -0.489  -0.530  1.00  0.00     0.004 A 
ATOM     11  C   UNL     1      -2.162  -2.890  -0.398  1.00  0.00     0.012 A 
ATOM     12  C   UNL     1      -2.825  -1.672  -0.298  1.00  0.00    -0.047 A 
BRANCH   9  13
ATOM     13  C   UNL     1      -0.229  -4.322  -0.454  1.00  0.00    -0.018 A 
ATOM     14  C   UNL     1      -0.108  -5.077  -1.628  1.00  0.00     0.012 A 
ATOM     15  C   UNL     1      -0.047  -4.989   0.770  1.00  0.00     0.012 A 
ATOM     16  C   UNL     1       0.296  -6.415  -1.576  1.00  0.00     0.047 A 
ATOM     17  C   UNL     1       0.418  -6.300   0.830  1.00  0.00     0.047 A 
ATOM     18  C   UNL     1       0.602  -6.999  -0.352  1.00  0.00     0.115 A 
BRANCH  18  19
ATOM     19  O   UNL     1       1.073  -8.277  -0.345  1.00  0.00    -0.508 OA
ATOM     20  H   UNL     1       1.192  -8.737  -1.153  1.00  0.00     0.293 HD
ENDBRANCH  18  19
ENDBRANCH   9  13
BRANCH  12  21
ATOM     21  C   UNL     1      -4.210  -1.666   0.226  1.00  0.00     0.041 C 
BRANCH  21  22
ATOM     22  C   UNL     1      -4.495  -1.242   1.733  1.00  0.00     0.022 C 
ATOM     23  C   UNL     1      -4.386  -2.343   3.494  1.00  0.00     0.007 C 
ATOM     24  C   UNL     1      -4.467   0.679   2.260  1.00  0.00     0.117 C 
ATOM     25  C   UNL     1      -4.794  -1.106   5.038  1.00  0.00     0.003 C 
ATOM     26  C   UNL     1      -4.780   0.792   4.294  1.00  0.00     0.032 C 
BRANCH  24  27
ATOM     27  O   UNL     1      -5.200   1.387   1.268  1.00  0.00    -0.393 OA
ATOM     28  H   UNL     1      -6.082   0.994   1.176  1.00  0.00     0.210 HD
ENDBRANCH  24  27
ENDBRANCH  21  22
ENDBRANCH  12  21
ENDBRANCH   5   7
ENDBRANCH   3   5
ENDBRANCH   2   3
ENDBRANCH   1   2
BRANCH   1  29
ATOM     29  C   UNL     1       3.074  -1.203   4.008  1.00  0.00     0.275 C 
BRANCH  29  30
ATOM     30  O   UNL     1       1.641  -1.184   4.114  1.00  0.00    -0.458 OA
BRANCH  30  31
ATOM     31  C   UNL     1       1.035  -0.007   3.827  1.00  0.00     0.338 C 
ATOM     32  O   UNL     1       1.567   1.054   3.551  1.00  0.00    -0.246 OA
BRANCH  31  33
ATOM     33  C   UNL     1      -0.420  -0.207   3.821  1.00  0.00     0.060 A 
ATOM     34  C   UNL     1      -1.004  -0.916   2.809  1.00  0.00     0.016 A 
ATOM     35  C   UNL     1      -1.246   0.237   4.810  1.00  0.00     0.016 A 
ATOM     36  C   UNL     1      -2.409  -1.103   2.709  1.00  0.00     0.010 A 
ATOM     37  C   UNL     1      -2.655   0.021   4.684  1.00  0.00     0.010 A 
ATOM     38  C   UNL     1      -3.550  -0.564   3.516  1.00  0.00    -0.014 A 
BRANCH  38  39
ATOM     39  C   UNL     1      -5.663  -0.705   3.279  1.00  0.00     0.031 A 
ATOM     40  C   UNL     1      -6.904   0.676   3.300  1.00  0.00     0.074 A 
ATOM     41  C   UNL     1      -6.643  -1.815   2.916  1.00  0.00     0.049 A 
ATOM     42  N   UNL     1      -8.212   0.651   3.575  1.00  0.00    -0.248 NA
ATOM     43  C   UNL     1      -6.479   2.142   3.169  1.00  0.00     0.031 C 
ATOM     44  C   UNL     1      -6.293  -3.124   2.192  1.00  0.00     0.029 A 
ATOM     45  N   UNL     1      -8.027  -2.047   3.022  1.00  0.00    -0.354 N 
ATOM     46  C   UNL     1      -8.633   2.003   3.709  1.00  0.00     0.074 A 
ATOM     47  C   UNL     1      -7.467   2.821   3.691  1.00  0.00     0.031 C 
ATOM     48  C   UNL     1      -7.269  -4.010   2.194  1.00  0.00     0.029 A 
ATOM     49  C   UNL     1      -8.420  -3.379   2.760  1.00  0.00     0.049 A 
ATOM     50  H   UNL     1      -8.669  -1.339   3.260  1.00  0.00     0.167 HD
ATOM     51  C   UNL     1      -9.835   2.637   3.762  1.00  0.00     0.037 A 
ATOM     52  C   UNL     1      -9.534  -4.142   2.837  1.00  0.00     0.037 A 
ATOM     53  C   UNL     1     -11.102   1.999   3.665  1.00  0.00     0.049 A 
ATOM     54  C   UNL     1     -10.838  -3.473   2.998  1.00  0.00     0.074 A 
ATOM     55  C   UNL     1     -12.357   2.579   3.701  1.00  0.00     0.029 A 
ATOM     56  N   UNL     1     -11.273   0.647   3.462  1.00  0.00    -0.354 N 
ATOM     57  N   UNL     1     -11.065  -2.199   3.154  1.00  0.00    -0.248 NA
ATOM     58  C   UNL     1     -12.036  -4.311   2.870  1.00  0.00     0.031 C 
ATOM     59  C   UNL     1     -13.301   1.564   3.537  1.00  0.00     0.029 A 
ATOM     60  C   UNL     1     -12.623   0.368   3.381  1.00  0.00     0.049 A 
ATOM     61  H   UNL     1     -10.548  -0.015   3.387  1.00  0.00     0.167 HD
ATOM     62  C   UNL     1     -12.437  -2.070   3.082  1.00  0.00     0.074 A 
ATOM     63  C   UNL     1     -12.989  -3.391   2.872  1.00  0.00     0.031 C 
ATOM     64  C   UNL     1     -13.164  -0.938   3.166  1.00  0.00     0.037 A 
BRANCH  51  65
ATOM     65  C   UNL     1      -9.812   4.159   3.897  1.00  0.00     0.058 A 
ATOM     66  C   UNL     1      -9.402   4.991   2.835  1.00  0.00     0.135 A 
ATOM     67  C   UNL     1     -10.059   4.771   5.137  1.00  0.00     0.135 A 
ATOM     68  F   UNL     1      -9.122   4.462   1.633  1.00  0.00    -0.206 F 
ATOM     69  C   UNL     1      -9.148   6.349   3.024  1.00  0.00     0.059 A 
ATOM     70  C   UNL     1      -9.847   6.136   5.338  1.00  0.00     0.059 A 
ATOM     71  F   UNL     1     -10.458   4.035   6.186  1.00  0.00    -0.206 F 
ATOM     72  C   UNL     1      -9.351   6.907   4.287  1.00  0.00     0.060 A 
BRANCH  72  73
ATOM     73  S   UNL     1      -8.921   8.644   4.553  1.00  0.00     0.124 S 
ATOM     74  O   UNL     1      -7.468   8.570   4.670  1.00  0.00    -0.237 OA
ATOM     75  O   UNL     1      -9.424   9.286   3.343  1.00  0.00    -0.237 OA
ATOM     76  O   UNL     1      -9.633   8.985   5.780  1.00  0.00    -0.744 OA
ENDBRANCH  72  73
ENDBRANCH  51  65
BRANCH  52  77
ATOM     77  C   UNL     1      -9.454  -5.636   2.614  1.00  0.00     0.058 A 
ATOM     78  C   UNL     1      -9.858  -6.239   1.410  1.00  0.00     0.135 A 
ATOM     79  C   UNL     1      -8.871  -6.477   3.582  1.00  0.00     0.135 A 
ATOM     80  F   UNL     1     -10.389  -5.489   0.433  1.00  0.00    -0.206 F 
ATOM     81  C   UNL     1      -9.715  -7.610   1.184  1.00  0.00     0.059 A 
ATOM     82  C   UNL     1      -8.701  -7.847   3.372  1.00  0.00     0.059 A 
ATOM     83  F   UNL     1      -8.421  -5.958   4.735  1.00  0.00    -0.206 F 
ATOM     84  C   UNL     1      -9.136  -8.408   2.173  1.00  0.00     0.060 A 
BRANCH  84  85
ATOM     85  S   UNL     1      -8.922 -10.177   1.852  1.00  0.00     0.124 S 
ATOM     86  O   UNL     1     -10.299 -10.656   1.905  1.00  0.00    -0.237 OA
ATOM     87  O   UNL     1      -8.297 -10.177   0.533  1.00  0.00    -0.237 OA
ATOM     88  O   UNL     1      -8.060 -10.617   2.945  1.00  0.00    -0.744 OA
ENDBRANCH  84  85
ENDBRANCH  52  77
BRANCH  64  89
ATOM     89  C   UNL     1     -14.636  -1.073   3.039  1.00  0.00     0.058 A 
ATOM     90  C   UNL     1     -15.394  -1.592   4.095  1.00  0.00     0.135 A 
ATOM     91  C   UNL     1     -15.292  -0.622   1.886  1.00  0.00     0.135 A 
ATOM     92  F   UNL     1     -14.790  -2.045   5.205  1.00  0.00    -0.206 F 
ATOM     93  C   UNL     1     -16.773  -1.665   4.011  1.00  0.00     0.059 A 
ATOM     94  C   UNL     1     -16.674  -0.663   1.792  1.00  0.00     0.059 A 
ATOM     95  F   UNL     1     -14.591  -0.120   0.857  1.00  0.00    -0.206 F 
ATOM     96  C   UNL     1     -17.403  -1.189   2.859  1.00  0.00     0.060 A 
BRANCH  96  97
ATOM     97  S   UNL     1     -19.202  -1.219   2.798  1.00  0.00     0.124 S 
ATOM     98  O   UNL     1     -19.460  -2.629   2.529  1.00  0.00    -0.237 OA
ATOM     99  O   UNL     1     -19.566  -0.749   4.132  1.00  0.00    -0.237 OA
ATOM    100  O   UNL     1     -19.517  -0.299   1.709  1.00  0.00    -0.744 OA
ENDBRANCH  96  97
ENDBRANCH  64  89
ENDBRANCH  38  39
ENDBRANCH  31  33
ENDBRANCH  30  31
ENDBRANCH  29  30
ENDBRANCH   1  29
TORSDOF 20
