REMARK SMILES Cc1ccc(S(=O)(=O)n2cc(C(=O)C(=O)N[C@@H](Cc3c[nH]c4ccccc34)C(=O)OCCOC(=O)c3ccc(-c4c5nc(c(-c6c(F)cc(S(=O)(=O)[O-])cc6F)c6ccc([nH]6)c(-c6c(F)cc(S(=O)(=O)[O-])cc6F)c6nc(c(-c7c(F)cc(S(=O)(=O)[O-])cc7F)c7ccc4[nH]7)C=C6)C=C5)cc3)c3ccccc32)cc1
REMARK SMILES IDX 31 1 30 2 28 3 29 4 17 5 16 6 14 7 15 8 12 10 13 11 11 12
REMARK SMILES IDX 9 13 10 14 107 15 102 16 106 17 103 18 105 19 104 20 6 21
REMARK SMILES IDX 7 22 8 23 5 24 1 25 2 26 3 27 109 28 4 29 108 30 18 31 19 32
REMARK SMILES IDX 20 33 27 34 21 35 22 36 26 37 23 39 25 40 24 41 32 42 33 43
REMARK SMILES IDX 34 44 35 45 36 46 37 47 101 48 38 49 100 50 39 51 40 52
REMARK SMILES IDX 41 53 94 54 42 55 99 56 93 57 95 58 43 59 98 60 92 61 91 62
REMARK SMILES IDX 44 64 78 65 57 66 77 67 58 68 61 69 76 70 96 71 59 72 60 73
REMARK SMILES IDX 75 75 97 76 62 77 45 78 46 79 55 80 47 81 48 82 54 83 56 84
REMARK SMILES IDX 49 85 50 86 51 87 52 88 53 89 79 90 80 91 89 92 81 93 82 94
REMARK SMILES IDX 88 95 90 96 83 97 84 98 85 99 86 100 87 101 63 102 64 103
REMARK SMILES IDX 73 104 65 105 66 106 72 107 74 108 67 109 68 110 69 111
REMARK SMILES IDX 70 112 71 113
REMARK H PARENT 16 9 21 38 95 63 61 74
REMARK Flexibility Score: inf
ROOT
ATOM      1  C   UNL     1     -11.984   4.174  -3.208  1.00  0.00     0.274 C 
ENDROOT
BRANCH   1   2
ATOM      2  O   UNL     1     -11.137   3.985  -2.066  1.00  0.00    -0.461 OA
BRANCH   2   3
ATOM      3  C   UNL     1     -11.716   3.337  -1.017  1.00  0.00     0.329 C 
ATOM      4  O   UNL     1     -12.915   3.077  -0.964  1.00  0.00    -0.250 OA
BRANCH   3   5
ATOM      5  C   UNL     1     -10.678   2.879   0.033  1.00  0.00     0.197 C 
BRANCH   5   6
ATOM      6  N   UNL     1      -9.350   3.539  -0.144  1.00  0.00    -0.335 N 
ATOM      7  C   UNL     1      -8.059   3.008  -0.161  1.00  0.00     0.293 C 
ATOM      8  O   UNL     1      -7.097   3.736  -0.397  1.00  0.00    -0.265 OA
ATOM      9  H   UNL     1      -9.393   4.514  -0.271  1.00  0.00     0.164 HD
BRANCH   7  10
ATOM     10  C   UNL     1      -7.818   1.538   0.203  1.00  0.00     0.252 C 
ATOM     11  O   UNL     1      -8.768   0.969   0.748  1.00  0.00    -0.283 OA
BRANCH  10  12
ATOM     12  C   UNL     1      -6.541   0.789   0.109  1.00  0.00     0.054 A 
ATOM     13  N   UNL     1      -4.527  -0.084   0.595  1.00  0.00    -0.240 N 
ATOM     14  C   UNL     1      -5.176   1.106   0.246  1.00  0.00     0.117 A 
ATOM     15  C   UNL     1      -5.488  -1.099   0.674  1.00  0.00     0.065 A 
ATOM     16  C   UNL     1      -6.557  -0.627  -0.064  1.00  0.00     0.012 A 
ATOM     17  C   UNL     1      -5.391  -2.453   1.057  1.00  0.00     0.028 A 
ATOM     18  C   UNL     1      -7.423  -1.560  -0.654  1.00  0.00     0.011 A 
ATOM     19  C   UNL     1      -6.216  -3.365   0.407  1.00  0.00     0.002 A 
ATOM     20  C   UNL     1      -7.181  -2.927  -0.487  1.00  0.00     0.001 A 
BRANCH  13  21
ATOM     21  S   UNL     1      -2.996  -0.738   0.161  1.00  0.00     0.268 S 
ATOM     22  O   UNL     1      -3.248  -1.316  -1.151  1.00  0.00    -0.201 OA
ATOM     23  O   UNL     1      -2.715  -1.587   1.316  1.00  0.00    -0.201 OA
BRANCH  21  24
ATOM     24  C   UNL     1      -1.429   0.014  -0.033  1.00  0.00     0.088 A 
ATOM     25  C   UNL     1       2.822   0.746  -0.056  1.00  0.00     0.044 C 
ATOM     26  C   UNL     1       1.337   0.543  -0.118  1.00  0.00    -0.051 A 
ATOM     27  C   UNL     1       0.891  -0.752  -0.324  1.00  0.00     0.005 A 
ATOM     28  C   UNL     1       0.387   1.574   0.083  1.00  0.00     0.005 A 
ATOM     29  C   UNL     1      -0.466  -0.999  -0.295  1.00  0.00     0.022 A 
ATOM     30  C   UNL     1      -1.009   1.318   0.133  1.00  0.00     0.022 A 
ENDBRANCH  21  24
ENDBRANCH  13  21
ENDBRANCH  10  12
ENDBRANCH   7  10
ENDBRANCH   5   6
BRANCH   5  31
ATOM     31  C   UNL     1     -11.284   3.020   1.455  1.00  0.00     0.074 C 
BRANCH  31  32
ATOM     32  C   UNL     1     -12.078   4.289   1.619  1.00  0.00    -0.020 A 
ATOM     33  C   UNL     1     -13.451   4.414   1.540  1.00  0.00     0.087 A 
ATOM     34  C   UNL     1     -11.556   5.611   1.644  1.00  0.00     0.003 A 
ATOM     35  N   UNL     1     -13.769   5.737   1.407  1.00  0.00    -0.361 N 
ATOM     36  C   UNL     1     -12.616   6.483   1.395  1.00  0.00     0.046 A 
ATOM     37  C   UNL     1     -10.252   6.126   1.733  1.00  0.00     0.010 A 
ATOM     38  H   UNL     1     -14.682   6.098   1.332  1.00  0.00     0.166 HD
ATOM     39  C   UNL     1     -12.426   7.844   1.150  1.00  0.00     0.026 A 
ATOM     40  C   UNL     1     -10.044   7.484   1.497  1.00  0.00     0.001 A 
ATOM     41  C   UNL     1     -11.114   8.323   1.188  1.00  0.00     0.002 A 
ENDBRANCH  31  32
ENDBRANCH   5  31
ENDBRANCH   3   5
ENDBRANCH   2   3
ENDBRANCH   1   2
BRANCH   1  42
ATOM     42  C   UNL     1     -11.230   3.778  -4.487  1.00  0.00     0.275 C 
BRANCH  42  43
ATOM     43  O   UNL     1     -10.941   2.371  -4.695  1.00  0.00    -0.458 OA
BRANCH  43  44
ATOM     44  C   UNL     1     -10.507   1.615  -3.645  1.00  0.00     0.338 C 
ATOM     45  O   UNL     1      -9.442   1.777  -3.071  1.00  0.00    -0.246 OA
BRANCH  44  46
ATOM     46  C   UNL     1     -11.658   0.821  -3.116  1.00  0.00     0.060 A 
ATOM     47  C   UNL     1     -11.575   0.164  -1.875  1.00  0.00     0.016 A 
ATOM     48  C   UNL     1     -12.902   1.070  -3.681  1.00  0.00     0.016 A 
ATOM     49  C   UNL     1     -12.737  -0.074  -1.117  1.00  0.00     0.010 A 
ATOM     50  C   UNL     1     -14.010   0.985  -2.880  1.00  0.00     0.010 A 
ATOM     51  C   UNL     1     -13.955   0.409  -1.594  1.00  0.00    -0.014 A 
BRANCH  51  52
ATOM     52  C   UNL     1     -15.296   0.271  -1.009  1.00  0.00     0.031 A 
ATOM     53  C   UNL     1     -15.818   1.072   0.131  1.00  0.00     0.074 A 
ATOM     54  C   UNL     1     -16.097  -0.477  -1.796  1.00  0.00     0.049 A 
ATOM     55  N   UNL     1     -16.939   1.730   0.133  1.00  0.00    -0.248 NA
ATOM     56  C   UNL     1     -15.098   1.147   1.409  1.00  0.00     0.031 C 
ATOM     57  C   UNL     1     -17.535  -0.606  -1.841  1.00  0.00     0.029 A 
ATOM     58  N   UNL     1     -15.649  -1.427  -2.715  1.00  0.00    -0.354 N 
ATOM     59  C   UNL     1     -17.171   2.191   1.427  1.00  0.00     0.074 A 
ATOM     60  C   UNL     1     -15.947   1.863   2.159  1.00  0.00     0.031 C 
ATOM     61  C   UNL     1     -17.841  -1.745  -2.494  1.00  0.00     0.029 A 
ATOM     62  C   UNL     1     -16.589  -2.443  -2.779  1.00  0.00     0.049 A 
ATOM     63  H   UNL     1     -14.810  -1.384  -3.228  1.00  0.00     0.167 HD
ATOM     64  C   UNL     1     -18.371   1.966   2.045  1.00  0.00     0.037 A 
ATOM     65  C   UNL     1     -16.213  -3.656  -2.271  1.00  0.00     0.037 A 
ATOM     66  C   UNL     1     -19.014   0.774   1.556  1.00  0.00     0.049 A 
ATOM     67  C   UNL     1     -16.984  -3.932  -1.013  1.00  0.00     0.074 A 
ATOM     68  C   UNL     1     -19.905   0.526   0.533  1.00  0.00     0.029 A 
ATOM     69  N   UNL     1     -18.598  -0.447   2.053  1.00  0.00    -0.354 N 
ATOM     70  N   UNL     1     -17.328  -3.019  -0.143  1.00  0.00    -0.248 NA
ATOM     71  C   UNL     1     -17.553  -5.244  -0.733  1.00  0.00     0.031 C 
ATOM     72  C   UNL     1     -19.978  -0.879   0.373  1.00  0.00     0.029 A 
ATOM     73  C   UNL     1     -19.146  -1.468   1.314  1.00  0.00     0.049 A 
ATOM     74  H   UNL     1     -17.997  -0.567   2.824  1.00  0.00     0.167 HD
ATOM     75  C   UNL     1     -18.224  -3.576   0.731  1.00  0.00     0.074 A 
ATOM     76  C   UNL     1     -18.306  -4.973   0.344  1.00  0.00     0.031 C 
ATOM     77  C   UNL     1     -18.913  -2.856   1.661  1.00  0.00     0.037 A 
BRANCH  64  78
ATOM     78  C   UNL     1     -19.090   3.070   2.790  1.00  0.00     0.058 A 
ATOM     79  C   UNL     1     -20.498   3.043   2.931  1.00  0.00     0.135 A 
ATOM     80  C   UNL     1     -18.456   4.209   3.327  1.00  0.00     0.135 A 
ATOM     81  F   UNL     1     -21.224   2.000   2.506  1.00  0.00    -0.206 F 
ATOM     82  C   UNL     1     -21.229   4.098   3.478  1.00  0.00     0.059 A 
ATOM     83  C   UNL     1     -19.171   5.276   3.896  1.00  0.00     0.059 A 
ATOM     84  F   UNL     1     -17.119   4.328   3.298  1.00  0.00    -0.206 F 
ATOM     85  C   UNL     1     -20.561   5.225   3.935  1.00  0.00     0.060 A 
BRANCH  85  86
ATOM     86  S   UNL     1     -21.545   6.619   4.531  1.00  0.00     0.124 S 
ATOM     87  O   UNL     1     -22.226   7.049   3.313  1.00  0.00    -0.237 OA
ATOM     88  O   UNL     1     -22.392   5.997   5.544  1.00  0.00    -0.237 OA
ATOM     89  O   UNL     1     -20.543   7.549   5.043  1.00  0.00    -0.744 OA
ENDBRANCH  85  86
ENDBRANCH  64  78
BRANCH  65  90
ATOM     90  C   UNL     1     -14.761  -3.960  -2.512  1.00  0.00     0.058 A 
ATOM     91  C   UNL     1     -14.341  -4.047  -3.859  1.00  0.00     0.135 A 
ATOM     92  C   UNL     1     -13.758  -3.766  -1.548  1.00  0.00     0.135 A 
ATOM     93  F   UNL     1     -15.250  -4.230  -4.832  1.00  0.00    -0.206 F 
ATOM     94  C   UNL     1     -13.026  -3.808  -4.247  1.00  0.00     0.059 A 
ATOM     95  C   UNL     1     -12.423  -3.544  -1.915  1.00  0.00     0.059 A 
ATOM     96  F   UNL     1     -14.073  -3.679  -0.248  1.00  0.00    -0.206 F 
ATOM     97  C   UNL     1     -12.082  -3.513  -3.270  1.00  0.00     0.060 A 
BRANCH  97  98
ATOM     98  S   UNL     1     -10.458  -2.943  -3.826  1.00  0.00     0.124 S 
ATOM     99  O   UNL     1      -9.911  -4.144  -4.448  1.00  0.00    -0.237 OA
ATOM    100  O   UNL     1     -10.807  -1.858  -4.740  1.00  0.00    -0.237 OA
ATOM    101  O   UNL     1      -9.813  -2.526  -2.588  1.00  0.00    -0.744 OA
ENDBRANCH  97  98
ENDBRANCH  65  90
BRANCH  77 102
ATOM    102  C   UNL     1     -19.575  -3.448   2.878  1.00  0.00     0.058 A 
ATOM    103  C   UNL     1     -19.194  -4.685   3.426  1.00  0.00     0.135 A 
ATOM    104  C   UNL     1     -20.526  -2.717   3.632  1.00  0.00     0.135 A 
ATOM    105  F   UNL     1     -18.182  -5.398   2.911  1.00  0.00    -0.206 F 
ATOM    106  C   UNL     1     -19.803  -5.224   4.552  1.00  0.00     0.059 A 
ATOM    107  C   UNL     1     -21.104  -3.210   4.799  1.00  0.00     0.059 A 
ATOM    108  F   UNL     1     -20.910  -1.483   3.276  1.00  0.00    -0.206 F 
ATOM    109  C   UNL     1     -20.769  -4.486   5.225  1.00  0.00     0.060 A 
BRANCH 109 110
ATOM    110  S   UNL     1     -21.546  -5.195   6.683  1.00  0.00     0.124 S 
ATOM    111  O   UNL     1     -22.595  -6.010   6.078  1.00  0.00    -0.237 OA
ATOM    112  O   UNL     1     -20.449  -5.936   7.300  1.00  0.00    -0.237 OA
ATOM    113  O   UNL     1     -21.999  -4.025   7.426  1.00  0.00    -0.744 OA
ENDBRANCH 109 110
ENDBRANCH  77 102
ENDBRANCH  51  52
ENDBRANCH  44  46
ENDBRANCH  43  44
ENDBRANCH  42  43
ENDBRANCH   1  42
TORSDOF 21
