REMARK SMILES CC[C@H](C(=O)OCCOC(=O)c1ccc(-c2c3nc(c(-c4c(F)cc(S(=O)(=O)[O-])cc4F)c4ccc([nH]4)c(-c4c(F)cc(S(=O)(=O)[O-])cc4F)c4nc(c(-c5c(F)cc(S(=O)(=O)[O-])cc5F)c5ccc2[nH]5)C=C4)C=C3)cc1)N(C)c1cc(C)ccc1[N+](=O)[O-]
REMARK SMILES IDX 7 1 6 2 4 3 5 4 3 5 2 6 1 7 78 8 79 9 80 10 81 11 86 12
REMARK SMILES IDX 82 13 85 14 83 15 84 16 87 17 88 18 89 19 8 20 9 21 10 22
REMARK SMILES IDX 11 23 12 24 13 25 77 26 14 27 76 28 15 29 16 30 17 31 70 32
REMARK SMILES IDX 18 33 75 34 69 35 71 36 19 37 74 38 68 39 67 40 20 42 54 43
REMARK SMILES IDX 33 44 53 45 34 46 37 47 52 48 72 49 35 50 36 51 51 53 73 54
REMARK SMILES IDX 38 55 21 56 22 57 31 58 23 59 24 60 30 61 32 62 25 63 26 64
REMARK SMILES IDX 27 65 28 66 29 67 55 68 56 69 65 70 57 71 58 72 64 73 66 74
REMARK SMILES IDX 59 75 60 76 61 77 62 78 63 79 39 80 40 81 49 82 41 83 42 84
REMARK SMILES IDX 48 85 50 86 43 87 44 88 45 89 46 90 47 91
REMARK H PARENT 71 41 37 52
REMARK Flexibility Score: inf
ROOT
ATOM      1  C   UNL     1      -2.299  -0.263  -0.598  1.00  0.00     0.274 C 
ENDROOT
BRANCH   1   2
ATOM      2  O   UNL     1      -1.400  -1.383  -0.467  1.00  0.00    -0.461 OA
BRANCH   2   3
ATOM      3  C   UNL     1      -0.152  -1.220  -0.993  1.00  0.00     0.328 C 
ATOM      4  O   UNL     1       0.250  -0.175  -1.494  1.00  0.00    -0.250 OA
BRANCH   3   5
ATOM      5  C   UNL     1       0.663  -2.524  -1.033  1.00  0.00     0.192 C 
BRANCH   5   6
ATOM      6  C   UNL     1       0.555  -3.372   0.247  1.00  0.00     0.034 C 
ATOM      7  C   UNL     1       1.599  -2.963   1.284  1.00  0.00     0.007 C 
ENDBRANCH   5   6
BRANCH   5   8
ATOM      8  N   UNL     1       0.390  -3.338  -2.253  1.00  0.00    -0.356 N 
ATOM      9  C   UNL     1       1.460  -4.169  -2.790  1.00  0.00     0.145 C 
BRANCH   8  10
ATOM     10  C   UNL     1      -0.888  -3.530  -2.751  1.00  0.00     0.116 A 
ATOM     11  C   UNL     1      -1.564  -4.730  -2.464  1.00  0.00     0.036 A 
ATOM     12  C   UNL     1      -1.583  -2.597  -3.547  1.00  0.00     0.292 A 
ATOM     13  C   UNL     1      -2.881  -4.974  -2.899  1.00  0.00    -0.049 A 
ATOM     14  C   UNL     1      -2.918  -2.798  -3.939  1.00  0.00     0.088 A 
ATOM     15  C   UNL     1      -3.513  -6.317  -2.677  1.00  0.00     0.044 C 
ATOM     16  C   UNL     1      -3.563  -3.986  -3.612  1.00  0.00     0.010 A 
BRANCH  12  17
ATOM     17  N   UNL     1      -0.919  -1.418  -4.100  1.00  0.00     0.064 N 
ATOM     18  O   UNL     1      -1.577  -0.365  -4.112  1.00  0.00    -0.258 OA
ATOM     19  O   UNL     1       0.199  -1.566  -4.612  1.00  0.00    -0.258 OA
ENDBRANCH  12  17
ENDBRANCH   8  10
ENDBRANCH   5   8
ENDBRANCH   3   5
ENDBRANCH   2   3
ENDBRANCH   1   2
BRANCH   1  20
ATOM     20  C   UNL     1      -2.298   0.654   0.626  1.00  0.00     0.275 C 
BRANCH  20  21
ATOM     21  O   UNL     1      -1.130   1.491   0.671  1.00  0.00    -0.458 OA
BRANCH  21  22
ATOM     22  C   UNL     1      -0.062   0.948   1.292  1.00  0.00     0.338 C 
ATOM     23  O   UNL     1      -0.016  -0.141   1.854  1.00  0.00    -0.246 OA
BRANCH  22  24
ATOM     24  C   UNL     1       1.109   1.820   1.131  1.00  0.00     0.060 A 
ATOM     25  C   UNL     1       2.288   1.289   0.590  1.00  0.00     0.016 A 
ATOM     26  C   UNL     1       1.066   3.134   1.599  1.00  0.00     0.016 A 
ATOM     27  C   UNL     1       3.444   2.066   0.540  1.00  0.00     0.010 A 
ATOM     28  C   UNL     1       2.225   3.905   1.556  1.00  0.00     0.010 A 
ATOM     29  C   UNL     1       3.423   3.367   1.053  1.00  0.00    -0.014 A 
BRANCH  29  30
ATOM     30  C   UNL     1       4.662   4.160   1.203  1.00  0.00     0.031 A 
ATOM     31  C   UNL     1       5.281   4.258   2.566  1.00  0.00     0.074 A 
ATOM     32  C   UNL     1       5.167   4.846   0.164  1.00  0.00     0.049 A 
ATOM     33  N   UNL     1       6.167   5.105   3.015  1.00  0.00    -0.248 NA
ATOM     34  C   UNL     1       4.823   3.275   3.562  1.00  0.00     0.031 C 
ATOM     35  C   UNL     1       4.684   4.771  -1.215  1.00  0.00     0.029 A 
ATOM     36  N   UNL     1       6.175   5.774   0.120  1.00  0.00    -0.354 N 
ATOM     37  C   UNL     1       6.350   4.782   4.354  1.00  0.00     0.074 A 
ATOM     38  C   UNL     1       5.484   3.659   4.644  1.00  0.00     0.031 C 
ATOM     39  C   UNL     1       5.375   5.648  -1.965  1.00  0.00     0.029 A 
ATOM     40  C   UNL     1       6.303   6.380  -1.106  1.00  0.00     0.049 A 
ATOM     41  H   UNL     1       6.750   5.985   0.891  1.00  0.00     0.167 HD
ATOM     42  C   UNL     1       7.162   5.380   5.257  1.00  0.00     0.037 A 
ATOM     43  C   UNL     1       7.046   7.442  -1.474  1.00  0.00     0.037 A 
ATOM     44  C   UNL     1       8.013   6.497   4.946  1.00  0.00     0.049 A 
ATOM     45  C   UNL     1       7.894   8.135  -0.439  1.00  0.00     0.074 A 
ATOM     46  C   UNL     1       8.854   7.203   5.787  1.00  0.00     0.029 A 
ATOM     47  N   UNL     1       8.133   7.065   3.686  1.00  0.00    -0.354 N 
ATOM     48  N   UNL     1       8.028   7.859   0.837  1.00  0.00    -0.248 NA
ATOM     49  C   UNL     1       8.682   9.292  -0.888  1.00  0.00     0.031 C 
ATOM     50  C   UNL     1       9.467   8.213   5.039  1.00  0.00     0.029 A 
ATOM     51  C   UNL     1       9.036   8.112   3.725  1.00  0.00     0.049 A 
ATOM     52  H   UNL     1       7.648   6.767   2.883  1.00  0.00     0.167 HD
ATOM     53  C   UNL     1       8.940   8.783   1.334  1.00  0.00     0.074 A 
ATOM     54  C   UNL     1       9.321   9.632   0.223  1.00  0.00     0.031 C 
ATOM     55  C   UNL     1       9.422   8.917   2.593  1.00  0.00     0.037 A 
BRANCH  42  56
ATOM     56  C   UNL     1       7.138   4.857   6.664  1.00  0.00     0.058 A 
ATOM     57  C   UNL     1       7.739   3.637   7.006  1.00  0.00     0.135 A 
ATOM     58  C   UNL     1       6.521   5.594   7.688  1.00  0.00     0.135 A 
ATOM     59  F   UNL     1       8.324   2.883   6.061  1.00  0.00    -0.206 F 
ATOM     60  C   UNL     1       7.710   3.153   8.310  1.00  0.00     0.059 A 
ATOM     61  C   UNL     1       6.498   5.140   9.003  1.00  0.00     0.059 A 
ATOM     62  F   UNL     1       5.925   6.766   7.413  1.00  0.00    -0.206 F 
ATOM     63  C   UNL     1       7.083   3.910   9.302  1.00  0.00     0.060 A 
BRANCH  63  64
ATOM     64  S   UNL     1       7.050   3.271  10.990  1.00  0.00     0.124 S 
ATOM     65  O   UNL     1       6.018   2.243  10.890  1.00  0.00    -0.237 OA
ATOM     66  O   UNL     1       8.414   2.783  11.169  1.00  0.00    -0.237 OA
ATOM     67  O   UNL     1       6.696   4.440  11.789  1.00  0.00    -0.744 OA
ENDBRANCH  63  64
ENDBRANCH  42  56
BRANCH  43  68
ATOM     68  C   UNL     1       6.997   7.937  -2.874  1.00  0.00     0.058 A 
ATOM     69  C   UNL     1       8.091   7.767  -3.734  1.00  0.00     0.135 A 
ATOM     70  C   UNL     1       5.861   8.588  -3.381  1.00  0.00     0.135 A 
ATOM     71  F   UNL     1       9.203   7.160  -3.291  1.00  0.00    -0.206 F 
ATOM     72  C   UNL     1       8.070   8.236  -5.043  1.00  0.00     0.059 A 
ATOM     73  C   UNL     1       5.807   9.047  -4.694  1.00  0.00     0.059 A 
ATOM     74  F   UNL     1       4.784   8.767  -2.601  1.00  0.00    -0.206 F 
ATOM     75  C   UNL     1       6.922   8.877  -5.514  1.00  0.00     0.060 A 
BRANCH  75  76
ATOM     76  S   UNL     1       6.889   9.454  -7.226  1.00  0.00     0.124 S 
ATOM     77  O   UNL     1       7.704  10.660  -7.143  1.00  0.00    -0.237 OA
ATOM     78  O   UNL     1       7.484   8.330  -7.943  1.00  0.00    -0.237 OA
ATOM     79  O   UNL     1       5.468   9.667  -7.479  1.00  0.00    -0.744 OA
ENDBRANCH  75  76
ENDBRANCH  43  68
BRANCH  55  80
ATOM     80  C   UNL     1      10.466   9.969   2.830  1.00  0.00     0.058 A 
ATOM     81  C   UNL     1      10.130  11.323   2.971  1.00  0.00     0.135 A 
ATOM     82  C   UNL     1      11.807   9.597   3.012  1.00  0.00     0.135 A 
ATOM     83  F   UNL     1       8.861  11.726   2.801  1.00  0.00    -0.206 F 
ATOM     84  C   UNL     1      11.093  12.277   3.284  1.00  0.00     0.059 A 
ATOM     85  C   UNL     1      12.783  10.531   3.343  1.00  0.00     0.059 A 
ATOM     86  F   UNL     1      12.174   8.311   2.894  1.00  0.00    -0.206 F 
ATOM     87  C   UNL     1      12.416  11.870   3.475  1.00  0.00     0.060 A 
BRANCH  87  88
ATOM     88  S   UNL     1      13.645  13.103   3.953  1.00  0.00     0.124 S 
ATOM     89  O   UNL     1      13.895  13.776   2.683  1.00  0.00    -0.237 OA
ATOM     90  O   UNL     1      12.930  13.887   4.956  1.00  0.00    -0.237 OA
ATOM     91  O   UNL     1      14.749  12.299   4.468  1.00  0.00    -0.744 OA
ENDBRANCH  87  88
ENDBRANCH  55  80
ENDBRANCH  29  30
ENDBRANCH  22  24
ENDBRANCH  21  22
ENDBRANCH  20  21
ENDBRANCH   1  20
TORSDOF 18
