REMARK SMILES O=C(Nc1ccccc1C(=O)OCCOC(=O)c1ccc(-c2c3nc(c(-c4c(F)cc(S(=O)(=O)[O-])cc4F)c4ccc([nH]4)c(-c4c(F)cc(S(=O)(=O)[O-])cc4F)c4nc(c(-c5c(F)cc(S(=O)(=O)[O-])cc5F)c5ccc2[nH]5)C=C4)C=C3)cc1)c1ccc(N2C(=O)[C@H]3CC=CC[C@H]3C2=O)cc1
REMARK SMILES IDX 13 1 12 2 10 3 11 4 9 5 4 6 5 7 6 8 8 9 7 10 3 11 1 12 2 13
REMARK SMILES IDX 84 15 85 16 100 17 86 18 99 19 87 20 88 21 89 22 97 23 90 24
REMARK SMILES IDX 91 25 96 26 98 27 92 28 95 29 93 30 94 31 14 32 15 33 16 34
REMARK SMILES IDX 17 35 18 36 19 37 83 38 20 39 82 40 21 41 22 42 23 43 76 44
REMARK SMILES IDX 24 45 81 46 75 47 77 48 25 49 80 50 74 51 73 52 26 54 60 55
REMARK SMILES IDX 39 56 59 57 40 58 43 59 58 60 78 61 41 62 42 63 57 65 79 66
REMARK SMILES IDX 44 67 27 68 28 69 37 70 29 71 30 72 36 73 38 74 31 75 32 76
REMARK SMILES IDX 33 77 34 78 35 79 61 80 62 81 71 82 63 83 64 84 70 85 72 86
REMARK SMILES IDX 65 87 66 88 67 89 68 90 69 91 45 92 46 93 55 94 47 95 48 96
REMARK SMILES IDX 54 97 56 98 49 99 50 100 51 101 52 102 53 103
REMARK H PARENT 3 14 77 53 43 64
REMARK Flexibility Score: inf
ROOT
ATOM      1  C   UNL     1       2.325  -1.369   2.664  1.00  0.00     0.275 C 
ENDROOT
BRANCH   1   2
ATOM      2  O   UNL     1       2.973  -1.589   1.389  1.00  0.00    -0.458 OA
BRANCH   2   3
ATOM      3  C   UNL     1       4.132  -0.907   1.214  1.00  0.00     0.340 C 
ATOM      4  O   UNL     1       4.693  -0.233   2.058  1.00  0.00    -0.246 OA
BRANCH   3   5
ATOM      5  C   UNL     1       4.692  -1.036  -0.148  1.00  0.00     0.083 A 
ATOM      6  C   UNL     1       4.009  -0.681  -1.319  1.00  0.00     0.056 A 
ATOM      7  C   UNL     1       4.638  -0.911  -2.557  1.00  0.00     0.027 A 
ATOM      8  C   UNL     1       5.963  -1.351  -2.631  1.00  0.00     0.002 A 
ATOM      9  C   UNL     1       6.019  -1.499  -0.241  1.00  0.00     0.018 A 
ATOM     10  C   UNL     1       6.663  -1.628  -1.468  1.00  0.00     0.001 A 
BRANCH   6  11
ATOM     11  N   UNL     1       2.737  -0.079  -1.400  1.00  0.00    -0.321 N 
ATOM     12  O   UNL     1       0.890   1.010  -0.698  1.00  0.00    -0.269 OA
ATOM     13  C   UNL     1       2.103   0.836  -0.588  1.00  0.00     0.255 C 
ATOM     14  H   UNL     1       2.205  -0.363  -2.178  1.00  0.00     0.170 HD
BRANCH  13  15
ATOM     15  C   UNL     1       2.861   1.680   0.369  1.00  0.00     0.040 A 
ATOM     16  C   UNL     1       4.112   2.233   0.065  1.00  0.00     0.016 A 
ATOM     17  C   UNL     1       2.309   1.871   1.638  1.00  0.00     0.016 A 
ATOM     18  C   UNL     1       4.861   2.864   1.068  1.00  0.00     0.027 A 
ATOM     19  C   UNL     1       3.084   2.438   2.649  1.00  0.00     0.027 A 
ATOM     20  C   UNL     1       4.379   2.905   2.382  1.00  0.00     0.052 A 
BRANCH  20  21
ATOM     21  N   UNL     1       5.167   3.395   3.446  1.00  0.00    -0.250 N 
ATOM     22  C   UNL     1       5.899   4.551   3.390  1.00  0.00     0.238 C 
ATOM     23  C   UNL     1       5.238   2.780   4.672  1.00  0.00     0.238 C 
ATOM     24  O   UNL     1       6.092   5.271   2.418  1.00  0.00    -0.274 OA
ATOM     25  C   UNL     1       6.353   4.902   4.790  1.00  0.00     0.096 C 
ATOM     26  C   UNL     1       6.025   3.653   5.618  1.00  0.00     0.096 C 
ATOM     27  O   UNL     1       4.776   1.694   5.000  1.00  0.00    -0.274 OA
ATOM     28  C   UNL     1       5.631   6.181   5.242  1.00  0.00     0.041 C 
ATOM     29  C   UNL     1       5.160   3.888   6.861  1.00  0.00     0.041 C 
ATOM     30  C   UNL     1       4.258   5.915   5.796  1.00  0.00    -0.030 C 
ATOM     31  C   UNL     1       4.039   4.843   6.569  1.00  0.00    -0.030 C 
ENDBRANCH  20  21
ENDBRANCH  13  15
ENDBRANCH   6  11
ENDBRANCH   3   5
ENDBRANCH   2   3
ENDBRANCH   1   2
BRANCH   1  32
ATOM     32  C   UNL     1       2.627  -2.431   3.722  1.00  0.00     0.275 C 
BRANCH  32  33
ATOM     33  O   UNL     1       3.962  -2.306   4.241  1.00  0.00    -0.458 OA
BRANCH  33  34
ATOM     34  C   UNL     1       4.881  -3.014   3.553  1.00  0.00     0.338 C 
ATOM     35  O   UNL     1       4.680  -3.767   2.612  1.00  0.00    -0.246 OA
BRANCH  34  36
ATOM     36  C   UNL     1       6.240  -2.717   4.016  1.00  0.00     0.060 A 
ATOM     37  C   UNL     1       6.997  -1.836   3.253  1.00  0.00     0.016 A 
ATOM     38  C   UNL     1       6.849  -3.505   4.985  1.00  0.00     0.016 A 
ATOM     39  C   UNL     1       8.375  -1.860   3.308  1.00  0.00     0.010 A 
ATOM     40  C   UNL     1       8.236  -3.427   5.142  1.00  0.00     0.010 A 
ATOM     41  C   UNL     1       9.012  -2.648   4.262  1.00  0.00    -0.014 A 
BRANCH  41  42
ATOM     42  C   UNL     1      10.491  -2.699   4.283  1.00  0.00     0.031 A 
ATOM     43  C   UNL     1      11.182  -4.021   4.106  1.00  0.00     0.074 A 
ATOM     44  C   UNL     1      11.199  -1.562   4.427  1.00  0.00     0.049 A 
ATOM     45  N   UNL     1      12.431  -4.333   4.321  1.00  0.00    -0.248 NA
ATOM     46  C   UNL     1      10.351  -5.148   3.645  1.00  0.00     0.031 C 
ATOM     47  C   UNL     1      10.633  -0.211   4.515  1.00  0.00     0.029 A 
ATOM     48  N   UNL     1      12.550  -1.357   4.527  1.00  0.00    -0.354 N 
ATOM     49  C   UNL     1      12.521  -5.702   4.095  1.00  0.00     0.074 A 
ATOM     50  C   UNL     1      11.201  -6.161   3.725  1.00  0.00     0.031 C 
ATOM     51  C   UNL     1      11.627   0.679   4.634  1.00  0.00     0.029 A 
ATOM     52  C   UNL     1      12.886  -0.042   4.749  1.00  0.00     0.049 A 
ATOM     53  H   UNL     1      13.215  -2.079   4.448  1.00  0.00     0.167 HD
ATOM     54  C   UNL     1      13.614  -6.493   4.201  1.00  0.00     0.037 A 
ATOM     55  C   UNL     1      14.065   0.512   5.082  1.00  0.00     0.037 A 
ATOM     56  C   UNL     1      14.923  -5.989   4.527  1.00  0.00     0.049 A 
ATOM     57  C   UNL     1      15.251  -0.392   5.249  1.00  0.00     0.074 A 
ATOM     58  C   UNL     1      16.110  -6.687   4.652  1.00  0.00     0.029 A 
ATOM     59  N   UNL     1      15.217  -4.652   4.769  1.00  0.00    -0.354 N 
ATOM     60  N   UNL     1      15.320  -1.694   5.098  1.00  0.00    -0.248 NA
ATOM     61  C   UNL     1      16.513   0.239   5.648  1.00  0.00     0.031 C 
ATOM     62  C   UNL     1      17.110  -5.782   5.021  1.00  0.00     0.029 A 
ATOM     63  C   UNL     1      16.562  -4.508   5.063  1.00  0.00     0.049 A 
ATOM     64  H   UNL     1      14.565  -3.916   4.737  1.00  0.00     0.167 HD
ATOM     65  C   UNL     1      16.639  -2.037   5.360  1.00  0.00     0.074 A 
ATOM     66  C   UNL     1      17.334  -0.801   5.664  1.00  0.00     0.031 C 
ATOM     67  C   UNL     1      17.225  -3.260   5.352  1.00  0.00     0.037 A 
BRANCH  54  68
ATOM     68  C   UNL     1      13.433  -7.976   4.017  1.00  0.00     0.058 A 
ATOM     69  C   UNL     1      13.139  -8.550   2.770  1.00  0.00     0.135 A 
ATOM     70  C   UNL     1      13.583  -8.843   5.113  1.00  0.00     0.135 A 
ATOM     71  F   UNL     1      12.963  -7.771   1.691  1.00  0.00    -0.206 F 
ATOM     72  C   UNL     1      12.977  -9.925   2.621  1.00  0.00     0.059 A 
ATOM     73  C   UNL     1      13.456 -10.223   4.982  1.00  0.00     0.059 A 
ATOM     74  F   UNL     1      13.857  -8.351   6.332  1.00  0.00    -0.206 F 
ATOM     75  C   UNL     1      13.140 -10.754   3.733  1.00  0.00     0.060 A 
BRANCH  75  76
ATOM     76  S   UNL     1      12.940 -12.535   3.520  1.00  0.00     0.124 S 
ATOM     77  O   UNL     1      11.498 -12.645   3.316  1.00  0.00    -0.237 OA
ATOM     78  O   UNL     1      13.767 -12.803   2.348  1.00  0.00    -0.237 OA
ATOM     79  O   UNL     1      13.439 -13.088   4.775  1.00  0.00    -0.744 OA
ENDBRANCH  75  76
ENDBRANCH  54  68
BRANCH  55  80
ATOM     80  C   UNL     1      14.154   1.976   5.330  1.00  0.00     0.058 A 
ATOM     81  C   UNL     1      14.883   2.811   4.473  1.00  0.00     0.135 A 
ATOM     82  C   UNL     1      13.486   2.575   6.412  1.00  0.00     0.135 A 
ATOM     83  F   UNL     1      15.543   2.288   3.429  1.00  0.00    -0.206 F 
ATOM     84  C   UNL     1      14.957   4.184   4.683  1.00  0.00     0.059 A 
ATOM     85  C   UNL     1      13.517   3.949   6.623  1.00  0.00     0.059 A 
ATOM     86  F   UNL     1      12.756   1.825   7.253  1.00  0.00    -0.206 F 
ATOM     87  C   UNL     1      14.265   4.744   5.758  1.00  0.00     0.060 A 
BRANCH  87  88
ATOM     88  S   UNL     1      14.322   6.534   5.990  1.00  0.00     0.124 S 
ATOM     89  O   UNL     1      15.688   6.724   6.464  1.00  0.00    -0.237 OA
ATOM     90  O   UNL     1      14.037   7.024   4.646  1.00  0.00    -0.237 OA
ATOM     91  O   UNL     1      13.271   6.778   6.974  1.00  0.00    -0.744 OA
ENDBRANCH  87  88
ENDBRANCH  55  80
BRANCH  67  92
ATOM     92  C   UNL     1      18.700  -3.309   5.632  1.00  0.00     0.058 A 
ATOM     93  C   UNL     1      19.218  -3.085   6.917  1.00  0.00     0.135 A 
ATOM     94  C   UNL     1      19.601  -3.628   4.604  1.00  0.00     0.135 A 
ATOM     95  F   UNL     1      18.398  -2.766   7.931  1.00  0.00    -0.206 F 
ATOM     96  C   UNL     1      20.583  -3.150   7.167  1.00  0.00     0.059 A 
ATOM     97  C   UNL     1      20.967  -3.732   4.839  1.00  0.00     0.059 A 
ATOM     98  F   UNL     1      19.154  -3.859   3.359  1.00  0.00    -0.206 F 
ATOM     99  C   UNL     1      21.449  -3.478   6.122  1.00  0.00     0.060 A 
BRANCH  99 100
ATOM    100  S   UNL     1      23.216  -3.593   6.469  1.00  0.00     0.124 S 
ATOM    101  O   UNL     1      23.573  -2.189   6.638  1.00  0.00    -0.237 OA
ATOM    102  O   UNL     1      23.242  -4.406   7.681  1.00  0.00    -0.237 OA
ATOM    103  O   UNL     1      23.755  -4.239   5.276  1.00  0.00    -0.744 OA
ENDBRANCH  99 100
ENDBRANCH  67  92
ENDBRANCH  41  42
ENDBRANCH  34  36
ENDBRANCH  33  34
ENDBRANCH  32  33
ENDBRANCH   1  32
TORSDOF 17
