REMARK SMILES O=C(OCCOC(=O)[C@@H](Cc1ccc(O)cc1)Nc1c2ccccc2nc2ccccc12)c1ccc(-c2c3nc(c(-c4c(F)cc(S(=O)(=O)[O-])cc4F)c4ccc([nH]4)c(-c4c(F)cc(S(=O)(=O)[O-])cc4F)c4nc(c(-c5c(F)cc(S(=O)(=O)[O-])cc5F)c5ccc2[nH]5)C=C4)C=C3)cc1
REMARK SMILES IDX 4 1 3 2 2 3 1 4 33 5 34 6 98 7 35 8 97 9 36 10 37 11 38 12
REMARK SMILES IDX 91 13 39 14 96 15 90 16 92 17 40 18 95 19 89 20 88 21 41 23
REMARK SMILES IDX 75 24 54 25 74 26 55 27 58 28 73 29 93 30 56 31 57 32 72 34
REMARK SMILES IDX 94 35 59 36 42 37 43 38 52 39 44 40 45 41 51 42 53 43 46 44
REMARK SMILES IDX 47 45 48 46 49 47 50 48 76 49 77 50 86 51 78 52 79 53 85 54
REMARK SMILES IDX 87 55 80 56 81 57 82 58 83 59 84 60 60 61 61 62 70 63 62 64
REMARK SMILES IDX 63 65 69 66 71 67 64 68 65 69 66 70 67 71 68 72 5 73 6 74
REMARK SMILES IDX 7 75 8 76 9 77 10 78 11 79 12 80 17 81 13 82 16 83 14 84
REMARK SMILES IDX 15 85 18 87 19 89 20 90 32 91 21 92 25 93 27 94 31 95 22 96
REMARK SMILES IDX 24 97 26 98 28 99 30 100 23 101 29 102
REMARK H PARENT 92 22 58 33 15 86 18 88
REMARK Flexibility Score: inf
ROOT
ATOM      1  C   UNL     1       4.427   0.712   1.517  1.00  0.00     0.275 C 
ENDROOT
BRANCH   1   2
ATOM      2  O   UNL     1       3.355   1.317   0.810  1.00  0.00    -0.458 OA
BRANCH   2   3
ATOM      3  C   UNL     1       3.038   0.985  -0.449  1.00  0.00     0.338 C 
ATOM      4  O   UNL     1       2.072   1.506  -1.002  1.00  0.00    -0.246 OA
BRANCH   3   5
ATOM      5  C   UNL     1       3.732  -0.096  -1.205  1.00  0.00     0.060 A 
ATOM      6  C   UNL     1       4.438  -1.658  -0.552  1.00  0.00     0.016 A 
ATOM      7  C   UNL     1       3.255  -0.007  -2.962  1.00  0.00     0.016 A 
ATOM      8  C   UNL     1       4.432  -3.163  -1.597  1.00  0.00     0.010 A 
ATOM      9  C   UNL     1       3.379  -1.443  -4.002  1.00  0.00     0.010 A 
ATOM     10  C   UNL     1       3.998  -3.007  -3.390  1.00  0.00    -0.014 A 
BRANCH  10  11
ATOM     11  C   UNL     1       4.546  -3.978  -4.389  1.00  0.00     0.031 A 
ATOM     12  C   UNL     1       5.486  -3.501  -5.490  1.00  0.00     0.074 A 
ATOM     13  C   UNL     1       4.507  -5.262  -4.004  1.00  0.00     0.049 A 
ATOM     14  N   UNL     1       6.257  -4.223  -6.263  1.00  0.00    -0.248 NA
ATOM     15  C   UNL     1       5.655  -2.054  -5.731  1.00  0.00     0.031 C 
ATOM     16  C   UNL     1       3.717  -5.747  -2.878  1.00  0.00     0.029 A 
ATOM     17  N   UNL     1       5.208  -6.359  -4.406  1.00  0.00    -0.354 N 
ATOM     18  C   UNL     1       6.948  -3.322  -7.074  1.00  0.00     0.074 A 
ATOM     19  C   UNL     1       6.566  -2.000  -6.686  1.00  0.00     0.031 C 
ATOM     20  C   UNL     1       4.093  -6.987  -2.563  1.00  0.00     0.029 A 
ATOM     21  C   UNL     1       4.956  -7.465  -3.628  1.00  0.00     0.049 A 
ATOM     22  H   UNL     1       5.828  -6.360  -5.170  1.00  0.00     0.167 HD
ATOM     23  C   UNL     1       7.807  -3.585  -8.081  1.00  0.00     0.037 A 
ATOM     24  C   UNL     1       5.275  -8.754  -3.833  1.00  0.00     0.037 A 
ATOM     25  C   UNL     1       8.152  -4.925  -8.447  1.00  0.00     0.049 A 
ATOM     26  C   UNL     1       6.071  -9.039  -5.068  1.00  0.00     0.074 A 
ATOM     27  C   UNL     1       8.916  -5.359  -9.510  1.00  0.00     0.029 A 
ATOM     28  N   UNL     1       7.715  -6.051  -7.763  1.00  0.00    -0.354 N 
ATOM     29  N   UNL     1       6.649  -8.183  -5.880  1.00  0.00    -0.248 NA
ATOM     30  C   UNL     1       6.210 -10.442  -5.457  1.00  0.00     0.031 C 
ATOM     31  C   UNL     1       8.856  -6.754  -9.525  1.00  0.00     0.029 A 
ATOM     32  C   UNL     1       8.134  -7.187  -8.420  1.00  0.00     0.049 A 
ATOM     33  H   UNL     1       7.186  -6.039  -6.933  1.00  0.00     0.167 HD
ATOM     34  C   UNL     1       7.196  -8.941  -6.899  1.00  0.00     0.074 A 
ATOM     35  C   UNL     1       6.929 -10.330  -6.565  1.00  0.00     0.031 C 
ATOM     36  C   UNL     1       7.837  -8.539  -8.023  1.00  0.00     0.037 A 
BRANCH  23  37
ATOM     37  C   UNL     1       8.280  -2.446  -8.944  1.00  0.00     0.058 A 
ATOM     38  C   UNL     1       9.285  -1.546  -8.560  1.00  0.00     0.135 A 
ATOM     39  C   UNL     1       7.728  -2.298 -10.228  1.00  0.00     0.135 A 
ATOM     40  F   UNL     1       9.814  -1.605  -7.327  1.00  0.00    -0.206 F 
ATOM     41  C   UNL     1       9.748  -0.560  -9.433  1.00  0.00     0.059 A 
ATOM     42  C   UNL     1       8.190  -1.339 -11.122  1.00  0.00     0.059 A 
ATOM     43  F   UNL     1       6.735  -3.107 -10.630  1.00  0.00    -0.206 F 
ATOM     44  C   UNL     1       9.208  -0.479 -10.720  1.00  0.00     0.060 A 
BRANCH  44  45
ATOM     45  S   UNL     1       9.883   0.733 -11.877  1.00  0.00     0.124 S 
ATOM     46  O   UNL     1       9.450   1.991 -11.276  1.00  0.00    -0.237 OA
ATOM     47  O   UNL     1      11.315   0.458 -11.809  1.00  0.00    -0.237 OA
ATOM     48  O   UNL     1       9.242   0.392 -13.143  1.00  0.00    -0.744 OA
ENDBRANCH  44  45
ENDBRANCH  23  37
BRANCH  24  49
ATOM     49  C   UNL     1       4.642  -9.815  -3.002  1.00  0.00     0.058 A 
ATOM     50  C   UNL     1       5.389 -10.768  -2.302  1.00  0.00     0.135 A 
ATOM     51  C   UNL     1       3.237  -9.890  -2.897  1.00  0.00     0.135 A 
ATOM     52  F   UNL     1       6.729 -10.760  -2.373  1.00  0.00    -0.206 F 
ATOM     53  C   UNL     1       4.769 -11.760  -1.542  1.00  0.00     0.059 A 
ATOM     54  C   UNL     1       2.600 -10.823  -2.094  1.00  0.00     0.059 A 
ATOM     55  F   UNL     1       2.460  -9.021  -3.565  1.00  0.00    -0.206 F 
ATOM     56  C   UNL     1       3.375 -11.774  -1.442  1.00  0.00     0.060 A 
BRANCH  56  57
ATOM     57  S   UNL     1       2.579 -13.066  -0.468  1.00  0.00     0.124 S 
ATOM     58  O   UNL     1       2.814 -14.241  -1.300  1.00  0.00    -0.237 OA
ATOM     59  O   UNL     1       3.327 -13.009   0.785  1.00  0.00    -0.237 OA
ATOM     60  O   UNL     1       1.192 -12.622  -0.380  1.00  0.00    -0.744 OA
ENDBRANCH  56  57
ENDBRANCH  24  49
BRANCH  36  61
ATOM     61  C   UNL     1       8.303  -9.619  -8.940  1.00  0.00     0.058 A 
ATOM     62  C   UNL     1       7.401 -10.342  -9.732  1.00  0.00     0.135 A 
ATOM     63  C   UNL     1       9.675  -9.878  -9.071  1.00  0.00     0.135 A 
ATOM     64  F   UNL     1       6.079 -10.128  -9.624  1.00  0.00    -0.206 F 
ATOM     65  C   UNL     1       7.847 -11.310 -10.617  1.00  0.00     0.059 A 
ATOM     66  C   UNL     1      10.144 -10.811  -9.980  1.00  0.00     0.059 A 
ATOM     67  F   UNL     1      10.567  -9.194  -8.337  1.00  0.00    -0.206 F 
ATOM     68  C   UNL     1       9.221 -11.528 -10.740  1.00  0.00     0.060 A 
BRANCH  68  69
ATOM     69  S   UNL     1       9.787 -12.749 -11.935  1.00  0.00     0.124 S 
ATOM     70  O   UNL     1       9.353 -13.993 -11.308  1.00  0.00    -0.237 OA
ATOM     71  O   UNL     1       9.065 -12.357 -13.140  1.00  0.00    -0.237 OA
ATOM     72  O   UNL     1      11.231 -12.539 -11.977  1.00  0.00    -0.744 OA
ENDBRANCH  68  69
ENDBRANCH  36  61
ENDBRANCH  10  11
ENDBRANCH   3   5
ENDBRANCH   2   3
ENDBRANCH   1   2
BRANCH   1  73
ATOM     73  C   UNL     1       3.944  -0.472   2.381  1.00  0.00     0.274 C 
BRANCH  73  74
ATOM     74  O   UNL     1       3.343  -1.586   1.659  1.00  0.00    -0.461 OA
BRANCH  74  75
ATOM     75  C   UNL     1       2.164  -1.418   0.979  1.00  0.00     0.329 C 
ATOM     76  O   UNL     1       1.293  -0.646   1.358  1.00  0.00    -0.250 OA
BRANCH  75  77
ATOM     77  C   UNL     1       2.089  -2.299  -0.364  1.00  0.00     0.194 C 
BRANCH  77  78
ATOM     78  C   UNL     1       2.985  -1.834  -1.939  1.00  0.00     0.072 C 
BRANCH  78  79
ATOM     79  C   UNL     1       4.998  -1.319  -2.500  1.00  0.00    -0.045 A 
ATOM     80  C   UNL     1       6.257  -2.293  -2.636  1.00  0.00     0.007 A 
ATOM     81  C   UNL     1       5.708   0.005  -2.614  1.00  0.00     0.007 A 
ATOM     82  C   UNL     1       7.639  -2.067  -2.737  1.00  0.00     0.046 A 
ATOM     83  C   UNL     1       7.134   0.234  -2.693  1.00  0.00     0.046 A 
ATOM     84  C   UNL     1       8.071  -0.784  -2.724  1.00  0.00     0.115 A 
BRANCH  84  85
ATOM     85  O   UNL     1       9.401  -0.507  -2.739  1.00  0.00    -0.508 OA
ATOM     86  H   UNL     1      10.025  -1.206  -2.760  1.00  0.00     0.293 HD
ENDBRANCH  84  85
ENDBRANCH  78  79
ENDBRANCH  77  78
BRANCH  77  87
ATOM     87  N   UNL     1       2.290  -3.722  -0.020  1.00  0.00    -0.371 N 
ATOM     88  H   UNL     1       3.155  -3.889   0.418  1.00  0.00     0.161 HD
BRANCH  87  89
ATOM     89  C   UNL     1       1.531  -4.883  -0.176  1.00  0.00     0.054 A 
ATOM     90  C   UNL     1       0.489  -5.087  -1.152  1.00  0.00     0.024 A 
ATOM     91  C   UNL     1       1.864  -5.981   0.703  1.00  0.00     0.024 A 
ATOM     92  C   UNL     1       0.084  -4.203  -2.194  1.00  0.00     0.012 A 
ATOM     93  C   UNL     1      -0.159  -6.345  -1.140  1.00  0.00     0.073 A 
ATOM     94  C   UNL     1       1.101  -7.159   0.607  1.00  0.00     0.073 A 
ATOM     95  C   UNL     1       2.923  -5.980   1.659  1.00  0.00     0.012 A 
ATOM     96  C   UNL     1      -0.866  -4.548  -3.164  1.00  0.00     0.001 A 
ATOM     97  C   UNL     1      -1.121  -6.662  -2.092  1.00  0.00     0.029 A 
ATOM     98  N   UNL     1       0.111  -7.313  -0.268  1.00  0.00    -0.248 NA
ATOM     99  C   UNL     1       1.376  -8.237   1.440  1.00  0.00     0.029 A 
ATOM    100  C   UNL     1       3.193  -7.075   2.480  1.00  0.00     0.001 A 
ATOM    101  C   UNL     1      -1.475  -5.785  -3.111  1.00  0.00     0.002 A 
ATOM    102  C   UNL     1       2.407  -8.207   2.377  1.00  0.00     0.002 A 
ENDBRANCH  87  89
ENDBRANCH  77  87
ENDBRANCH  75  77
ENDBRANCH  74  75
ENDBRANCH  73  74
ENDBRANCH   1  73
TORSDOF 19
