REMARK SMILES NC(=O)[C@@H]1CCCCN1c1cncc(C(=O)OCCOC(=O)c2ccc(-c3c4nc(c(-c5c(F)cc(S(=O)(=O)[O-])cc5F)c5ccc([nH]5)c(-c5c(F)cc(S(=O)(=O)[O-])cc5F)c5nc(c(-c6c(F)cc(S(=O)(=O)[O-])cc6F)c6ccc3[nH]6)C=C5)C=C4)cc2)n1
REMARK SMILES IDX 19 1 18 2 17 3 15 4 16 5 14 6 10 7 11 8 89 9 12 10 13 11
REMARK SMILES IDX 9 12 4 13 5 14 6 15 8 16 7 17 2 18 1 19 3 22 20 23 21 24
REMARK SMILES IDX 22 25 23 26 24 27 88 28 25 29 87 30 26 31 27 32 28 33 81 34
REMARK SMILES IDX 29 35 86 36 80 37 82 38 30 39 85 40 79 41 78 42 31 44 65 45
REMARK SMILES IDX 44 46 64 47 45 48 48 49 63 50 83 51 46 52 47 53 62 55 84 56
REMARK SMILES IDX 49 57 32 58 33 59 42 60 34 61 35 62 41 63 43 64 36 65 37 66
REMARK SMILES IDX 38 67 39 68 40 69 66 70 67 71 76 72 68 73 69 74 75 75 77 76
REMARK SMILES IDX 70 77 71 78 72 79 73 80 74 81 50 82 51 83 60 84 52 85 53 86
REMARK SMILES IDX 59 87 61 88 54 89 55 90 56 91 57 92 58 93
REMARK H PARENT 1 20 1 21 82 43 48 54
REMARK Flexibility Score: inf
ROOT
ATOM      1  C   UNL     1       4.555   3.103   3.545  1.00  0.00     0.275 C 
ENDROOT
BRANCH   1   2
ATOM      2  C   UNL     1       3.544   2.027   3.147  1.00  0.00     0.275 C 
BRANCH   2   3
ATOM      3  O   UNL     1       3.001   2.273   1.833  1.00  0.00    -0.457 OA
BRANCH   3   4
ATOM      4  C   UNL     1       1.780   2.871   1.801  1.00  0.00     0.358 C 
ATOM      5  O   UNL     1       1.105   3.178   2.767  1.00  0.00    -0.244 OA
BRANCH   4   6
ATOM      6  C   UNL     1       1.376   3.180   0.408  1.00  0.00     0.169 A 
ATOM      7  C   UNL     1       1.252   2.600  -1.815  1.00  0.00     0.148 A 
ATOM      8  C   UNL     1       0.550   3.792  -2.041  1.00  0.00     0.157 A 
ATOM      9  N   UNL     1       1.719   2.307  -0.580  1.00  0.00    -0.220 NA
ATOM     10  N   UNL     1       0.210   4.668  -1.067  1.00  0.00    -0.258 NA
ATOM     11  C   UNL     1       0.606   4.309   0.171  1.00  0.00     0.147 A 
BRANCH   7  12
ATOM     12  N   UNL     1       1.421   1.684  -2.822  1.00  0.00    -0.343 N 
ATOM     13  C   UNL     1       1.055   0.261  -2.699  1.00  0.00     0.172 C 
ATOM     14  C   UNL     1       2.326  -0.588  -2.794  1.00  0.00     0.035 C 
ATOM     15  C   UNL     1       3.082  -0.265  -4.085  1.00  0.00     0.004 C 
ATOM     16  C   UNL     1       2.117   2.080  -4.039  1.00  0.00     0.119 C 
ATOM     17  C   UNL     1       3.383   1.232  -4.192  1.00  0.00     0.022 C 
BRANCH  13  18
ATOM     18  C   UNL     1       0.175  -0.132  -1.492  1.00  0.00     0.240 C 
ATOM     19  N   UNL     1       0.781  -0.198  -0.271  1.00  0.00    -0.368 N 
ATOM     20  H   UNL     1       0.258  -0.445   0.525  1.00  0.00     0.159 HD
ATOM     21  H   UNL     1       1.742   0.001  -0.187  1.00  0.00     0.159 HD
ATOM     22  O   UNL     1      -1.018  -0.411  -1.599  1.00  0.00    -0.273 OA
ENDBRANCH  13  18
ENDBRANCH   7  12
ENDBRANCH   4   6
ENDBRANCH   3   4
ENDBRANCH   2   3
ENDBRANCH   1   2
BRANCH   1  23
ATOM     23  O   UNL     1       3.893   4.371   3.699  1.00  0.00    -0.458 OA
BRANCH  23  24
ATOM     24  C   UNL     1       4.301   5.354   2.864  1.00  0.00     0.338 C 
ATOM     25  O   UNL     1       5.192   5.298   2.033  1.00  0.00    -0.246 OA
BRANCH  24  26
ATOM     26  C   UNL     1       3.457   6.547   3.047  1.00  0.00     0.060 A 
ATOM     27  C   UNL     1       2.113   6.475   2.697  1.00  0.00     0.016 A 
ATOM     28  C   UNL     1       4.016   7.769   3.409  1.00  0.00     0.016 A 
ATOM     29  C   UNL     1       1.347   7.632   2.595  1.00  0.00     0.010 A 
ATOM     30  C   UNL     1       3.213   8.918   3.419  1.00  0.00     0.010 A 
ATOM     31  C   UNL     1       1.879   8.873   2.970  1.00  0.00    -0.014 A 
BRANCH  31  32
ATOM     32  C   UNL     1       1.056  10.114   2.851  1.00  0.00     0.031 A 
ATOM     33  C   UNL     1       1.552  11.276   2.025  1.00  0.00     0.074 A 
ATOM     34  C   UNL     1      -0.144  10.206   3.463  1.00  0.00     0.049 A 
ATOM     35  N   UNL     1       1.090  12.498   1.955  1.00  0.00    -0.248 NA
ATOM     36  C   UNL     1       2.736  11.038   1.182  1.00  0.00     0.031 C 
ATOM     37  C   UNL     1      -0.775   9.152   4.261  1.00  0.00     0.029 A 
ATOM     38  N   UNL     1      -1.055  11.234   3.504  1.00  0.00    -0.354 N 
ATOM     39  C   UNL     1       1.962  13.190   1.121  1.00  0.00     0.074 A 
ATOM     40  C   UNL     1       2.979  12.250   0.703  1.00  0.00     0.031 C 
ATOM     41  C   UNL     1      -1.979   9.570   4.677  1.00  0.00     0.029 A 
ATOM     42  C   UNL     1      -2.171  10.954   4.259  1.00  0.00     0.049 A 
ATOM     43  H   UNL     1      -0.921  12.091   3.038  1.00  0.00     0.167 HD
ATOM     44  C   UNL     1       1.919  14.491   0.743  1.00  0.00     0.037 A 
ATOM     45  C   UNL     1      -3.211  11.730   4.620  1.00  0.00     0.037 A 
ATOM     46  C   UNL     1       0.861  15.402   1.096  1.00  0.00     0.049 A 
ATOM     47  C   UNL     1      -3.242  13.167   4.181  1.00  0.00     0.074 A 
ATOM     48  C   UNL     1       0.717  16.733   0.741  1.00  0.00     0.029 A 
ATOM     49  N   UNL     1      -0.246  15.073   1.863  1.00  0.00    -0.354 N 
ATOM     50  N   UNL     1      -2.373  13.822   3.449  1.00  0.00    -0.248 NA
ATOM     51  C   UNL     1      -4.381  13.977   4.635  1.00  0.00     0.031 C 
ATOM     52  C   UNL     1      -0.464  17.215   1.316  1.00  0.00     0.029 A 
ATOM     53  C   UNL     1      -1.074  16.175   1.998  1.00  0.00     0.049 A 
ATOM     54  H   UNL     1      -0.418  14.186   2.255  1.00  0.00     0.167 HD
ATOM     55  C   UNL     1      -2.863  15.119   3.350  1.00  0.00     0.074 A 
ATOM     56  C   UNL     1      -4.115  15.151   4.079  1.00  0.00     0.031 C 
ATOM     57  C   UNL     1      -2.320  16.189   2.720  1.00  0.00     0.037 A 
BRANCH  44  58
ATOM     58  C   UNL     1       3.065  15.025  -0.072  1.00  0.00     0.058 A 
ATOM     59  C   UNL     1       3.224  14.718  -1.431  1.00  0.00     0.135 A 
ATOM     60  C   UNL     1       3.991  15.906   0.513  1.00  0.00     0.135 A 
ATOM     61  F   UNL     1       2.378  13.870  -2.036  1.00  0.00    -0.206 F 
ATOM     62  C   UNL     1       4.271  15.251  -2.179  1.00  0.00     0.059 A 
ATOM     63  C   UNL     1       5.032  16.468  -0.221  1.00  0.00     0.059 A 
ATOM     64  F   UNL     1       3.885  16.233   1.810  1.00  0.00    -0.206 F 
ATOM     65  C   UNL     1       5.171  16.125  -1.564  1.00  0.00     0.060 A 
BRANCH  65  66
ATOM     66  S   UNL     1       6.516  16.821  -2.548  1.00  0.00     0.124 S 
ATOM     67  O   UNL     1       7.421  15.681  -2.650  1.00  0.00    -0.237 OA
ATOM     68  O   UNL     1       5.837  17.204  -3.782  1.00  0.00    -0.237 OA
ATOM     69  O   UNL     1       6.995  17.932  -1.731  1.00  0.00    -0.744 OA
ENDBRANCH  65  66
ENDBRANCH  44  58
BRANCH  45  70
ATOM     70  C   UNL     1      -4.282  11.175   5.492  1.00  0.00     0.058 A 
ATOM     71  C   UNL     1      -5.575  10.948   4.999  1.00  0.00     0.135 A 
ATOM     72  C   UNL     1      -4.025  10.844   6.832  1.00  0.00     0.135 A 
ATOM     73  F   UNL     1      -5.873  11.260   3.729  1.00  0.00    -0.206 F 
ATOM     74  C   UNL     1      -6.578  10.418   5.806  1.00  0.00     0.059 A 
ATOM     75  C   UNL     1      -5.002  10.288   7.649  1.00  0.00     0.059 A 
ATOM     76  F   UNL     1      -2.800  11.032   7.348  1.00  0.00    -0.206 F 
ATOM     77  C   UNL     1      -6.280  10.088   7.129  1.00  0.00     0.060 A 
BRANCH  77  78
ATOM     78  S   UNL     1      -7.567   9.345   8.156  1.00  0.00     0.124 S 
ATOM     79  O   UNL     1      -8.361  10.513   8.519  1.00  0.00    -0.237 OA
ATOM     80  O   UNL     1      -8.197   8.405   7.235  1.00  0.00    -0.237 OA
ATOM     81  O   UNL     1      -6.811   8.732   9.244  1.00  0.00    -0.744 OA
ENDBRANCH  77  78
ENDBRANCH  45  70
BRANCH  57  82
ATOM     82  C   UNL     1      -3.090  17.477   2.766  1.00  0.00     0.058 A 
ATOM     83  C   UNL     1      -3.123  18.271   3.922  1.00  0.00     0.135 A 
ATOM     84  C   UNL     1      -3.767  17.941   1.628  1.00  0.00     0.135 A 
ATOM     85  F   UNL     1      -2.497  17.865   5.039  1.00  0.00    -0.206 F 
ATOM     86  C   UNL     1      -3.818  19.475   3.955  1.00  0.00     0.059 A 
ATOM     87  C   UNL     1      -4.451  19.152   1.631  1.00  0.00     0.059 A 
ATOM     88  F   UNL     1      -3.759  17.221   0.495  1.00  0.00    -0.206 F 
ATOM     89  C   UNL     1      -4.481  19.907   2.804  1.00  0.00     0.060 A 
BRANCH  89  90
ATOM     90  S   UNL     1      -5.355  21.486   2.846  1.00  0.00     0.124 S 
ATOM     91  O   UNL     1      -6.564  21.132   3.581  1.00  0.00    -0.237 OA
ATOM     92  O   UNL     1      -4.413  22.349   3.553  1.00  0.00    -0.237 OA
ATOM     93  O   UNL     1      -5.547  21.804   1.434  1.00  0.00    -0.744 OA
ENDBRANCH  89  90
ENDBRANCH  57  82
ENDBRANCH  31  32
ENDBRANCH  24  26
ENDBRANCH  23  24
ENDBRANCH   1  23
TORSDOF 16
