REMARK SMILES CC[C@](C)([NH3+])C(=O)N1CC[NH+]([C@H](C)C(=O)OCCOC(=O)c2ccc(-c3c4nc(c(-c5c(F)cc(S(=O)(=O)[O-])cc5F)c5ccc([nH]5)c(-c5c(F)cc(S(=O)(=O)[O-])cc5F)c5nc(c(-c6c(F)cc(S(=O)(=O)[O-])cc6F)c6ccc3[nH]6)C=C5)C=C4)cc2)CC1
REMARK SMILES IDX 17 1 16 2 14 3 15 4 12 5 13 6 11 7 6 8 7 9 8 10 9 11 89 12
REMARK SMILES IDX 10 13 88 14 3 16 4 17 2 18 1 19 5 20 18 24 19 25 20 26 21 27
REMARK SMILES IDX 22 28 23 29 87 30 24 31 86 32 25 33 26 34 27 35 80 36 28 37
REMARK SMILES IDX 85 38 79 39 81 40 29 41 84 42 78 43 77 44 30 46 64 47 43 48
REMARK SMILES IDX 63 49 44 50 47 51 62 52 82 53 45 54 46 55 61 57 83 58 48 59
REMARK SMILES IDX 31 60 32 61 41 62 33 63 34 64 40 65 42 66 35 67 36 68 37 69
REMARK SMILES IDX 38 70 39 71 65 72 66 73 75 74 67 75 68 76 74 77 76 78 69 79
REMARK SMILES IDX 70 80 71 81 72 82 73 83 49 84 50 85 59 86 51 87 52 88 58 89
REMARK SMILES IDX 60 90 53 91 54 92 55 93 56 94 57 95
REMARK H PARENT 11 15 5 21 5 22 5 23 81 45 47 56
REMARK Flexibility Score: inf
ROOT
ATOM      1  C   UNL     1       7.618   4.884   4.487  1.00  0.00     0.274 C 
ENDROOT
BRANCH   1   2
ATOM      2  O   UNL     1       6.442   4.055   4.507  1.00  0.00    -0.458 OA
BRANCH   2   3
ATOM      3  C   UNL     1       6.366   3.153   5.527  1.00  0.00     0.364 C 
ATOM      4  O   UNL     1       7.242   2.991   6.370  1.00  0.00    -0.245 OA
BRANCH   3   5
ATOM      5  C   UNL     1       5.064   2.327   5.490  1.00  0.00     0.292 C 
ATOM      6  C   UNL     1       3.922   3.021   4.739  1.00  0.00     0.088 C 
BRANCH   5   7
ATOM      7  N   UNL     1       5.362   0.933   5.086  1.00  0.00    -0.321 N 
ATOM      8  C   UNL     1       4.176  -1.968   2.497  1.00  0.00     0.283 C 
ATOM      9  O   UNL     1       4.771  -2.146   1.421  1.00  0.00    -0.268 OA
ATOM     10  N   UNL     1       4.884  -1.464   3.572  1.00  0.00    -0.326 N 
ATOM     11  C   UNL     1       6.084  -0.673   3.303  1.00  0.00     0.181 C 
ATOM     12  C   UNL     1       4.535  -1.441   4.991  1.00  0.00     0.181 C 
ATOM     13  C   UNL     1       5.791   0.795   3.680  1.00  0.00     0.284 C 
ATOM     14  C   UNL     1       4.273   0.003   5.453  1.00  0.00     0.284 C 
ATOM     15  H   UNL     1       6.179   0.657   5.631  1.00  0.00     0.348 HD
BRANCH   8  16
ATOM     16  C   UNL     1       2.606  -2.075   2.503  1.00  0.00     0.171 C 
ATOM     17  C   UNL     1       2.203  -2.987   1.325  1.00  0.00     0.090 C 
BRANCH  16  18
ATOM     18  C   UNL     1       2.053  -0.636   2.314  1.00  0.00     0.075 C 
ATOM     19  C   UNL     1       0.594  -0.534   1.888  1.00  0.00     0.011 C 
ENDBRANCH  16  18
BRANCH  16  20
ATOM     20  N   UNL     1       2.046  -2.695   3.722  1.00  0.00    -0.345 N 
ATOM     21  H   UNL     1       2.421  -3.637   3.828  1.00  0.00     0.345 HD
ATOM     22  H   UNL     1       1.030  -2.740   3.644  1.00  0.00     0.345 HD
ATOM     23  H   UNL     1       2.300  -2.135   4.536  1.00  0.00     0.345 HD
ENDBRANCH  16  20
ENDBRANCH   8  16
ENDBRANCH   5   7
ENDBRANCH   3   5
ENDBRANCH   2   3
ENDBRANCH   1   2
BRANCH   1  24
ATOM     24  C   UNL     1       7.354   6.262   5.100  1.00  0.00     0.275 C 
BRANCH  24  25
ATOM     25  O   UNL     1       7.075   6.180   6.509  1.00  0.00    -0.458 OA
BRANCH  25  26
ATOM     26  C   UNL     1       5.761   6.129   6.829  1.00  0.00     0.338 C 
ATOM     27  O   UNL     1       4.813   6.177   6.064  1.00  0.00    -0.246 OA
BRANCH  26  28
ATOM     28  C   UNL     1       5.606   5.873   8.268  1.00  0.00     0.060 A 
ATOM     29  C   UNL     1       5.127   4.623   8.664  1.00  0.00     0.016 A 
ATOM     30  C   UNL     1       5.825   6.879   9.208  1.00  0.00     0.016 A 
ATOM     31  C   UNL     1       4.848   4.370  10.002  1.00  0.00     0.010 A 
ATOM     32  C   UNL     1       5.551   6.622  10.556  1.00  0.00     0.010 A 
ATOM     33  C   UNL     1       5.048   5.371  10.957  1.00  0.00    -0.014 A 
BRANCH  33  34
ATOM     34  C   UNL     1       4.671   5.122  12.367  1.00  0.00     0.031 A 
ATOM     35  C   UNL     1       3.439   5.769  12.932  1.00  0.00     0.074 A 
ATOM     36  C   UNL     1       5.417   4.298  13.126  1.00  0.00     0.049 A 
ATOM     37  N   UNL     1       2.996   5.771  14.162  1.00  0.00    -0.248 NA
ATOM     38  C   UNL     1       2.593   6.513  11.985  1.00  0.00     0.031 C 
ATOM     39  C   UNL     1       6.601   3.569  12.668  1.00  0.00     0.029 A 
ATOM     40  N   UNL     1       5.291   3.939  14.443  1.00  0.00    -0.354 N 
ATOM     41  C   UNL     1       1.838   6.538  14.146  1.00  0.00     0.074 A 
ATOM     42  C   UNL     1       1.648   6.990  12.783  1.00  0.00     0.031 C 
ATOM     43  C   UNL     1       7.095   2.852  13.690  1.00  0.00     0.029 A 
ATOM     44  C   UNL     1       6.295   3.110  14.884  1.00  0.00     0.049 A 
ATOM     45  H   UNL     1       4.554   4.246  15.018  1.00  0.00     0.167 HD
ATOM     46  C   UNL     1       1.012   6.838  15.176  1.00  0.00     0.037 A 
ATOM     47  C   UNL     1       6.557   2.639  16.118  1.00  0.00     0.037 A 
ATOM     48  C   UNL     1       1.200   6.368  16.523  1.00  0.00     0.049 A 
ATOM     49  C   UNL     1       5.652   3.024  17.256  1.00  0.00     0.074 A 
ATOM     50  C   UNL     1       0.422   6.617  17.641  1.00  0.00     0.029 A 
ATOM     51  N   UNL     1       2.240   5.547  16.936  1.00  0.00    -0.354 N 
ATOM     52  N   UNL     1       4.579   3.778  17.235  1.00  0.00    -0.248 NA
ATOM     53  C   UNL     1       5.997   2.503  18.585  1.00  0.00     0.031 C 
ATOM     54  C   UNL     1       1.008   5.969  18.735  1.00  0.00     0.029 A 
ATOM     55  C   UNL     1       2.131   5.288  18.291  1.00  0.00     0.049 A 
ATOM     56  H   UNL     1       2.951   5.199  16.350  1.00  0.00     0.167 HD
ATOM     57  C   UNL     1       4.113   3.812  18.544  1.00  0.00     0.074 A 
ATOM     58  C   UNL     1       5.013   2.992  19.328  1.00  0.00     0.031 C 
ATOM     59  C   UNL     1       3.038   4.465  19.051  1.00  0.00     0.037 A 
BRANCH  46  60
ATOM     60  C   UNL     1      -0.149   7.746  14.889  1.00  0.00     0.058 A 
ATOM     61  C   UNL     1      -1.285   7.298  14.198  1.00  0.00     0.135 A 
ATOM     62  C   UNL     1      -0.130   9.081  15.325  1.00  0.00     0.135 A 
ATOM     63  F   UNL     1      -1.345   6.037  13.742  1.00  0.00    -0.206 F 
ATOM     64  C   UNL     1      -2.353   8.148  13.927  1.00  0.00     0.059 A 
ATOM     65  C   UNL     1      -1.195   9.943  15.083  1.00  0.00     0.059 A 
ATOM     66  F   UNL     1       0.935   9.560  15.987  1.00  0.00    -0.206 F 
ATOM     67  C   UNL     1      -2.296   9.472  14.369  1.00  0.00     0.060 A 
BRANCH  67  68
ATOM     68  S   UNL     1      -3.682  10.569  14.004  1.00  0.00     0.124 S 
ATOM     69  O   UNL     1      -3.452  10.867  12.593  1.00  0.00    -0.237 OA
ATOM     70  O   UNL     1      -4.837   9.726  14.293  1.00  0.00    -0.237 OA
ATOM     71  O   UNL     1      -3.481  11.686  14.922  1.00  0.00    -0.744 OA
ENDBRANCH  67  68
ENDBRANCH  46  60
BRANCH  47  72
ATOM     72  C   UNL     1       7.747   1.779  16.343  1.00  0.00     0.058 A 
ATOM     73  C   UNL     1       7.610   0.410  16.610  1.00  0.00     0.135 A 
ATOM     74  C   UNL     1       9.046   2.308  16.275  1.00  0.00     0.135 A 
ATOM     75  F   UNL     1       6.388  -0.138  16.695  1.00  0.00    -0.206 F 
ATOM     76  C   UNL     1       8.719  -0.406  16.809  1.00  0.00     0.059 A 
ATOM     77  C   UNL     1      10.170   1.508  16.448  1.00  0.00     0.059 A 
ATOM     78  F   UNL     1       9.228   3.611  16.012  1.00  0.00    -0.206 F 
ATOM     79  C   UNL     1       9.996   0.152  16.724  1.00  0.00     0.060 A 
BRANCH  79  80
ATOM     80  S   UNL     1      11.433  -0.924  16.924  1.00  0.00     0.124 S 
ATOM     81  O   UNL     1      11.475  -1.088  18.372  1.00  0.00    -0.237 OA
ATOM     82  O   UNL     1      11.046  -2.105  16.159  1.00  0.00    -0.237 OA
ATOM     83  O   UNL     1      12.519  -0.140  16.344  1.00  0.00    -0.744 OA
ENDBRANCH  79  80
ENDBRANCH  47  72
BRANCH  59  84
ATOM     84  C   UNL     1       2.765   4.297  20.518  1.00  0.00     0.058 A 
ATOM     85  C   UNL     1       3.523   4.972  21.487  1.00  0.00     0.135 A 
ATOM     86  C   UNL     1       1.707   3.486  20.956  1.00  0.00     0.135 A 
ATOM     87  F   UNL     1       4.550   5.754  21.117  1.00  0.00    -0.206 F 
ATOM     88  C   UNL     1       3.252   4.834  22.844  1.00  0.00     0.059 A 
ATOM     89  C   UNL     1       1.406   3.349  22.307  1.00  0.00     0.059 A 
ATOM     90  F   UNL     1       0.948   2.826  20.066  1.00  0.00    -0.206 F 
ATOM     91  C   UNL     1       2.191   4.019  23.244  1.00  0.00     0.060 A 
BRANCH  91  92
ATOM     92  S   UNL     1       1.825   3.869  25.006  1.00  0.00     0.124 S 
ATOM     93  O   UNL     1       2.856   2.933  25.441  1.00  0.00    -0.237 OA
ATOM     94  O   UNL     1       1.977   5.242  25.478  1.00  0.00    -0.237 OA
ATOM     95  O   UNL     1       0.459   3.356  25.024  1.00  0.00    -0.744 OA
ENDBRANCH  91  92
ENDBRANCH  59  84
ENDBRANCH  33  34
ENDBRANCH  26  28
ENDBRANCH  25  26
ENDBRANCH  24  25
ENDBRANCH   1  24
TORSDOF 18
