REMARK SMILES O=C(OCCOC(=O)[C@H]1CC[C@@H](CNc2ccccc2C(F)(F)F)O1)c1ccc(-c2c3nc(c(-c4c(F)cc(S(=O)(=O)[O-])cc4F)c4ccc([nH]4)c(-c4c(F)cc(S(=O)(=O)[O-])cc4F)c4nc(c(-c5c(F)cc(S(=O)(=O)[O-])cc5F)c5ccc2[nH]5)C=C4)C=C3)cc1
REMARK SMILES IDX 5 1 4 2 3 3 2 4 1 5 26 6 27 7 91 8 28 9 90 10 29 11 30 12
REMARK SMILES IDX 31 13 84 14 32 15 89 16 83 17 85 18 33 19 88 20 82 21 81 22
REMARK SMILES IDX 34 24 68 25 47 26 67 27 48 28 51 29 66 30 86 31 49 32 50 33
REMARK SMILES IDX 65 35 87 36 52 37 35 38 36 39 45 40 37 41 38 42 44 43 46 44
REMARK SMILES IDX 39 45 40 46 41 47 42 48 43 49 69 50 70 51 79 52 71 53 72 54
REMARK SMILES IDX 78 55 80 56 73 57 74 58 75 59 76 60 77 61 53 62 54 63 63 64
REMARK SMILES IDX 55 65 56 66 62 67 64 68 57 69 58 70 59 71 60 72 61 73 6 74
REMARK SMILES IDX 7 75 8 76 9 77 10 78 25 79 11 80 12 81 13 82 14 83 15 85
REMARK SMILES IDX 16 86 20 87 17 88 19 89 18 90 21 91 22 92 23 93 24 94
REMARK H PARENT 85 23 51 34 14 84
REMARK Flexibility Score: inf
ROOT
ATOM      1  C   UNL     1      -0.129  -0.100  -4.988  1.00  0.00     0.274 C 
ENDROOT
BRANCH   1   2
ATOM      2  C   UNL     1      -1.214  -0.185  -3.913  1.00  0.00     0.275 C 
BRANCH   2   3
ATOM      3  O   UNL     1      -1.169   0.976  -3.067  1.00  0.00    -0.458 OA
BRANCH   3   4
ATOM      4  C   UNL     1      -1.017   0.853  -1.723  1.00  0.00     0.338 C 
ATOM      5  O   UNL     1      -1.830   1.317  -0.934  1.00  0.00    -0.246 OA
BRANCH   4   6
ATOM      6  C   UNL     1       0.323   0.410  -1.250  1.00  0.00     0.060 A 
ATOM      7  C   UNL     1       0.885  -0.828  -1.579  1.00  0.00     0.016 A 
ATOM      8  C   UNL     1       1.014   1.260  -0.372  1.00  0.00     0.016 A 
ATOM      9  C   UNL     1       2.135  -1.196  -1.083  1.00  0.00     0.010 A 
ATOM     10  C   UNL     1       2.269   0.896   0.127  1.00  0.00     0.010 A 
ATOM     11  C   UNL     1       2.823  -0.345  -0.213  1.00  0.00    -0.014 A 
BRANCH  11  12
ATOM     12  C   UNL     1       3.990  -0.878   0.522  1.00  0.00     0.031 A 
ATOM     13  C   UNL     1       3.730  -1.498   1.865  1.00  0.00     0.074 A 
ATOM     14  C   UNL     1       5.222  -0.865  -0.014  1.00  0.00     0.049 A 
ATOM     15  N   UNL     1       4.564  -2.074   2.688  1.00  0.00    -0.248 NA
ATOM     16  C   UNL     1       2.334  -1.472   2.336  1.00  0.00     0.031 C 
ATOM     17  C   UNL     1       5.565  -0.327  -1.329  1.00  0.00     0.029 A 
ATOM     18  N   UNL     1       6.417  -1.319   0.482  1.00  0.00    -0.354 N 
ATOM     19  C   UNL     1       3.794  -2.480   3.771  1.00  0.00     0.074 A 
ATOM     20  C   UNL     1       2.435  -2.059   3.516  1.00  0.00     0.031 C 
ATOM     21  C   UNL     1       6.886  -0.468  -1.532  1.00  0.00     0.029 A 
ATOM     22  C   UNL     1       7.485  -1.091  -0.354  1.00  0.00     0.049 A 
ATOM     23  H   UNL     1       6.502  -1.766   1.355  1.00  0.00     0.167 HD
ATOM     24  C   UNL     1       4.186  -3.150   4.879  1.00  0.00     0.037 A 
ATOM     25  C   UNL     1       8.796  -1.349  -0.174  1.00  0.00     0.037 A 
ATOM     26  C   UNL     1       5.549  -3.521   5.135  1.00  0.00     0.049 A 
ATOM     27  C   UNL     1       9.226  -2.039   1.094  1.00  0.00     0.074 A 
ATOM     28  C   UNL     1       6.079  -4.162   6.237  1.00  0.00     0.029 A 
ATOM     29  N   UNL     1       6.605  -3.261   4.270  1.00  0.00    -0.354 N 
ATOM     30  N   UNL     1       8.486  -2.439   2.103  1.00  0.00    -0.248 NA
ATOM     31  C   UNL     1      10.659  -2.323   1.251  1.00  0.00     0.031 C 
ATOM     32  C   UNL     1       7.464  -4.255   6.057  1.00  0.00     0.029 A 
ATOM     33  C   UNL     1       7.789  -3.716   4.820  1.00  0.00     0.049 A 
ATOM     34  H   UNL     1       6.523  -2.818   3.395  1.00  0.00     0.167 HD
ATOM     35  C   UNL     1       9.356  -3.049   3.000  1.00  0.00     0.074 A 
ATOM     36  C   UNL     1      10.680  -2.963   2.414  1.00  0.00     0.031 C 
ATOM     37  C   UNL     1       9.087  -3.631   4.195  1.00  0.00     0.037 A 
BRANCH  24  38
ATOM     38  C   UNL     1       3.121  -3.454   5.894  1.00  0.00     0.058 A 
ATOM     39  C   UNL     1       2.116  -4.405   5.645  1.00  0.00     0.135 A 
ATOM     40  C   UNL     1       3.055  -2.731   7.095  1.00  0.00     0.135 A 
ATOM     41  F   UNL     1       2.117  -5.105   4.499  1.00  0.00    -0.206 F 
ATOM     42  C   UNL     1       1.055  -4.588   6.525  1.00  0.00     0.059 A 
ATOM     43  C   UNL     1       2.017  -2.917   8.002  1.00  0.00     0.059 A 
ATOM     44  F   UNL     1       3.986  -1.807   7.379  1.00  0.00    -0.206 F 
ATOM     45  C   UNL     1       1.006  -3.828   7.694  1.00  0.00     0.060 A 
BRANCH  45  46
ATOM     46  S   UNL     1      -0.410  -4.025   8.797  1.00  0.00     0.124 S 
ATOM     47  O   UNL     1      -1.448  -3.303   8.067  1.00  0.00    -0.237 OA
ATOM     48  O   UNL     1      -0.567  -5.475   8.851  1.00  0.00    -0.237 OA
ATOM     49  O   UNL     1       0.036  -3.400  10.037  1.00  0.00    -0.744 OA
ENDBRANCH  45  46
ENDBRANCH  24  38
BRANCH  25  50
ATOM     50  C   UNL     1       9.780  -0.958  -1.221  1.00  0.00     0.058 A 
ATOM     51  C   UNL     1      10.423  -1.918  -2.016  1.00  0.00     0.135 A 
ATOM     52  C   UNL     1      10.068   0.393  -1.475  1.00  0.00     0.135 A 
ATOM     53  F   UNL     1      10.190  -3.223  -1.810  1.00  0.00    -0.206 F 
ATOM     54  C   UNL     1      11.312  -1.556  -3.025  1.00  0.00     0.059 A 
ATOM     55  C   UNL     1      10.937   0.782  -2.490  1.00  0.00     0.059 A 
ATOM     56  F   UNL     1       9.472   1.354  -0.751  1.00  0.00    -0.206 F 
ATOM     57  C   UNL     1      11.557  -0.201  -3.260  1.00  0.00     0.060 A 
BRANCH  57  58
ATOM     58  S   UNL     1      12.647   0.261  -4.625  1.00  0.00     0.124 S 
ATOM     59  O   UNL     1      13.955  -0.113  -4.098  1.00  0.00    -0.237 OA
ATOM     60  O   UNL     1      12.137  -0.564  -5.715  1.00  0.00    -0.237 OA
ATOM     61  O   UNL     1      12.411   1.694  -4.772  1.00  0.00    -0.744 OA
ENDBRANCH  57  58
ENDBRANCH  25  50
BRANCH  37  62
ATOM     62  C   UNL     1      10.230  -4.264   4.934  1.00  0.00     0.058 A 
ATOM     63  C   UNL     1      11.162  -3.496   5.646  1.00  0.00     0.135 A 
ATOM     64  C   UNL     1      10.319  -5.663   5.023  1.00  0.00     0.135 A 
ATOM     65  F   UNL     1      11.120  -2.155   5.586  1.00  0.00    -0.206 F 
ATOM     66  C   UNL     1      12.145  -4.094   6.426  1.00  0.00     0.059 A 
ATOM     67  C   UNL     1      11.279  -6.281   5.814  1.00  0.00     0.059 A 
ATOM     68  F   UNL     1       9.442  -6.439   4.365  1.00  0.00    -0.206 F 
ATOM     69  C   UNL     1      12.189  -5.488   6.511  1.00  0.00     0.060 A 
BRANCH  69  70
ATOM     70  S   UNL     1      13.416  -6.252   7.593  1.00  0.00     0.124 S 
ATOM     71  O   UNL     1      14.636  -6.099   6.807  1.00  0.00    -0.237 OA
ATOM     72  O   UNL     1      13.329  -5.429   8.796  1.00  0.00    -0.237 OA
ATOM     73  O   UNL     1      12.931  -7.620   7.742  1.00  0.00    -0.744 OA
ENDBRANCH  69  70
ENDBRANCH  37  62
ENDBRANCH  11  12
ENDBRANCH   4   6
ENDBRANCH   3   4
ENDBRANCH   2   3
ENDBRANCH   1   2
BRANCH   1  74
ATOM     74  O   UNL     1       1.130   0.227  -4.383  1.00  0.00    -0.460 OA
BRANCH  74  75
ATOM     75  C   UNL     1       1.691   1.423  -4.736  1.00  0.00     0.335 C 
ATOM     76  O   UNL     1       1.377   2.087  -5.718  1.00  0.00    -0.249 OA
BRANCH  75  77
ATOM     77  C   UNL     1       2.706   1.846  -3.677  1.00  0.00     0.228 C 
ATOM     78  C   UNL     1       3.876   2.653  -4.214  1.00  0.00     0.047 C 
ATOM     79  O   UNL     1       2.030   2.669  -2.716  1.00  0.00    -0.361 OA
ATOM     80  C   UNL     1       3.484   4.082  -3.903  1.00  0.00     0.037 C 
ATOM     81  C   UNL     1       2.721   3.919  -2.600  1.00  0.00     0.138 C 
BRANCH  81  82
ATOM     82  C   UNL     1       1.756   5.053  -2.206  1.00  0.00     0.145 C 
BRANCH  82  83
ATOM     83  N   UNL     1       0.771   5.369  -3.245  1.00  0.00    -0.382 N 
ATOM     84  H   UNL     1       1.067   5.871  -4.038  1.00  0.00     0.160 HD
BRANCH  83  85
ATOM     85  C   UNL     1      -0.562   4.990  -3.159  1.00  0.00     0.046 A 
ATOM     86  C   UNL     1      -1.076   4.234  -4.232  1.00  0.00     0.026 A 
ATOM     87  C   UNL     1      -1.419   5.270  -2.081  1.00  0.00     0.079 A 
ATOM     88  C   UNL     1      -2.387   3.755  -4.244  1.00  0.00     0.002 A 
ATOM     89  C   UNL     1      -2.738   4.756  -2.095  1.00  0.00     0.015 A 
ATOM     90  C   UNL     1      -3.219   4.008  -3.166  1.00  0.00     0.001 A 
BRANCH  87  91
ATOM     91  C   UNL     1      -1.045   6.126  -0.897  1.00  0.00     0.418 C 
ATOM     92  F   UNL     1      -2.073   6.945  -0.509  1.00  0.00    -0.166 F 
ATOM     93  F   UNL     1      -0.743   5.389   0.210  1.00  0.00    -0.166 F 
ATOM     94  F   UNL     1       0.010   6.970  -1.078  1.00  0.00    -0.166 F 
ENDBRANCH  87  91
ENDBRANCH  83  85
ENDBRANCH  82  83
ENDBRANCH  81  82
ENDBRANCH  75  77
ENDBRANCH  74  75
ENDBRANCH   1  74
TORSDOF 18
