REMARK SMILES COc1cc(NC(=O)CN2C(=O)c3ccccc3C2=O)c(C(=O)OCCOC(=O)c2ccc(-c3c4nc(c(-c5c(F)cc(S(=O)(=O)[O-])cc5F)c5ccc([nH]5)c(-c5c(F)cc(S(=O)(=O)[O-])cc5F)c5nc(c(-c6c(F)cc(S(=O)(=O)[O-])cc6F)c6ccc3[nH]6)C=C5)C=C4)cc2)cc1OC
REMARK SMILES IDX 25 1 24 2 22 3 23 4 21 5 3 6 4 7 97 8 5 9 96 10 2 11 1 12
REMARK SMILES IDX 98 13 99 14 6 15 7 16 8 18 9 19 10 20 11 21 19 22 12 23
REMARK SMILES IDX 13 24 18 25 20 26 14 27 17 28 15 29 16 30 26 31 27 32 28 33
REMARK SMILES IDX 29 34 30 35 31 36 95 37 32 38 94 39 33 40 34 41 35 42 88 43
REMARK SMILES IDX 36 44 93 45 87 46 89 47 37 48 92 49 86 50 85 51 38 53 72 54
REMARK SMILES IDX 51 55 71 56 52 57 55 58 70 59 90 60 53 61 54 62 69 64 91 65
REMARK SMILES IDX 56 66 39 67 40 68 49 69 41 70 42 71 48 72 50 73 43 74 44 75
REMARK SMILES IDX 45 76 46 77 47 78 73 79 74 80 83 81 75 82 76 83 82 84 84 85
REMARK SMILES IDX 77 86 78 87 79 88 80 89 81 90 57 91 58 92 67 93 59 94 60 95
REMARK SMILES IDX 66 96 68 97 61 98 62 99 63 100 64 101 65 102
REMARK H PARENT 6 17 89 52 55 63
REMARK Flexibility Score: inf
ROOT
ATOM      1  C   UNL     1       3.561   7.549   1.619  1.00  0.00     0.275 C 
ENDROOT
BRANCH   1   2
ATOM      2  O   UNL     1       3.241   6.309   0.949  1.00  0.00    -0.458 OA
BRANCH   2   3
ATOM      3  C   UNL     1       1.979   5.840   1.107  1.00  0.00     0.340 C 
ATOM      4  O   UNL     1       1.059   6.415   1.664  1.00  0.00    -0.246 OA
BRANCH   3   5
ATOM      5  C   UNL     1       1.835   4.463   0.569  1.00  0.00     0.087 A 
ATOM      6  C   UNL     1       1.586   1.746  -0.020  1.00  0.00     0.162 A 
ATOM      7  C   UNL     1       0.502   2.624  -0.200  1.00  0.00     0.077 A 
ATOM      8  C   UNL     1       2.823   2.236   0.403  1.00  0.00     0.161 A 
ATOM      9  C   UNL     1       0.611   3.991   0.035  1.00  0.00     0.059 A 
ATOM     10  C   UNL     1       2.925   3.591   0.725  1.00  0.00     0.068 A 
BRANCH   6  11
ATOM     11  O   UNL     1       1.440   0.420  -0.332  1.00  0.00    -0.493 OA
ATOM     12  C   UNL     1       0.326  -0.206   0.305  1.00  0.00     0.278 C 
ENDBRANCH   6  11
BRANCH   8  13
ATOM     13  O   UNL     1       3.993   1.556   0.600  1.00  0.00    -0.493 OA
ATOM     14  C   UNL     1       4.016   0.161   0.335  1.00  0.00     0.278 C 
ENDBRANCH   8  13
BRANCH   9  15
ATOM     15  N   UNL     1      -0.429   4.900  -0.256  1.00  0.00    -0.324 N 
ATOM     16  C   UNL     1      -1.625   4.860  -0.908  1.00  0.00     0.244 C 
ATOM     17  H   UNL     1      -0.241   5.796   0.106  1.00  0.00     0.170 HD
ATOM     18  O   UNL     1      -2.248   5.926  -0.952  1.00  0.00    -0.273 OA
BRANCH  16  19
ATOM     19  C   UNL     1      -2.272   3.664  -1.583  1.00  0.00     0.229 C 
BRANCH  19  20
ATOM     20  N   UNL     1      -1.539   3.259  -2.760  1.00  0.00    -0.265 N 
ATOM     21  C   UNL     1      -1.285   4.080  -3.825  1.00  0.00     0.262 C 
ATOM     22  C   UNL     1      -1.154   1.978  -3.016  1.00  0.00     0.262 C 
ATOM     23  O   UNL     1      -1.593   5.238  -4.006  1.00  0.00    -0.269 OA
ATOM     24  C   UNL     1      -0.468   3.303  -4.750  1.00  0.00     0.053 A 
ATOM     25  C   UNL     1      -0.371   2.021  -4.242  1.00  0.00     0.053 A 
ATOM     26  O   UNL     1      -1.386   0.963  -2.386  1.00  0.00    -0.269 OA
ATOM     27  C   UNL     1       0.220   3.696  -5.879  1.00  0.00     0.015 A 
ATOM     28  C   UNL     1       0.429   1.058  -4.819  1.00  0.00     0.015 A 
ATOM     29  C   UNL     1       1.047   2.742  -6.478  1.00  0.00     0.001 A 
ATOM     30  C   UNL     1       1.155   1.437  -5.950  1.00  0.00     0.001 A 
ENDBRANCH  19  20
ENDBRANCH  16  19
ENDBRANCH   9  15
ENDBRANCH   3   5
ENDBRANCH   2   3
ENDBRANCH   1   2
BRANCH   1  31
ATOM     31  C   UNL     1       3.521   8.737   0.661  1.00  0.00     0.275 C 
BRANCH  31  32
ATOM     32  O   UNL     1       2.154   9.087   0.395  1.00  0.00    -0.458 OA
BRANCH  32  33
ATOM     33  C   UNL     1       1.756   9.033  -0.898  1.00  0.00     0.338 C 
ATOM     34  O   UNL     1       2.460   8.806  -1.867  1.00  0.00    -0.246 OA
BRANCH  33  35
ATOM     35  C   UNL     1       0.292   9.237  -0.983  1.00  0.00     0.060 A 
ATOM     36  C   UNL     1      -0.540   8.664  -0.034  1.00  0.00     0.016 A 
ATOM     37  C   UNL     1      -0.273   9.849  -2.103  1.00  0.00     0.016 A 
ATOM     38  C   UNL     1      -1.903   8.543  -0.300  1.00  0.00     0.010 A 
ATOM     39  C   UNL     1      -1.666   9.819  -2.300  1.00  0.00     0.010 A 
ATOM     40  C   UNL     1      -2.505   9.072  -1.456  1.00  0.00    -0.014 A 
BRANCH  40  41
ATOM     41  C   UNL     1      -3.931   8.728  -1.841  1.00  0.00     0.031 A 
ATOM     42  C   UNL     1      -4.287   8.389  -3.285  1.00  0.00     0.074 A 
ATOM     43  C   UNL     1      -4.931   8.612  -0.937  1.00  0.00     0.049 A 
ATOM     44  N   UNL     1      -5.459   8.394  -3.878  1.00  0.00    -0.248 NA
ATOM     45  C   UNL     1      -3.183   8.023  -4.184  1.00  0.00     0.031 C 
ATOM     46  C   UNL     1      -4.813   8.793   0.509  1.00  0.00     0.029 A 
ATOM     47  N   UNL     1      -6.261   8.278  -1.105  1.00  0.00    -0.354 N 
ATOM     48  C   UNL     1      -5.213   8.149  -5.229  1.00  0.00     0.074 A 
ATOM     49  C   UNL     1      -3.785   7.970  -5.366  1.00  0.00     0.031 C 
ATOM     50  C   UNL     1      -5.967   8.458   1.101  1.00  0.00     0.029 A 
ATOM     51  C   UNL     1      -6.972   8.224   0.072  1.00  0.00     0.049 A 
ATOM     52  H   UNL     1      -6.663   8.095  -1.984  1.00  0.00     0.167 HD
ATOM     53  C   UNL     1      -6.095   8.083  -6.258  1.00  0.00     0.037 A 
ATOM     54  C   UNL     1      -8.290   8.097   0.324  1.00  0.00     0.037 A 
ATOM     55  C   UNL     1      -7.529   8.097  -6.103  1.00  0.00     0.049 A 
ATOM     56  C   UNL     1      -9.262   8.044  -0.817  1.00  0.00     0.074 A 
ATOM     57  C   UNL     1      -8.505   8.030  -7.085  1.00  0.00     0.029 A 
ATOM     58  N   UNL     1      -8.194   8.126  -4.888  1.00  0.00    -0.354 N 
ATOM     59  N   UNL     1      -9.020   8.028  -2.104  1.00  0.00    -0.248 NA
ATOM     60  C   UNL     1     -10.690   8.048  -0.471  1.00  0.00     0.031 C 
ATOM     61  C   UNL     1      -9.759   8.041  -6.465  1.00  0.00     0.029 A 
ATOM     62  C   UNL     1      -9.564   8.079  -5.095  1.00  0.00     0.049 A 
ATOM     63  H   UNL     1      -7.758   8.174  -4.006  1.00  0.00     0.167 HD
ATOM     64  C   UNL     1     -10.263   8.039  -2.723  1.00  0.00     0.074 A 
ATOM     65  C   UNL     1     -11.257   8.027  -1.669  1.00  0.00     0.031 C 
ATOM     66  C   UNL     1     -10.551   8.074  -4.046  1.00  0.00     0.037 A 
BRANCH  53  67
ATOM     67  C   UNL     1      -5.553   8.039  -7.665  1.00  0.00     0.058 A 
ATOM     68  C   UNL     1      -5.000   6.883  -8.234  1.00  0.00     0.135 A 
ATOM     69  C   UNL     1      -5.678   9.173  -8.488  1.00  0.00     0.135 A 
ATOM     70  F   UNL     1      -4.851   5.771  -7.499  1.00  0.00    -0.206 F 
ATOM     71  C   UNL     1      -4.574   6.858  -9.562  1.00  0.00     0.059 A 
ATOM     72  C   UNL     1      -5.283   9.163  -9.823  1.00  0.00     0.059 A 
ATOM     73  F   UNL     1      -6.212  10.305  -8.001  1.00  0.00    -0.206 F 
ATOM     74  C   UNL     1      -4.721   8.003 -10.349  1.00  0.00     0.060 A 
BRANCH  74  75
ATOM     75  S   UNL     1      -4.194   7.949 -12.077  1.00  0.00     0.124 S 
ATOM     76  O   UNL     1      -2.743   8.024 -11.943  1.00  0.00    -0.237 OA
ATOM     77  O   UNL     1      -4.721   6.665 -12.528  1.00  0.00    -0.237 OA
ATOM     78  O   UNL     1      -4.831   9.123 -12.665  1.00  0.00    -0.744 OA
ENDBRANCH  74  75
ENDBRANCH  53  67
BRANCH  54  79
ATOM     79  C   UNL     1      -8.771   8.138   1.733  1.00  0.00     0.058 A 
ATOM     80  C   UNL     1      -9.307   7.002   2.353  1.00  0.00     0.135 A 
ATOM     81  C   UNL     1      -8.651   9.309   2.501  1.00  0.00     0.135 A 
ATOM     82  F   UNL     1      -9.469   5.868   1.655  1.00  0.00    -0.206 F 
ATOM     83  C   UNL     1      -9.684   7.016   3.693  1.00  0.00     0.059 A 
ATOM     84  C   UNL     1      -8.986   9.337   3.849  1.00  0.00     0.059 A 
ATOM     85  F   UNL     1      -8.145  10.425   1.954  1.00  0.00    -0.206 F 
ATOM     86  C   UNL     1      -9.505   8.185   4.437  1.00  0.00     0.060 A 
BRANCH  86  87
ATOM     87  S   UNL     1      -9.883   8.171   6.202  1.00  0.00     0.124 S 
ATOM     88  O   UNL     1     -11.330   8.354   6.194  1.00  0.00    -0.237 OA
ATOM     89  O   UNL     1      -9.408   6.854   6.615  1.00  0.00    -0.237 OA
ATOM     90  O   UNL     1      -9.105   9.295   6.717  1.00  0.00    -0.744 OA
ENDBRANCH  86  87
ENDBRANCH  54  79
BRANCH  66  91
ATOM     91  C   UNL     1     -12.002   8.084  -4.431  1.00  0.00     0.058 A 
ATOM     92  C   UNL     1     -12.786   9.242  -4.300  1.00  0.00     0.135 A 
ATOM     93  C   UNL     1     -12.614   6.931  -4.946  1.00  0.00     0.135 A 
ATOM     94  F   UNL     1     -12.250  10.368  -3.803  1.00  0.00    -0.206 F 
ATOM     95  C   UNL     1     -14.134   9.247  -4.641  1.00  0.00     0.059 A 
ATOM     96  C   UNL     1     -13.956   6.920  -5.312  1.00  0.00     0.059 A 
ATOM     97  F   UNL     1     -11.906   5.800  -5.097  1.00  0.00    -0.206 F 
ATOM     98  C   UNL     1     -14.712   8.079  -5.141  1.00  0.00     0.060 A 
BRANCH  98  99
ATOM     99  S   UNL     1     -16.462   8.097  -5.584  1.00  0.00     0.124 S 
ATOM    100  O   UNL     1     -17.098   8.045  -4.271  1.00  0.00    -0.237 OA
ATOM    101  O   UNL     1     -16.594   9.361  -6.302  1.00  0.00    -0.237 OA
ATOM    102  O   UNL     1     -16.617   6.900  -6.405  1.00  0.00    -0.744 OA
ENDBRANCH  98  99
ENDBRANCH  66  91
ENDBRANCH  40  41
ENDBRANCH  33  35
ENDBRANCH  32  33
ENDBRANCH  31  32
ENDBRANCH   1  31
TORSDOF 19
