REMARK SMILES Cc1cc(C(=O)OCCOC(=O)c2ccc(-c3c4nc(c(-c5c(F)cc(S(=O)(=O)[O-])cc5F)c5ccc([nH]5)c(-c5c(F)cc(S(=O)(=O)[O-])cc5F)c5nc(c(-c6c(F)cc(S(=O)(=O)[O-])cc6F)c6ccc3[nH]6)C=C5)C=C4)cc2)ccc1NS(=O)(=O)c1c(F)cccc1F
REMARK SMILES IDX 8 1 7 2 5 3 6 4 4 5 1 6 2 7 3 8 81 9 80 10 79 11 82 12 83 14
REMARK SMILES IDX 84 15 85 16 86 17 87 18 92 19 88 20 89 21 91 22 93 23 90 24
REMARK SMILES IDX 9 25 10 26 11 27 12 28 13 29 14 30 78 31 15 32 77 33 16 34
REMARK SMILES IDX 17 35 18 36 71 37 19 38 76 39 70 40 72 41 20 42 75 43 69 44
REMARK SMILES IDX 68 45 21 47 55 48 34 49 54 50 35 51 38 52 53 53 73 54 36 55
REMARK SMILES IDX 37 56 52 58 74 59 39 60 22 61 23 62 32 63 24 64 25 65 31 66
REMARK SMILES IDX 33 67 26 68 27 69 28 70 29 71 30 72 56 73 57 74 66 75 58 76
REMARK SMILES IDX 59 77 65 78 67 79 60 80 61 81 62 82 63 83 64 84 40 85 41 86
REMARK SMILES IDX 50 87 42 88 43 89 49 90 51 91 44 92 45 93 46 94 47 95 48 96
REMARK H PARENT 82 13 72 46 38 57
REMARK Flexibility Score: inf
ROOT
ATOM      1  C   UNL     1      -4.182  -2.438  -1.893  1.00  0.00     0.275 C 
ENDROOT
BRANCH   1   2
ATOM      2  O   UNL     1      -2.994  -1.663  -1.655  1.00  0.00    -0.458 OA
BRANCH   2   3
ATOM      3  C   UNL     1      -3.154  -0.751  -0.660  1.00  0.00     0.338 C 
ATOM      4  O   UNL     1      -4.242  -0.433  -0.193  1.00  0.00    -0.246 OA
BRANCH   3   5
ATOM      5  C   UNL     1      -1.894  -0.100  -0.198  1.00  0.00     0.060 A 
ATOM      6  C   UNL     1       1.831   0.179  -0.807  1.00  0.00     0.046 C 
ATOM      7  C   UNL     1       0.416   0.573  -0.473  1.00  0.00    -0.026 A 
ATOM      8  C   UNL     1      -0.647  -0.282  -0.800  1.00  0.00     0.021 A 
ATOM      9  C   UNL     1       0.128   1.712   0.292  1.00  0.00     0.052 A 
ATOM     10  C   UNL     1      -0.960   1.695   1.151  1.00  0.00     0.028 A 
ATOM     11  C   UNL     1      -1.989   0.792   0.885  1.00  0.00     0.018 A 
BRANCH   9  12
ATOM     12  N   UNL     1       0.837   2.919  -0.009  1.00  0.00    -0.279 N 
ATOM     13  H   UNL     1       1.801   2.865  -0.201  1.00  0.00     0.180 HD
BRANCH  12  14
ATOM     14  S   UNL     1       0.079   4.442  -0.049  1.00  0.00     0.267 S 
ATOM     15  O   UNL     1       0.264   4.984   1.284  1.00  0.00    -0.201 OA
ATOM     16  O   UNL     1       0.635   5.129  -1.196  1.00  0.00    -0.201 OA
BRANCH  14  17
ATOM     17  C   UNL     1      -1.653   4.310  -0.337  1.00  0.00     0.158 A 
ATOM     18  C   UNL     1      -2.511   5.120   0.402  1.00  0.00     0.146 A 
ATOM     19  C   UNL     1      -2.203   3.347  -1.168  1.00  0.00     0.146 A 
ATOM     20  F   UNL     1      -2.053   6.170   1.097  1.00  0.00    -0.205 F 
ATOM     21  C   UNL     1      -3.885   4.880   0.428  1.00  0.00     0.041 A 
ATOM     22  C   UNL     1      -3.576   3.071  -1.122  1.00  0.00     0.041 A 
ATOM     23  F   UNL     1      -1.438   2.613  -1.985  1.00  0.00    -0.205 F 
ATOM     24  C   UNL     1      -4.416   3.818  -0.297  1.00  0.00     0.006 A 
ENDBRANCH  14  17
ENDBRANCH  12  14
ENDBRANCH   9  12
ENDBRANCH   3   5
ENDBRANCH   2   3
ENDBRANCH   1   2
BRANCH   1  25
ATOM     25  C   UNL     1      -4.020  -3.582  -2.922  1.00  0.00     0.275 C 
BRANCH  25  26
ATOM     26  O   UNL     1      -2.952  -4.545  -2.791  1.00  0.00    -0.458 OA
BRANCH  26  27
ATOM     27  C   UNL     1      -1.765  -4.089  -2.303  1.00  0.00     0.338 C 
ATOM     28  O   UNL     1      -0.983  -3.424  -2.952  1.00  0.00    -0.246 OA
BRANCH  27  29
ATOM     29  C   UNL     1      -1.803  -4.239  -0.819  1.00  0.00     0.060 A 
ATOM     30  C   UNL     1      -0.952  -3.450  -0.034  1.00  0.00     0.016 A 
ATOM     31  C   UNL     1      -2.930  -4.845  -0.258  1.00  0.00     0.016 A 
ATOM     32  C   UNL     1      -1.305  -3.143   1.277  1.00  0.00     0.010 A 
ATOM     33  C   UNL     1      -3.361  -4.420   0.969  1.00  0.00     0.010 A 
ATOM     34  C   UNL     1      -2.535  -3.596   1.746  1.00  0.00    -0.014 A 
BRANCH  34  35
ATOM     35  C   UNL     1      -2.919  -3.589   3.146  1.00  0.00     0.031 A 
ATOM     36  C   UNL     1      -3.553  -2.435   3.796  1.00  0.00     0.074 A 
ATOM     37  C   UNL     1      -2.757  -4.818   3.680  1.00  0.00     0.049 A 
ATOM     38  N   UNL     1      -3.575  -2.239   5.066  1.00  0.00    -0.248 NA
ATOM     39  C   UNL     1      -4.196  -1.355   3.060  1.00  0.00     0.031 C 
ATOM     40  C   UNL     1      -3.227  -5.407   4.913  1.00  0.00     0.029 A 
ATOM     41  N   UNL     1      -1.902  -5.792   3.143  1.00  0.00    -0.354 N 
ATOM     42  C   UNL     1      -4.467  -1.212   5.327  1.00  0.00     0.074 A 
ATOM     43  C   UNL     1      -4.703  -0.602   4.045  1.00  0.00     0.031 C 
ATOM     44  C   UNL     1      -2.438  -6.465   5.195  1.00  0.00     0.029 A 
ATOM     45  C   UNL     1      -1.356  -6.489   4.209  1.00  0.00     0.049 A 
ATOM     46  H   UNL     1      -1.724  -5.951   2.188  1.00  0.00     0.167 HD
ATOM     47  C   UNL     1      -5.026  -1.139   6.574  1.00  0.00     0.037 A 
ATOM     48  C   UNL     1      -0.031  -6.268   4.463  1.00  0.00     0.037 A 
ATOM     49  C   UNL     1      -4.438  -2.192   7.404  1.00  0.00     0.049 A 
ATOM     50  C   UNL     1       0.106  -5.536   5.775  1.00  0.00     0.074 A 
ATOM     51  C   UNL     1      -4.851  -3.492   7.647  1.00  0.00     0.029 A 
ATOM     52  N   UNL     1      -3.092  -2.127   7.744  1.00  0.00    -0.354 N 
ATOM     53  N   UNL     1      -0.730  -4.630   6.215  1.00  0.00    -0.248 NA
ATOM     54  C   UNL     1       1.113  -5.918   6.756  1.00  0.00     0.031 C 
ATOM     55  C   UNL     1      -3.701  -4.243   8.006  1.00  0.00     0.029 A 
ATOM     56  C   UNL     1      -2.603  -3.396   7.998  1.00  0.00     0.049 A 
ATOM     57  H   UNL     1      -2.563  -1.298   7.798  1.00  0.00     0.167 HD
ATOM     58  C   UNL     1      -0.451  -4.382   7.535  1.00  0.00     0.074 A 
ATOM     59  C   UNL     1       0.723  -5.194   7.817  1.00  0.00     0.031 C 
ATOM     60  C   UNL     1      -1.210  -3.595   8.356  1.00  0.00     0.037 A 
BRANCH  47  61
ATOM     61  C   UNL     1      -6.288  -0.387   6.985  1.00  0.00     0.058 A 
ATOM     62  C   UNL     1      -6.993  -0.779   8.151  1.00  0.00     0.135 A 
ATOM     63  C   UNL     1      -6.895   0.673   6.280  1.00  0.00     0.135 A 
ATOM     64  F   UNL     1      -6.515  -1.723   8.975  1.00  0.00    -0.206 F 
ATOM     65  C   UNL     1      -8.224  -0.236   8.532  1.00  0.00     0.059 A 
ATOM     66  C   UNL     1      -8.139   1.222   6.632  1.00  0.00     0.059 A 
ATOM     67  F   UNL     1      -6.298   1.258   5.237  1.00  0.00    -0.206 F 
ATOM     68  C   UNL     1      -8.806   0.751   7.753  1.00  0.00     0.060 A 
BRANCH  68  69
ATOM     69  S   UNL     1     -10.411   1.413   8.242  1.00  0.00     0.124 S 
ATOM     70  O   UNL     1     -11.271   0.239   8.132  1.00  0.00    -0.237 OA
ATOM     71  O   UNL     1     -10.151   1.884   9.598  1.00  0.00    -0.237 OA
ATOM     72  O   UNL     1     -10.662   2.461   7.256  1.00  0.00    -0.744 OA
ENDBRANCH  68  69
ENDBRANCH  47  61
BRANCH  48  73
ATOM     73  C   UNL     1       0.825  -6.096   3.233  1.00  0.00     0.058 A 
ATOM     74  C   UNL     1       0.773  -7.108   2.243  1.00  0.00     0.135 A 
ATOM     75  C   UNL     1       1.463  -4.903   2.859  1.00  0.00     0.135 A 
ATOM     76  F   UNL     1       0.194  -8.288   2.522  1.00  0.00    -0.206 F 
ATOM     77  C   UNL     1       1.212  -6.912   0.934  1.00  0.00     0.059 A 
ATOM     78  C   UNL     1       1.936  -4.691   1.550  1.00  0.00     0.059 A 
ATOM     79  F   UNL     1       1.568  -3.889   3.730  1.00  0.00    -0.206 F 
ATOM     80  C   UNL     1       1.769  -5.687   0.585  1.00  0.00     0.060 A 
BRANCH  80  81
ATOM     81  S   UNL     1       2.087  -5.366  -1.173  1.00  0.00     0.124 S 
ATOM     82  O   UNL     1       3.325  -6.104  -1.397  1.00  0.00    -0.237 OA
ATOM     83  O   UNL     1       0.893  -5.931  -1.799  1.00  0.00    -0.237 OA
ATOM     84  O   UNL     1       2.197  -3.912  -1.230  1.00  0.00    -0.744 OA
ENDBRANCH  80  81
ENDBRANCH  48  73
BRANCH  60  85
ATOM     85  C   UNL     1      -0.721  -3.037   9.667  1.00  0.00     0.058 A 
ATOM     86  C   UNL     1       0.634  -2.776   9.924  1.00  0.00     0.135 A 
ATOM     87  C   UNL     1      -1.633  -2.590  10.653  1.00  0.00     0.135 A 
ATOM     88  F   UNL     1       1.582  -3.019   9.007  1.00  0.00    -0.206 F 
ATOM     89  C   UNL     1       1.069  -2.219  11.120  1.00  0.00     0.059 A 
ATOM     90  C   UNL     1      -1.225  -1.960  11.822  1.00  0.00     0.059 A 
ATOM     91  F   UNL     1      -2.959  -2.732  10.509  1.00  0.00    -0.206 F 
ATOM     92  C   UNL     1       0.132  -1.820  12.066  1.00  0.00     0.060 A 
BRANCH  92  93
ATOM     93  S   UNL     1       0.694  -1.087  13.607  1.00  0.00     0.124 S 
ATOM     94  O   UNL     1       0.892  -2.276  14.430  1.00  0.00    -0.237 OA
ATOM     95  O   UNL     1       1.911  -0.387  13.206  1.00  0.00    -0.237 OA
ATOM     96  O   UNL     1      -0.419  -0.226  13.993  1.00  0.00    -0.744 OA
ENDBRANCH  92  93
ENDBRANCH  60  85
ENDBRANCH  34  35
ENDBRANCH  27  29
ENDBRANCH  26  27
ENDBRANCH  25  26
ENDBRANCH   1  25
TORSDOF 17
