REMARK SMILES CCN(C)C(=O)Cn1ccc2c(C(=O)OCCOC(=O)c3ccc(-c4c5nc(c(-c6c(F)cc(S(=O)(=O)[O-])cc6F)c6ccc([nH]6)c(-c6c(F)cc(S(=O)(=O)[O-])cc6F)c6nc(c(-c7c(F)cc(S(=O)(=O)[O-])cc7F)c7ccc4[nH]7)C=C6)C=C5)cc3)cccc21
REMARK SMILES IDX 16 1 15 2 13 3 14 4 12 5 8 6 9 7 90 8 10 9 11 10 89 11 88 12
REMARK SMILES IDX 87 13 7 14 5 15 6 16 3 17 4 18 2 19 1 20 17 21 18 22 19 23
REMARK SMILES IDX 20 24 21 25 22 26 86 27 23 28 85 29 24 30 25 31 26 32 79 33
REMARK SMILES IDX 27 34 84 35 78 36 80 37 28 38 83 39 77 40 76 41 29 43 63 44
REMARK SMILES IDX 42 45 62 46 43 47 46 48 61 49 81 50 44 51 45 52 60 54 82 55
REMARK SMILES IDX 47 56 30 57 31 58 40 59 32 60 33 61 39 62 41 63 34 64 35 65
REMARK SMILES IDX 36 66 37 67 38 68 64 69 65 70 74 71 66 72 67 73 73 74 75 75
REMARK SMILES IDX 68 76 69 77 70 78 71 79 72 80 48 81 49 82 58 83 50 84 51 85
REMARK SMILES IDX 57 86 59 87 52 88 53 89 54 90 55 91 56 92
REMARK H PARENT 80 42 46 53
REMARK Flexibility Score: inf
ROOT
ATOM      1  C   UNL     1       1.799   6.558   6.214  1.00  0.00     0.275 C 
ENDROOT
BRANCH   1   2
ATOM      2  O   UNL     1       2.066   5.721   5.056  1.00  0.00    -0.458 OA
BRANCH   2   3
ATOM      3  C   UNL     1       2.973   4.724   5.230  1.00  0.00     0.338 C 
ATOM      4  O   UNL     1       3.529   4.467   6.293  1.00  0.00    -0.246 OA
BRANCH   3   5
ATOM      5  C   UNL     1       3.179   3.937   3.975  1.00  0.00     0.069 A 
ATOM      6  N   UNL     1       3.586   0.416   3.370  1.00  0.00    -0.338 N 
ATOM      7  C   UNL     1       3.753   0.420   4.725  1.00  0.00     0.087 A 
ATOM      8  C   UNL     1       3.533   1.729   2.925  1.00  0.00     0.049 A 
ATOM      9  C   UNL     1       3.510   1.691   5.152  1.00  0.00     0.029 A 
ATOM     10  C   UNL     1       3.365   2.540   4.057  1.00  0.00     0.014 A 
ATOM     11  C   UNL     1       3.649   2.317   1.663  1.00  0.00     0.027 A 
ATOM     12  C   UNL     1       3.586   3.724   1.596  1.00  0.00     0.003 A 
ATOM     13  C   UNL     1       3.326   4.523   2.719  1.00  0.00     0.016 A 
BRANCH   6  14
ATOM     14  C   UNL     1       3.588  -0.855   2.660  1.00  0.00     0.222 C 
BRANCH  14  15
ATOM     15  C   UNL     1       2.659  -0.957   1.479  1.00  0.00     0.242 C 
ATOM     16  O   UNL     1       3.140  -1.012   0.341  1.00  0.00    -0.273 OA
BRANCH  15  17
ATOM     17  N   UNL     1       1.281  -1.045   1.686  1.00  0.00    -0.344 N 
ATOM     18  C   UNL     1       0.631  -1.028   2.992  1.00  0.00     0.146 C 
BRANCH  17  19
ATOM     19  C   UNL     1       0.432  -1.110   0.499  1.00  0.00     0.115 C 
ATOM     20  C   UNL     1       0.415   0.206  -0.267  1.00  0.00     0.027 C 
ENDBRANCH  17  19
ENDBRANCH  15  17
ENDBRANCH  14  15
ENDBRANCH   6  14
ENDBRANCH   3   5
ENDBRANCH   2   3
ENDBRANCH   1   2
BRANCH   1  21
ATOM     21  C   UNL     1       0.331   6.472   6.651  1.00  0.00     0.275 C 
BRANCH  21  22
ATOM     22  O   UNL     1       0.187   5.366   7.554  1.00  0.00    -0.458 OA
BRANCH  22  23
ATOM     23  C   UNL     1      -0.415   4.268   7.068  1.00  0.00     0.338 C 
ATOM     24  O   UNL     1      -1.232   4.227   6.142  1.00  0.00    -0.246 OA
BRANCH  23  25
ATOM     25  C   UNL     1       0.291   3.093   7.614  1.00  0.00     0.060 A 
ATOM     26  C   UNL     1       1.073   3.146   8.781  1.00  0.00     0.016 A 
ATOM     27  C   UNL     1       0.350   1.979   6.791  1.00  0.00     0.016 A 
ATOM     28  C   UNL     1       2.050   2.172   9.027  1.00  0.00     0.010 A 
ATOM     29  C   UNL     1       1.297   1.006   7.064  1.00  0.00     0.010 A 
ATOM     30  C   UNL     1       2.231   1.135   8.116  1.00  0.00    -0.014 A 
BRANCH  30  31
ATOM     31  C   UNL     1       3.348   0.159   8.219  1.00  0.00     0.031 A 
ATOM     32  C   UNL     1       2.873  -1.239   8.362  1.00  0.00     0.074 A 
ATOM     33  C   UNL     1       4.684   0.346   8.011  1.00  0.00     0.049 A 
ATOM     34  N   UNL     1       2.731  -1.873   9.480  1.00  0.00    -0.248 NA
ATOM     35  C   UNL     1       2.336  -1.968   7.199  1.00  0.00     0.031 C 
ATOM     36  C   UNL     1       5.398   1.558   7.577  1.00  0.00     0.029 A 
ATOM     37  N   UNL     1       5.699  -0.589   8.004  1.00  0.00    -0.354 N 
ATOM     38  C   UNL     1       2.343  -3.150   9.115  1.00  0.00     0.074 A 
ATOM     39  C   UNL     1       1.823  -3.053   7.780  1.00  0.00     0.031 C 
ATOM     40  C   UNL     1       6.627   1.232   7.101  1.00  0.00     0.029 A 
ATOM     41  C   UNL     1       6.900  -0.156   7.426  1.00  0.00     0.049 A 
ATOM     42  H   UNL     1       5.587  -1.494   8.376  1.00  0.00     0.167 HD
ATOM     43  C   UNL     1       2.806  -4.243   9.775  1.00  0.00     0.037 A 
ATOM     44  C   UNL     1       8.069  -0.845   7.302  1.00  0.00     0.037 A 
ATOM     45  C   UNL     1       3.514  -3.871  10.973  1.00  0.00     0.049 A 
ATOM     46  C   UNL     1       8.078  -1.826   8.410  1.00  0.00     0.074 A 
ATOM     47  C   UNL     1       3.188  -3.213  12.140  1.00  0.00     0.029 A 
ATOM     48  N   UNL     1       4.882  -3.837  10.858  1.00  0.00    -0.354 N 
ATOM     49  N   UNL     1       8.145  -1.491   9.669  1.00  0.00    -0.248 NA
ATOM     50  C   UNL     1       7.763  -3.225   8.151  1.00  0.00     0.031 C 
ATOM     51  C   UNL     1       4.376  -2.551  12.563  1.00  0.00     0.029 A 
ATOM     52  C   UNL     1       5.400  -2.855  11.667  1.00  0.00     0.049 A 
ATOM     53  H   UNL     1       5.415  -4.430  10.280  1.00  0.00     0.167 HD
ATOM     54  C   UNL     1       7.443  -2.483  10.316  1.00  0.00     0.074 A 
ATOM     55  C   UNL     1       7.421  -3.602   9.385  1.00  0.00     0.031 C 
ATOM     56  C   UNL     1       6.657  -2.185  11.386  1.00  0.00     0.037 A 
BRANCH  43  57
ATOM     57  C   UNL     1       2.985  -5.596   9.138  1.00  0.00     0.058 A 
ATOM     58  C   UNL     1       3.110  -6.727   9.964  1.00  0.00     0.135 A 
ATOM     59  C   UNL     1       3.269  -5.800   7.768  1.00  0.00     0.135 A 
ATOM     60  F   UNL     1       2.906  -6.628  11.287  1.00  0.00    -0.206 F 
ATOM     61  C   UNL     1       3.504  -7.968   9.467  1.00  0.00     0.059 A 
ATOM     62  C   UNL     1       3.596  -7.042   7.241  1.00  0.00     0.059 A 
ATOM     63  F   UNL     1       3.339  -4.788   6.893  1.00  0.00    -0.206 F 
ATOM     64  C   UNL     1       3.744  -8.114   8.103  1.00  0.00     0.060 A 
BRANCH  64  65
ATOM     65  S   UNL     1       4.308  -9.700   7.467  1.00  0.00     0.124 S 
ATOM     66  O   UNL     1       5.677  -9.740   7.968  1.00  0.00    -0.237 OA
ATOM     67  O   UNL     1       3.369 -10.627   8.088  1.00  0.00    -0.237 OA
ATOM     68  O   UNL     1       4.165  -9.548   6.022  1.00  0.00    -0.744 OA
ENDBRANCH  64  65
ENDBRANCH  43  57
BRANCH  44  69
ATOM     69  C   UNL     1       9.226  -0.775   6.361  1.00  0.00     0.058 A 
ATOM     70  C   UNL     1      10.464  -1.376   6.685  1.00  0.00     0.135 A 
ATOM     71  C   UNL     1       9.056  -0.419   5.011  1.00  0.00     0.135 A 
ATOM     72  F   UNL     1      10.727  -1.754   7.945  1.00  0.00    -0.206 F 
ATOM     73  C   UNL     1      11.431  -1.686   5.723  1.00  0.00     0.059 A 
ATOM     74  C   UNL     1      10.016  -0.711   4.029  1.00  0.00     0.059 A 
ATOM     75  F   UNL     1       7.906   0.131   4.594  1.00  0.00    -0.206 F 
ATOM     76  C   UNL     1      11.184  -1.380   4.388  1.00  0.00     0.060 A 
BRANCH  76  77
ATOM     77  S   UNL     1      12.339  -1.986   3.130  1.00  0.00     0.124 S 
ATOM     78  O   UNL     1      13.544  -1.218   3.422  1.00  0.00    -0.237 OA
ATOM     79  O   UNL     1      12.406  -3.412   3.437  1.00  0.00    -0.237 OA
ATOM     80  O   UNL     1      11.676  -1.655   1.872  1.00  0.00    -0.744 OA
ENDBRANCH  76  77
ENDBRANCH  44  69
BRANCH  56  81
ATOM     81  C   UNL     1       6.987  -0.956  12.196  1.00  0.00     0.058 A 
ATOM     82  C   UNL     1       6.907   0.369  11.732  1.00  0.00     0.135 A 
ATOM     83  C   UNL     1       7.260  -1.135  13.562  1.00  0.00     0.135 A 
ATOM     84  F   UNL     1       6.593   0.641  10.461  1.00  0.00    -0.206 F 
ATOM     85  C   UNL     1       7.085   1.460  12.585  1.00  0.00     0.059 A 
ATOM     86  C   UNL     1       7.405  -0.063  14.437  1.00  0.00     0.059 A 
ATOM     87  F   UNL     1       7.323  -2.375  14.076  1.00  0.00    -0.206 F 
ATOM     88  C   UNL     1       7.313   1.235  13.941  1.00  0.00     0.060 A 
BRANCH  88  89
ATOM     89  S   UNL     1       7.378   2.645  15.067  1.00  0.00     0.124 S 
ATOM     90  O   UNL     1       8.666   3.245  14.738  1.00  0.00    -0.237 OA
ATOM     91  O   UNL     1       6.201   3.417  14.678  1.00  0.00    -0.237 OA
ATOM     92  O   UNL     1       7.296   2.030  16.390  1.00  0.00    -0.744 OA
ENDBRANCH  88  89
ENDBRANCH  56  81
ENDBRANCH  30  31
ENDBRANCH  23  25
ENDBRANCH  22  23
ENDBRANCH  21  22
ENDBRANCH   1  21
TORSDOF 18
