REMARK SMILES C=CCN(CC(=O)OCCOC(=O)c1ccc(-c2c3nc(c(-c4c(F)cc(S(=O)(=O)[O-])cc4F)c4ccc([nH]4)c(-c4c(F)cc(S(=O)(=O)[O-])cc4F)c4nc(c(-c5c(F)cc(S(=O)(=O)[O-])cc5F)c5ccc2[nH]5)C=C4)C=C3)cc1)C(=O)N1CC[C@@H]([NH+]2CCCCC2)C1
REMARK SMILES IDX 9 1 8 2 6 3 7 4 5 5 4 6 3 7 2 8 1 9 80 10 81 11 82 12 83 13
REMARK SMILES IDX 92 14 84 15 85 16 86 17 87 18 91 19 88 21 90 22 89 23 10 24
REMARK SMILES IDX 11 25 12 26 13 27 14 28 15 29 79 30 16 31 78 32 17 33 18 34
REMARK SMILES IDX 19 35 72 36 20 37 77 38 71 39 73 40 21 41 76 42 70 43 69 44
REMARK SMILES IDX 22 46 56 47 35 48 55 49 36 50 39 51 54 52 74 53 37 54 38 55
REMARK SMILES IDX 53 57 75 58 40 59 23 60 24 61 33 62 25 63 26 64 32 65 34 66
REMARK SMILES IDX 27 67 28 68 29 69 30 70 31 71 57 72 58 73 67 74 59 75 60 76
REMARK SMILES IDX 66 77 68 78 61 79 62 80 63 81 64 82 65 83 41 84 42 85 51 86
REMARK SMILES IDX 43 87 44 88 50 89 52 90 45 91 46 92 47 93 48 94 49 95
REMARK H PARENT 86 20 73 45 39 56
REMARK Flexibility Score: inf
ROOT
ATOM      1  C   UNL     1      -5.623  -0.946  -2.172  1.00  0.00     0.274 C 
ENDROOT
BRANCH   1   2
ATOM      2  O   UNL     1      -4.191  -0.802  -2.123  1.00  0.00    -0.461 OA
BRANCH   2   3
ATOM      3  C   UNL     1      -3.531  -1.714  -1.361  1.00  0.00     0.325 C 
ATOM      4  O   UNL     1      -4.071  -2.501  -0.590  1.00  0.00    -0.250 OA
BRANCH   3   5
ATOM      5  C   UNL     1      -2.033  -1.755  -1.668  1.00  0.00     0.244 C 
BRANCH   5   6
ATOM      6  N   UNL     1      -1.315  -0.465  -1.634  1.00  0.00    -0.310 N 
BRANCH   6   7
ATOM      7  C   UNL     1      -0.884  -0.114  -0.281  1.00  0.00     0.149 C 
BRANCH   7   8
ATOM      8  C   UNL     1       0.485  -0.692  -0.039  1.00  0.00    -0.013 C 
ATOM      9  C   UNL     1       1.520   0.018   0.428  1.00  0.00     0.006 C 
ENDBRANCH   7   8
ENDBRANCH   6   7
BRANCH   6  10
ATOM     10  C   UNL     1      -0.898   0.403  -2.634  1.00  0.00     0.321 C 
ATOM     11  O   UNL     1      -0.171   1.363  -2.346  1.00  0.00    -0.248 OA
BRANCH  10  12
ATOM     12  N   UNL     1      -1.251   0.250  -3.946  1.00  0.00    -0.318 N 
ATOM     13  C   UNL     1      -2.242  -0.584  -4.542  1.00  0.00     0.128 C 
ATOM     14  C   UNL     1      -0.711   1.159  -4.974  1.00  0.00     0.186 C 
ATOM     15  C   UNL     1      -1.966  -0.574  -6.024  1.00  0.00     0.088 C 
ATOM     16  C   UNL     1      -1.344   0.766  -6.342  1.00  0.00     0.205 C 
BRANCH  16  17
ATOM     17  N   UNL     1      -2.226   1.684  -7.084  1.00  0.00    -0.331 N 
ATOM     18  C   UNL     1      -3.221   2.459  -6.367  1.00  0.00     0.262 C 
ATOM     19  C   UNL     1      -2.713   1.186  -8.381  1.00  0.00     0.262 C 
ATOM     20  H   UNL     1      -1.526   2.400  -7.281  1.00  0.00     0.348 HD
ATOM     21  C   UNL     1      -4.538   1.729  -6.167  1.00  0.00     0.062 C 
ATOM     22  C   UNL     1      -4.177   0.715  -8.483  1.00  0.00     0.062 C 
ATOM     23  C   UNL     1      -5.168   1.286  -7.474  1.00  0.00     0.012 C 
ENDBRANCH  16  17
ENDBRANCH  10  12
ENDBRANCH   6  10
ENDBRANCH   5   6
ENDBRANCH   3   5
ENDBRANCH   2   3
ENDBRANCH   1   2
BRANCH   1  24
ATOM     24  C   UNL     1      -6.104  -0.703  -3.608  1.00  0.00     0.275 C 
BRANCH  24  25
ATOM     25  O   UNL     1      -5.471  -1.469  -4.665  1.00  0.00    -0.458 OA
BRANCH  25  26
ATOM     26  C   UNL     1      -5.045  -2.734  -4.454  1.00  0.00     0.338 C 
ATOM     27  O   UNL     1      -5.202  -3.406  -3.448  1.00  0.00    -0.246 OA
BRANCH  26  28
ATOM     28  C   UNL     1      -4.130  -3.133  -5.548  1.00  0.00     0.060 A 
ATOM     29  C   UNL     1      -2.954  -3.816  -5.199  1.00  0.00     0.016 A 
ATOM     30  C   UNL     1      -4.360  -2.773  -6.879  1.00  0.00     0.016 A 
ATOM     31  C   UNL     1      -1.979  -4.091  -6.162  1.00  0.00     0.010 A 
ATOM     32  C   UNL     1      -3.401  -3.081  -7.854  1.00  0.00     0.010 A 
ATOM     33  C   UNL     1      -2.211  -3.754  -7.504  1.00  0.00    -0.014 A 
BRANCH  33  34
ATOM     34  C   UNL     1      -1.488  -4.486  -8.569  1.00  0.00     0.031 A 
ATOM     35  C   UNL     1      -0.368  -3.923  -9.391  1.00  0.00     0.074 A 
ATOM     36  C   UNL     1      -2.022  -5.694  -8.831  1.00  0.00     0.049 A 
ATOM     37  N   UNL     1       0.192  -4.440 -10.455  1.00  0.00    -0.248 NA
ATOM     38  C   UNL     1       0.212  -2.638  -8.979  1.00  0.00     0.031 C 
ATOM     39  C   UNL     1      -3.116  -6.304  -8.059  1.00  0.00     0.029 A 
ATOM     40  N   UNL     1      -1.794  -6.585  -9.839  1.00  0.00    -0.354 N 
ATOM     41  C   UNL     1       1.194  -3.556 -10.842  1.00  0.00     0.074 A 
ATOM     42  C   UNL     1       1.155  -2.454  -9.901  1.00  0.00     0.031 C 
ATOM     43  C   UNL     1      -3.530  -7.412  -8.676  1.00  0.00     0.029 A 
ATOM     44  C   UNL     1      -2.746  -7.575  -9.886  1.00  0.00     0.049 A 
ATOM     45  H   UNL     1      -1.034  -6.526 -10.462  1.00  0.00     0.167 HD
ATOM     46  C   UNL     1       2.055  -3.677 -11.886  1.00  0.00     0.037 A 
ATOM     47  C   UNL     1      -3.007  -8.489 -10.831  1.00  0.00     0.037 A 
ATOM     48  C   UNL     1       2.042  -4.802 -12.797  1.00  0.00     0.049 A 
ATOM     49  C   UNL     1      -2.091  -8.566 -12.001  1.00  0.00     0.074 A 
ATOM     50  C   UNL     1       2.922  -5.090 -13.827  1.00  0.00     0.029 A 
ATOM     51  N   UNL     1       1.086  -5.811 -12.803  1.00  0.00    -0.354 N 
ATOM     52  N   UNL     1      -1.091  -7.774 -12.303  1.00  0.00    -0.248 NA
ATOM     53  C   UNL     1      -2.305  -9.673 -12.933  1.00  0.00     0.031 C 
ATOM     54  C   UNL     1       2.462  -6.231 -14.493  1.00  0.00     0.029 A 
ATOM     55  C   UNL     1       1.327  -6.692 -13.847  1.00  0.00     0.049 A 
ATOM     56  H   UNL     1       0.345  -5.889 -12.160  1.00  0.00     0.167 HD
ATOM     57  C   UNL     1      -0.535  -8.299 -13.456  1.00  0.00     0.074 A 
ATOM     58  C   UNL     1      -1.307  -9.485 -13.785  1.00  0.00     0.031 C 
ATOM     59  C   UNL     1       0.523  -7.846 -14.171  1.00  0.00     0.037 A 
BRANCH  46  60
ATOM     60  C   UNL     1       3.080  -2.593 -12.133  1.00  0.00     0.058 A 
ATOM     61  C   UNL     1       4.189  -2.410 -11.292  1.00  0.00     0.135 A 
ATOM     62  C   UNL     1       3.025  -1.815 -13.304  1.00  0.00     0.135 A 
ATOM     63  F   UNL     1       4.303  -3.122 -10.160  1.00  0.00    -0.206 F 
ATOM     64  C   UNL     1       5.198  -1.495 -11.597  1.00  0.00     0.059 A 
ATOM     65  C   UNL     1       4.033  -0.911 -13.641  1.00  0.00     0.059 A 
ATOM     66  F   UNL     1       1.995  -1.949 -14.155  1.00  0.00    -0.206 F 
ATOM     67  C   UNL     1       5.114  -0.754 -12.777  1.00  0.00     0.060 A 
BRANCH  67  68
ATOM     68  S   UNL     1       6.449   0.398 -13.175  1.00  0.00     0.124 S 
ATOM     69  O   UNL     1       6.237   1.447 -12.182  1.00  0.00    -0.237 OA
ATOM     70  O   UNL     1       7.640  -0.424 -12.982  1.00  0.00    -0.237 OA
ATOM     71  O   UNL     1       6.173   0.779 -14.557  1.00  0.00    -0.744 OA
ENDBRANCH  67  68
ENDBRANCH  46  60
BRANCH  47  72
ATOM     72  C   UNL     1      -4.172  -9.382 -10.645  1.00  0.00     0.058 A 
ATOM     73  C   UNL     1      -3.991 -10.694 -10.193  1.00  0.00     0.135 A 
ATOM     74  C   UNL     1      -5.484  -8.891 -10.756  1.00  0.00     0.135 A 
ATOM     75  F   UNL     1      -2.752 -11.187 -10.046  1.00  0.00    -0.206 F 
ATOM     76  C   UNL     1      -5.074 -11.497  -9.862  1.00  0.00     0.059 A 
ATOM     77  C   UNL     1      -6.582  -9.670 -10.410  1.00  0.00     0.059 A 
ATOM     78  F   UNL     1      -5.699  -7.621 -11.133  1.00  0.00    -0.206 F 
ATOM     79  C   UNL     1      -6.365 -10.974  -9.968  1.00  0.00     0.060 A 
BRANCH  79  80
ATOM     80  S   UNL     1      -7.753 -12.009  -9.461  1.00  0.00     0.124 S 
ATOM     81  O   UNL     1      -7.801 -12.982 -10.547  1.00  0.00    -0.237 OA
ATOM     82  O   UNL     1      -7.301 -12.516  -8.169  1.00  0.00    -0.237 OA
ATOM     83  O   UNL     1      -8.869 -11.071  -9.403  1.00  0.00    -0.744 OA
ENDBRANCH  79  80
ENDBRANCH  47  72
BRANCH  59  84
ATOM     84  C   UNL     1       0.886  -8.642 -15.389  1.00  0.00     0.058 A 
ATOM     85  C   UNL     1       0.092  -8.601 -16.545  1.00  0.00     0.135 A 
ATOM     86  C   UNL     1       2.041  -9.438 -15.405  1.00  0.00     0.135 A 
ATOM     87  F   UNL     1      -1.034  -7.872 -16.567  1.00  0.00    -0.206 F 
ATOM     88  C   UNL     1       0.422  -9.340 -17.673  1.00  0.00     0.059 A 
ATOM     89  C   UNL     1       2.406 -10.164 -16.533  1.00  0.00     0.059 A 
ATOM     90  F   UNL     1       2.829  -9.511 -14.320  1.00  0.00    -0.206 F 
ATOM     91  C   UNL     1       1.584 -10.115 -17.659  1.00  0.00     0.060 A 
BRANCH  91  92
ATOM     92  S   UNL     1       2.019 -11.035 -19.148  1.00  0.00     0.124 S 
ATOM     93  O   UNL     1       1.022 -12.100 -19.137  1.00  0.00    -0.237 OA
ATOM     94  O   UNL     1       1.861 -10.028 -20.192  1.00  0.00    -0.237 OA
ATOM     95  O   UNL     1       3.393 -11.459 -18.896  1.00  0.00    -0.744 OA
ENDBRANCH  91  92
ENDBRANCH  59  84
ENDBRANCH  33  34
ENDBRANCH  26  28
ENDBRANCH  25  26
ENDBRANCH  24  25
ENDBRANCH   1  24
TORSDOF 20
