REMARK SMILES O=C(COc1ccccc1/C=C1/SC(=S)N(c2ccc(F)c(Cl)c2)C1=O)OCCOC(=O)c1ccc(-c2c3nc(c(-c4c(F)cc(S(=O)(=O)[O-])cc4F)c4ccc([nH]4)c(-c4c(F)cc(S(=O)(=O)[O-])cc4F)c4nc(c(-c5c(F)cc(S(=O)(=O)[O-])cc5F)c5ccc2[nH]5)C=C4)C=C3)cc1
REMARK SMILES IDX 28 1 27 2 2 3 1 4 3 5 4 6 5 7 6 8 10 9 7 10 9 11 8 12 11 13
REMARK SMILES IDX 12 14 13 15 25 16 14 17 16 18 26 19 15 20 17 21 18 22 24 23
REMARK SMILES IDX 19 24 22 25 20 26 23 27 21 28 29 29 30 30 31 31 32 32 33 33
REMARK SMILES IDX 34 34 98 35 35 36 97 37 36 38 37 39 38 40 91 41 39 42 96 43
REMARK SMILES IDX 90 44 92 45 40 46 95 47 89 48 88 49 41 51 75 52 54 53 74 54
REMARK SMILES IDX 55 55 58 56 73 57 93 58 56 59 57 60 72 62 94 63 59 64 42 65
REMARK SMILES IDX 43 66 52 67 44 68 45 69 51 70 53 71 46 72 47 73 48 74 49 75
REMARK SMILES IDX 50 76 76 77 77 78 86 79 78 80 79 81 85 82 87 83 80 84 81 85
REMARK SMILES IDX 82 86 83 87 84 88 60 89 61 90 70 91 62 92 63 93 69 94 71 95
REMARK SMILES IDX 64 96 65 97 66 98 67 99 68 100
REMARK H PARENT 92 50 58 61
REMARK Flexibility Score: inf
ROOT
ATOM      1  C   UNL     1       4.583  -0.148   1.091  1.00  0.00     0.274 C 
ENDROOT
BRANCH   1   2
ATOM      2  O   UNL     1       3.197   0.189   0.875  1.00  0.00    -0.460 OA
BRANCH   2   3
ATOM      3  C   UNL     1       2.495  -0.120  -0.244  1.00  0.00     0.344 C 
ATOM      4  O   UNL     1       1.266  -0.071  -0.236  1.00  0.00    -0.248 OA
BRANCH   3   5
ATOM      5  C   UNL     1       3.264  -0.436  -1.514  1.00  0.00     0.352 C 
BRANCH   5   6
ATOM      6  O   UNL     1       4.004   0.704  -1.952  1.00  0.00    -0.481 OA
BRANCH   6   7
ATOM      7  C   UNL     1       3.352   1.327  -2.990  1.00  0.00     0.127 A 
ATOM      8  C   UNL     1       3.663   0.913  -4.288  1.00  0.00     0.047 A 
ATOM      9  C   UNL     1       2.428   2.363  -2.761  1.00  0.00     0.018 A 
ATOM     10  C   UNL     1       3.003   1.485  -5.373  1.00  0.00     0.004 A 
ATOM     11  C   UNL     1       1.758   2.912  -3.862  1.00  0.00     0.012 A 
ATOM     12  C   UNL     1       2.044   2.475  -5.160  1.00  0.00     0.001 A 
BRANCH   9  13
ATOM     13  C   UNL     1       2.065   2.838  -1.416  1.00  0.00     0.033 C 
ATOM     14  C   UNL     1       2.906   3.304  -0.482  1.00  0.00     0.081 C 
ATOM     15  S   UNL     1       2.429   3.597   1.144  1.00  0.00    -0.054 SA
ATOM     16  C   UNL     1       4.371   3.532  -0.620  1.00  0.00     0.270 C 
ATOM     17  C   UNL     1       4.098   3.629   1.721  1.00  0.00     0.152 C 
ATOM     18  N   UNL     1       4.973   3.561   0.642  1.00  0.00    -0.261 N 
ATOM     19  O   UNL     1       4.918   3.684  -1.703  1.00  0.00    -0.268 OA
ATOM     20  S   UNL     1       4.416   3.837   3.352  1.00  0.00    -0.051 S 
BRANCH  18  21
ATOM     21  C   UNL     1       6.407   3.534   0.738  1.00  0.00     0.052 A 
ATOM     22  C   UNL     1       7.197   4.264  -0.168  1.00  0.00     0.030 A 
ATOM     23  C   UNL     1       7.069   2.714   1.668  1.00  0.00     0.050 A 
ATOM     24  C   UNL     1       8.592   4.171  -0.158  1.00  0.00     0.043 A 
ATOM     25  C   UNL     1       8.465   2.605   1.664  1.00  0.00     0.078 A 
ATOM     26  C   UNL     1       9.219   3.334   0.752  1.00  0.00     0.141 A 
ATOM     27  Cl  UNL     1       9.228   1.529   2.772  1.00  0.00    -0.081 Cl
ATOM     28  F   UNL     1      10.556   3.237   0.730  1.00  0.00    -0.205 F 
ENDBRANCH  18  21
ENDBRANCH   9  13
ENDBRANCH   6   7
ENDBRANCH   5   6
ENDBRANCH   3   5
ENDBRANCH   2   3
ENDBRANCH   1   2
BRANCH   1  29
ATOM     29  C   UNL     1       4.707  -1.422   1.923  1.00  0.00     0.275 C 
BRANCH  29  30
ATOM     30  O   UNL     1       4.303  -2.535   1.120  1.00  0.00    -0.458 OA
BRANCH  30  31
ATOM     31  C   UNL     1       3.002  -2.902   1.237  1.00  0.00     0.338 C 
ATOM     32  O   UNL     1       2.197  -2.507   2.058  1.00  0.00    -0.246 OA
BRANCH  31  33
ATOM     33  C   UNL     1       2.670  -3.688   0.034  1.00  0.00     0.060 A 
ATOM     34  C   UNL     1       1.446  -3.453  -0.609  1.00  0.00     0.016 A 
ATOM     35  C   UNL     1       3.586  -4.606  -0.485  1.00  0.00     0.016 A 
ATOM     36  C   UNL     1       1.124  -4.160  -1.766  1.00  0.00     0.010 A 
ATOM     37  C   UNL     1       3.260  -5.319  -1.630  1.00  0.00     0.010 A 
ATOM     38  C   UNL     1       2.017  -5.122  -2.253  1.00  0.00    -0.014 A 
BRANCH  38  39
ATOM     39  C   UNL     1       1.598  -6.117  -3.258  1.00  0.00     0.031 A 
ATOM     40  C   UNL     1       1.080  -7.429  -2.748  1.00  0.00     0.074 A 
ATOM     41  C   UNL     1       1.807  -5.908  -4.567  1.00  0.00     0.049 A 
ATOM     42  N   UNL     1       0.871  -8.546  -3.389  1.00  0.00    -0.248 NA
ATOM     43  C   UNL     1       0.793  -7.494  -1.304  1.00  0.00     0.031 C 
ATOM     44  C   UNL     1       2.302  -4.666  -5.158  1.00  0.00     0.029 A 
ATOM     45  N   UNL     1       1.673  -6.762  -5.630  1.00  0.00    -0.354 N 
ATOM     46  C   UNL     1       0.455  -9.454  -2.424  1.00  0.00     0.074 A 
ATOM     47  C   UNL     1       0.457  -8.765  -1.154  1.00  0.00     0.031 C 
ATOM     48  C   UNL     1       2.474  -4.854  -6.478  1.00  0.00     0.029 A 
ATOM     49  C   UNL     1       2.134  -6.237  -6.812  1.00  0.00     0.049 A 
ATOM     50  H   UNL     1       1.284  -7.664  -5.554  1.00  0.00     0.167 HD
ATOM     51  C   UNL     1       0.109 -10.752  -2.586  1.00  0.00     0.037 A 
ATOM     52  C   UNL     1       2.300  -6.824  -8.014  1.00  0.00     0.037 A 
ATOM     53  C   UNL     1       0.131 -11.425  -3.855  1.00  0.00     0.049 A 
ATOM     54  C   UNL     1       1.925  -8.273  -8.177  1.00  0.00     0.074 A 
ATOM     55  C   UNL     1      -0.222 -12.729  -4.147  1.00  0.00     0.029 A 
ATOM     56  N   UNL     1       0.545 -10.841  -5.044  1.00  0.00    -0.354 N 
ATOM     57  N   UNL     1       1.491  -9.118  -7.270  1.00  0.00    -0.248 NA
ATOM     58  C   UNL     1       2.057  -8.851  -9.521  1.00  0.00     0.031 C 
ATOM     59  C   UNL     1       0.013 -12.944  -5.510  1.00  0.00     0.029 A 
ATOM     60  C   UNL     1       0.471 -11.761  -6.073  1.00  0.00     0.049 A 
ATOM     61  H   UNL     1       0.847  -9.909  -5.141  1.00  0.00     0.167 HD
ATOM     62  C   UNL     1       1.272 -10.318  -7.937  1.00  0.00     0.074 A 
ATOM     63  C   UNL     1       1.625 -10.090  -9.325  1.00  0.00     0.031 C 
ATOM     64  C   UNL     1       0.816 -11.499  -7.450  1.00  0.00     0.037 A 
BRANCH  51  65
ATOM     65  C   UNL     1      -0.269 -11.513  -1.348  1.00  0.00     0.058 A 
ATOM     66  C   UNL     1      -1.466 -11.254  -0.659  1.00  0.00     0.135 A 
ATOM     67  C   UNL     1       0.601 -12.475  -0.812  1.00  0.00     0.135 A 
ATOM     68  F   UNL     1      -2.321 -10.325  -1.116  1.00  0.00    -0.206 F 
ATOM     69  C   UNL     1      -1.762 -11.884   0.545  1.00  0.00     0.059 A 
ATOM     70  C   UNL     1       0.312 -13.138   0.377  1.00  0.00     0.059 A 
ATOM     71  F   UNL     1       1.760 -12.757  -1.427  1.00  0.00    -0.206 F 
ATOM     72  C   UNL     1      -0.860 -12.816   1.061  1.00  0.00     0.060 A 
BRANCH  72  73
ATOM     73  S   UNL     1      -1.227 -13.589   2.650  1.00  0.00     0.124 S 
ATOM     74  O   UNL     1      -0.875 -12.521   3.580  1.00  0.00    -0.237 OA
ATOM     75  O   UNL     1      -2.651 -13.886   2.536  1.00  0.00    -0.237 OA
ATOM     76  O   UNL     1      -0.348 -14.754   2.670  1.00  0.00    -0.744 OA
ENDBRANCH  72  73
ENDBRANCH  51  65
BRANCH  52  77
ATOM     77  C   UNL     1       2.849  -6.031  -9.143  1.00  0.00     0.058 A 
ATOM     78  C   UNL     1       2.017  -5.579 -10.177  1.00  0.00     0.135 A 
ATOM     79  C   UNL     1       4.200  -5.650  -9.176  1.00  0.00     0.135 A 
ATOM     80  F   UNL     1       0.721  -5.925 -10.193  1.00  0.00    -0.206 F 
ATOM     81  C   UNL     1       2.500  -4.768 -11.199  1.00  0.00     0.059 A 
ATOM     82  C   UNL     1       4.703  -4.825 -10.177  1.00  0.00     0.059 A 
ATOM     83  F   UNL     1       5.034  -6.046  -8.201  1.00  0.00    -0.206 F 
ATOM     84  C   UNL     1       3.843  -4.387 -11.184  1.00  0.00     0.060 A 
BRANCH  84  85
ATOM     85  S   UNL     1       4.433  -3.247 -12.456  1.00  0.00     0.124 S 
ATOM     86  O   UNL     1       4.489  -4.114 -13.626  1.00  0.00    -0.237 OA
ATOM     87  O   UNL     1       3.386  -2.230 -12.463  1.00  0.00    -0.237 OA
ATOM     88  O   UNL     1       5.722  -2.802 -11.934  1.00  0.00    -0.744 OA
ENDBRANCH  84  85
ENDBRANCH  52  77
BRANCH  64  89
ATOM     89  C   UNL     1       0.625 -12.627  -8.422  1.00  0.00     0.058 A 
ATOM     90  C   UNL     1       1.707 -13.379  -8.901  1.00  0.00     0.135 A 
ATOM     91  C   UNL     1      -0.671 -13.024  -8.792  1.00  0.00     0.135 A 
ATOM     92  F   UNL     1       2.964 -13.035  -8.579  1.00  0.00    -0.206 F 
ATOM     93  C   UNL     1       1.512 -14.488  -9.717  1.00  0.00     0.059 A 
ATOM     94  C   UNL     1      -0.890 -14.142  -9.589  1.00  0.00     0.059 A 
ATOM     95  F   UNL     1      -1.739 -12.342  -8.349  1.00  0.00    -0.206 F 
ATOM     96  C   UNL     1       0.209 -14.867 -10.050  1.00  0.00     0.060 A 
BRANCH  96  97
ATOM     97  S   UNL     1      -0.037 -16.350 -11.049  1.00  0.00     0.124 S 
ATOM     98  O   UNL     1       0.330 -15.873 -12.378  1.00  0.00    -0.237 OA
ATOM     99  O   UNL     1       0.889 -17.298 -10.437  1.00  0.00    -0.237 OA
ATOM    100  O   UNL     1      -1.452 -16.656 -10.859  1.00  0.00    -0.744 OA
ENDBRANCH  96  97
ENDBRANCH  64  89
ENDBRANCH  38  39
ENDBRANCH  31  33
ENDBRANCH  30  31
ENDBRANCH  29  30
ENDBRANCH   1  29
TORSDOF 18
