REMARK SMILES C[C@H]([NH2+]CCc1ccccc1)[C@@H](C)C(=O)OCCOC(=O)c1ccc(-c2c3nc(c(-c4c(F)cc(S(=O)(=O)[O-])cc4F)c4ccc([nH]4)c(-c4c(F)cc(S(=O)(=O)[O-])cc4F)c4nc(c(-c5c(F)cc(S(=O)(=O)[O-])cc5F)c5ccc2[nH]5)C=C4)C=C3)cc1
REMARK SMILES IDX 17 1 16 2 14 3 15 4 12 5 13 6 2 7 1 8 3 9 4 12 5 13 6 14
REMARK SMILES IDX 7 15 11 16 8 17 10 18 9 19 18 20 19 21 20 22 21 23 22 24
REMARK SMILES IDX 23 25 87 26 24 27 86 28 25 29 26 30 27 31 80 32 28 33 85 34
REMARK SMILES IDX 79 35 81 36 29 37 84 38 78 39 77 40 30 42 64 43 43 44 63 45
REMARK SMILES IDX 44 46 47 47 62 48 82 49 45 50 46 51 61 53 83 54 48 55 31 56
REMARK SMILES IDX 32 57 41 58 33 59 34 60 40 61 42 62 35 63 36 64 37 65 38 66
REMARK SMILES IDX 39 67 65 68 66 69 75 70 67 71 68 72 74 73 76 74 69 75 70 76
REMARK SMILES IDX 71 77 72 78 73 79 49 80 50 81 59 82 51 83 52 84 58 85 60 86
REMARK SMILES IDX 53 87 54 88 55 89 56 90 57 91
REMARK H PARENT 3 10 3 11 81 41 47 52
REMARK Flexibility Score: inf
ROOT
ATOM      1  C   UNL     1      -1.610  -1.536   4.858  1.00  0.00     0.274 C 
ENDROOT
BRANCH   1   2
ATOM      2  O   UNL     1      -0.947  -1.438   3.580  1.00  0.00    -0.462 OA
BRANCH   2   3
ATOM      3  C   UNL     1      -1.728  -0.980   2.566  1.00  0.00     0.314 C 
ATOM      4  O   UNL     1      -2.934  -0.774   2.662  1.00  0.00    -0.252 OA
BRANCH   3   5
ATOM      5  C   UNL     1      -0.985  -0.777   1.257  1.00  0.00     0.154 C 
ATOM      6  C   UNL     1      -1.411  -1.921   0.331  1.00  0.00     0.026 C 
BRANCH   5   7
ATOM      7  C   UNL     1       0.556  -0.631   1.360  1.00  0.00     0.193 C 
ATOM      8  C   UNL     1       0.968   0.560   2.239  1.00  0.00     0.076 C 
BRANCH   7   9
ATOM      9  N   UNL     1       1.079  -0.426  -0.004  1.00  0.00    -0.343 N 
ATOM     10  H   UNL     1       0.962   0.557  -0.248  1.00  0.00     0.346 HD
ATOM     11  H   UNL     1       0.553  -1.050  -0.617  1.00  0.00     0.346 HD
BRANCH   9  12
ATOM     12  C   UNL     1       2.491  -0.773  -0.163  1.00  0.00     0.265 C 
BRANCH  12  13
ATOM     13  C   UNL     1       3.014  -0.375  -1.558  1.00  0.00     0.097 C 
BRANCH  13  14
ATOM     14  C   UNL     1       3.005   1.102  -1.898  1.00  0.00    -0.042 A 
ATOM     15  C   UNL     1       2.814   1.491  -3.234  1.00  0.00     0.004 A 
ATOM     16  C   UNL     1       3.232   2.101  -0.941  1.00  0.00     0.004 A 
ATOM     17  C   UNL     1       2.817   2.840  -3.596  1.00  0.00     0.000 A 
ATOM     18  C   UNL     1       3.228   3.451  -1.302  1.00  0.00     0.000 A 
ATOM     19  C   UNL     1       3.019   3.820  -2.628  1.00  0.00     0.000 A 
ENDBRANCH  13  14
ENDBRANCH  12  13
ENDBRANCH   9  12
ENDBRANCH   7   9
ENDBRANCH   5   7
ENDBRANCH   3   5
ENDBRANCH   2   3
ENDBRANCH   1   2
BRANCH   1  20
ATOM     20  C   UNL     1      -1.428  -0.250   5.666  1.00  0.00     0.275 C 
BRANCH  20  21
ATOM     21  O   UNL     1      -1.920   0.873   4.916  1.00  0.00    -0.458 OA
BRANCH  21  22
ATOM     22  C   UNL     1      -1.155   1.989   4.949  1.00  0.00     0.338 C 
ATOM     23  O   UNL     1      -0.131   2.159   5.588  1.00  0.00    -0.246 OA
BRANCH  22  24
ATOM     24  C   UNL     1      -1.767   3.030   4.100  1.00  0.00     0.060 A 
ATOM     25  C   UNL     1      -2.156   2.756   2.786  1.00  0.00     0.016 A 
ATOM     26  C   UNL     1      -1.910   4.317   4.618  1.00  0.00     0.016 A 
ATOM     27  C   UNL     1      -2.675   3.771   1.982  1.00  0.00     0.010 A 
ATOM     28  C   UNL     1      -2.490   5.316   3.834  1.00  0.00     0.010 A 
ATOM     29  C   UNL     1      -2.875   5.054   2.509  1.00  0.00    -0.014 A 
BRANCH  29  30
ATOM     30  C   UNL     1      -3.527   6.122   1.707  1.00  0.00     0.031 A 
ATOM     31  C   UNL     1      -2.773   7.373   1.354  1.00  0.00     0.074 A 
ATOM     32  C   UNL     1      -4.822   5.991   1.356  1.00  0.00     0.049 A 
ATOM     33  N   UNL     1      -3.222   8.494   0.853  1.00  0.00    -0.248 NA
ATOM     34  C   UNL     1      -1.324   7.364   1.609  1.00  0.00     0.031 C 
ATOM     35  C   UNL     1      -5.655   4.815   1.618  1.00  0.00     0.029 A 
ATOM     36  N   UNL     1      -5.671   6.865   0.724  1.00  0.00    -0.354 N 
ATOM     37  C   UNL     1      -2.121   9.338   0.762  1.00  0.00     0.074 A 
ATOM     38  C   UNL     1      -0.982   8.599   1.267  1.00  0.00     0.031 C 
ATOM     39  C   UNL     1      -6.894   5.041   1.155  1.00  0.00     0.029 A 
ATOM     40  C   UNL     1      -6.961   6.399   0.627  1.00  0.00     0.049 A 
ATOM     41  H   UNL     1      -5.385   7.739   0.375  1.00  0.00     0.167 HD
ATOM     42  C   UNL     1      -2.070  10.611   0.300  1.00  0.00     0.037 A 
ATOM     43  C   UNL     1      -8.085   7.011   0.208  1.00  0.00     0.037 A 
ATOM     44  C   UNL     1      -3.207  11.328  -0.219  1.00  0.00     0.049 A 
ATOM     45  C   UNL     1      -8.016   8.442  -0.243  1.00  0.00     0.074 A 
ATOM     46  C   UNL     1      -3.252  12.609  -0.741  1.00  0.00     0.029 A 
ATOM     47  N   UNL     1      -4.499  10.827  -0.280  1.00  0.00    -0.354 N 
ATOM     48  N   UNL     1      -6.972   9.233  -0.311  1.00  0.00    -0.248 NA
ATOM     49  C   UNL     1      -9.278   9.070  -0.656  1.00  0.00     0.031 C 
ATOM     50  C   UNL     1      -4.579  12.897  -1.082  1.00  0.00     0.029 A 
ATOM     51  C   UNL     1      -5.354  11.781  -0.808  1.00  0.00     0.049 A 
ATOM     52  H   UNL     1      -4.769   9.926   0.009  1.00  0.00     0.167 HD
ATOM     53  C   UNL     1      -7.449  10.451  -0.778  1.00  0.00     0.074 A 
ATOM     54  C   UNL     1      -8.873  10.287  -0.995  1.00  0.00     0.031 C 
ATOM     55  C   UNL     1      -6.771  11.603  -1.004  1.00  0.00     0.037 A 
BRANCH  42  56
ATOM     56  C   UNL     1      -0.747  11.322   0.359  1.00  0.00     0.058 A 
ATOM     57  C   UNL     1       0.296  11.020  -0.530  1.00  0.00     0.135 A 
ATOM     58  C   UNL     1      -0.533  12.347   1.296  1.00  0.00     0.135 A 
ATOM     59  F   UNL     1       0.150  10.039  -1.435  1.00  0.00    -0.206 F 
ATOM     60  C   UNL     1       1.513  11.693  -0.479  1.00  0.00     0.059 A 
ATOM     61  C   UNL     1       0.668  13.048   1.351  1.00  0.00     0.059 A 
ATOM     62  F   UNL     1      -1.497  12.675   2.170  1.00  0.00    -0.206 F 
ATOM     63  C   UNL     1       1.691  12.704   0.468  1.00  0.00     0.060 A 
BRANCH  63  64
ATOM     64  S   UNL     1       3.275  13.569   0.523  1.00  0.00     0.124 S 
ATOM     65  O   UNL     1       4.130  12.569   1.155  1.00  0.00    -0.237 OA
ATOM     66  O   UNL     1       3.541  13.829  -0.888  1.00  0.00    -0.237 OA
ATOM     67  O   UNL     1       2.989  14.751   1.331  1.00  0.00    -0.744 OA
ENDBRANCH  63  64
ENDBRANCH  42  56
BRANCH  43  68
ATOM     68  C   UNL     1      -9.379   6.280   0.243  1.00  0.00     0.058 A 
ATOM     69  C   UNL     1      -9.997   5.853  -0.940  1.00  0.00     0.135 A 
ATOM     70  C   UNL     1     -10.003   5.965   1.461  1.00  0.00     0.135 A 
ATOM     71  F   UNL     1      -9.443   6.141  -2.127  1.00  0.00    -0.206 F 
ATOM     72  C   UNL     1     -11.191   5.140  -0.919  1.00  0.00     0.059 A 
ATOM     73  C   UNL     1     -11.184   5.232   1.508  1.00  0.00     0.059 A 
ATOM     74  F   UNL     1      -9.444   6.342   2.621  1.00  0.00    -0.206 F 
ATOM     75  C   UNL     1     -11.775   4.830   0.311  1.00  0.00     0.060 A 
BRANCH  75  76
ATOM     76  S   UNL     1     -13.289   3.845   0.332  1.00  0.00     0.124 S 
ATOM     77  O   UNL     1     -14.289   4.838  -0.043  1.00  0.00    -0.237 OA
ATOM     78  O   UNL     1     -13.004   2.817  -0.664  1.00  0.00    -0.237 OA
ATOM     79  O   UNL     1     -13.357   3.368   1.710  1.00  0.00    -0.744 OA
ENDBRANCH  75  76
ENDBRANCH  43  68
BRANCH  55  80
ATOM     80  C   UNL     1      -7.562  12.772  -1.516  1.00  0.00     0.058 A 
ATOM     81  C   UNL     1      -8.400  13.514  -0.669  1.00  0.00     0.135 A 
ATOM     82  C   UNL     1      -7.456  13.176  -2.856  1.00  0.00     0.135 A 
ATOM     83  F   UNL     1      -8.543  13.161   0.618  1.00  0.00    -0.206 F 
ATOM     84  C   UNL     1      -9.121  14.607  -1.138  1.00  0.00     0.059 A 
ATOM     85  C   UNL     1      -8.151  14.278  -3.342  1.00  0.00     0.059 A 
ATOM     86  F   UNL     1      -6.662  12.502  -3.704  1.00  0.00    -0.206 F 
ATOM     87  C   UNL     1      -8.990  14.981  -2.477  1.00  0.00     0.060 A 
BRANCH  87  88
ATOM     88  S   UNL     1      -9.907  16.419  -3.070  1.00  0.00     0.124 S 
ATOM     89  O   UNL     1     -11.254  15.874  -3.202  1.00  0.00    -0.237 OA
ATOM     90  O   UNL     1      -9.716  17.382  -1.989  1.00  0.00    -0.237 OA
ATOM     91  O   UNL     1      -9.239  16.754  -4.324  1.00  0.00    -0.744 OA
ENDBRANCH  87  88
ENDBRANCH  55  80
ENDBRANCH  29  30
ENDBRANCH  22  24
ENDBRANCH  21  22
ENDBRANCH  20  21
ENDBRANCH   1  20
TORSDOF 19
