REMARK SMILES Cc1c(NC(=O)c2ccc(Br)cc2N)cccc1C(=O)OCCOC(=O)c1ccc(-c2c3nc(c(-c4c(F)cc(S(=O)(=O)[O-])cc4F)c4ccc([nH]4)c(-c4c(F)cc(S(=O)(=O)[O-])cc4F)c4nc(c(-c5c(F)cc(S(=O)(=O)[O-])cc5F)c5ccc2[nH]5)C=C4)C=C3)cc1
REMARK SMILES IDX 22 1 21 2 19 3 20 4 18 5 1 6 2 7 3 8 15 9 17 10 16 11 4 12
REMARK SMILES IDX 5 13 6 15 7 16 8 17 13 18 9 19 12 20 10 21 11 22 14 23 23 26
REMARK SMILES IDX 24 27 25 28 26 29 27 30 28 31 92 32 29 33 91 34 30 35 31 36
REMARK SMILES IDX 32 37 85 38 33 39 90 40 84 41 86 42 34 43 89 44 83 45 82 46
REMARK SMILES IDX 35 48 69 49 48 50 68 51 49 52 52 53 67 54 87 55 50 56 51 57
REMARK SMILES IDX 66 59 88 60 53 61 36 62 37 63 46 64 38 65 39 66 45 67 47 68
REMARK SMILES IDX 40 69 41 70 42 71 43 72 44 73 70 74 71 75 80 76 72 77 73 78
REMARK SMILES IDX 79 79 81 80 74 81 75 82 76 83 77 84 78 85 54 86 55 87 64 88
REMARK SMILES IDX 56 89 57 90 63 91 65 92 58 93 59 94 60 95 61 96 62 97
REMARK H PARENT 4 14 14 24 14 25 86 47 52 58
REMARK Flexibility Score: inf
ROOT
ATOM      1  C   UNL     1       3.453   2.719  -2.150  1.00  0.00     0.275 C 
ENDROOT
BRANCH   1   2
ATOM      2  O   UNL     1       2.378   1.765  -2.025  1.00  0.00    -0.458 OA
BRANCH   2   3
ATOM      3  C   UNL     1       2.364   1.165  -0.803  1.00  0.00     0.338 C 
ATOM      4  O   UNL     1       3.187   1.355   0.065  1.00  0.00    -0.246 OA
BRANCH   3   5
ATOM      5  C   UNL     1       1.288   0.149  -0.635  1.00  0.00     0.065 A 
ATOM      6  C   UNL     1       3.054  -1.602  -0.100  1.00  0.00     0.047 C 
ATOM      7  C   UNL     1       1.619  -1.136  -0.161  1.00  0.00    -0.013 A 
ATOM      8  C   UNL     1       0.565  -2.049   0.069  1.00  0.00     0.045 A 
ATOM      9  C   UNL     1      -0.765  -1.620   0.070  1.00  0.00     0.026 A 
ATOM     10  C   UNL     1      -0.056   0.490  -0.838  1.00  0.00     0.016 A 
ATOM     11  C   UNL     1      -1.079  -0.353  -0.405  1.00  0.00     0.003 A 
BRANCH   8  12
ATOM     12  N   UNL     1       0.886  -3.414   0.140  1.00  0.00    -0.322 N 
ATOM     13  C   UNL     1       0.267  -4.509  -0.425  1.00  0.00     0.257 C 
ATOM     14  H   UNL     1       1.682  -3.624   0.681  1.00  0.00     0.170 HD
ATOM     15  O   UNL     1       0.742  -5.626  -0.201  1.00  0.00    -0.269 OA
BRANCH  13  16
ATOM     16  C   UNL     1      -0.925  -4.424  -1.317  1.00  0.00     0.063 A 
ATOM     17  C   UNL     1      -1.908  -5.399  -1.062  1.00  0.00     0.017 A 
ATOM     18  C   UNL     1      -1.118  -3.494  -2.363  1.00  0.00     0.045 A 
ATOM     19  C   UNL     1      -3.089  -5.438  -1.801  1.00  0.00     0.016 A 
ATOM     20  C   UNL     1      -2.328  -3.534  -3.078  1.00  0.00     0.042 A 
ATOM     21  C   UNL     1      -3.302  -4.491  -2.794  1.00  0.00     0.020 A 
ATOM     22  Br  UNL     1      -4.903  -4.530  -3.798  1.00  0.00    -0.051 Br
BRANCH  18  23
ATOM     23  N   UNL     1      -0.124  -2.643  -2.855  1.00  0.00    -0.398 N 
ATOM     24  H   UNL     1       0.742  -2.578  -2.392  1.00  0.00     0.156 HD
ATOM     25  H   UNL     1      -0.291  -2.108  -3.665  1.00  0.00     0.156 HD
ENDBRANCH  18  23
ENDBRANCH  13  16
ENDBRANCH   8  12
ENDBRANCH   3   5
ENDBRANCH   2   3
ENDBRANCH   1   2
BRANCH   1  26
ATOM     26  C   UNL     1       3.138   3.884  -3.108  1.00  0.00     0.275 C 
BRANCH  26  27
ATOM     27  O   UNL     1       2.066   4.782  -2.753  1.00  0.00    -0.458 OA
BRANCH  27  28
ATOM     28  C   UNL     1       0.937   4.211  -2.256  1.00  0.00     0.338 C 
ATOM     29  O   UNL     1       0.221   3.449  -2.890  1.00  0.00    -0.246 OA
BRANCH  28  30
ATOM     30  C   UNL     1       0.985   4.333  -0.769  1.00  0.00     0.060 A 
ATOM     31  C   UNL     1       0.102   3.583   0.018  1.00  0.00     0.016 A 
ATOM     32  C   UNL     1       2.136   4.883  -0.201  1.00  0.00     0.016 A 
ATOM     33  C   UNL     1       0.439   3.242   1.324  1.00  0.00     0.010 A 
ATOM     34  C   UNL     1       2.541   4.441   1.030  1.00  0.00     0.010 A 
ATOM     35  C   UNL     1       1.681   3.646   1.801  1.00  0.00    -0.014 A 
BRANCH  35  36
ATOM     36  C   UNL     1       2.040   3.641   3.206  1.00  0.00     0.031 A 
ATOM     37  C   UNL     1       2.641   2.481   3.881  1.00  0.00     0.074 A 
ATOM     38  C   UNL     1       1.893   4.885   3.716  1.00  0.00     0.049 A 
ATOM     39  N   UNL     1       2.848   2.437   5.147  1.00  0.00    -0.248 NA
ATOM     40  C   UNL     1       3.046   1.245   3.221  1.00  0.00     0.031 C 
ATOM     41  C   UNL     1       2.350   5.497   4.944  1.00  0.00     0.029 A 
ATOM     42  N   UNL     1       1.050   5.859   3.152  1.00  0.00    -0.354 N 
ATOM     43  C   UNL     1       3.618   1.324   5.439  1.00  0.00     0.074 A 
ATOM     44  C   UNL     1       3.658   0.578   4.210  1.00  0.00     0.031 C 
ATOM     45  C   UNL     1       1.555   6.558   5.203  1.00  0.00     0.029 A 
ATOM     46  C   UNL     1       0.485   6.563   4.204  1.00  0.00     0.049 A 
ATOM     47  H   UNL     1       0.892   6.013   2.192  1.00  0.00     0.167 HD
ATOM     48  C   UNL     1       4.203   1.276   6.672  1.00  0.00     0.037 A 
ATOM     49  C   UNL     1      -0.841   6.331   4.446  1.00  0.00     0.037 A 
ATOM     50  C   UNL     1       3.619   2.337   7.494  1.00  0.00     0.049 A 
ATOM     51  C   UNL     1      -0.979   5.606   5.763  1.00  0.00     0.074 A 
ATOM     52  C   UNL     1       4.014   3.643   7.728  1.00  0.00     0.029 A 
ATOM     53  N   UNL     1       2.267   2.262   7.821  1.00  0.00    -0.354 N 
ATOM     54  N   UNL     1      -0.144   4.702   6.211  1.00  0.00    -0.248 NA
ATOM     55  C   UNL     1      -1.979   6.004   6.745  1.00  0.00     0.031 C 
ATOM     56  C   UNL     1       2.847   4.387   8.052  1.00  0.00     0.029 A 
ATOM     57  C   UNL     1       1.756   3.529   8.038  1.00  0.00     0.049 A 
ATOM     58  H   UNL     1       1.750   1.427   7.888  1.00  0.00     0.167 HD
ATOM     59  C   UNL     1      -0.411   4.478   7.538  1.00  0.00     0.074 A 
ATOM     60  C   UNL     1      -1.584   5.295   7.814  1.00  0.00     0.031 C 
ATOM     61  C   UNL     1       0.354   3.714   8.375  1.00  0.00     0.037 A 
BRANCH  48  62
ATOM     62  C   UNL     1       5.441   0.494   7.089  1.00  0.00     0.058 A 
ATOM     63  C   UNL     1       6.141   0.877   8.262  1.00  0.00     0.135 A 
ATOM     64  C   UNL     1       6.062  -0.546   6.366  1.00  0.00     0.135 A 
ATOM     65  F   UNL     1       5.663   1.823   9.084  1.00  0.00    -0.206 F 
ATOM     66  C   UNL     1       7.371   0.334   8.642  1.00  0.00     0.059 A 
ATOM     67  C   UNL     1       7.298  -1.107   6.727  1.00  0.00     0.059 A 
ATOM     68  F   UNL     1       5.503  -1.081   5.277  1.00  0.00    -0.206 F 
ATOM     69  C   UNL     1       7.956  -0.648   7.858  1.00  0.00     0.060 A 
BRANCH  69  70
ATOM     70  S   UNL     1       9.562  -1.307   8.347  1.00  0.00     0.124 S 
ATOM     71  O   UNL     1      10.422  -0.133   8.226  1.00  0.00    -0.237 OA
ATOM     72  O   UNL     1       9.307  -1.769   9.707  1.00  0.00    -0.237 OA
ATOM     73  O   UNL     1       9.812  -2.362   7.368  1.00  0.00    -0.744 OA
ENDBRANCH  69  70
ENDBRANCH  48  62
BRANCH  49  74
ATOM     74  C   UNL     1      -1.686   6.148   3.207  1.00  0.00     0.058 A 
ATOM     75  C   UNL     1      -1.606   7.138   2.195  1.00  0.00     0.135 A 
ATOM     76  C   UNL     1      -2.357   4.967   2.856  1.00  0.00     0.135 A 
ATOM     77  F   UNL     1      -1.002   8.311   2.452  1.00  0.00    -0.206 F 
ATOM     78  C   UNL     1      -2.047   6.927   0.888  1.00  0.00     0.059 A 
ATOM     79  C   UNL     1      -2.833   4.742   1.549  1.00  0.00     0.059 A 
ATOM     80  F   UNL     1      -2.496   3.976   3.747  1.00  0.00    -0.206 F 
ATOM     81  C   UNL     1      -2.638   5.713   0.563  1.00  0.00     0.060 A 
BRANCH  81  82
ATOM     82  S   UNL     1      -2.958   5.361  -1.191  1.00  0.00     0.124 S 
ATOM     83  O   UNL     1      -4.199   6.090  -1.426  1.00  0.00    -0.237 OA
ATOM     84  O   UNL     1      -1.768   5.916  -1.832  1.00  0.00    -0.237 OA
ATOM     85  O   UNL     1      -3.063   3.905  -1.223  1.00  0.00    -0.744 OA
ENDBRANCH  81  82
ENDBRANCH  49  74
BRANCH  61  86
ATOM     86  C   UNL     1      -0.142   3.169   9.690  1.00  0.00     0.058 A 
ATOM     87  C   UNL     1      -1.499   2.904   9.941  1.00  0.00     0.135 A 
ATOM     88  C   UNL     1       0.763   2.735  10.687  1.00  0.00     0.135 A 
ATOM     89  F   UNL     1      -2.443   3.131   9.015  1.00  0.00    -0.206 F 
ATOM     90  C   UNL     1      -1.940   2.359  11.141  1.00  0.00     0.059 A 
ATOM     91  C   UNL     1       0.350   2.115  11.859  1.00  0.00     0.059 A 
ATOM     92  F   UNL     1       2.090   2.880  10.553  1.00  0.00    -0.206 F 
ATOM     93  C   UNL     1      -1.008   1.974  12.097  1.00  0.00     0.060 A 
BRANCH  93  94
ATOM     94  S   UNL     1      -1.575   1.259  13.644  1.00  0.00     0.124 S 
ATOM     95  O   UNL     1      -1.775   2.457  14.453  1.00  0.00    -0.237 OA
ATOM     96  O   UNL     1      -2.791   0.555  13.246  1.00  0.00    -0.237 OA
ATOM     97  O   UNL     1      -0.465   0.401  14.043  1.00  0.00    -0.744 OA
ENDBRANCH  93  94
ENDBRANCH  61  86
ENDBRANCH  35  36
ENDBRANCH  28  30
ENDBRANCH  27  28
ENDBRANCH  26  27
ENDBRANCH   1  26
TORSDOF 17
