REMARK SMILES CC(=O)O[C@@H]1CC[C@@]23C(=O)O[C@@]4(CC[C@]2(O)C1)[C@H]3CC[C@]1(C)[C@H](C(=O)OCCOC(=O)c2ccc(-c3c5nc(c(-c6c(F)cc(S(=O)(=O)[O-])cc6F)c6ccc([nH]6)c(-c6c(F)cc(S(=O)(=O)[O-])cc6F)c6nc(c(-c7c(F)cc(S(=O)(=O)[O-])cc7F)c7ccc3[nH]7)C=C6)C=C5)cc2)CC[C@@H]14
REMARK SMILES IDX 28 1 27 2 26 3 24 4 25 5 23 6 5 7 6 8 17 9 7 10 15 11 8 12
REMARK SMILES IDX 14 13 9 14 18 15 13 16 10 17 11 18 12 19 19 20 100 21 20 22
REMARK SMILES IDX 21 23 99 24 22 25 98 26 4 27 2 28 1 29 3 30 16 31 29 33
REMARK SMILES IDX 30 34 31 35 32 36 33 37 97 38 34 39 96 40 35 41 36 42 37 43
REMARK SMILES IDX 90 44 38 45 95 46 89 47 91 48 39 49 94 50 88 51 87 52 40 54
REMARK SMILES IDX 74 55 53 56 73 57 54 58 57 59 72 60 92 61 55 62 56 63 71 65
REMARK SMILES IDX 93 66 58 67 41 68 42 69 51 70 43 71 44 72 50 73 52 74 45 75
REMARK SMILES IDX 46 76 47 77 48 78 49 79 75 80 76 81 85 82 77 83 78 84 84 85
REMARK SMILES IDX 86 86 79 87 80 88 81 89 82 90 83 91 59 92 60 93 69 94 61 95
REMARK SMILES IDX 62 96 68 97 70 98 63 99 64 100 65 101 66 102 67 103
REMARK H PARENT 16 32 91 53 57 64
REMARK Flexibility Score: inf
ROOT
ATOM      1  C   UNL     1      -2.493  11.487   8.535  1.00  0.00     0.275 C 
ENDROOT
BRANCH   1   2
ATOM      2  C   UNL     1      -2.991  10.781   7.265  1.00  0.00     0.274 C 
BRANCH   2   3
ATOM      3  O   UNL     1      -2.370   9.494   7.080  1.00  0.00    -0.462 OA
BRANCH   3   4
ATOM      4  C   UNL     1      -1.203   9.614   6.426  1.00  0.00     0.309 C 
ATOM      5  O   UNL     1      -0.751  10.686   6.014  1.00  0.00    -0.252 OA
BRANCH   4   6
ATOM      6  C   UNL     1      -0.497   8.350   6.064  1.00  0.00     0.105 C 
ATOM      7  C   UNL     1       0.319   2.884   0.941  1.00  0.00     0.179 C 
ATOM      8  C   UNL     1       1.003   4.150   1.429  1.00  0.00     0.047 C 
ATOM      9  C   UNL     1      -0.571   2.084   1.932  1.00  0.00     0.081 C 
ATOM     10  C   UNL     1       1.193   4.132   2.928  1.00  0.00     0.026 C 
ATOM     11  C   UNL     1      -0.932   2.689   3.291  1.00  0.00     0.085 C 
ATOM     12  C   UNL     1      -0.130   3.976   3.683  1.00  0.00     0.103 C 
ATOM     13  C   UNL     1      -0.900   1.927   4.586  1.00  0.00     0.041 C 
ATOM     14  C   UNL     1      -1.200   4.978   3.298  1.00  0.00     0.316 C 
ATOM     15  C   UNL     1       0.285   4.136   5.357  1.00  0.00     0.054 C 
ATOM     16  C   UNL     1      -1.518   3.002   5.648  1.00  0.00     0.052 C 
ATOM     17  O   UNL     1      -1.515   5.418   2.193  1.00  0.00    -0.251 OA
ATOM     18  O   UNL     1      -1.885   5.217   4.413  1.00  0.00    -0.458 OA
ATOM     19  C   UNL     1      -1.062   4.721   5.420  1.00  0.00     0.120 C 
ATOM     20  C   UNL     1      -0.071   4.497   7.155  1.00  0.00     0.009 C 
ATOM     21  C   UNL     1       0.152   6.125   5.532  1.00  0.00     0.040 C 
ATOM     22  C   UNL     1      -0.969   5.922   7.497  1.00  0.00     0.008 C 
ATOM     23  C   UNL     1      -0.180   6.999   6.775  1.00  0.00    -0.013 C 
ATOM     24  C   UNL     1       0.291   7.079   4.330  1.00  0.00     0.009 C 
ATOM     25  C   UNL     1       1.000   7.277   7.755  1.00  0.00     0.013 C 
ATOM     26  C   UNL     1      -0.752   8.112   4.586  1.00  0.00     0.016 C 
BRANCH   7  27
ATOM     27  O   UNL     1       1.366   1.967   0.568  1.00  0.00    -0.462 OA
BRANCH  27  28
ATOM     28  C   UNL     1       1.021   1.095  -0.417  1.00  0.00     0.302 C 
ATOM     29  C   UNL     1       1.702  -0.207  -0.160  1.00  0.00     0.139 C 
ATOM     30  O   UNL     1       0.172   1.276  -1.277  1.00  0.00    -0.253 OA
ENDBRANCH  27  28
ENDBRANCH   7  27
BRANCH  11  31
ATOM     31  O   UNL     1      -2.377   2.849   3.162  1.00  0.00    -0.389 OA
ATOM     32  H   UNL     1      -2.734   3.232   3.978  1.00  0.00     0.211 HD
ENDBRANCH  11  31
ENDBRANCH   4   6
ENDBRANCH   3   4
ENDBRANCH   2   3
ENDBRANCH   1   2
BRANCH   1  33
ATOM     33  O   UNL     1      -1.071  11.752   8.544  1.00  0.00    -0.458 OA
BRANCH  33  34
ATOM     34  C   UNL     1      -0.315  10.807   9.153  1.00  0.00     0.338 C 
ATOM     35  O   UNL     1      -0.724   9.789   9.690  1.00  0.00    -0.246 OA
BRANCH  34  36
ATOM     36  C   UNL     1       1.128  11.112   9.076  1.00  0.00     0.060 A 
ATOM     37  C   UNL     1       1.896  10.588   8.035  1.00  0.00     0.016 A 
ATOM     38  C   UNL     1       1.763  11.721  10.155  1.00  0.00     0.016 A 
ATOM     39  C   UNL     1       3.289  10.589   8.101  1.00  0.00     0.010 A 
ATOM     40  C   UNL     1       3.163  11.809  10.175  1.00  0.00     0.010 A 
ATOM     41  C   UNL     1       3.944  11.220   9.163  1.00  0.00    -0.014 A 
BRANCH  41  42
ATOM     42  C   UNL     1       5.434  11.272   9.219  1.00  0.00     0.031 A 
ATOM     43  C   UNL     1       6.173  10.691  10.397  1.00  0.00     0.074 A 
ATOM     44  C   UNL     1       6.126  11.871   8.229  1.00  0.00     0.049 A 
ATOM     45  N   UNL     1       7.432  10.817  10.730  1.00  0.00    -0.248 NA
ATOM     46  C   UNL     1       5.387   9.869  11.331  1.00  0.00     0.031 C 
ATOM     47  C   UNL     1       5.545  12.437   7.009  1.00  0.00     0.029 A 
ATOM     48  N   UNL     1       7.471  12.125   8.098  1.00  0.00    -0.354 N 
ATOM     49  C   UNL     1       7.582  10.130  11.930  1.00  0.00     0.074 A 
ATOM     50  C   UNL     1       6.279   9.602  12.275  1.00  0.00     0.031 C 
ATOM     51  C   UNL     1       6.520  12.966   6.257  1.00  0.00     0.029 A 
ATOM     52  C   UNL     1       7.784  12.855   6.974  1.00  0.00     0.049 A 
ATOM     53  H   UNL     1       8.144  11.814   8.745  1.00  0.00     0.167 HD
ATOM     54  C   UNL     1       8.704   9.956  12.673  1.00  0.00     0.037 A 
ATOM     55  C   UNL     1       8.943  13.423   6.585  1.00  0.00     0.037 A 
ATOM     56  C   UNL     1      10.001  10.470  12.307  1.00  0.00     0.049 A 
ATOM     57  C   UNL     1      10.159  13.273   7.456  1.00  0.00     0.074 A 
ATOM     58  C   UNL     1      11.201  10.337  12.984  1.00  0.00     0.029 A 
ATOM     59  N   UNL     1      10.269  11.213  11.166  1.00  0.00    -0.354 N 
ATOM     60  N   UNL     1      10.282  12.639   8.598  1.00  0.00    -0.248 NA
ATOM     61  C   UNL     1      11.393  13.919   6.990  1.00  0.00     0.031 C 
ATOM     62  C   UNL     1      12.182  11.044  12.281  1.00  0.00     0.029 A 
ATOM     63  C   UNL     1      11.610  11.564  11.132  1.00  0.00     0.049 A 
ATOM     64  H   UNL     1       9.605  11.455  10.481  1.00  0.00     0.167 HD
ATOM     65  C   UNL     1      11.612  12.788   8.974  1.00  0.00     0.074 A 
ATOM     66  C   UNL     1      12.256  13.560   7.931  1.00  0.00     0.031 C 
ATOM     67  C   UNL     1      12.242  12.326  10.082  1.00  0.00     0.037 A 
BRANCH  54  68
ATOM     68  C   UNL     1       8.576   9.207  13.975  1.00  0.00     0.058 A 
ATOM     69  C   UNL     1       8.323   7.827  14.019  1.00  0.00     0.135 A 
ATOM     70  C   UNL     1       8.744   9.876  15.199  1.00  0.00     0.135 A 
ATOM     71  F   UNL     1       8.140   7.135  12.883  1.00  0.00    -0.206 F 
ATOM     72  C   UNL     1       8.208   7.144  15.227  1.00  0.00     0.059 A 
ATOM     73  C   UNL     1       8.666   9.209  16.419  1.00  0.00     0.059 A 
ATOM     74  F   UNL     1       8.992  11.196  15.220  1.00  0.00    -0.206 F 
ATOM     75  C   UNL     1       8.380   7.845  16.423  1.00  0.00     0.060 A 
BRANCH  75  76
ATOM     76  S   UNL     1       8.224   6.945  17.980  1.00  0.00     0.124 S 
ATOM     77  O   UNL     1       6.788   6.686  18.023  1.00  0.00    -0.237 OA
ATOM     78  O   UNL     1       9.070   5.778  17.752  1.00  0.00    -0.237 OA
ATOM     79  O   UNL     1       8.720   7.892  18.974  1.00  0.00    -0.744 OA
ENDBRANCH  75  76
ENDBRANCH  54  68
BRANCH  55  80
ATOM     80  C   UNL     1       8.992  14.217   5.327  1.00  0.00     0.058 A 
ATOM     81  C   UNL     1       9.716  13.766   4.215  1.00  0.00     0.135 A 
ATOM     82  C   UNL     1       8.300  15.434   5.205  1.00  0.00     0.135 A 
ATOM     83  F   UNL     1      10.403  12.615   4.284  1.00  0.00    -0.206 F 
ATOM     84  C   UNL     1       9.764  14.495   3.031  1.00  0.00     0.059 A 
ATOM     85  C   UNL     1       8.306  16.165   4.021  1.00  0.00     0.059 A 
ATOM     86  F   UNL     1       7.581  15.906   6.235  1.00  0.00    -0.206 F 
ATOM     87  C   UNL     1       9.050  15.692   2.942  1.00  0.00     0.060 A 
BRANCH  87  88
ATOM     88  S   UNL     1       9.078  16.603   1.383  1.00  0.00     0.124 S 
ATOM     89  O   UNL     1      10.441  17.123   1.372  1.00  0.00    -0.237 OA
ATOM     90  O   UNL     1       8.787  15.553   0.412  1.00  0.00    -0.237 OA
ATOM     91  O   UNL     1       8.024  17.598   1.556  1.00  0.00    -0.744 OA
ENDBRANCH  87  88
ENDBRANCH  55  80
BRANCH  67  92
ATOM     92  C   UNL     1      13.717  12.601  10.205  1.00  0.00     0.058 A 
ATOM     93  C   UNL     1      14.214  13.886  10.473  1.00  0.00     0.135 A 
ATOM     94  C   UNL     1      14.643  11.550  10.099  1.00  0.00     0.135 A 
ATOM     95  F   UNL     1      13.374  14.928  10.575  1.00  0.00    -0.206 F 
ATOM     96  C   UNL     1      15.579  14.123  10.607  1.00  0.00     0.059 A 
ATOM     97  C   UNL     1      16.009  11.759  10.261  1.00  0.00     0.059 A 
ATOM     98  F   UNL     1      14.222  10.299   9.851  1.00  0.00    -0.206 F 
ATOM     99  C   UNL     1      16.468  13.052  10.503  1.00  0.00     0.060 A 
BRANCH  99 100
ATOM    100  S   UNL     1      18.233  13.368  10.716  1.00  0.00     0.124 S 
ATOM    101  O   UNL     1      18.558  14.070   9.478  1.00  0.00    -0.237 OA
ATOM    102  O   UNL     1      18.260  14.178  11.930  1.00  0.00    -0.237 OA
ATOM    103  O   UNL     1      18.805  12.032  10.848  1.00  0.00    -0.744 OA
ENDBRANCH  99 100
ENDBRANCH  67  92
ENDBRANCH  41  42
ENDBRANCH  34  36
ENDBRANCH  33  34
ENDBRANCH   1  33
TORSDOF 17
