REMARK SMILES Cc1ccccc1OC1(C(=O)OCCOC(=O)c2ccc(-c3c4nc(c(-c5c(F)cc(S(=O)(=O)[O-])cc5F)c5ccc([nH]5)c(-c5c(F)cc(S(=O)(=O)[O-])cc5F)c5nc(c(-c6c(F)cc(S(=O)(=O)[O-])cc6F)c6ccc3[nH]6)C=C5)C=C4)cc2)CCN(C(=O)[C@H]2CCCCO2)CC1
REMARK SMILES IDX 14 1 13 2 12 3 10 4 11 5 9 6 84 7 96 8 85 9 95 10 86 11
REMARK SMILES IDX 87 12 88 13 8 14 7 15 1 16 2 17 3 18 4 19 6 20 5 21 89 22
REMARK SMILES IDX 90 23 94 24 91 25 93 26 92 27 15 28 16 29 17 30 18 31 19 32
REMARK SMILES IDX 83 33 20 34 82 35 21 36 22 37 23 38 76 39 24 40 81 41 75 42
REMARK SMILES IDX 77 43 25 44 80 45 74 46 73 47 26 49 60 50 39 51 59 52 40 53
REMARK SMILES IDX 43 54 58 55 78 56 41 57 42 58 57 60 79 61 44 62 27 63 28 64
REMARK SMILES IDX 37 65 29 66 30 67 36 68 38 69 31 70 32 71 33 72 34 73 35 74
REMARK SMILES IDX 61 75 62 76 71 77 63 78 64 79 70 80 72 81 65 82 66 83 67 84
REMARK SMILES IDX 68 85 69 86 45 87 46 88 55 89 47 90 48 91 54 92 56 93 49 94
REMARK SMILES IDX 50 95 51 96 52 97 53 98
REMARK H PARENT 77 48 43 59
REMARK Flexibility Score: inf
ROOT
ATOM      1  C   UNL     1      10.141  -7.500  -3.232  1.00  0.00     0.275 C 
ENDROOT
BRANCH   1   2
ATOM      2  C   UNL     1       9.405  -6.181  -2.937  1.00  0.00     0.274 C 
BRANCH   2   3
ATOM      3  O   UNL     1       8.320  -6.365  -1.998  1.00  0.00    -0.459 OA
BRANCH   3   4
ATOM      4  C   UNL     1       7.419  -5.335  -1.982  1.00  0.00     0.350 C 
ATOM      5  O   UNL     1       7.528  -4.380  -2.749  1.00  0.00    -0.247 OA
BRANCH   4   6
ATOM      6  C   UNL     1       6.406  -5.384  -0.764  1.00  0.00     0.209 C 
ATOM      7  C   UNL     1       7.346  -5.205   0.430  1.00  0.00     0.082 C 
ATOM      8  C   UNL     1       5.409  -4.237  -1.045  1.00  0.00     0.082 C 
ATOM      9  C   UNL     1       7.402  -3.792   0.968  1.00  0.00     0.124 C 
ATOM     10  C   UNL     1       5.044  -3.389   0.149  1.00  0.00     0.124 C 
ATOM     11  N   UNL     1       6.142  -3.062   1.055  1.00  0.00    -0.340 N 
ATOM     12  C   UNL     1       6.092  -2.034   2.004  1.00  0.00     0.251 C 
ATOM     13  O   UNL     1       7.033  -1.865   2.789  1.00  0.00    -0.272 OA
BRANCH   6  14
ATOM     14  O   UNL     1       5.761  -6.668  -0.632  1.00  0.00    -0.475 OA
BRANCH  14  15
ATOM     15  C   UNL     1       4.575  -6.954   0.006  1.00  0.00     0.123 A 
ATOM     16  C   UNL     1       4.701  -5.810   2.373  1.00  0.00     0.048 C 
ATOM     17  C   UNL     1       4.058  -6.588   1.264  1.00  0.00    -0.009 A 
ATOM     18  C   UNL     1       2.795  -7.108   1.678  1.00  0.00     0.007 A 
ATOM     19  C   UNL     1       2.078  -8.023   0.922  1.00  0.00     0.001 A 
ATOM     20  C   UNL     1       3.829  -7.908  -0.719  1.00  0.00     0.047 A 
ATOM     21  C   UNL     1       2.611  -8.441  -0.278  1.00  0.00     0.004 A 
ENDBRANCH  14  15
ENDBRANCH   6  14
BRANCH  12  22
ATOM     22  C   UNL     1       4.859  -1.097   2.034  1.00  0.00     0.207 C 
ATOM     23  C   UNL     1       3.640  -1.795   2.648  1.00  0.00     0.042 C 
ATOM     24  O   UNL     1       5.204   0.057   2.818  1.00  0.00    -0.368 OA
ATOM     25  C   UNL     1       2.486  -0.824   2.871  1.00  0.00     0.006 C 
ATOM     26  C   UNL     1       4.159   1.017   2.897  1.00  0.00     0.161 C 
ATOM     27  C   UNL     1       2.962   0.415   3.613  1.00  0.00     0.029 C 
ENDBRANCH  12  22
ENDBRANCH   4   6
ENDBRANCH   3   4
ENDBRANCH   2   3
ENDBRANCH   1   2
BRANCH   1  28
ATOM     28  O   UNL     1       9.423  -8.414  -4.081  1.00  0.00    -0.458 OA
BRANCH  28  29
ATOM     29  C   UNL     1       8.163  -8.699  -3.658  1.00  0.00     0.338 C 
ATOM     30  O   UNL     1       7.915  -9.225  -2.573  1.00  0.00    -0.246 OA
BRANCH  29  31
ATOM     31  C   UNL     1       7.231  -7.895  -4.499  1.00  0.00     0.060 A 
ATOM     32  C   UNL     1       5.998  -7.506  -3.966  1.00  0.00     0.016 A 
ATOM     33  C   UNL     1       7.724  -7.259  -5.644  1.00  0.00     0.016 A 
ATOM     34  C   UNL     1       5.311  -6.409  -4.497  1.00  0.00     0.010 A 
ATOM     35  C   UNL     1       7.090  -6.130  -6.124  1.00  0.00     0.010 A 
ATOM     36  C   UNL     1       5.886  -5.693  -5.553  1.00  0.00    -0.014 A 
BRANCH  36  37
ATOM     37  C   UNL     1       5.184  -4.668  -6.322  1.00  0.00     0.031 A 
ATOM     38  C   UNL     1       4.983  -3.260  -5.892  1.00  0.00     0.074 A 
ATOM     39  C   UNL     1       4.700  -5.112  -7.502  1.00  0.00     0.049 A 
ATOM     40  N   UNL     1       3.956  -2.545  -6.225  1.00  0.00    -0.248 NA
ATOM     41  C   UNL     1       5.929  -2.525  -5.055  1.00  0.00     0.031 C 
ATOM     42  C   UNL     1       4.076  -4.363  -8.579  1.00  0.00     0.029 A 
ATOM     43  N   UNL     1       4.551  -6.429  -7.926  1.00  0.00    -0.354 N 
ATOM     44  C   UNL     1       4.212  -1.231  -5.880  1.00  0.00     0.074 A 
ATOM     45  C   UNL     1       5.413  -1.286  -5.076  1.00  0.00     0.031 C 
ATOM     46  C   UNL     1       3.342  -5.222  -9.313  1.00  0.00     0.029 A 
ATOM     47  C   UNL     1       3.353  -6.502  -8.612  1.00  0.00     0.049 A 
ATOM     48  H   UNL     1       5.181  -7.169  -7.767  1.00  0.00     0.167 HD
ATOM     49  C   UNL     1       3.484  -0.215  -6.439  1.00  0.00     0.037 A 
ATOM     50  C   UNL     1       2.246  -7.142  -8.127  1.00  0.00     0.037 A 
ATOM     51  C   UNL     1       2.541  -0.746  -7.417  1.00  0.00     0.049 A 
ATOM     52  C   UNL     1       1.061  -6.206  -8.070  1.00  0.00     0.074 A 
ATOM     53  C   UNL     1       2.686  -0.951  -8.780  1.00  0.00     0.029 A 
ATOM     54  N   UNL     1       1.412  -1.451  -7.021  1.00  0.00    -0.354 N 
ATOM     55  N   UNL     1       1.155  -4.930  -7.812  1.00  0.00    -0.248 NA
ATOM     56  C   UNL     1      -0.303  -6.631  -8.364  1.00  0.00     0.031 C 
ATOM     57  C   UNL     1       1.692  -1.864  -9.190  1.00  0.00     0.029 A 
ATOM     58  C   UNL     1       0.914  -2.177  -8.088  1.00  0.00     0.049 A 
ATOM     59  H   UNL     1       1.024  -1.436  -6.117  1.00  0.00     0.167 HD
ATOM     60  C   UNL     1      -0.072  -4.350  -8.005  1.00  0.00     0.074 A 
ATOM     61  C   UNL     1      -0.958  -5.459  -8.316  1.00  0.00     0.031 C 
ATOM     62  C   UNL     1      -0.273  -3.001  -7.966  1.00  0.00     0.037 A 
BRANCH  49  63
ATOM     63  C   UNL     1       3.866   1.256  -6.382  1.00  0.00     0.058 A 
ATOM     64  C   UNL     1       3.636   2.114  -7.485  1.00  0.00     0.135 A 
ATOM     65  C   UNL     1       4.493   1.875  -5.283  1.00  0.00     0.135 A 
ATOM     66  F   UNL     1       2.952   1.706  -8.562  1.00  0.00    -0.206 F 
ATOM     67  C   UNL     1       4.111   3.425  -7.549  1.00  0.00     0.059 A 
ATOM     68  C   UNL     1       5.008   3.180  -5.334  1.00  0.00     0.059 A 
ATOM     69  F   UNL     1       4.607   1.234  -4.109  1.00  0.00    -0.206 F 
ATOM     70  C   UNL     1       4.835   3.939  -6.485  1.00  0.00     0.060 A 
BRANCH  70  71
ATOM     71  S   UNL     1       5.553   5.588  -6.652  1.00  0.00     0.124 S 
ATOM     72  O   UNL     1       6.376   5.443  -7.850  1.00  0.00    -0.237 OA
ATOM     73  O   UNL     1       4.369   6.427  -6.796  1.00  0.00    -0.237 OA
ATOM     74  O   UNL     1       6.297   5.762  -5.408  1.00  0.00    -0.744 OA
ENDBRANCH  70  71
ENDBRANCH  49  63
BRANCH  50  75
ATOM     75  C   UNL     1       2.480  -8.265  -7.170  1.00  0.00     0.058 A 
ATOM     76  C   UNL     1       3.287  -9.346  -7.578  1.00  0.00     0.135 A 
ATOM     77  C   UNL     1       2.146  -8.204  -5.808  1.00  0.00     0.135 A 
ATOM     78  F   UNL     1       3.635  -9.474  -8.869  1.00  0.00    -0.206 F 
ATOM     79  C   UNL     1       3.827 -10.255  -6.675  1.00  0.00     0.059 A 
ATOM     80  C   UNL     1       2.666  -9.116  -4.881  1.00  0.00     0.059 A 
ATOM     81  F   UNL     1       1.367  -7.218  -5.342  1.00  0.00    -0.206 F 
ATOM     82  C   UNL     1       3.533 -10.117  -5.322  1.00  0.00     0.060 A 
BRANCH  82  83
ATOM     83  S   UNL     1       4.420 -11.177  -4.155  1.00  0.00     0.124 S 
ATOM     84  O   UNL     1       3.786 -12.470  -4.388  1.00  0.00    -0.237 OA
ATOM     85  O   UNL     1       5.795 -11.047  -4.628  1.00  0.00    -0.237 OA
ATOM     86  O   UNL     1       4.134 -10.556  -2.867  1.00  0.00    -0.744 OA
ENDBRANCH  82  83
ENDBRANCH  50  75
BRANCH  62  87
ATOM     87  C   UNL     1      -1.622  -2.337  -7.993  1.00  0.00     0.058 A 
ATOM     88  C   UNL     1      -2.755  -2.891  -7.375  1.00  0.00     0.135 A 
ATOM     89  C   UNL     1      -1.782  -1.038  -8.528  1.00  0.00     0.135 A 
ATOM     90  F   UNL     1      -2.691  -4.070  -6.739  1.00  0.00    -0.206 F 
ATOM     91  C   UNL     1      -3.985  -2.238  -7.355  1.00  0.00     0.059 A 
ATOM     92  C   UNL     1      -2.987  -0.346  -8.472  1.00  0.00     0.059 A 
ATOM     93  F   UNL     1      -0.767  -0.390  -9.118  1.00  0.00    -0.206 F 
ATOM     94  C   UNL     1      -4.092  -0.965  -7.906  1.00  0.00     0.060 A 
BRANCH  94  95
ATOM     95  S   UNL     1      -5.659  -0.082  -7.833  1.00  0.00     0.124 S 
ATOM     96  O   UNL     1      -6.230  -0.397  -9.139  1.00  0.00    -0.237 OA
ATOM     97  O   UNL     1      -6.328  -0.694  -6.689  1.00  0.00    -0.237 OA
ATOM     98  O   UNL     1      -5.244   1.304  -7.638  1.00  0.00    -0.744 OA
ENDBRANCH  94  95
ENDBRANCH  62  87
ENDBRANCH  36  37
ENDBRANCH  29  31
ENDBRANCH  28  29
ENDBRANCH   1  28
TORSDOF 17
