REMARK SMILES CS(=O)(=O)c1ccc(/C=C(/C(=O)OCCOC(=O)c2ccc(-c3c4nc(c(-c5c(F)cc(S(=O)(=O)[O-])cc5F)c5ccc([nH]5)c(-c5c(F)cc(S(=O)(=O)[O-])cc5F)c5nc(c(-c6c(F)cc(S(=O)(=O)[O-])cc6F)c6ccc3[nH]6)C=C5)C=C4)cc2)c2ccc(O)cc2)cc1
REMARK SMILES IDX 15 1 14 2 13 3 11 4 12 5 10 6 9 7 8 8 5 9 6 10 93 11 7 12
REMARK SMILES IDX 92 13 2 14 1 15 3 16 4 17 85 18 86 19 91 20 87 21 90 22
REMARK SMILES IDX 88 23 89 24 16 26 17 27 18 28 19 29 20 30 84 31 21 32 83 33
REMARK SMILES IDX 22 34 23 35 24 36 77 37 25 38 82 39 76 40 78 41 26 42 81 43
REMARK SMILES IDX 75 44 74 45 27 47 61 48 40 49 60 50 41 51 44 52 59 53 79 54
REMARK SMILES IDX 42 55 43 56 58 58 80 59 45 60 28 61 29 62 38 63 30 64 31 65
REMARK SMILES IDX 37 66 39 67 32 68 33 69 34 70 35 71 36 72 62 73 63 74 72 75
REMARK SMILES IDX 64 76 65 77 71 78 73 79 66 80 67 81 68 82 69 83 70 84 46 85
REMARK SMILES IDX 47 86 56 87 48 88 49 89 55 90 57 91 50 92 51 93 52 94 53 95
REMARK SMILES IDX 54 96
REMARK H PARENT 89 25 78 46 44 57
REMARK Flexibility Score: inf
ROOT
ATOM      1  C   UNL     1       2.846   0.395  11.321  1.00  0.00     0.275 C 
ENDROOT
BRANCH   1   2
ATOM      2  C   UNL     1       3.592   1.166  10.235  1.00  0.00     0.275 C 
BRANCH   2   3
ATOM      3  O   UNL     1       2.867   1.141   8.989  1.00  0.00    -0.458 OA
BRANCH   3   4
ATOM      4  C   UNL     1       3.308   0.233   8.080  1.00  0.00     0.338 C 
ATOM      5  O   UNL     1       4.277  -0.501   8.225  1.00  0.00    -0.246 OA
BRANCH   4   6
ATOM      6  C   UNL     1       2.454   0.203   6.855  1.00  0.00     0.067 C 
ATOM      7  C   UNL     1       2.051   1.376   6.314  1.00  0.00     0.024 C 
BRANCH   7   8
ATOM      8  C   UNL     1       1.462   1.575   4.971  1.00  0.00    -0.025 A 
ATOM      9  C   UNL     1       0.708   1.841   2.285  1.00  0.00     0.067 A 
ATOM     10  C   UNL     1       0.119   0.853   3.071  1.00  0.00     0.021 A 
ATOM     11  C   UNL     1       1.587   2.764   2.849  1.00  0.00     0.021 A 
ATOM     12  C   UNL     1       0.478   0.746   4.415  1.00  0.00     0.009 A 
ATOM     13  C   UNL     1       1.963   2.626   4.189  1.00  0.00     0.009 A 
BRANCH   9  14
ATOM     14  S   UNL     1       0.359   1.882   0.546  1.00  0.00     0.175 S 
ATOM     15  C   UNL     1       1.063   0.364  -0.055  1.00  0.00     0.163 C 
ATOM     16  O   UNL     1       1.123   2.975  -0.030  1.00  0.00    -0.224 OA
ATOM     17  O   UNL     1      -1.080   1.821   0.393  1.00  0.00    -0.224 OA
ENDBRANCH   9  14
ENDBRANCH   7   8
BRANCH   6  18
ATOM     18  C   UNL     1       2.228  -1.099   6.199  1.00  0.00    -0.011 A 
ATOM     19  C   UNL     1       1.054  -1.815   6.486  1.00  0.00     0.013 A 
ATOM     20  C   UNL     1       3.127  -1.607   5.252  1.00  0.00     0.013 A 
ATOM     21  C   UNL     1       0.760  -2.990   5.796  1.00  0.00     0.047 A 
ATOM     22  C   UNL     1       2.840  -2.797   4.576  1.00  0.00     0.047 A 
ATOM     23  C   UNL     1       1.652  -3.470   4.846  1.00  0.00     0.115 A 
BRANCH  23  24
ATOM     24  O   UNL     1       1.314  -4.614   4.192  1.00  0.00    -0.508 OA
ATOM     25  H   UNL     1       0.508  -5.048   4.393  1.00  0.00     0.293 HD
ENDBRANCH  23  24
ENDBRANCH   6  18
ENDBRANCH   4   6
ENDBRANCH   3   4
ENDBRANCH   2   3
ENDBRANCH   1   2
BRANCH   1  26
ATOM     26  O   UNL     1       2.759  -0.999  10.974  1.00  0.00    -0.458 OA
BRANCH  26  27
ATOM     27  C   UNL     1       1.518  -1.445  10.675  1.00  0.00     0.338 C 
ATOM     28  O   UNL     1       0.478  -0.809  10.706  1.00  0.00    -0.246 OA
BRANCH  27  29
ATOM     29  C   UNL     1       1.565  -2.860  10.273  1.00  0.00     0.060 A 
ATOM     30  C   UNL     1       2.306  -3.241   9.158  1.00  0.00     0.016 A 
ATOM     31  C   UNL     1       0.726  -3.779  10.902  1.00  0.00     0.016 A 
ATOM     32  C   UNL     1       2.106  -4.501   8.593  1.00  0.00     0.010 A 
ATOM     33  C   UNL     1       0.616  -5.078  10.394  1.00  0.00     0.010 A 
ATOM     34  C   UNL     1       1.261  -5.442   9.198  1.00  0.00    -0.014 A 
BRANCH  34  35
ATOM     35  C   UNL     1       1.000  -6.773   8.569  1.00  0.00     0.031 A 
ATOM     36  C   UNL     1      -0.420  -7.228   8.324  1.00  0.00     0.074 A 
ATOM     37  C   UNL     1       2.014  -7.589   8.214  1.00  0.00     0.049 A 
ATOM     38  N   UNL     1      -0.874  -8.430   8.073  1.00  0.00    -0.248 NA
ATOM     39  C   UNL     1      -1.470  -6.198   8.394  1.00  0.00     0.031 C 
ATOM     40  C   UNL     1       3.440  -7.277   8.323  1.00  0.00     0.029 A 
ATOM     41  N   UNL     1       1.997  -8.860   7.688  1.00  0.00    -0.354 N 
ATOM     42  C   UNL     1      -2.261  -8.317   8.041  1.00  0.00     0.074 A 
ATOM     43  C   UNL     1      -2.574  -6.924   8.280  1.00  0.00     0.031 C 
ATOM     44  C   UNL     1       4.156  -8.304   7.845  1.00  0.00     0.029 A 
ATOM     45  C   UNL     1       3.250  -9.393   7.499  1.00  0.00     0.049 A 
ATOM     46  H   UNL     1       1.167  -9.341   7.469  1.00  0.00     0.167 HD
ATOM     47  C   UNL     1      -3.185  -9.289   7.843  1.00  0.00     0.037 A 
ATOM     48  C   UNL     1       3.640 -10.634   7.148  1.00  0.00     0.037 A 
ATOM     49  C   UNL     1      -2.864 -10.655   7.517  1.00  0.00     0.049 A 
ATOM     50  C   UNL     1       2.604 -11.697   6.928  1.00  0.00     0.074 A 
ATOM     51  C   UNL     1      -3.727 -11.714   7.289  1.00  0.00     0.029 A 
ATOM     52  N   UNL     1      -1.578 -11.145   7.341  1.00  0.00    -0.354 N 
ATOM     53  N   UNL     1       1.299 -11.604   7.015  1.00  0.00    -0.248 NA
ATOM     54  C   UNL     1       3.093 -13.041   6.592  1.00  0.00     0.031 C 
ATOM     55  C   UNL     1      -2.962 -12.848   6.994  1.00  0.00     0.029 A 
ATOM     56  C   UNL     1      -1.625 -12.488   7.004  1.00  0.00     0.049 A 
ATOM     57  H   UNL     1      -0.754 -10.616   7.440  1.00  0.00     0.167 HD
ATOM     58  C   UNL     1       0.810 -12.876   6.741  1.00  0.00     0.074 A 
ATOM     59  C   UNL     1       1.958 -13.716   6.467  1.00  0.00     0.031 C 
ATOM     60  C   UNL     1      -0.474 -13.309   6.726  1.00  0.00     0.037 A 
BRANCH  47  61
ATOM     61  C   UNL     1      -4.636  -8.927   8.010  1.00  0.00     0.058 A 
ATOM     62  C   UNL     1      -5.339  -8.180   7.054  1.00  0.00     0.135 A 
ATOM     63  C   UNL     1      -5.347  -9.386   9.133  1.00  0.00     0.135 A 
ATOM     64  F   UNL     1      -4.707  -7.704   5.970  1.00  0.00    -0.206 F 
ATOM     65  C   UNL     1      -6.690  -7.881   7.215  1.00  0.00     0.059 A 
ATOM     66  C   UNL     1      -6.702  -9.120   9.303  1.00  0.00     0.059 A 
ATOM     67  F   UNL     1      -4.724 -10.108  10.078  1.00  0.00    -0.206 F 
ATOM     68  C   UNL     1      -7.363  -8.354   8.344  1.00  0.00     0.060 A 
BRANCH  68  69
ATOM     69  S   UNL     1      -9.117  -7.971   8.538  1.00  0.00     0.124 S 
ATOM     70  O   UNL     1      -9.063  -6.577   8.970  1.00  0.00    -0.237 OA
ATOM     71  O   UNL     1      -9.640  -8.197   7.194  1.00  0.00    -0.237 OA
ATOM     72  O   UNL     1      -9.563  -8.925   9.549  1.00  0.00    -0.744 OA
ENDBRANCH  68  69
ENDBRANCH  47  61
BRANCH  48  73
ATOM     73  C   UNL     1       5.090 -10.943   7.043  1.00  0.00     0.058 A 
ATOM     74  C   UNL     1       5.693 -11.155   5.796  1.00  0.00     0.135 A 
ATOM     75  C   UNL     1       5.908 -10.983   8.183  1.00  0.00     0.135 A 
ATOM     76  F   UNL     1       4.950 -11.138   4.679  1.00  0.00    -0.206 F 
ATOM     77  C   UNL     1       7.059 -11.389   5.680  1.00  0.00     0.059 A 
ATOM     78  C   UNL     1       7.280 -11.188   8.091  1.00  0.00     0.059 A 
ATOM     79  F   UNL     1       5.379 -10.775   9.399  1.00  0.00    -0.206 F 
ATOM     80  C   UNL     1       7.846 -11.395   6.834  1.00  0.00     0.060 A 
BRANCH  80  81
ATOM     81  S   UNL     1       9.633 -11.604   6.671  1.00  0.00     0.124 S 
ATOM     82  O   UNL     1       9.743 -13.047   6.492  1.00  0.00    -0.237 OA
ATOM     83  O   UNL     1       9.935 -10.790   5.498  1.00  0.00    -0.237 OA
ATOM     84  O   UNL     1      10.145 -11.080   7.934  1.00  0.00    -0.744 OA
ENDBRANCH  80  81
ENDBRANCH  48  73
BRANCH  60  85
ATOM     85  C   UNL     1      -0.709 -14.747   6.368  1.00  0.00     0.058 A 
ATOM     86  C   UNL     1      -0.474 -15.780   7.288  1.00  0.00     0.135 A 
ATOM     87  C   UNL     1      -1.213 -15.091   5.104  1.00  0.00     0.135 A 
ATOM     88  F   UNL     1       0.016 -15.502   8.506  1.00  0.00    -0.206 F 
ATOM     89  C   UNL     1      -0.713 -17.110   6.959  1.00  0.00     0.059 A 
ATOM     90  C   UNL     1      -1.477 -16.413   4.761  1.00  0.00     0.059 A 
ATOM     91  F   UNL     1      -1.460 -14.137   4.192  1.00  0.00    -0.206 F 
ATOM     92  C   UNL     1      -1.213 -17.417   5.692  1.00  0.00     0.060 A 
BRANCH  92  93
ATOM     93  S   UNL     1      -1.546 -19.144   5.283  1.00  0.00     0.124 S 
ATOM     94  O   UNL     1      -0.201 -19.648   5.024  1.00  0.00    -0.237 OA
ATOM     95  O   UNL     1      -2.185 -19.638   6.498  1.00  0.00    -0.237 OA
ATOM     96  O   UNL     1      -2.418 -19.053   4.116  1.00  0.00    -0.744 OA
ENDBRANCH  92  93
ENDBRANCH  60  85
ENDBRANCH  34  35
ENDBRANCH  27  29
ENDBRANCH  26  27
ENDBRANCH   1  26
TORSDOF 18
