REMARK SMILES CC(=O)N1CCC[C@H]1COCC(=O)OCCOC(=O)c1ccc(-c2c3nc(c(-c4c(F)cc(S(=O)(=O)[O-])cc4F)c4ccc([nH]4)c(-c4c(F)cc(S(=O)(=O)[O-])cc4F)c4nc(c(-c5c(F)cc(S(=O)(=O)[O-])cc5F)c5ccc2[nH]5)C=C4)C=C3)cc1
REMARK SMILES IDX 15 1 14 2 12 3 13 4 11 5 10 6 9 7 8 8 4 9 5 10 6 11 7 12
REMARK SMILES IDX 2 13 1 14 3 15 16 16 17 17 18 18 19 19 20 20 21 21 85 22
REMARK SMILES IDX 22 23 84 24 23 25 24 26 25 27 78 28 26 29 83 30 77 31 79 32
REMARK SMILES IDX 27 33 82 34 76 35 75 36 28 38 62 39 41 40 61 41 42 42 45 43
REMARK SMILES IDX 60 44 80 45 43 46 44 47 59 49 81 50 46 51 29 52 30 53 39 54
REMARK SMILES IDX 31 55 32 56 38 57 40 58 33 59 34 60 35 61 36 62 37 63 63 64
REMARK SMILES IDX 64 65 73 66 65 67 66 68 72 69 74 70 67 71 68 72 69 73 70 74
REMARK SMILES IDX 71 75 47 76 48 77 57 78 49 79 50 80 56 81 58 82 51 83 52 84
REMARK SMILES IDX 53 85 54 86 55 87
REMARK H PARENT 79 37 45 48
REMARK Flexibility Score: inf
ROOT
ATOM      1  C   UNL     1      -0.689  -4.481   7.555  1.00  0.00     0.274 C 
ENDROOT
BRANCH   1   2
ATOM      2  O   UNL     1      -0.032  -3.418   6.830  1.00  0.00    -0.460 OA
BRANCH   2   3
ATOM      3  C   UNL     1       1.024  -3.798   6.063  1.00  0.00     0.332 C 
ATOM      4  O   UNL     1       1.404  -4.956   5.922  1.00  0.00    -0.250 OA
BRANCH   3   5
ATOM      5  C   UNL     1       1.779  -2.608   5.445  1.00  0.00     0.282 C 
BRANCH   5   6
ATOM      6  O   UNL     1       1.225  -1.360   5.099  1.00  0.00    -0.368 OA
BRANCH   6   7
ATOM      7  C   UNL     1       0.020  -1.333   4.334  1.00  0.00     0.186 C 
BRANCH   7   8
ATOM      8  C   UNL     1       0.093  -1.661   2.823  1.00  0.00     0.111 C 
ATOM      9  N   UNL     1       1.033  -0.874   2.038  1.00  0.00    -0.338 N 
ATOM     10  C   UNL     1       2.260  -1.612   1.816  1.00  0.00     0.120 C 
ATOM     11  C   UNL     1       1.802  -3.053   1.732  1.00  0.00     0.024 C 
ATOM     12  C   UNL     1       0.481  -3.098   2.499  1.00  0.00     0.029 C 
BRANCH   9  13
ATOM     13  C   UNL     1       0.623   0.278   1.403  1.00  0.00     0.219 C 
ATOM     14  C   UNL     1       1.479   0.757   0.259  1.00  0.00     0.114 C 
ATOM     15  O   UNL     1      -0.417   0.862   1.705  1.00  0.00    -0.275 OA
ENDBRANCH   9  13
ENDBRANCH   7   8
ENDBRANCH   6   7
ENDBRANCH   5   6
ENDBRANCH   3   5
ENDBRANCH   2   3
ENDBRANCH   1   2
BRANCH   1  16
ATOM     16  C   UNL     1      -1.942  -4.965   6.831  1.00  0.00     0.275 C 
BRANCH  16  17
ATOM     17  O   UNL     1      -1.584  -5.594   5.588  1.00  0.00    -0.458 OA
BRANCH  17  18
ATOM     18  C   UNL     1      -2.288  -5.196   4.506  1.00  0.00     0.338 C 
ATOM     19  O   UNL     1      -3.197  -4.373   4.493  1.00  0.00    -0.246 OA
BRANCH  18  20
ATOM     20  C   UNL     1      -1.811  -5.865   3.277  1.00  0.00     0.060 A 
ATOM     21  C   UNL     1      -0.455  -6.119   3.073  1.00  0.00     0.016 A 
ATOM     22  C   UNL     1      -2.719  -6.090   2.239  1.00  0.00     0.016 A 
ATOM     23  C   UNL     1       0.002  -6.438   1.790  1.00  0.00     0.010 A 
ATOM     24  C   UNL     1      -2.266  -6.532   0.992  1.00  0.00     0.010 A 
ATOM     25  C   UNL     1      -0.892  -6.656   0.728  1.00  0.00    -0.014 A 
BRANCH  25  26
ATOM     26  C   UNL     1      -0.407  -6.975  -0.652  1.00  0.00     0.031 A 
ATOM     27  C   UNL     1      -0.890  -6.181  -1.848  1.00  0.00     0.074 A 
ATOM     28  C   UNL     1       0.465  -7.984  -0.859  1.00  0.00     0.049 A 
ATOM     29  N   UNL     1      -0.783  -6.460  -3.123  1.00  0.00    -0.248 NA
ATOM     30  C   UNL     1      -1.600  -4.920  -1.575  1.00  0.00     0.031 C 
ATOM     31  C   UNL     1       1.053  -8.828   0.183  1.00  0.00     0.029 A 
ATOM     32  N   UNL     1       1.017  -8.468  -2.021  1.00  0.00    -0.354 N 
ATOM     33  C   UNL     1      -1.484  -5.464  -3.797  1.00  0.00     0.074 A 
ATOM     34  C   UNL     1      -1.991  -4.557  -2.790  1.00  0.00     0.031 C 
ATOM     35  C   UNL     1       1.924  -9.680  -0.376  1.00  0.00     0.029 A 
ATOM     36  C   UNL     1       1.876  -9.523  -1.824  1.00  0.00     0.049 A 
ATOM     37  H   UNL     1       0.816  -8.095  -2.910  1.00  0.00     0.167 HD
ATOM     38  C   UNL     1      -1.694  -5.327  -5.130  1.00  0.00     0.037 A 
ATOM     39  C   UNL     1       2.518 -10.320  -2.700  1.00  0.00     0.037 A 
ATOM     40  C   UNL     1      -1.114  -6.177  -6.139  1.00  0.00     0.049 A 
ATOM     41  C   UNL     1       2.296 -10.135  -4.171  1.00  0.00     0.074 A 
ATOM     42  C   UNL     1      -1.253  -6.100  -7.516  1.00  0.00     0.029 A 
ATOM     43  N   UNL     1      -0.261  -7.240  -5.886  1.00  0.00    -0.354 N 
ATOM     44  N   UNL     1       1.543  -9.254  -4.782  1.00  0.00    -0.248 NA
ATOM     45  C   UNL     1       2.983 -11.074  -5.068  1.00  0.00     0.031 C 
ATOM     46  C   UNL     1      -0.496  -7.127  -8.094  1.00  0.00     0.029 A 
ATOM     47  C   UNL     1       0.135  -7.825  -7.079  1.00  0.00     0.049 A 
ATOM     48  H   UNL     1       0.022  -7.536  -4.991  1.00  0.00     0.167 HD
ATOM     49  C   UNL     1       1.651  -9.542  -6.137  1.00  0.00     0.074 A 
ATOM     50  C   UNL     1       2.567 -10.659  -6.257  1.00  0.00     0.031 C 
ATOM     51  C   UNL     1       1.035  -8.943  -7.184  1.00  0.00     0.037 A 
BRANCH  38  52
ATOM     52  C   UNL     1      -2.620  -4.233  -5.589  1.00  0.00     0.058 A 
ATOM     53  C   UNL     1      -2.224  -2.889  -5.641  1.00  0.00     0.135 A 
ATOM     54  C   UNL     1      -3.908  -4.554  -6.052  1.00  0.00     0.135 A 
ATOM     55  F   UNL     1      -1.009  -2.526  -5.199  1.00  0.00    -0.206 F 
ATOM     56  C   UNL     1      -3.075  -1.899  -6.123  1.00  0.00     0.059 A 
ATOM     57  C   UNL     1      -4.769  -3.584  -6.556  1.00  0.00     0.059 A 
ATOM     58  F   UNL     1      -4.336  -5.827  -6.027  1.00  0.00    -0.206 F 
ATOM     59  C   UNL     1      -4.347  -2.256  -6.578  1.00  0.00     0.060 A 
BRANCH  59  60
ATOM     60  S   UNL     1      -5.436  -0.970  -7.229  1.00  0.00     0.124 S 
ATOM     61  O   UNL     1      -5.942  -0.368  -5.999  1.00  0.00    -0.237 OA
ATOM     62  O   UNL     1      -4.521  -0.143  -8.009  1.00  0.00    -0.237 OA
ATOM     63  O   UNL     1      -6.415  -1.720  -8.010  1.00  0.00    -0.744 OA
ENDBRANCH  59  60
ENDBRANCH  38  52
BRANCH  39  64
ATOM     64  C   UNL     1       3.393 -11.405  -2.188  1.00  0.00     0.058 A 
ATOM     65  C   UNL     1       4.788 -11.294  -2.256  1.00  0.00     0.135 A 
ATOM     66  C   UNL     1       2.851 -12.535  -1.557  1.00  0.00     0.135 A 
ATOM     67  F   UNL     1       5.348 -10.236  -2.861  1.00  0.00    -0.206 F 
ATOM     68  C   UNL     1       5.620 -12.260  -1.700  1.00  0.00     0.059 A 
ATOM     69  C   UNL     1       3.661 -13.502  -0.973  1.00  0.00     0.059 A 
ATOM     70  F   UNL     1       1.520 -12.676  -1.457  1.00  0.00    -0.206 F 
ATOM     71  C   UNL     1       5.046 -13.355  -1.051  1.00  0.00     0.060 A 
BRANCH  71  72
ATOM     72  S   UNL     1       6.121 -14.549  -0.226  1.00  0.00     0.124 S 
ATOM     73  O   UNL     1       6.488 -15.425  -1.332  1.00  0.00    -0.237 OA
ATOM     74  O   UNL     1       7.187 -13.702   0.300  1.00  0.00    -0.237 OA
ATOM     75  O   UNL     1       5.245 -15.135   0.785  1.00  0.00    -0.744 OA
ENDBRANCH  71  72
ENDBRANCH  39  64
BRANCH  51  76
ATOM     76  C   UNL     1       1.335  -9.487  -8.550  1.00  0.00     0.058 A 
ATOM     77  C   UNL     1       0.738 -10.671  -9.008  1.00  0.00     0.135 A 
ATOM     78  C   UNL     1       2.218  -8.816  -9.409  1.00  0.00     0.135 A 
ATOM     79  F   UNL     1      -0.107 -11.351  -8.218  1.00  0.00    -0.206 F 
ATOM     80  C   UNL     1       1.025 -11.186 -10.268  1.00  0.00     0.059 A 
ATOM     81  C   UNL     1       2.508  -9.306 -10.679  1.00  0.00     0.059 A 
ATOM     82  F   UNL     1       2.810  -7.678  -9.016  1.00  0.00    -0.206 F 
ATOM     83  C   UNL     1       1.917 -10.500 -11.093  1.00  0.00     0.060 A 
BRANCH  83  84
ATOM     84  S   UNL     1       2.285 -11.172 -12.728  1.00  0.00     0.124 S 
ATOM     85  O   UNL     1       3.249 -12.218 -12.404  1.00  0.00    -0.237 OA
ATOM     86  O   UNL     1       0.977 -11.635 -13.183  1.00  0.00    -0.237 OA
ATOM     87  O   UNL     1       2.822 -10.023 -13.452  1.00  0.00    -0.744 OA
ENDBRANCH  83  84
ENDBRANCH  51  76
ENDBRANCH  25  26
ENDBRANCH  18  20
ENDBRANCH  17  18
ENDBRANCH  16  17
ENDBRANCH   1  16
TORSDOF 18
