REMARK SMILES Cc1cscc1CNC(=O)CC(C)(C)C(=O)OCCOC(=O)c1ccc(-c2c3nc(c(-c4c(F)cc(S(=O)(=O)[O-])cc4F)c4ccc([nH]4)c(-c4c(F)cc(S(=O)(=O)[O-])cc4F)c4nc(c(-c5c(F)cc(S(=O)(=O)[O-])cc5F)c5ccc2[nH]5)C=C4)C=C3)cc1
REMARK SMILES IDX 18 1 17 2 15 3 16 4 12 5 13 6 14 7 11 8 9 9 8 10 10 12 7 13
REMARK SMILES IDX 6 14 1 15 2 16 3 17 4 18 5 19 19 20 20 21 21 22 22 23 23 24
REMARK SMILES IDX 24 25 88 26 25 27 87 28 26 29 27 30 28 31 81 32 29 33 86 34
REMARK SMILES IDX 80 35 82 36 30 37 85 38 79 39 78 40 31 42 65 43 44 44 64 45
REMARK SMILES IDX 45 46 48 47 63 48 83 49 46 50 47 51 62 53 84 54 49 55 32 56
REMARK SMILES IDX 33 57 42 58 34 59 35 60 41 61 43 62 36 63 37 64 38 65 39 66
REMARK SMILES IDX 40 67 66 68 67 69 76 70 68 71 69 72 75 73 77 74 70 75 71 76
REMARK SMILES IDX 72 77 73 78 74 79 50 80 51 81 60 82 52 83 53 84 59 85 61 86
REMARK SMILES IDX 54 87 55 88 56 89 57 90 58 91
REMARK H PARENT 8 11 82 41 48 52
REMARK Flexibility Score: inf
ROOT
ATOM      1  C   UNL     1      -4.142   3.767   0.245  1.00  0.00     0.274 C 
ENDROOT
BRANCH   1   2
ATOM      2  O   UNL     1      -2.977   3.991   1.067  1.00  0.00    -0.462 OA
BRANCH   2   3
ATOM      3  C   UNL     1      -1.768   3.871   0.444  1.00  0.00     0.312 C 
ATOM      4  O   UNL     1      -1.649   3.554  -0.729  1.00  0.00    -0.252 OA
BRANCH   3   5
ATOM      5  C   UNL     1      -0.602   4.068   1.430  1.00  0.00     0.071 C 
ATOM      6  C   UNL     1      -0.492   2.774   2.254  1.00  0.00     0.024 C 
ATOM      7  C   UNL     1      -0.924   5.220   2.409  1.00  0.00     0.024 C 
BRANCH   5   8
ATOM      8  C   UNL     1       0.768   4.393   0.758  1.00  0.00     0.118 C 
BRANCH   8   9
ATOM      9  C   UNL     1       0.986   4.020  -0.699  1.00  0.00     0.221 C 
ATOM     10  N   UNL     1       1.376   2.774  -1.059  1.00  0.00    -0.352 N 
ATOM     11  H   UNL     1       1.310   2.578  -2.022  1.00  0.00     0.163 HD
ATOM     12  O   UNL     1       0.843   4.859  -1.589  1.00  0.00    -0.275 OA
BRANCH  10  13
ATOM     13  C   UNL     1       1.871   1.694  -0.250  1.00  0.00     0.152 C 
BRANCH  13  14
ATOM     14  C   UNL     1       1.038   0.455  -0.420  1.00  0.00    -0.015 A 
ATOM     15  C   UNL     1       2.940  -1.197   0.233  1.00  0.00     0.045 C 
ATOM     16  C   UNL     1       1.532  -0.880  -0.157  1.00  0.00    -0.035 A 
ATOM     17  C   UNL     1       0.539  -1.829  -0.310  1.00  0.00     0.068 A 
ATOM     18  S   UNL     1      -0.951  -1.158  -0.792  1.00  0.00    -0.152 S 
ATOM     19  C   UNL     1      -0.290   0.413  -0.812  1.00  0.00     0.070 A 
ENDBRANCH  13  14
ENDBRANCH  10  13
ENDBRANCH   8   9
ENDBRANCH   5   8
ENDBRANCH   3   5
ENDBRANCH   2   3
ENDBRANCH   1   2
BRANCH   1  20
ATOM     20  C   UNL     1      -4.845   5.085  -0.066  1.00  0.00     0.275 C 
BRANCH  20  21
ATOM     21  O   UNL     1      -3.999   5.919  -0.875  1.00  0.00    -0.458 OA
BRANCH  21  22
ATOM     22  C   UNL     1      -3.508   7.022  -0.267  1.00  0.00     0.338 C 
ATOM     23  O   UNL     1      -3.748   7.423   0.860  1.00  0.00    -0.246 OA
BRANCH  22  24
ATOM     24  C   UNL     1      -2.533   7.659  -1.160  1.00  0.00     0.060 A 
ATOM     25  C   UNL     1      -1.217   7.206  -1.127  1.00  0.00     0.016 A 
ATOM     26  C   UNL     1      -2.886   8.749  -1.952  1.00  0.00     0.016 A 
ATOM     27  C   UNL     1      -0.231   7.850  -1.868  1.00  0.00     0.010 A 
ATOM     28  C   UNL     1      -1.900   9.382  -2.717  1.00  0.00     0.010 A 
ATOM     29  C   UNL     1      -0.562   8.947  -2.665  1.00  0.00    -0.014 A 
BRANCH  29  30
ATOM     30  C   UNL     1       0.503   9.710  -3.358  1.00  0.00     0.031 A 
ATOM     31  C   UNL     1       0.886  11.061  -2.830  1.00  0.00     0.074 A 
ATOM     32  C   UNL     1       1.142   9.197  -4.425  1.00  0.00     0.049 A 
ATOM     33  N   UNL     1       1.640  11.981  -3.371  1.00  0.00    -0.248 NA
ATOM     34  C   UNL     1       0.347  11.420  -1.508  1.00  0.00     0.031 C 
ATOM     35  C   UNL     1       0.956   7.847  -4.958  1.00  0.00     0.029 A 
ATOM     36  N   UNL     1       2.081   9.758  -5.254  1.00  0.00    -0.354 N 
ATOM     37  C   UNL     1       1.626  13.047  -2.481  1.00  0.00     0.074 A 
ATOM     38  C   UNL     1       0.803  12.655  -1.358  1.00  0.00     0.031 C 
ATOM     39  C   UNL     1       1.754   7.686  -6.027  1.00  0.00     0.029 A 
ATOM     40  C   UNL     1       2.457   8.939  -6.292  1.00  0.00     0.049 A 
ATOM     41  H   UNL     1       2.450  10.661  -5.119  1.00  0.00     0.167 HD
ATOM     42  C   UNL     1       2.235  14.251  -2.603  1.00  0.00     0.037 A 
ATOM     43  C   UNL     1       3.244   9.190  -7.357  1.00  0.00     0.037 A 
ATOM     44  C   UNL     1       3.071  14.619  -3.713  1.00  0.00     0.049 A 
ATOM     45  C   UNL     1       3.838  10.564  -7.522  1.00  0.00     0.074 A 
ATOM     46  C   UNL     1       3.716  15.820  -3.947  1.00  0.00     0.029 A 
ATOM     47  N   UNL     1       3.383  13.782  -4.775  1.00  0.00    -0.354 N 
ATOM     48  N   UNL     1       3.759  11.598  -6.718  1.00  0.00    -0.248 NA
ATOM     49  C   UNL     1       4.606  10.816  -8.750  1.00  0.00     0.031 C 
ATOM     50  C   UNL     1       4.392  15.720  -5.168  1.00  0.00     0.029 A 
ATOM     51  C   UNL     1       4.198  14.445  -5.676  1.00  0.00     0.049 A 
ATOM     52  H   UNL     1       3.070  12.854  -4.873  1.00  0.00     0.167 HD
ATOM     53  C   UNL     1       4.487  12.613  -7.329  1.00  0.00     0.074 A 
ATOM     54  C   UNL     1       4.997  12.071  -8.572  1.00  0.00     0.031 C 
ATOM     55  C   UNL     1       4.713  13.878  -6.898  1.00  0.00     0.037 A 
BRANCH  42  56
ATOM     56  C   UNL     1       1.948  15.270  -1.540  1.00  0.00     0.058 A 
ATOM     57  C   UNL     1       2.517  15.194  -0.259  1.00  0.00     0.135 A 
ATOM     58  C   UNL     1       1.064  16.328  -1.805  1.00  0.00     0.135 A 
ATOM     59  F   UNL     1       3.352  14.190   0.052  1.00  0.00    -0.206 F 
ATOM     60  C   UNL     1       2.189  16.112   0.735  1.00  0.00     0.059 A 
ATOM     61  C   UNL     1       0.738  17.268  -0.834  1.00  0.00     0.059 A 
ATOM     62  F   UNL     1       0.491  16.443  -3.013  1.00  0.00    -0.206 F 
ATOM     63  C   UNL     1       1.288  17.139   0.440  1.00  0.00     0.060 A 
BRANCH  63  64
ATOM     64  S   UNL     1       0.834  18.300   1.746  1.00  0.00     0.124 S 
ATOM     65  O   UNL     1      -0.117  17.509   2.519  1.00  0.00    -0.237 OA
ATOM     66  O   UNL     1       2.114  18.563   2.396  1.00  0.00    -0.237 OA
ATOM     67  O   UNL     1       0.265  19.427   1.013  1.00  0.00    -0.744 OA
ENDBRANCH  63  64
ENDBRANCH  42  56
BRANCH  43  68
ATOM     68  C   UNL     1       3.486   8.128  -8.370  1.00  0.00     0.058 A 
ATOM     69  C   UNL     1       4.746   7.524  -8.493  1.00  0.00     0.135 A 
ATOM     70  C   UNL     1       2.463   7.686  -9.224  1.00  0.00     0.135 A 
ATOM     71  F   UNL     1       5.760   7.923  -7.711  1.00  0.00    -0.206 F 
ATOM     72  C   UNL     1       4.985   6.521  -9.427  1.00  0.00     0.059 A 
ATOM     73  C   UNL     1       2.671   6.669 -10.150  1.00  0.00     0.059 A 
ATOM     74  F   UNL     1       1.239   8.230  -9.145  1.00  0.00    -0.206 F 
ATOM     75  C   UNL     1       3.939   6.096 -10.249  1.00  0.00     0.060 A 
BRANCH  75  76
ATOM     76  S   UNL     1       4.242   4.753 -11.419  1.00  0.00     0.124 S 
ATOM     77  O   UNL     1       5.003   5.436 -12.459  1.00  0.00    -0.237 OA
ATOM     78  O   UNL     1       4.989   3.798 -10.606  1.00  0.00    -0.237 OA
ATOM     79  O   UNL     1       2.898   4.327 -11.796  1.00  0.00    -0.744 OA
ENDBRANCH  75  76
ENDBRANCH  43  68
BRANCH  55  80
ATOM     80  C   UNL     1       5.587  14.758  -7.745  1.00  0.00     0.058 A 
ATOM     81  C   UNL     1       5.098  15.387  -8.899  1.00  0.00     0.135 A 
ATOM     82  C   UNL     1       6.900  15.046  -7.341  1.00  0.00     0.135 A 
ATOM     83  F   UNL     1       3.852  15.137  -9.329  1.00  0.00    -0.206 F 
ATOM     84  C   UNL     1       5.883  16.278  -9.625  1.00  0.00     0.059 A 
ATOM     85  C   UNL     1       7.696  15.947  -8.041  1.00  0.00     0.059 A 
ATOM     86  F   UNL     1       7.409  14.473  -6.239  1.00  0.00    -0.206 F 
ATOM     87  C   UNL     1       7.178  16.557  -9.184  1.00  0.00     0.060 A 
BRANCH  87  88
ATOM     88  S   UNL     1       8.163  17.771 -10.088  1.00  0.00     0.124 S 
ATOM     89  O   UNL     1       8.589  16.998 -11.250  1.00  0.00    -0.237 OA
ATOM     90  O   UNL     1       7.193  18.830 -10.352  1.00  0.00    -0.237 OA
ATOM     91  O   UNL     1       9.220  18.121  -9.144  1.00  0.00    -0.744 OA
ENDBRANCH  87  88
ENDBRANCH  55  80
ENDBRANCH  29  30
ENDBRANCH  22  24
ENDBRANCH  21  22
ENDBRANCH  20  21
ENDBRANCH   1  20
TORSDOF 18
