REMARK SMILES [NH3+][C@@H]1C(=O)N2C(C(=O)OCCOC(=O)c3ccc(-c4c5nc(c(-c6c(F)cc(S(=O)(=O)[O-])cc6F)c6ccc([nH]6)c(-c6c(F)cc(S(=O)(=O)[O-])cc6F)c6nc(c(-c7c(F)cc(S(=O)(=O)[O-])cc7F)c7ccc4[nH]7)C=C6)C=C5)cc3)=CCS[C@@H]12
REMARK SMILES IDX 11 1 10 2 9 3 7 4 8 5 6 6 2 7 3 8 84 9 4 10 5 11 83 12 82 13
REMARK SMILES IDX 81 14 1 15 12 19 13 20 14 21 15 22 16 23 80 24 17 25 79 26
REMARK SMILES IDX 18 27 19 28 20 29 73 30 21 31 78 32 72 33 74 34 22 35 77 36
REMARK SMILES IDX 71 37 70 38 23 40 57 41 36 42 56 43 37 44 40 45 55 46 75 47
REMARK SMILES IDX 38 48 39 49 54 51 76 52 41 53 24 54 25 55 34 56 26 57 27 58
REMARK SMILES IDX 33 59 35 60 28 61 29 62 30 63 31 64 32 65 58 66 59 67 68 68
REMARK SMILES IDX 60 69 61 70 67 71 69 72 62 73 63 74 64 75 65 76 66 77 42 78
REMARK SMILES IDX 43 79 52 80 44 81 45 82 51 83 53 84 46 85 47 86 48 87 49 88
REMARK SMILES IDX 50 89
REMARK H PARENT 1 16 1 17 1 18 74 39 40 50
REMARK Flexibility Score: inf
ROOT
ATOM      1  C   UNL     1      -4.891   3.529  -3.755  1.00  0.00     0.275 C 
ENDROOT
BRANCH   1   2
ATOM      2  C   UNL     1      -4.150   2.766  -4.858  1.00  0.00     0.275 C 
BRANCH   2   3
ATOM      3  O   UNL     1      -3.657   1.498  -4.378  1.00  0.00    -0.457 OA
BRANCH   3   4
ATOM      4  C   UNL     1      -2.303   1.358  -4.272  1.00  0.00     0.354 C 
ATOM      5  O   UNL     1      -1.492   2.215  -4.576  1.00  0.00    -0.244 OA
BRANCH   4   6
ATOM      6  C   UNL     1      -1.962   0.024  -3.658  1.00  0.00     0.128 C 
ATOM      7  C   UNL     1       0.784  -0.687  -1.730  1.00  0.00     0.305 C 
ATOM      8  C   UNL     1       0.368   0.479  -2.707  1.00  0.00     0.289 C 
ATOM      9  C   UNL     1      -0.679  -1.173  -1.942  1.00  0.00     0.217 C 
ATOM     10  O   UNL     1       0.868   1.506  -3.092  1.00  0.00    -0.267 OA
ATOM     11  N   UNL     1      -0.802  -0.148  -2.966  1.00  0.00    -0.282 N 
ATOM     12  S   UNL     1      -0.874  -2.777  -2.760  1.00  0.00    -0.126 SA
ATOM     13  C   UNL     1      -2.576  -2.427  -3.291  1.00  0.00     0.101 C 
ATOM     14  C   UNL     1      -2.801  -1.025  -3.791  1.00  0.00     0.018 C 
BRANCH   7  15
ATOM     15  N   UNL     1       0.964  -0.285  -0.315  1.00  0.00    -0.345 N 
ATOM     16  H   UNL     1       1.922   0.034  -0.171  1.00  0.00     0.345 HD
ATOM     17  H   UNL     1       0.776  -1.083   0.292  1.00  0.00     0.345 HD
ATOM     18  H   UNL     1       0.317   0.471  -0.092  1.00  0.00     0.345 HD
ENDBRANCH   7  15
ENDBRANCH   4   6
ENDBRANCH   3   4
ENDBRANCH   2   3
ENDBRANCH   1   2
BRANCH   1  19
ATOM     19  O   UNL     1      -3.982   3.994  -2.741  1.00  0.00    -0.458 OA
BRANCH  19  20
ATOM     20  C   UNL     1      -3.875   3.189  -1.659  1.00  0.00     0.338 C 
ATOM     21  O   UNL     1      -4.514   2.176  -1.427  1.00  0.00    -0.246 OA
BRANCH  20  22
ATOM     22  C   UNL     1      -2.701   3.587  -0.869  1.00  0.00     0.060 A 
ATOM     23  C   UNL     1      -1.594   2.754  -0.963  1.00  0.00     0.016 A 
ATOM     24  C   UNL     1      -2.686   4.673   0.004  1.00  0.00     0.016 A 
ATOM     25  C   UNL     1      -0.469   2.976  -0.183  1.00  0.00     0.010 A 
ATOM     26  C   UNL     1      -1.542   4.905   0.788  1.00  0.00     0.010 A 
ATOM     27  C   UNL     1      -0.429   4.046   0.711  1.00  0.00    -0.014 A 
BRANCH  27  28
ATOM     28  C   UNL     1       0.750   4.175   1.609  1.00  0.00     0.031 A 
ATOM     29  C   UNL     1       0.594   3.912   3.082  1.00  0.00     0.074 A 
ATOM     30  C   UNL     1       1.974   4.428   1.104  1.00  0.00     0.049 A 
ATOM     31  N   UNL     1       1.468   4.042   4.046  1.00  0.00    -0.248 NA
ATOM     32  C   UNL     1      -0.722   3.427   3.526  1.00  0.00     0.031 C 
ATOM     33  C   UNL     1       2.286   4.588  -0.318  1.00  0.00     0.029 A 
ATOM     34  N   UNL     1       3.188   4.584   1.729  1.00  0.00    -0.354 N 
ATOM     35  C   UNL     1       0.801   3.692   5.214  1.00  0.00     0.074 A 
ATOM     36  C   UNL     1      -0.555   3.353   4.839  1.00  0.00     0.031 C 
ATOM     37  C   UNL     1       3.601   4.823  -0.455  1.00  0.00     0.029 A 
ATOM     38  C   UNL     1       4.214   4.896   0.867  1.00  0.00     0.049 A 
ATOM     39  H   UNL     1       3.311   4.482   2.700  1.00  0.00     0.167 HD
ATOM     40  C   UNL     1       1.277   3.659   6.483  1.00  0.00     0.037 A 
ATOM     41  C   UNL     1       5.493   5.245   1.115  1.00  0.00     0.037 A 
ATOM     42  C   UNL     1       2.635   3.981   6.843  1.00  0.00     0.049 A 
ATOM     43  C   UNL     1       5.974   5.299   2.541  1.00  0.00     0.074 A 
ATOM     44  C   UNL     1       3.212   3.985   8.101  1.00  0.00     0.029 A 
ATOM     45  N   UNL     1       3.627   4.360   5.949  1.00  0.00    -0.354 N 
ATOM     46  N   UNL     1       5.324   5.007   3.643  1.00  0.00    -0.248 NA
ATOM     47  C   UNL     1       7.360   5.736   2.760  1.00  0.00     0.031 C 
ATOM     48  C   UNL     1       4.534   4.424   7.975  1.00  0.00     0.029 A 
ATOM     49  C   UNL     1       4.804   4.627   6.631  1.00  0.00     0.049 A 
ATOM     50  H   UNL     1       3.511   4.428   4.974  1.00  0.00     0.167 HD
ATOM     51  C   UNL     1       6.229   5.199   4.683  1.00  0.00     0.074 A 
ATOM     52  C   UNL     1       7.475   5.619   4.076  1.00  0.00     0.031 C 
ATOM     53  C   UNL     1       6.044   5.038   6.017  1.00  0.00     0.037 A 
BRANCH  40  54
ATOM     54  C   UNL     1       0.305   3.321   7.582  1.00  0.00     0.058 A 
ATOM     55  C   UNL     1      -0.221   2.030   7.748  1.00  0.00     0.135 A 
ATOM     56  C   UNL     1      -0.096   4.311   8.494  1.00  0.00     0.135 A 
ATOM     57  F   UNL     1       0.112   1.048   6.896  1.00  0.00    -0.206 F 
ATOM     58  C   UNL     1      -1.137   1.742   8.757  1.00  0.00     0.059 A 
ATOM     59  C   UNL     1      -0.985   4.039   9.530  1.00  0.00     0.059 A 
ATOM     60  F   UNL     1       0.375   5.563   8.383  1.00  0.00    -0.206 F 
ATOM     61  C   UNL     1      -1.514   2.755   9.641  1.00  0.00     0.060 A 
BRANCH  61  62
ATOM     62  S   UNL     1      -2.714   2.371  10.935  1.00  0.00     0.124 S 
ATOM     63  O   UNL     1      -3.941   2.220  10.158  1.00  0.00    -0.237 OA
ATOM     64  O   UNL     1      -2.171   1.143  11.507  1.00  0.00    -0.237 OA
ATOM     65  O   UNL     1      -2.664   3.541  11.806  1.00  0.00    -0.744 OA
ENDBRANCH  61  62
ENDBRANCH  40  54
BRANCH  41  66
ATOM     66  C   UNL     1       6.394   5.617  -0.011  1.00  0.00     0.058 A 
ATOM     67  C   UNL     1       7.505   4.831  -0.348  1.00  0.00     0.135 A 
ATOM     68  C   UNL     1       6.158   6.773  -0.774  1.00  0.00     0.135 A 
ATOM     69  F   UNL     1       7.785   3.726   0.360  1.00  0.00    -0.206 F 
ATOM     70  C   UNL     1       8.356   5.181  -1.393  1.00  0.00     0.059 A 
ATOM     71  C   UNL     1       6.975   7.126  -1.843  1.00  0.00     0.059 A 
ATOM     72  F   UNL     1       5.109   7.561  -0.496  1.00  0.00    -0.206 F 
ATOM     73  C   UNL     1       8.079   6.329  -2.139  1.00  0.00     0.060 A 
BRANCH  73  74
ATOM     74  S   UNL     1       9.165   6.749  -3.520  1.00  0.00     0.124 S 
ATOM     75  O   UNL     1      10.375   7.171  -2.824  1.00  0.00    -0.237 OA
ATOM     76  O   UNL     1       9.251   5.481  -4.238  1.00  0.00    -0.237 OA
ATOM     77  O   UNL     1       8.436   7.806  -4.213  1.00  0.00    -0.744 OA
ENDBRANCH  73  74
ENDBRANCH  41  66
BRANCH  53  78
ATOM     78  C   UNL     1       7.228   5.271   6.918  1.00  0.00     0.058 A 
ATOM     79  C   UNL     1       7.745   6.555   7.152  1.00  0.00     0.135 A 
ATOM     80  C   UNL     1       7.821   4.194   7.599  1.00  0.00     0.135 A 
ATOM     81  F   UNL     1       7.222   7.619   6.523  1.00  0.00    -0.206 F 
ATOM     82  C   UNL     1       8.822   6.760   8.009  1.00  0.00     0.059 A 
ATOM     83  C   UNL     1       8.877   4.380   8.486  1.00  0.00     0.059 A 
ATOM     84  F   UNL     1       7.360   2.945   7.422  1.00  0.00    -0.206 F 
ATOM     85  C   UNL     1       9.379   5.666   8.675  1.00  0.00     0.060 A 
BRANCH  85  86
ATOM     86  S   UNL     1      10.754   5.951   9.810  1.00  0.00     0.124 S 
ATOM     87  O   UNL     1      11.842   6.254   8.887  1.00  0.00    -0.237 OA
ATOM     88  O   UNL     1      10.270   7.072  10.610  1.00  0.00    -0.237 OA
ATOM     89  O   UNL     1      10.873   4.684  10.526  1.00  0.00    -0.744 OA
ENDBRANCH  85  86
ENDBRANCH  53  78
ENDBRANCH  27  28
ENDBRANCH  20  22
ENDBRANCH  19  20
ENDBRANCH   1  19
TORSDOF 15
