REMARK SMILES Cc1[nH]c2ccccc2c1/N=N\c1ccccc1C(=O)OCCOC(=O)c1ccc(-c2c3nc(c(-c4c(F)cc(S(=O)(=O)[O-])cc4F)c4ccc([nH]4)c(-c4c(F)cc(S(=O)(=O)[O-])cc4F)c4nc(c(-c5c(F)cc(S(=O)(=O)[O-])cc5F)c5ccc2[nH]5)C=C4)C=C3)cc1
REMARK SMILES IDX 23 1 22 2 21 3 19 4 20 5 18 6 13 7 14 8 15 9 17 10 16 11
REMARK SMILES IDX 12 12 11 13 10 14 1 15 2 16 3 17 4 18 9 20 5 21 8 22 6 23
REMARK SMILES IDX 7 24 24 25 25 26 26 27 27 28 28 29 92 30 29 31 91 32 30 33
REMARK SMILES IDX 31 34 32 35 85 36 33 37 90 38 84 39 86 40 34 41 89 42 83 43
REMARK SMILES IDX 82 44 35 46 69 47 48 48 68 49 49 50 52 51 67 52 87 53 50 54
REMARK SMILES IDX 51 55 66 57 88 58 53 59 36 60 37 61 46 62 38 63 39 64 45 65
REMARK SMILES IDX 47 66 40 67 41 68 42 69 43 70 44 71 70 72 71 73 80 74 72 75
REMARK SMILES IDX 73 76 79 77 81 78 74 79 75 80 76 81 77 82 78 83 54 84 55 85
REMARK SMILES IDX 64 86 56 87 57 88 63 89 65 90 58 91 59 92 60 93 61 94 62 95
REMARK H PARENT 3 19 86 45 52 56
REMARK Flexibility Score: inf
ROOT
ATOM      1  C   UNL     1      -0.669  -1.482  -4.234  1.00  0.00     0.275 C 
ENDROOT
BRANCH   1   2
ATOM      2  C   UNL     1      -0.536  -1.788  -2.739  1.00  0.00     0.275 C 
BRANCH   2   3
ATOM      3  O   UNL     1      -1.794  -2.142  -2.134  1.00  0.00    -0.458 OA
BRANCH   3   4
ATOM      4  C   UNL     1      -2.457  -1.086  -1.611  1.00  0.00     0.340 C 
ATOM      5  O   UNL     1      -2.120   0.084  -1.685  1.00  0.00    -0.246 OA
BRANCH   4   6
ATOM      6  C   UNL     1      -3.675  -1.490  -0.894  1.00  0.00     0.087 A 
ATOM      7  C   UNL     1      -3.550  -2.187   0.313  1.00  0.00     0.100 A 
ATOM      8  C   UNL     1      -4.706  -2.367   1.092  1.00  0.00     0.031 A 
ATOM      9  C   UNL     1      -5.930  -1.797   0.715  1.00  0.00     0.002 A 
ATOM     10  C   UNL     1      -4.909  -0.949  -1.290  1.00  0.00     0.018 A 
ATOM     11  C   UNL     1      -6.030  -1.081  -0.474  1.00  0.00     0.001 A 
BRANCH   7  12
ATOM     12  N   UNL     1      -2.284  -2.643   0.761  1.00  0.00    -0.150 NA
ATOM     13  N   UNL     1      -1.831  -1.963   1.716  1.00  0.00    -0.148 NA
BRANCH  13  14
ATOM     14  C   UNL     1      -1.201  -0.760   1.339  1.00  0.00     0.114 A 
ATOM     15  C   UNL     1      -3.179   0.918   1.717  1.00  0.00     0.067 C 
ATOM     16  C   UNL     1      -1.806   0.480   1.372  1.00  0.00     0.041 A 
ATOM     17  N   UNL     1      -0.886   1.379   0.891  1.00  0.00    -0.357 N 
ATOM     18  C   UNL     1       0.313   0.758   0.628  1.00  0.00     0.048 A 
ATOM     19  H   UNL     1      -1.061   2.338   0.753  1.00  0.00     0.166 HD
ATOM     20  C   UNL     1       0.141  -0.606   0.879  1.00  0.00     0.027 A 
ATOM     21  C   UNL     1       1.515   1.309   0.168  1.00  0.00     0.027 A 
ATOM     22  C   UNL     1       1.233  -1.467   0.632  1.00  0.00     0.012 A 
ATOM     23  C   UNL     1       2.586   0.440  -0.041  1.00  0.00     0.002 A 
ATOM     24  C   UNL     1       2.448  -0.929   0.179  1.00  0.00     0.001 A 
ENDBRANCH  13  14
ENDBRANCH   7  12
ENDBRANCH   4   6
ENDBRANCH   3   4
ENDBRANCH   2   3
ENDBRANCH   1   2
BRANCH   1  25
ATOM     25  O   UNL     1      -1.349  -0.235  -4.484  1.00  0.00    -0.458 OA
BRANCH  25  26
ATOM     26  C   UNL     1      -2.684  -0.350  -4.655  1.00  0.00     0.338 C 
ATOM     27  O   UNL     1      -3.342  -1.381  -4.659  1.00  0.00    -0.246 OA
BRANCH  26  28
ATOM     28  C   UNL     1      -3.327   0.964  -4.795  1.00  0.00     0.060 A 
ATOM     29  C   UNL     1      -3.882   1.565  -3.666  1.00  0.00     0.016 A 
ATOM     30  C   UNL     1      -3.629   1.450  -6.064  1.00  0.00     0.016 A 
ATOM     31  C   UNL     1      -4.846   2.550  -3.795  1.00  0.00     0.010 A 
ATOM     32  C   UNL     1      -4.520   2.519  -6.188  1.00  0.00     0.010 A 
ATOM     33  C   UNL     1      -5.180   3.038  -5.058  1.00  0.00    -0.014 A 
BRANCH  33  34
ATOM     34  C   UNL     1      -6.285   4.017  -5.196  1.00  0.00     0.031 A 
ATOM     35  C   UNL     1      -7.488   3.658  -6.024  1.00  0.00     0.074 A 
ATOM     36  C   UNL     1      -6.226   5.200  -4.556  1.00  0.00     0.049 A 
ATOM     37  N   UNL     1      -8.459   4.422  -6.449  1.00  0.00    -0.248 NA
ATOM     38  C   UNL     1      -7.603   2.251  -6.446  1.00  0.00     0.031 C 
ATOM     39  C   UNL     1      -5.154   5.625  -3.651  1.00  0.00     0.029 A 
ATOM     40  N   UNL     1      -7.089   6.266  -4.567  1.00  0.00    -0.354 N 
ATOM     41  C   UNL     1      -9.263   3.607  -7.240  1.00  0.00     0.074 A 
ATOM     42  C   UNL     1      -8.659   2.293  -7.245  1.00  0.00     0.031 C 
ATOM     43  C   UNL     1      -5.434   6.848  -3.178  1.00  0.00     0.029 A 
ATOM     44  C   UNL     1      -6.647   7.334  -3.823  1.00  0.00     0.049 A 
ATOM     45  H   UNL     1      -7.941   6.266  -5.059  1.00  0.00     0.167 HD
ATOM     46  C   UNL     1     -10.399   3.936  -7.900  1.00  0.00     0.037 A 
ATOM     47  C   UNL     1      -7.133   8.584  -3.717  1.00  0.00     0.037 A 
ATOM     48  C   UNL     1     -10.999   5.244  -7.843  1.00  0.00     0.049 A 
ATOM     49  C   UNL     1      -8.358   8.946  -4.508  1.00  0.00     0.074 A 
ATOM     50  C   UNL     1     -12.145   5.697  -8.471  1.00  0.00     0.029 A 
ATOM     51  N   UNL     1     -10.502   6.310  -7.102  1.00  0.00    -0.354 N 
ATOM     52  N   UNL     1      -9.073   8.193  -5.310  1.00  0.00    -0.248 NA
ATOM     53  C   UNL     1      -8.835  10.328  -4.390  1.00  0.00     0.031 C 
ATOM     54  C   UNL     1     -12.315   7.048  -8.148  1.00  0.00     0.029 A 
ATOM     55  C   UNL     1     -11.311   7.421  -7.267  1.00  0.00     0.049 A 
ATOM     56  H   UNL     1      -9.694   6.278  -6.541  1.00  0.00     0.167 HD
ATOM     57  C   UNL     1     -10.105   9.001  -5.770  1.00  0.00     0.074 A 
ATOM     58  C   UNL     1      -9.923  10.298  -5.148  1.00  0.00     0.031 C 
ATOM     59  C   UNL     1     -11.114   8.699  -6.626  1.00  0.00     0.037 A 
BRANCH  46  60
ATOM     60  C   UNL     1     -11.029   2.882  -8.774  1.00  0.00     0.058 A 
ATOM     61  C   UNL     1     -11.638   1.732  -8.245  1.00  0.00     0.135 A 
ATOM     62  C   UNL     1     -11.022   3.029 -10.172  1.00  0.00     0.135 A 
ATOM     63  F   UNL     1     -11.659   1.528  -6.918  1.00  0.00    -0.206 F 
ATOM     64  C   UNL     1     -12.178   0.749  -9.069  1.00  0.00     0.059 A 
ATOM     65  C   UNL     1     -11.587   2.074 -11.013  1.00  0.00     0.059 A 
ATOM     66  F   UNL     1     -10.454   4.106 -10.736  1.00  0.00    -0.206 F 
ATOM     67  C   UNL     1     -12.145   0.927 -10.453  1.00  0.00     0.060 A 
BRANCH  67  68
ATOM     68  S   UNL     1     -12.835  -0.365 -11.508  1.00  0.00     0.124 S 
ATOM     69  O   UNL     1     -11.837  -1.421 -11.367  1.00  0.00    -0.237 OA
ATOM     70  O   UNL     1     -14.126  -0.625 -10.879  1.00  0.00    -0.237 OA
ATOM     71  O   UNL     1     -12.897   0.266 -12.823  1.00  0.00    -0.744 OA
ENDBRANCH  67  68
ENDBRANCH  46  60
BRANCH  47  72
ATOM     72  C   UNL     1      -6.441   9.579  -2.855  1.00  0.00     0.058 A 
ATOM     73  C   UNL     1      -7.039  10.053  -1.680  1.00  0.00     0.135 A 
ATOM     74  C   UNL     1      -5.154  10.047  -3.167  1.00  0.00     0.135 A 
ATOM     75  F   UNL     1      -8.271   9.642  -1.341  1.00  0.00    -0.206 F 
ATOM     76  C   UNL     1      -6.393  10.961  -0.848  1.00  0.00     0.059 A 
ATOM     77  C   UNL     1      -4.473  10.930  -2.335  1.00  0.00     0.059 A 
ATOM     78  F   UNL     1      -4.528   9.613  -4.272  1.00  0.00    -0.206 F 
ATOM     79  C   UNL     1      -5.105  11.388  -1.180  1.00  0.00     0.060 A 
BRANCH  79  80
ATOM     80  S   UNL     1      -4.252  12.517  -0.059  1.00  0.00     0.124 S 
ATOM     81  O   UNL     1      -4.995  13.754  -0.267  1.00  0.00    -0.237 OA
ATOM     82  O   UNL     1      -4.444  11.864   1.233  1.00  0.00    -0.237 OA
ATOM     83  O   UNL     1      -2.880  12.512  -0.557  1.00  0.00    -0.744 OA
ENDBRANCH  79  80
ENDBRANCH  47  72
BRANCH  59  84
ATOM     84  C   UNL     1     -12.133   9.773  -6.888  1.00  0.00     0.058 A 
ATOM     85  C   UNL     1     -11.837  10.909  -7.657  1.00  0.00     0.135 A 
ATOM     86  C   UNL     1     -13.439   9.638  -6.390  1.00  0.00     0.135 A 
ATOM     87  F   UNL     1     -10.601  11.090  -8.148  1.00  0.00    -0.206 F 
ATOM     88  C   UNL     1     -12.793  11.890  -7.897  1.00  0.00     0.059 A 
ATOM     89  C   UNL     1     -14.420  10.589  -6.646  1.00  0.00     0.059 A 
ATOM     90  F   UNL     1     -13.777   8.565  -5.657  1.00  0.00    -0.206 F 
ATOM     91  C   UNL     1     -14.083  11.720  -7.388  1.00  0.00     0.060 A 
BRANCH  91  92
ATOM     92  S   UNL     1     -15.321  12.987  -7.730  1.00  0.00     0.124 S 
ATOM     93  O   UNL     1     -14.875  14.074  -6.864  1.00  0.00    -0.237 OA
ATOM     94  O   UNL     1     -15.154  13.207  -9.163  1.00  0.00    -0.237 OA
ATOM     95  O   UNL     1     -16.576  12.350  -7.342  1.00  0.00    -0.744 OA
ENDBRANCH  91  92
ENDBRANCH  59  84
ENDBRANCH  33  34
ENDBRANCH  26  28
ENDBRANCH  25  26
ENDBRANCH   1  25
TORSDOF 16
