REMARK SMILES C[C@@H](O)[C@@H](NC(=O)CSc1ccncc1)C(=O)OCCOC(=O)c1ccc(-c2c3nc(c(-c4c(F)cc(S(=O)(=O)[O-])cc4F)c4ccc([nH]4)c(-c4c(F)cc(S(=O)(=O)[O-])cc4F)c4nc(c(-c5c(F)cc(S(=O)(=O)[O-])cc5F)c5ccc2[nH]5)C=C4)C=C3)cc1
REMARK SMILES IDX 19 1 18 2 16 3 17 4 4 5 2 6 1 7 3 8 5 10 6 11 7 13 8 14 9 15
REMARK SMILES IDX 10 16 11 17 15 18 12 19 14 20 13 21 20 22 21 23 22 24 23 25
REMARK SMILES IDX 24 26 25 27 89 28 26 29 88 30 27 31 28 32 29 33 82 34 30 35
REMARK SMILES IDX 87 36 81 37 83 38 31 39 86 40 80 41 79 42 32 44 66 45 45 46
REMARK SMILES IDX 65 47 46 48 49 49 64 50 84 51 47 52 48 53 63 55 85 56 50 57
REMARK SMILES IDX 33 58 34 59 43 60 35 61 36 62 42 63 44 64 37 65 38 66 39 67
REMARK SMILES IDX 40 68 41 69 67 70 68 71 77 72 69 73 70 74 76 75 78 76 71 77
REMARK SMILES IDX 72 78 73 79 74 80 75 81 51 82 52 83 61 84 53 85 54 86 60 87
REMARK SMILES IDX 62 88 55 89 56 90 57 91 58 92 59 93
REMARK H PARENT 3 9 5 12 83 43 49 54
REMARK Flexibility Score: inf
ROOT
ATOM      1  C   UNL     1      -1.457  -4.283   2.818  1.00  0.00     0.274 C 
ENDROOT
BRANCH   1   2
ATOM      2  O   UNL     1      -0.891  -3.279   1.945  1.00  0.00    -0.460 OA
BRANCH   2   3
ATOM      3  C   UNL     1      -1.753  -2.337   1.462  1.00  0.00     0.331 C 
ATOM      4  O   UNL     1      -2.934  -2.252   1.781  1.00  0.00    -0.250 OA
BRANCH   3   5
ATOM      5  C   UNL     1      -1.118  -1.448   0.381  1.00  0.00     0.221 C 
BRANCH   5   6
ATOM      6  C   UNL     1       0.437  -1.374   0.434  1.00  0.00     0.145 C 
ATOM      7  C   UNL     1       1.012  -0.411  -0.610  1.00  0.00     0.041 C 
BRANCH   6   8
ATOM      8  O   UNL     1       0.883  -0.815   1.671  1.00  0.00    -0.391 OA
ATOM      9  H   UNL     1       0.559   0.096   1.750  1.00  0.00     0.211 HD
ENDBRANCH   6   8
ENDBRANCH   5   6
BRANCH   5  10
ATOM     10  N   UNL     1      -1.654  -1.564  -0.996  1.00  0.00    -0.340 N 
ATOM     11  C   UNL     1      -2.310  -2.514  -1.708  1.00  0.00     0.231 C 
ATOM     12  H   UNL     1      -1.495  -0.750  -1.525  1.00  0.00     0.164 HD
ATOM     13  O   UNL     1      -2.269  -2.389  -2.939  1.00  0.00    -0.274 OA
BRANCH  11  14
ATOM     14  C   UNL     1      -3.148  -3.605  -1.100  1.00  0.00     0.174 C 
BRANCH  14  15
ATOM     15  S   UNL     1      -2.320  -5.043  -0.372  1.00  0.00    -0.116 SA
BRANCH  15  16
ATOM     16  C   UNL     1      -0.917  -5.518  -1.353  1.00  0.00     0.011 A 
ATOM     17  C   UNL     1      -0.576  -6.874  -1.286  1.00  0.00     0.035 A 
ATOM     18  C   UNL     1      -0.049  -4.668  -2.025  1.00  0.00     0.035 A 
ATOM     19  C   UNL     1       0.590  -7.311  -1.892  1.00  0.00     0.112 A 
ATOM     20  C   UNL     1       1.092  -5.198  -2.611  1.00  0.00     0.112 A 
ATOM     21  N   UNL     1       1.433  -6.501  -2.558  1.00  0.00    -0.265 NA
ENDBRANCH  15  16
ENDBRANCH  14  15
ENDBRANCH  11  14
ENDBRANCH   5  10
ENDBRANCH   3   5
ENDBRANCH   2   3
ENDBRANCH   1   2
BRANCH   1  22
ATOM     22  C   UNL     1      -1.041  -4.102   4.277  1.00  0.00     0.275 C 
BRANCH  22  23
ATOM     23  O   UNL     1      -1.497  -2.846   4.801  1.00  0.00    -0.458 OA
BRANCH  23  24
ATOM     24  C   UNL     1      -0.651  -1.818   4.570  1.00  0.00     0.338 C 
ATOM     25  O   UNL     1       0.454  -1.892   4.043  1.00  0.00    -0.246 OA
BRANCH  24  26
ATOM     26  C   UNL     1      -1.325  -0.544   4.850  1.00  0.00     0.060 A 
ATOM     27  C   UNL     1      -1.371   0.404   3.825  1.00  0.00     0.016 A 
ATOM     28  C   UNL     1      -1.858  -0.258   6.108  1.00  0.00     0.016 A 
ATOM     29  C   UNL     1      -1.936   1.651   4.049  1.00  0.00     0.010 A 
ATOM     30  C   UNL     1      -2.420   1.001   6.337  1.00  0.00     0.010 A 
ATOM     31  C   UNL     1      -2.445   1.963   5.313  1.00  0.00    -0.014 A 
BRANCH  31  32
ATOM     32  C   UNL     1      -2.911   3.342   5.566  1.00  0.00     0.031 A 
ATOM     33  C   UNL     1      -2.010   4.297   6.289  1.00  0.00     0.074 A 
ATOM     34  C   UNL     1      -4.103   3.740   5.087  1.00  0.00     0.049 A 
ATOM     35  N   UNL     1      -2.229   5.537   6.636  1.00  0.00    -0.248 NA
ATOM     36  C   UNL     1      -0.682   3.788   6.672  1.00  0.00     0.031 C 
ATOM     37  C   UNL     1      -5.026   2.903   4.319  1.00  0.00     0.029 A 
ATOM     38  N   UNL     1      -4.737   4.952   5.172  1.00  0.00    -0.354 N 
ATOM     39  C   UNL     1      -1.077   5.955   7.290  1.00  0.00     0.074 A 
ATOM     40  C   UNL     1      -0.167   4.830   7.308  1.00  0.00     0.031 C 
ATOM     41  C   UNL     1      -6.113   3.628   4.005  1.00  0.00     0.029 A 
ATOM     42  C   UNL     1      -5.976   4.964   4.579  1.00  0.00     0.049 A 
ATOM     43  H   UNL     1      -4.343   5.737   5.614  1.00  0.00     0.167 HD
ATOM     44  C   UNL     1      -0.806   7.169   7.824  1.00  0.00     0.037 A 
ATOM     45  C   UNL     1      -6.903   5.939   4.529  1.00  0.00     0.037 A 
ATOM     46  C   UNL     1      -1.720   8.281   7.790  1.00  0.00     0.049 A 
ATOM     47  C   UNL     1      -6.599   7.264   5.174  1.00  0.00     0.074 A 
ATOM     48  C   UNL     1      -1.548   9.555   8.300  1.00  0.00     0.029 A 
ATOM     49  N   UNL     1      -2.982   8.248   7.213  1.00  0.00    -0.354 N 
ATOM     50  N   UNL     1      -5.511   7.644   5.803  1.00  0.00    -0.248 NA
ATOM     51  C   UNL     1      -7.647   8.291   5.107  1.00  0.00     0.031 C 
ATOM     52  C   UNL     1      -2.721  10.281   8.064  1.00  0.00     0.029 A 
ATOM     53  C   UNL     1      -3.608   9.473   7.370  1.00  0.00     0.049 A 
ATOM     54  H   UNL     1      -3.375   7.468   6.758  1.00  0.00     0.167 HD
ATOM     55  C   UNL     1      -5.737   8.959   6.194  1.00  0.00     0.074 A 
ATOM     56  C   UNL     1      -7.059   9.313   5.715  1.00  0.00     0.031 C 
ATOM     57  C   UNL     1      -4.928   9.798   6.887  1.00  0.00     0.037 A 
BRANCH  44  58
ATOM     58  C   UNL     1       0.514   7.340   8.519  1.00  0.00     0.058 A 
ATOM     59  C   UNL     1       1.722   7.424   7.808  1.00  0.00     0.135 A 
ATOM     60  C   UNL     1       0.572   7.428   9.920  1.00  0.00     0.135 A 
ATOM     61  F   UNL     1       1.726   7.323   6.469  1.00  0.00    -0.206 F 
ATOM     62  C   UNL     1       2.942   7.564   8.462  1.00  0.00     0.059 A 
ATOM     63  C   UNL     1       1.779   7.591  10.593  1.00  0.00     0.059 A 
ATOM     64  F   UNL     1      -0.553   7.346  10.648  1.00  0.00    -0.206 F 
ATOM     65  C   UNL     1       2.961   7.642   9.856  1.00  0.00     0.060 A 
BRANCH  65  66
ATOM     66  S   UNL     1       4.551   7.815  10.693  1.00  0.00     0.124 S 
ATOM     67  O   UNL     1       5.093   6.466  10.568  1.00  0.00    -0.237 OA
ATOM     68  O   UNL     1       5.216   8.841   9.895  1.00  0.00    -0.237 OA
ATOM     69  O   UNL     1       4.180   8.220  12.045  1.00  0.00    -0.744 OA
ENDBRANCH  65  66
ENDBRANCH  44  58
BRANCH  45  70
ATOM     70  C   UNL     1      -8.207   5.689   3.861  1.00  0.00     0.058 A 
ATOM     71  C   UNL     1      -8.533   6.310   2.647  1.00  0.00     0.135 A 
ATOM     72  C   UNL     1      -9.146   4.806   4.417  1.00  0.00     0.135 A 
ATOM     73  F   UNL     1      -7.672   7.169   2.081  1.00  0.00    -0.206 F 
ATOM     74  C   UNL     1      -9.748   6.073   2.012  1.00  0.00     0.059 A 
ATOM     75  C   UNL     1     -10.357   4.534   3.789  1.00  0.00     0.059 A 
ATOM     76  F   UNL     1      -8.877   4.177   5.572  1.00  0.00    -0.206 F 
ATOM     77  C   UNL     1     -10.653   5.180   2.590  1.00  0.00     0.060 A 
BRANCH  77  78
ATOM     78  S   UNL     1     -12.202   4.832   1.730  1.00  0.00     0.124 S 
ATOM     79  O   UNL     1     -12.969   6.042   2.006  1.00  0.00    -0.237 OA
ATOM     80  O   UNL     1     -11.757   4.659   0.350  1.00  0.00    -0.237 OA
ATOM     81  O   UNL     1     -12.682   3.617   2.382  1.00  0.00    -0.744 OA
ENDBRANCH  77  78
ENDBRANCH  45  70
BRANCH  57  82
ATOM     82  C   UNL     1      -5.446  11.183   7.150  1.00  0.00     0.058 A 
ATOM     83  C   UNL     1      -6.443  11.424   8.108  1.00  0.00     0.135 A 
ATOM     84  C   UNL     1      -4.916  12.285   6.460  1.00  0.00     0.135 A 
ATOM     85  F   UNL     1      -6.985  10.403   8.790  1.00  0.00    -0.206 F 
ATOM     86  C   UNL     1      -6.917  12.708   8.354  1.00  0.00     0.059 A 
ATOM     87  C   UNL     1      -5.358  13.580   6.707  1.00  0.00     0.059 A 
ATOM     88  F   UNL     1      -3.953  12.108   5.542  1.00  0.00    -0.206 F 
ATOM     89  C   UNL     1      -6.370  13.780   7.645  1.00  0.00     0.060 A 
BRANCH  89  90
ATOM     90  S   UNL     1      -6.979  15.445   7.983  1.00  0.00     0.124 S 
ATOM     91  O   UNL     1      -8.254  15.440   7.273  1.00  0.00    -0.237 OA
ATOM     92  O   UNL     1      -7.066  15.459   9.440  1.00  0.00    -0.237 OA
ATOM     93  O   UNL     1      -5.946  16.305   7.415  1.00  0.00    -0.744 OA
ENDBRANCH  89  90
ENDBRANCH  57  82
ENDBRANCH  31  32
ENDBRANCH  24  26
ENDBRANCH  23  24
ENDBRANCH  22  23
ENDBRANCH   1  22
TORSDOF 20
