REMARK SMILES [NH3+]C[C@@H]1CCCC[C@H]1CC(=O)OCCOC(=O)c1ccc(-c2c3nc(c(-c4c(F)cc(S(=O)(=O)[O-])cc4F)c4ccc([nH]4)c(-c4c(F)cc(S(=O)(=O)[O-])cc4F)c4nc(c(-c5c(F)cc(S(=O)(=O)[O-])cc5F)c5ccc2[nH]5)C=C4)C=C3)cc1
REMARK SMILES IDX 13 1 12 2 10 3 11 4 9 5 8 6 3 7 4 8 5 9 7 10 6 11 2 12 1 13
REMARK SMILES IDX 14 17 15 18 16 19 17 20 18 21 19 22 83 23 20 24 82 25 21 26
REMARK SMILES IDX 22 27 23 28 76 29 24 30 81 31 75 32 77 33 25 34 80 35 74 36
REMARK SMILES IDX 73 37 26 39 60 40 39 41 59 42 40 43 43 44 58 45 78 46 41 47
REMARK SMILES IDX 42 48 57 50 79 51 44 52 27 53 28 54 37 55 29 56 30 57 36 58
REMARK SMILES IDX 38 59 31 60 32 61 33 62 34 63 35 64 61 65 62 66 71 67 63 68
REMARK SMILES IDX 64 69 70 70 72 71 65 72 66 73 67 74 68 75 69 76 45 77 46 78
REMARK SMILES IDX 55 79 47 80 48 81 54 82 56 83 49 84 50 85 51 86 52 87 53 88
REMARK H PARENT 1 14 1 15 1 16 77 38 43 49
REMARK Flexibility Score: inf
ROOT
ATOM      1  C   UNL     1       1.560   2.608  -1.500  1.00  0.00     0.274 C 
ENDROOT
BRANCH   1   2
ATOM      2  O   UNL     1       1.569   1.207  -1.833  1.00  0.00    -0.462 OA
BRANCH   2   3
ATOM      3  C   UNL     1       2.771   0.619  -2.024  1.00  0.00     0.306 C 
ATOM      4  O   UNL     1       3.850   1.187  -1.911  1.00  0.00    -0.252 OA
BRANCH   3   5
ATOM      5  C   UNL     1       2.640  -0.806  -2.518  1.00  0.00     0.126 C 
BRANCH   5   6
ATOM      6  C   UNL     1       1.920  -1.846  -1.618  1.00  0.00     0.009 C 
ATOM      7  C   UNL     1       0.423  -2.067  -2.015  1.00  0.00     0.048 C 
ATOM      8  C   UNL     1      -0.178  -3.359  -1.421  1.00  0.00     0.010 C 
ATOM      9  C   UNL     1       0.679  -4.580  -1.702  1.00  0.00     0.001 C 
ATOM     10  C   UNL     1       2.734  -3.165  -1.723  1.00  0.00     0.005 C 
ATOM     11  C   UNL     1       2.058  -4.380  -1.104  1.00  0.00     0.000 C 
BRANCH   7  12
ATOM     12  C   UNL     1      -0.537  -0.896  -1.700  1.00  0.00     0.262 C 
BRANCH  12  13
ATOM     13  N   UNL     1      -0.598  -0.484  -0.303  1.00  0.00    -0.357 N 
ATOM     14  H   UNL     1      -1.255   0.290  -0.204  1.00  0.00     0.344 HD
ATOM     15  H   UNL     1       0.328  -0.184   0.003  1.00  0.00     0.344 HD
ATOM     16  H   UNL     1      -0.907  -1.269   0.270  1.00  0.00     0.344 HD
ENDBRANCH  12  13
ENDBRANCH   7  12
ENDBRANCH   5   6
ENDBRANCH   3   5
ENDBRANCH   2   3
ENDBRANCH   1   2
BRANCH   1  17
ATOM     17  C   UNL     1       1.381   2.840   0.002  1.00  0.00     0.275 C 
BRANCH  17  18
ATOM     18  O   UNL     1       2.582   2.532   0.728  1.00  0.00    -0.458 OA
BRANCH  18  19
ATOM     19  C   UNL     1       2.696   1.246   1.135  1.00  0.00     0.338 C 
ATOM     20  O   UNL     1       1.872   0.357   1.008  1.00  0.00    -0.246 OA
BRANCH  19  21
ATOM     21  C   UNL     1       4.050   1.023   1.658  1.00  0.00     0.060 A 
ATOM     22  C   UNL     1       4.854   0.066   1.031  1.00  0.00     0.016 A 
ATOM     23  C   UNL     1       4.503   1.720   2.780  1.00  0.00     0.016 A 
ATOM     24  C   UNL     1       6.129  -0.194   1.524  1.00  0.00     0.010 A 
ATOM     25  C   UNL     1       5.780   1.455   3.273  1.00  0.00     0.010 A 
ATOM     26  C   UNL     1       6.596   0.495   2.650  1.00  0.00    -0.014 A 
BRANCH  26  27
ATOM     27  C   UNL     1       7.943   0.209   3.189  1.00  0.00     0.031 A 
ATOM     28  C   UNL     1       8.092  -0.613   4.433  1.00  0.00     0.074 A 
ATOM     29  C   UNL     1       9.021   0.722   2.570  1.00  0.00     0.049 A 
ATOM     30  N   UNL     1       9.173  -0.904   5.106  1.00  0.00    -0.248 NA
ATOM     31  C   UNL     1       6.856  -1.174   4.999  1.00  0.00     0.031 C 
ATOM     32  C   UNL     1       8.983   1.532   1.351  1.00  0.00     0.029 A 
ATOM     33  N   UNL     1      10.351   0.657   2.890  1.00  0.00    -0.354 N 
ATOM     34  C   UNL     1       8.750  -1.664   6.189  1.00  0.00     0.074 A 
ATOM     35  C   UNL     1       7.310  -1.777   6.089  1.00  0.00     0.031 C 
ATOM     36  C   UNL     1      10.234   1.903   1.036  1.00  0.00     0.029 A 
ATOM     37  C   UNL     1      11.153   1.387   2.047  1.00  0.00     0.049 A 
ATOM     38  H   UNL     1      10.699   0.137   3.651  1.00  0.00     0.167 HD
ATOM     39  C   UNL     1       9.499  -2.212   7.176  1.00  0.00     0.037 A 
ATOM     40  C   UNL     1      12.475   1.634   2.100  1.00  0.00     0.037 A 
ATOM     41  C   UNL     1      10.932  -2.090   7.260  1.00  0.00     0.049 A 
ATOM     42  C   UNL     1      13.287   1.025   3.208  1.00  0.00     0.074 A 
ATOM     43  C   UNL     1      11.793  -2.639   8.194  1.00  0.00     0.029 A 
ATOM     44  N   UNL     1      11.715  -1.354   6.379  1.00  0.00    -0.354 N 
ATOM     45  N   UNL     1      12.882   0.277   4.207  1.00  0.00    -0.248 NA
ATOM     46  C   UNL     1      14.731   1.288   3.196  1.00  0.00     0.031 C 
ATOM     47  C   UNL     1      13.091  -2.204   7.900  1.00  0.00     0.029 A 
ATOM     48  C   UNL     1      13.045  -1.416   6.760  1.00  0.00     0.049 A 
ATOM     49  H   UNL     1      11.374  -0.862   5.598  1.00  0.00     0.167 HD
ATOM     50  C   UNL     1      14.021  -0.028   4.941  1.00  0.00     0.074 A 
ATOM     51  C   UNL     1      15.134   0.605   4.260  1.00  0.00     0.031 C 
ATOM     52  C   UNL     1      14.136  -0.765   6.074  1.00  0.00     0.037 A 
BRANCH  39  53
ATOM     53  C   UNL     1       8.768  -2.956   8.258  1.00  0.00     0.058 A 
ATOM     54  C   UNL     1       8.179  -4.210   8.029  1.00  0.00     0.135 A 
ATOM     55  C   UNL     1       8.637  -2.396   9.539  1.00  0.00     0.135 A 
ATOM     56  F   UNL     1       8.261  -4.784   6.819  1.00  0.00    -0.206 F 
ATOM     57  C   UNL     1       7.449  -4.862   9.018  1.00  0.00     0.059 A 
ATOM     58  C   UNL     1       7.931  -3.041  10.550  1.00  0.00     0.059 A 
ATOM     59  F   UNL     1       9.181  -1.200   9.813  1.00  0.00    -0.206 F 
ATOM     60  C   UNL     1       7.320  -4.263  10.273  1.00  0.00     0.060 A 
BRANCH  60  61
ATOM     61  S   UNL     1       6.333  -5.095  11.536  1.00  0.00     0.124 S 
ATOM     62  O   UNL     1       4.977  -4.789  11.091  1.00  0.00    -0.237 OA
ATOM     63  O   UNL     1       6.746  -6.487  11.395  1.00  0.00    -0.237 OA
ATOM     64  O   UNL     1       6.749  -4.444  12.774  1.00  0.00    -0.744 OA
ENDBRANCH  60  61
ENDBRANCH  39  53
BRANCH  40  65
ATOM     65  C   UNL     1      13.089   2.506   1.067  1.00  0.00     0.058 A 
ATOM     66  C   UNL     1      13.858   1.965   0.029  1.00  0.00     0.135 A 
ATOM     67  C   UNL     1      12.841   3.888   1.051  1.00  0.00     0.135 A 
ATOM     68  F   UNL     1      14.128   0.651   0.007  1.00  0.00    -0.206 F 
ATOM     69  C   UNL     1      14.351   2.761  -1.001  1.00  0.00     0.059 A 
ATOM     70  C   UNL     1      13.306   4.701   0.022  1.00  0.00     0.059 A 
ATOM     71  F   UNL     1      12.097   4.449   2.017  1.00  0.00    -0.206 F 
ATOM     72  C   UNL     1      14.059   4.127  -1.001  1.00  0.00     0.060 A 
BRANCH  72  73
ATOM     73  S   UNL     1      14.607   5.132  -2.399  1.00  0.00     0.124 S 
ATOM     74  O   UNL     1      16.028   5.285  -2.111  1.00  0.00    -0.237 OA
ATOM     75  O   UNL     1      14.274   4.284  -3.539  1.00  0.00    -0.237 OA
ATOM     76  O   UNL     1      13.803   6.345  -2.275  1.00  0.00    -0.744 OA
ENDBRANCH  72  73
ENDBRANCH  40  65
BRANCH  52  77
ATOM     77  C   UNL     1      15.516  -0.931   6.644  1.00  0.00     0.058 A 
ATOM     78  C   UNL     1      16.149   0.108   7.342  1.00  0.00     0.135 A 
ATOM     79  C   UNL     1      16.192  -2.156   6.529  1.00  0.00     0.135 A 
ATOM     80  F   UNL     1      15.546   1.301   7.472  1.00  0.00    -0.206 F 
ATOM     81  C   UNL     1      17.416  -0.054   7.891  1.00  0.00     0.059 A 
ATOM     82  C   UNL     1      17.451  -2.347   7.089  1.00  0.00     0.059 A 
ATOM     83  F   UNL     1      15.624  -3.183   5.878  1.00  0.00    -0.206 F 
ATOM     84  C   UNL     1      18.060  -1.286   7.759  1.00  0.00     0.060 A 
BRANCH  84  85
ATOM     85  S   UNL     1      19.692  -1.499   8.502  1.00  0.00     0.124 S 
ATOM     86  O   UNL     1      20.544  -0.806   7.541  1.00  0.00    -0.237 OA
ATOM     87  O   UNL     1      19.536  -0.846   9.798  1.00  0.00    -0.237 OA
ATOM     88  O   UNL     1      19.853  -2.949   8.554  1.00  0.00    -0.744 OA
ENDBRANCH  84  85
ENDBRANCH  52  77
ENDBRANCH  26  27
ENDBRANCH  19  21
ENDBRANCH  18  19
ENDBRANCH  17  18
ENDBRANCH   1  17
TORSDOF 17
