REMARK SMILES Cc1ccccc1/C=C1\SC(=O)N(CC(=O)Nc2ccccc2C(=O)OCCOC(=O)c2ccc(-c3c4nc(c(-c5c(F)cc(S(=O)(=O)[O-])cc5F)c5ccc([nH]5)c(-c5c(F)cc(S(=O)(=O)[O-])cc5F)c5nc(c(-c6c(F)cc(S(=O)(=O)[O-])cc6F)c6ccc3[nH]6)C=C5)C=C4)cc2)C1=O
REMARK SMILES IDX 27 1 26 2 24 3 25 4 23 5 18 6 19 7 20 8 22 9 21 10 17 11
REMARK SMILES IDX 15 12 16 13 14 15 13 16 8 17 9 18 10 19 98 20 11 21 99 22
REMARK SMILES IDX 12 23 7 24 1 25 2 26 3 27 4 28 6 29 5 30 28 31 29 32 30 33
REMARK SMILES IDX 31 34 32 35 33 36 97 37 34 38 96 39 35 40 36 41 37 42 90 43
REMARK SMILES IDX 38 44 95 45 89 46 91 47 39 48 94 49 88 50 87 51 40 53 74 54
REMARK SMILES IDX 53 55 73 56 54 57 57 58 72 59 92 60 55 61 56 62 71 64 93 65
REMARK SMILES IDX 58 66 41 67 42 68 51 69 43 70 44 71 50 72 52 73 45 74 46 75
REMARK SMILES IDX 47 76 48 77 49 78 75 79 76 80 85 81 77 82 78 83 84 84 86 85
REMARK SMILES IDX 79 86 80 87 81 88 82 89 83 90 59 91 60 92 69 93 61 94 62 95
REMARK SMILES IDX 68 96 70 97 63 98 64 99 65 100 66 101 67 102
REMARK H PARENT 17 14 91 52 57 63
REMARK Flexibility Score: inf
ROOT
ATOM      1  C   UNL     1       4.364   2.564  -0.798  1.00  0.00     0.275 C 
ENDROOT
BRANCH   1   2
ATOM      2  O   UNL     1       3.573   1.804  -2.558  1.00  0.00    -0.458 OA
BRANCH   2   3
ATOM      3  C   UNL     1       3.074   1.810  -4.055  1.00  0.00     0.340 C 
ATOM      4  O   UNL     1       3.172   0.673  -4.550  1.00  0.00    -0.246 OA
BRANCH   3   5
ATOM      5  C   UNL     1       2.498   2.885  -5.222  1.00  0.00     0.083 A 
ATOM      6  C   UNL     1       2.636   4.253  -5.664  1.00  0.00     0.055 A 
ATOM      7  C   UNL     1       1.933   4.783  -6.817  1.00  0.00     0.027 A 
ATOM      8  C   UNL     1       1.198   4.003  -7.673  1.00  0.00     0.002 A 
ATOM      9  C   UNL     1       1.663   2.166  -6.142  1.00  0.00     0.018 A 
ATOM     10  C   UNL     1       1.069   2.680  -7.332  1.00  0.00     0.001 A 
BRANCH   6  11
ATOM     11  N   UNL     1       3.468   5.298  -5.264  1.00  0.00    -0.324 N 
ATOM     12  C   UNL     1       4.670   5.283  -4.675  1.00  0.00     0.244 C 
ATOM     13  O   UNL     1       5.451   6.173  -5.028  1.00  0.00    -0.273 OA
ATOM     14  H   UNL     1       3.112   6.198  -5.446  1.00  0.00     0.170 HD
BRANCH  12  15
ATOM     15  C   UNL     1       5.043   4.058  -3.898  1.00  0.00     0.230 C 
BRANCH  15  16
ATOM     16  N   UNL     1       4.379   3.309  -2.763  1.00  0.00    -0.259 N 
ATOM     17  C   UNL     1       1.280   1.002  -0.633  1.00  0.00     0.029 C 
ATOM     18  C   UNL     1       2.465   1.376  -1.166  1.00  0.00     0.083 C 
ATOM     19  S   UNL     1       4.288   0.154  -1.552  1.00  0.00    -0.022 SA
ATOM     20  C   UNL     1       2.757   3.199  -1.891  1.00  0.00     0.268 C 
ATOM     21  C   UNL     1       5.391   1.828  -2.684  1.00  0.00     0.294 C 
ATOM     22  O   UNL     1       1.842   3.907  -1.589  1.00  0.00    -0.268 OA
ATOM     23  O   UNL     1       6.367   1.522  -3.358  1.00  0.00    -0.261 OA
BRANCH  17  24
ATOM     24  C   UNL     1       0.538  -0.217  -0.205  1.00  0.00    -0.021 A 
ATOM     25  C   UNL     1       2.467  -1.552   0.756  1.00  0.00     0.045 C 
ATOM     26  C   UNL     1       1.052  -1.414   0.296  1.00  0.00    -0.044 A 
ATOM     27  C   UNL     1       0.206  -2.544   0.424  1.00  0.00     0.004 A 
ATOM     28  C   UNL     1      -1.170  -2.458   0.220  1.00  0.00     0.000 A 
ATOM     29  C   UNL     1      -0.875  -0.140  -0.295  1.00  0.00     0.008 A 
ATOM     30  C   UNL     1      -1.723  -1.229  -0.074  1.00  0.00     0.001 A 
ENDBRANCH  17  24
ENDBRANCH  15  16
ENDBRANCH  12  15
ENDBRANCH   6  11
ENDBRANCH   3   5
ENDBRANCH   2   3
ENDBRANCH   1   2
BRANCH   1  31
ATOM     31  C   UNL     1       4.644   4.055   0.518  1.00  0.00     0.275 C 
BRANCH  31  32
ATOM     32  O   UNL     1       4.584   6.004   0.704  1.00  0.00    -0.458 OA
BRANCH  32  33
ATOM     33  C   UNL     1       3.883   7.384  -0.298  1.00  0.00     0.338 C 
ATOM     34  O   UNL     1       4.051   8.489   0.233  1.00  0.00    -0.246 OA
BRANCH  33  35
ATOM     35  C   UNL     1       2.758   7.325  -1.896  1.00  0.00     0.060 A 
ATOM     36  C   UNL     1       1.503   7.981  -2.048  1.00  0.00     0.016 A 
ATOM     37  C   UNL     1       2.469   6.161  -2.745  1.00  0.00     0.016 A 
ATOM     38  C   UNL     1       0.126   7.194  -2.349  1.00  0.00     0.010 A 
ATOM     39  C   UNL     1       1.189   5.492  -3.228  1.00  0.00     0.010 A 
ATOM     40  C   UNL     1      -0.009   5.804  -2.670  1.00  0.00    -0.014 A 
BRANCH  40  41
ATOM     41  C   UNL     1      -0.876   4.576  -1.935  1.00  0.00     0.031 A 
ATOM     42  C   UNL     1      -1.587   3.425  -2.638  1.00  0.00     0.074 A 
ATOM     43  C   UNL     1      -0.854   4.204  -0.598  1.00  0.00     0.049 A 
ATOM     44  N   UNL     1      -2.868   3.221  -2.546  1.00  0.00    -0.248 NA
ATOM     45  C   UNL     1      -0.910   2.245  -3.210  1.00  0.00     0.031 C 
ATOM     46  C   UNL     1      -1.673   3.309   0.258  1.00  0.00     0.029 A 
ATOM     47  N   UNL     1      -0.014   4.638   0.390  1.00  0.00    -0.354 N 
ATOM     48  C   UNL     1      -3.131   1.861  -2.759  1.00  0.00     0.074 A 
ATOM     49  C   UNL     1      -1.907   1.343  -3.335  1.00  0.00     0.031 C 
ATOM     50  C   UNL     1      -1.562   3.663   1.566  1.00  0.00     0.029 A 
ATOM     51  C   UNL     1      -0.618   4.744   1.644  1.00  0.00     0.049 A 
ATOM     52  H   UNL     1       0.932   4.857   0.230  1.00  0.00     0.167 HD
ATOM     53  C   UNL     1      -4.230   1.240  -2.194  1.00  0.00     0.037 A 
ATOM     54  C   UNL     1      -0.777   6.031   2.088  1.00  0.00     0.037 A 
ATOM     55  C   UNL     1      -4.745   2.074  -1.084  1.00  0.00     0.049 A 
ATOM     56  C   UNL     1      -2.146   6.534   1.514  1.00  0.00     0.074 A 
ATOM     57  C   UNL     1      -4.814   1.886   0.291  1.00  0.00     0.029 A 
ATOM     58  N   UNL     1      -4.983   3.431  -1.282  1.00  0.00    -0.354 N 
ATOM     59  N   UNL     1      -3.016   5.694   1.008  1.00  0.00    -0.248 NA
ATOM     60  C   UNL     1      -2.697   7.894   1.474  1.00  0.00     0.031 C 
ATOM     61  C   UNL     1      -4.925   3.163   0.910  1.00  0.00     0.029 A 
ATOM     62  C   UNL     1      -4.962   4.126  -0.083  1.00  0.00     0.049 A 
ATOM     63  H   UNL     1      -5.145   3.845  -2.161  1.00  0.00     0.167 HD
ATOM     64  C   UNL     1      -4.136   6.308   0.534  1.00  0.00     0.074 A 
ATOM     65  C   UNL     1      -3.909   7.696   0.901  1.00  0.00     0.031 C 
ATOM     66  C   UNL     1      -5.132   5.582  -0.075  1.00  0.00     0.037 A 
BRANCH  53  67
ATOM     67  C   UNL     1      -4.740  -0.219  -2.394  1.00  0.00     0.058 A 
ATOM     68  C   UNL     1      -5.758  -0.777  -1.568  1.00  0.00     0.135 A 
ATOM     69  C   UNL     1      -4.358  -1.080  -3.447  1.00  0.00     0.135 A 
ATOM     70  F   UNL     1      -6.328  -0.072  -0.582  1.00  0.00    -0.206 F 
ATOM     71  C   UNL     1      -6.281  -2.074  -1.716  1.00  0.00     0.059 A 
ATOM     72  C   UNL     1      -4.862  -2.393  -3.613  1.00  0.00     0.059 A 
ATOM     73  F   UNL     1      -3.515  -0.664  -4.403  1.00  0.00    -0.206 F 
ATOM     74  C   UNL     1      -5.819  -2.888  -2.736  1.00  0.00     0.060 A 
BRANCH  74  75
ATOM     75  S   UNL     1      -6.519  -4.551  -2.907  1.00  0.00     0.124 S 
ATOM     76  O   UNL     1      -6.138  -5.175  -1.643  1.00  0.00    -0.237 OA
ATOM     77  O   UNL     1      -7.944  -4.277  -3.069  1.00  0.00    -0.237 OA
ATOM     78  O   UNL     1      -5.850  -5.085  -4.090  1.00  0.00    -0.744 OA
ENDBRANCH  74  75
ENDBRANCH  53  67
BRANCH  54  79
ATOM     79  C   UNL     1       0.633   6.681   1.984  1.00  0.00     0.058 A 
ATOM     80  C   UNL     1       1.730   5.974   2.477  1.00  0.00     0.135 A 
ATOM     81  C   UNL     1       0.941   7.096   0.737  1.00  0.00     0.135 A 
ATOM     82  F   UNL     1       1.855   5.825   3.806  1.00  0.00    -0.206 F 
ATOM     83  C   UNL     1       2.786   5.383   1.601  1.00  0.00     0.059 A 
ATOM     84  C   UNL     1       1.858   6.242  -0.105  1.00  0.00     0.059 A 
ATOM     85  F   UNL     1       0.043   7.887   0.128  1.00  0.00    -0.206 F 
ATOM     86  C   UNL     1       2.964   5.360  -0.003  1.00  0.00     0.060 A 
BRANCH  86  87
ATOM     87  S   UNL     1       5.090   5.603  -1.226  1.00  0.00     0.124 S 
ATOM     88  O   UNL     1       4.856   6.320  -2.452  1.00  0.00    -0.237 OA
ATOM     89  O   UNL     1       6.136   6.387  -0.514  1.00  0.00    -0.237 OA
ATOM     90  O   UNL     1       5.725   4.303  -1.378  1.00  0.00    -0.744 OA
ENDBRANCH  86  87
ENDBRANCH  54  79
BRANCH  66  91
ATOM     91  C   UNL     1      -6.447   6.092  -0.627  1.00  0.00     0.058 A 
ATOM     92  C   UNL     1      -6.692   7.402  -1.052  1.00  0.00     0.135 A 
ATOM     93  C   UNL     1      -7.534   5.185  -0.797  1.00  0.00     0.135 A 
ATOM     94  F   UNL     1      -5.719   8.322  -1.082  1.00  0.00    -0.206 F 
ATOM     95  C   UNL     1      -7.952   7.809  -1.497  1.00  0.00     0.059 A 
ATOM     96  C   UNL     1      -8.763   5.549  -1.322  1.00  0.00     0.059 A 
ATOM     97  F   UNL     1      -7.455   3.893  -0.447  1.00  0.00    -0.206 F 
ATOM     98  C   UNL     1      -8.982   6.878  -1.618  1.00  0.00     0.060 A 
BRANCH  98  99
ATOM     99  S   UNL     1     -10.610   7.401  -2.166  1.00  0.00     0.124 S 
ATOM    100  O   UNL     1     -11.164   7.950  -0.933  1.00  0.00    -0.237 OA
ATOM    101  O   UNL     1     -10.293   8.374  -3.207  1.00  0.00    -0.237 OA
ATOM    102  O   UNL     1     -11.225   6.165  -2.638  1.00  0.00    -0.744 OA
ENDBRANCH  98  99
ENDBRANCH  66  91
ENDBRANCH  40  41
ENDBRANCH  33  35
ENDBRANCH  32  33
ENDBRANCH  31  32
ENDBRANCH   1  31
TORSDOF 18
