REMARK SMILES CCN(CC(C)(C)O)C(=O)Nc1ccc(C(=O)OCCOC(=O)c2ccc(-c3c4nc(c(-c5c(F)cc(S(=O)(=O)[O-])cc5F)c5ccc([nH]5)c(-c5c(F)cc(S(=O)(=O)[O-])cc5F)c5nc(c(-c6c(F)cc(S(=O)(=O)[O-])cc6F)c6ccc3[nH]6)C=C5)C=C4)cc2)c(O)c1
REMARK SMILES IDX 19 1 18 2 16 3 17 4 15 5 12 6 13 7 92 8 14 9 90 10 11 11
REMARK SMILES IDX 9 12 10 13 3 15 2 16 1 17 4 18 5 19 6 20 7 21 8 22 91 24
REMARK SMILES IDX 20 26 21 27 22 28 23 29 24 30 25 31 89 32 26 33 88 34 27 35
REMARK SMILES IDX 28 36 29 37 82 38 30 39 87 40 81 41 83 42 31 43 86 44 80 45
REMARK SMILES IDX 79 46 32 48 66 49 45 50 65 51 46 52 49 53 64 54 84 55 47 56
REMARK SMILES IDX 48 57 63 59 85 60 50 61 33 62 34 63 43 64 35 65 36 66 42 67
REMARK SMILES IDX 44 68 37 69 38 70 39 71 40 72 41 73 67 74 68 75 77 76 69 77
REMARK SMILES IDX 70 78 76 79 78 80 71 81 72 82 73 83 74 84 75 85 51 86 52 87
REMARK SMILES IDX 61 88 53 89 54 90 60 91 62 92 55 93 56 94 57 95 58 96 59 97
REMARK H PARENT 11 14 8 23 91 25 83 47 49 58
REMARK Flexibility Score: inf
ROOT
ATOM      1  C   UNL     1      -1.487  -9.399   4.648  1.00  0.00     0.275 C 
ENDROOT
BRANCH   1   2
ATOM      2  O   UNL     1      -0.431  -8.468   4.332  1.00  0.00    -0.458 OA
BRANCH   2   3
ATOM      3  C   UNL     1       0.074  -8.560   3.072  1.00  0.00     0.342 C 
ATOM      4  O   UNL     1      -0.196  -9.416   2.253  1.00  0.00    -0.246 OA
BRANCH   3   5
ATOM      5  C   UNL     1       0.918  -7.376   2.770  1.00  0.00     0.101 A 
ATOM      6  C   UNL     1       2.215  -4.989   1.991  1.00  0.00     0.046 A 
ATOM      7  C   UNL     1       1.744  -5.883   1.040  1.00  0.00     0.027 A 
ATOM      8  C   UNL     1       2.180  -5.382   3.335  1.00  0.00     0.073 A 
ATOM      9  C   UNL     1       1.090  -7.061   1.419  1.00  0.00     0.022 A 
ATOM     10  C   UNL     1       1.518  -6.552   3.726  1.00  0.00     0.132 A 
BRANCH   6  11
ATOM     11  N   UNL     1       2.814  -3.760   1.695  1.00  0.00    -0.308 N 
ATOM     12  C   UNL     1       2.740  -2.773   0.770  1.00  0.00     0.321 C 
ATOM     13  O   UNL     1       3.736  -2.036   0.742  1.00  0.00    -0.248 OA
ATOM     14  H   UNL     1       3.502  -3.546   2.366  1.00  0.00     0.171 HD
BRANCH  12  15
ATOM     15  N   UNL     1       1.623  -2.464   0.037  1.00  0.00    -0.322 N 
BRANCH  15  16
ATOM     16  C   UNL     1       1.630  -1.174  -0.676  1.00  0.00     0.118 C 
ATOM     17  C   UNL     1       1.513   0.022   0.263  1.00  0.00     0.027 C 
ENDBRANCH  15  16
BRANCH  15  18
ATOM     18  C   UNL     1       0.371  -3.213  -0.114  1.00  0.00     0.155 C 
BRANCH  18  19
ATOM     19  C   UNL     1       0.200  -3.861  -1.529  1.00  0.00     0.077 C 
ATOM     20  C   UNL     1       1.517  -4.216  -2.238  1.00  0.00     0.043 C 
ATOM     21  C   UNL     1      -0.731  -5.064  -1.422  1.00  0.00     0.043 C 
BRANCH  19  22
ATOM     22  O   UNL     1      -0.476  -2.924  -2.387  1.00  0.00    -0.389 OA
ATOM     23  H   UNL     1       0.071  -2.131  -2.494  1.00  0.00     0.211 HD
ENDBRANCH  19  22
ENDBRANCH  18  19
ENDBRANCH  15  18
ENDBRANCH  12  15
ENDBRANCH   6  11
BRANCH  10  24
ATOM     24  O   UNL     1       1.504  -6.809   5.070  1.00  0.00    -0.507 OA
ATOM     25  H   UNL     1       1.076  -7.577   5.395  1.00  0.00     0.293 HD
ENDBRANCH  10  24
ENDBRANCH   3   5
ENDBRANCH   2   3
ENDBRANCH   1   2
BRANCH   1  26
ATOM     26  C   UNL     1      -2.853  -8.717   4.558  1.00  0.00     0.275 C 
BRANCH  26  27
ATOM     27  O   UNL     1      -3.221  -8.461   3.189  1.00  0.00    -0.458 OA
BRANCH  27  28
ATOM     28  C   UNL     1      -3.176  -7.165   2.802  1.00  0.00     0.338 C 
ATOM     29  O   UNL     1      -2.810  -6.209   3.465  1.00  0.00    -0.246 OA
BRANCH  28  30
ATOM     30  C   UNL     1      -3.639  -7.043   1.410  1.00  0.00     0.060 A 
ATOM     31  C   UNL     1      -2.780  -7.402   0.380  1.00  0.00     0.016 A 
ATOM     32  C   UNL     1      -4.869  -6.446   1.121  1.00  0.00     0.016 A 
ATOM     33  C   UNL     1      -3.125  -7.088  -0.939  1.00  0.00     0.010 A 
ATOM     34  C   UNL     1      -5.232  -6.197  -0.215  1.00  0.00     0.010 A 
ATOM     35  C   UNL     1      -4.346  -6.468  -1.271  1.00  0.00    -0.014 A 
BRANCH  35  36
ATOM     36  C   UNL     1      -4.653  -6.070  -2.692  1.00  0.00     0.031 A 
ATOM     37  C   UNL     1      -5.099  -4.660  -3.043  1.00  0.00     0.074 A 
ATOM     38  C   UNL     1      -4.492  -6.947  -3.708  1.00  0.00     0.049 A 
ATOM     39  N   UNL     1      -5.566  -4.197  -4.179  1.00  0.00    -0.248 NA
ATOM     40  C   UNL     1      -5.016  -3.643  -1.984  1.00  0.00     0.031 C 
ATOM     41  C   UNL     1      -4.025  -8.327  -3.571  1.00  0.00     0.029 A 
ATOM     42  N   UNL     1      -4.679  -6.803  -5.064  1.00  0.00    -0.354 N 
ATOM     43  C   UNL     1      -5.902  -2.863  -3.951  1.00  0.00     0.074 A 
ATOM     44  C   UNL     1      -5.572  -2.589  -2.568  1.00  0.00     0.031 C 
ATOM     45  C   UNL     1      -3.877  -8.870  -4.787  1.00  0.00     0.029 A 
ATOM     46  C   UNL     1      -4.367  -7.931  -5.790  1.00  0.00     0.049 A 
ATOM     47  H   UNL     1      -5.006  -5.972  -5.477  1.00  0.00     0.167 HD
ATOM     48  C   UNL     1      -6.436  -1.953  -4.805  1.00  0.00     0.037 A 
ATOM     49  C   UNL     1      -4.504  -8.219  -7.100  1.00  0.00     0.037 A 
ATOM     50  C   UNL     1      -6.692  -2.193  -6.206  1.00  0.00     0.049 A 
ATOM     51  C   UNL     1      -5.137  -7.217  -8.021  1.00  0.00     0.074 A 
ATOM     52  C   UNL     1      -7.214  -1.319  -7.148  1.00  0.00     0.029 A 
ATOM     53  N   UNL     1      -6.429  -3.379  -6.873  1.00  0.00    -0.354 N 
ATOM     54  N   UNL     1      -5.538  -5.998  -7.759  1.00  0.00    -0.248 NA
ATOM     55  C   UNL     1      -5.374  -7.647  -9.407  1.00  0.00     0.031 C 
ATOM     56  C   UNL     1      -7.299  -1.989  -8.374  1.00  0.00     0.029 A 
ATOM     57  C   UNL     1      -6.791  -3.265  -8.207  1.00  0.00     0.049 A 
ATOM     58  H   UNL     1      -6.041  -4.184  -6.460  1.00  0.00     0.167 HD
ATOM     59  C   UNL     1      -6.077  -5.515  -8.946  1.00  0.00     0.074 A 
ATOM     60  C   UNL     1      -5.929  -6.564  -9.934  1.00  0.00     0.031 C 
ATOM     61  C   UNL     1      -6.651  -4.311  -9.189  1.00  0.00     0.037 A 
BRANCH  48  62
ATOM     62  C   UNL     1      -6.830  -0.607  -4.249  1.00  0.00     0.058 A 
ATOM     63  C   UNL     1      -5.886   0.370  -3.900  1.00  0.00     0.135 A 
ATOM     64  C   UNL     1      -8.191  -0.275  -4.112  1.00  0.00     0.135 A 
ATOM     65  F   UNL     1      -4.574   0.109  -4.007  1.00  0.00    -0.206 F 
ATOM     66  C   UNL     1      -6.273   1.613  -3.402  1.00  0.00     0.059 A 
ATOM     67  C   UNL     1      -8.601   0.970  -3.643  1.00  0.00     0.059 A 
ATOM     68  F   UNL     1      -9.139  -1.165  -4.443  1.00  0.00    -0.206 F 
ATOM     69  C   UNL     1      -7.633   1.901  -3.271  1.00  0.00     0.060 A 
BRANCH  69  70
ATOM     70  S   UNL     1      -8.124   3.508  -2.608  1.00  0.00     0.124 S 
ATOM     71  O   UNL     1      -7.838   3.335  -1.187  1.00  0.00    -0.237 OA
ATOM     72  O   UNL     1      -7.245   4.427  -3.324  1.00  0.00    -0.237 OA
ATOM     73  O   UNL     1      -9.539   3.602  -2.955  1.00  0.00    -0.744 OA
ENDBRANCH  69  70
ENDBRANCH  48  62
BRANCH  49  74
ATOM     74  C   UNL     1      -4.083  -9.554  -7.606  1.00  0.00     0.058 A 
ATOM     75  C   UNL     1      -2.971  -9.688  -8.448  1.00  0.00     0.135 A 
ATOM     76  C   UNL     1      -4.760 -10.724  -7.223  1.00  0.00     0.135 A 
ATOM     77  F   UNL     1      -2.304  -8.598  -8.858  1.00  0.00    -0.206 F 
ATOM     78  C   UNL     1      -2.534 -10.936  -8.882  1.00  0.00     0.059 A 
ATOM     79  C   UNL     1      -4.324 -11.983  -7.618  1.00  0.00     0.059 A 
ATOM     80  F   UNL     1      -5.828 -10.648  -6.414  1.00  0.00    -0.206 F 
ATOM     81  C   UNL     1      -3.211 -12.078  -8.451  1.00  0.00     0.060 A 
BRANCH  81  82
ATOM     82  S   UNL     1      -2.581 -13.700  -8.935  1.00  0.00     0.124 S 
ATOM     83  O   UNL     1      -3.049 -13.797 -10.312  1.00  0.00    -0.237 OA
ATOM     84  O   UNL     1      -1.142 -13.539  -8.758  1.00  0.00    -0.237 OA
ATOM     85  O   UNL     1      -3.223 -14.603  -7.983  1.00  0.00    -0.744 OA
ENDBRANCH  81  82
ENDBRANCH  49  74
BRANCH  61  86
ATOM     86  C   UNL     1      -7.149  -4.053 -10.583  1.00  0.00     0.058 A 
ATOM     87  C   UNL     1      -8.329  -4.643 -11.062  1.00  0.00     0.135 A 
ATOM     88  C   UNL     1      -6.456  -3.183 -11.440  1.00  0.00     0.135 A 
ATOM     89  F   UNL     1      -9.023  -5.492 -10.287  1.00  0.00    -0.206 F 
ATOM     90  C   UNL     1      -8.795  -4.395 -12.350  1.00  0.00     0.059 A 
ATOM     91  C   UNL     1      -6.915  -2.904 -12.724  1.00  0.00     0.059 A 
ATOM     92  F   UNL     1      -5.324  -2.589 -11.030  1.00  0.00    -0.206 F 
ATOM     93  C   UNL     1      -8.081  -3.523 -13.174  1.00  0.00     0.060 A 
BRANCH  93  94
ATOM     94  S   UNL     1      -8.710  -3.189 -14.834  1.00  0.00     0.124 S 
ATOM     95  O   UNL     1      -8.370  -4.424 -15.532  1.00  0.00    -0.237 OA
ATOM     96  O   UNL     1     -10.133  -2.968 -14.591  1.00  0.00    -0.237 OA
ATOM     97  O   UNL     1      -7.961  -2.006 -15.248  1.00  0.00    -0.744 OA
ENDBRANCH  93  94
ENDBRANCH  61  86
ENDBRANCH  35  36
ENDBRANCH  28  30
ENDBRANCH  27  28
ENDBRANCH  26  27
ENDBRANCH   1  26
TORSDOF 21
