REMARK SMILES O=C(OCCOC(=O)c1ccc(S(=O)(=O)NCC[NH+]2CCCC2)c(F)c1)c1ccc(-c2c3nc(c(-c4c(F)cc(S(=O)(=O)[O-])cc4F)c4ccc([nH]4)c(-c4c(F)cc(S(=O)(=O)[O-])cc4F)c4nc(c(-c5c(F)cc(S(=O)(=O)[O-])cc5F)c5ccc2[nH]5)C=C4)C=C3)cc1
REMARK SMILES IDX 5 1 4 2 3 3 2 4 1 5 27 6 28 7 92 8 29 9 91 10 30 11 31 12
REMARK SMILES IDX 32 13 85 14 33 15 90 16 84 17 86 18 34 19 89 20 83 21 82 22
REMARK SMILES IDX 35 24 69 25 48 26 68 27 49 28 52 29 67 30 87 31 50 32 51 33
REMARK SMILES IDX 66 35 88 36 53 37 36 38 37 39 46 40 38 41 39 42 45 43 47 44
REMARK SMILES IDX 40 45 41 46 42 47 43 48 44 49 70 50 71 51 80 52 72 53 73 54
REMARK SMILES IDX 79 55 81 56 74 57 75 58 76 59 77 60 78 61 54 62 55 63 64 64
REMARK SMILES IDX 56 65 57 66 63 67 65 68 58 69 59 70 60 71 61 72 62 73 6 74
REMARK SMILES IDX 7 75 8 76 9 77 10 78 26 79 11 80 24 81 12 82 25 83 13 84
REMARK SMILES IDX 14 85 15 86 16 87 17 89 18 90 19 91 20 92 23 93 21 95 22 96
REMARK H PARENT 86 23 52 34 16 88 19 94
REMARK Flexibility Score: inf
ROOT
ATOM      1  C   UNL     1       3.926   2.128   0.003  1.00  0.00     0.275 C 
ENDROOT
BRANCH   1   2
ATOM      2  C   UNL     1       4.005   1.055  -1.089  1.00  0.00     0.275 C 
BRANCH   2   3
ATOM      3  O   UNL     1       2.901   0.132  -1.120  1.00  0.00    -0.458 OA
BRANCH   3   4
ATOM      4  C   UNL     1       2.670  -0.999  -0.412  1.00  0.00     0.338 C 
ATOM      5  O   UNL     1       1.680  -1.672  -0.698  1.00  0.00    -0.246 OA
BRANCH   4   6
ATOM      6  C   UNL     1       3.478  -1.434   0.773  1.00  0.00     0.060 A 
ATOM      7  C   UNL     1       4.803  -1.085   1.032  1.00  0.00     0.016 A 
ATOM      8  C   UNL     1       2.831  -2.280   1.699  1.00  0.00     0.016 A 
ATOM      9  C   UNL     1       5.444  -1.501   2.198  1.00  0.00     0.010 A 
ATOM     10  C   UNL     1       3.467  -2.699   2.873  1.00  0.00     0.010 A 
ATOM     11  C   UNL     1       4.782  -2.304   3.127  1.00  0.00    -0.014 A 
BRANCH  11  12
ATOM     12  C   UNL     1       5.541  -2.800   4.294  1.00  0.00     0.031 A 
ATOM     13  C   UNL     1       6.107  -4.186   4.245  1.00  0.00     0.074 A 
ATOM     14  C   UNL     1       5.828  -1.964   5.310  1.00  0.00     0.049 A 
ATOM     15  N   UNL     1       6.913  -4.770   5.087  1.00  0.00    -0.248 NA
ATOM     16  C   UNL     1       5.758  -5.007   3.072  1.00  0.00     0.031 C 
ATOM     17  C   UNL     1       5.409  -0.566   5.383  1.00  0.00     0.029 A 
ATOM     18  N   UNL     1       6.551  -2.149   6.459  1.00  0.00    -0.354 N 
ATOM     19  C   UNL     1       7.212  -6.002   4.524  1.00  0.00     0.074 A 
ATOM     20  C   UNL     1       6.451  -6.113   3.300  1.00  0.00     0.031 C 
ATOM     21  C   UNL     1       5.846  -0.026   6.532  1.00  0.00     0.029 A 
ATOM     22  C   UNL     1       6.591  -1.038   7.271  1.00  0.00     0.049 A 
ATOM     23  H   UNL     1       7.000  -2.996   6.682  1.00  0.00     0.167 HD
ATOM     24  C   UNL     1       8.079  -6.936   4.974  1.00  0.00     0.037 A 
ATOM     25  C   UNL     1       7.175  -0.859   8.471  1.00  0.00     0.037 A 
ATOM     26  C   UNL     1       8.810  -6.812   6.206  1.00  0.00     0.049 A 
ATOM     27  C   UNL     1       8.008  -1.982   9.024  1.00  0.00     0.074 A 
ATOM     28  C   UNL     1       9.683  -7.716   6.782  1.00  0.00     0.029 A 
ATOM     29  N   UNL     1       8.748  -5.714   7.055  1.00  0.00    -0.354 N 
ATOM     30  N   UNL     1       8.291  -3.141   8.474  1.00  0.00    -0.248 NA
ATOM     31  C   UNL     1       8.624  -1.773  10.340  1.00  0.00     0.031 C 
ATOM     32  C   UNL     1      10.111  -7.186   8.003  1.00  0.00     0.029 A 
ATOM     33  C   UNL     1       9.546  -5.930   8.164  1.00  0.00     0.049 A 
ATOM     34  H   UNL     1       8.214  -4.903   6.891  1.00  0.00     0.167 HD
ATOM     35  C   UNL     1       9.147  -3.783   9.359  1.00  0.00     0.074 A 
ATOM     36  C   UNL     1       9.343  -2.879  10.475  1.00  0.00     0.031 C 
ATOM     37  C   UNL     1       9.724  -5.005   9.257  1.00  0.00     0.037 A 
BRANCH  24  38
ATOM     38  C   UNL     1       8.279  -8.163   4.137  1.00  0.00     0.058 A 
ATOM     39  C   UNL     1       7.767  -9.402   4.548  1.00  0.00     0.135 A 
ATOM     40  C   UNL     1       9.026  -8.122   2.948  1.00  0.00     0.135 A 
ATOM     41  F   UNL     1       7.028  -9.491   5.665  1.00  0.00    -0.206 F 
ATOM     42  C   UNL     1       8.011 -10.564   3.826  1.00  0.00     0.059 A 
ATOM     43  C   UNL     1       9.266  -9.269   2.198  1.00  0.00     0.059 A 
ATOM     44  F   UNL     1       9.508  -6.954   2.493  1.00  0.00    -0.206 F 
ATOM     45  C   UNL     1       8.769 -10.489   2.655  1.00  0.00     0.060 A 
BRANCH  45  46
ATOM     46  S   UNL     1       9.077 -12.010   1.733  1.00  0.00     0.124 S 
ATOM     47  O   UNL     1       9.944 -12.744   2.648  1.00  0.00    -0.237 OA
ATOM     48  O   UNL     1       7.728 -12.543   1.567  1.00  0.00    -0.237 OA
ATOM     49  O   UNL     1       9.713 -11.539   0.506  1.00  0.00    -0.744 OA
ENDBRANCH  45  46
ENDBRANCH  24  38
BRANCH  25  50
ATOM     50  C   UNL     1       7.020   0.427   9.206  1.00  0.00     0.058 A 
ATOM     51  C   UNL     1       5.776   0.816   9.729  1.00  0.00     0.135 A 
ATOM     52  C   UNL     1       8.108   1.288   9.414  1.00  0.00     0.135 A 
ATOM     53  F   UNL     1       4.697   0.039   9.550  1.00  0.00    -0.206 F 
ATOM     54  C   UNL     1       5.615   2.009  10.428  1.00  0.00     0.059 A 
ATOM     55  C   UNL     1       7.978   2.476  10.132  1.00  0.00     0.059 A 
ATOM     56  F   UNL     1       9.319   0.963   8.937  1.00  0.00    -0.206 F 
ATOM     57  C   UNL     1       6.725   2.830  10.629  1.00  0.00     0.060 A 
BRANCH  57  58
ATOM     58  S   UNL     1       6.503   4.359  11.565  1.00  0.00     0.124 S 
ATOM     59  O   UNL     1       5.687   5.148  10.647  1.00  0.00    -0.237 OA
ATOM     60  O   UNL     1       5.828   3.885  12.769  1.00  0.00    -0.237 OA
ATOM     61  O   UNL     1       7.867   4.837  11.761  1.00  0.00    -0.744 OA
ENDBRANCH  57  58
ENDBRANCH  25  50
BRANCH  37  62
ATOM     62  C   UNL     1      10.636  -5.429  10.371  1.00  0.00     0.058 A 
ATOM     63  C   UNL     1      12.019  -5.533  10.155  1.00  0.00     0.135 A 
ATOM     64  C   UNL     1      10.133  -5.799  11.627  1.00  0.00     0.135 A 
ATOM     65  F   UNL     1      12.547  -5.197   8.967  1.00  0.00    -0.206 F 
ATOM     66  C   UNL     1      12.872  -6.007  11.144  1.00  0.00     0.059 A 
ATOM     67  C   UNL     1      10.972  -6.246  12.641  1.00  0.00     0.059 A 
ATOM     68  F   UNL     1       8.818  -5.705  11.883  1.00  0.00    -0.206 F 
ATOM     69  C   UNL     1      12.338  -6.363  12.383  1.00  0.00     0.060 A 
BRANCH  69  70
ATOM     70  S   UNL     1      13.462  -6.958  13.662  1.00  0.00     0.124 S 
ATOM     71  O   UNL     1      13.809  -8.283  13.160  1.00  0.00    -0.237 OA
ATOM     72  O   UNL     1      14.530  -5.964  13.623  1.00  0.00    -0.237 OA
ATOM     73  O   UNL     1      12.641  -6.939  14.870  1.00  0.00    -0.744 OA
ENDBRANCH  69  70
ENDBRANCH  37  62
ENDBRANCH  11  12
ENDBRANCH   4   6
ENDBRANCH   3   4
ENDBRANCH   2   3
ENDBRANCH   1   2
BRANCH   1  74
ATOM     74  O   UNL     1       3.461   1.639   1.270  1.00  0.00    -0.458 OA
BRANCH  74  75
ATOM     75  C   UNL     1       2.121   1.747   1.475  1.00  0.00     0.338 C 
ATOM     76  O   UNL     1       1.302   2.226   0.711  1.00  0.00    -0.246 OA
BRANCH  75  77
ATOM     77  C   UNL     1       1.756   1.062   2.733  1.00  0.00     0.063 A 
ATOM     78  C   UNL     1       2.474   1.274   3.911  1.00  0.00     0.017 A 
ATOM     79  C   UNL     1       0.678   0.169   2.722  1.00  0.00     0.056 A 
ATOM     80  C   UNL     1       2.133   0.555   5.061  1.00  0.00     0.026 A 
ATOM     81  C   UNL     1       0.360  -0.563   3.869  1.00  0.00     0.144 A 
ATOM     82  C   UNL     1       1.093  -0.390   5.032  1.00  0.00     0.118 A 
ATOM     83  F   UNL     1      -0.646  -1.442   3.784  1.00  0.00    -0.205 F 
BRANCH  82  84
ATOM     84  S   UNL     1       0.870  -1.357   6.490  1.00  0.00     0.243 S 
ATOM     85  O   UNL     1       2.148  -1.968   6.766  1.00  0.00    -0.207 OA
ATOM     86  O   UNL     1       0.219  -0.487   7.447  1.00  0.00    -0.207 OA
BRANCH  84  87
ATOM     87  N   UNL     1      -0.225  -2.581   6.187  1.00  0.00    -0.205 NA
ATOM     88  H   UNL     1      -0.992  -2.159   5.664  1.00  0.00     0.141 HD
BRANCH  87  89
ATOM     89  C   UNL     1       0.167  -3.790   5.448  1.00  0.00     0.160 C 
BRANCH  89  90
ATOM     90  C   UNL     1       0.994  -4.807   6.261  1.00  0.00     0.278 C 
BRANCH  90  91
ATOM     91  N   UNL     1       0.308  -5.243   7.502  1.00  0.00    -0.334 N 
ATOM     92  C   UNL     1       0.979  -4.679   8.697  1.00  0.00     0.262 C 
ATOM     93  C   UNL     1       0.436  -6.703   7.705  1.00  0.00     0.262 C 
ATOM     94  H   UNL     1      -0.661  -4.940   7.400  1.00  0.00     0.348 HD
ATOM     95  C   UNL     1       2.176  -5.581   8.949  1.00  0.00     0.067 C 
ATOM     96  C   UNL     1       1.665  -6.958   8.572  1.00  0.00     0.067 C 
ENDBRANCH  90  91
ENDBRANCH  89  90
ENDBRANCH  87  89
ENDBRANCH  84  87
ENDBRANCH  82  84
ENDBRANCH  75  77
ENDBRANCH  74  75
ENDBRANCH   1  74
TORSDOF 19
