REMARK SMILES Cc1nc(C)c(C(=O)N[C@@H](CCS(C)(=O)=O)C(=O)OCCOC(=O)c2ccc(-c3c4nc(c(-c5c(F)cc(S(=O)(=O)[O-])cc5F)c5ccc([nH]5)c(-c5c(F)cc(S(=O)(=O)[O-])cc5F)c5nc(c(-c6c(F)cc(S(=O)(=O)[O-])cc6F)c6ccc3[nH]6)C=C5)C=C4)cc2)s1
REMARK SMILES IDX 20 1 19 2 17 3 18 4 10 5 9 6 7 7 8 8 6 10 1 11 2 12 3 13
REMARK SMILES IDX 91 14 4 15 5 16 11 17 12 18 13 19 14 20 15 21 16 22 21 23
REMARK SMILES IDX 22 24 23 25 24 26 25 27 26 28 90 29 27 30 89 31 28 32 29 33
REMARK SMILES IDX 30 34 83 35 31 36 88 37 82 38 84 39 32 40 87 41 81 42 80 43
REMARK SMILES IDX 33 45 67 46 46 47 66 48 47 49 50 50 65 51 85 52 48 53 49 54
REMARK SMILES IDX 64 56 86 57 51 58 34 59 35 60 44 61 36 62 37 63 43 64 45 65
REMARK SMILES IDX 38 66 39 67 40 68 41 69 42 70 68 71 69 72 78 73 70 74 71 75
REMARK SMILES IDX 77 76 79 77 72 78 73 79 74 80 75 81 76 82 52 83 53 84 62 85
REMARK SMILES IDX 54 86 55 87 61 88 63 89 56 90 57 91 58 92 59 93 60 94
REMARK H PARENT 9 9 84 44 50 55
REMARK Flexibility Score: inf
ROOT
ATOM      1  C   UNL     1       0.960  -6.094  -2.910  1.00  0.00     0.274 C 
ENDROOT
BRANCH   1   2
ATOM      2  O   UNL     1       0.468  -5.342  -1.779  1.00  0.00    -0.461 OA
BRANCH   2   3
ATOM      3  C   UNL     1       1.404  -4.813  -0.960  1.00  0.00     0.328 C 
ATOM      4  O   UNL     1       2.616  -4.914  -1.123  1.00  0.00    -0.250 OA
BRANCH   3   5
ATOM      5  C   UNL     1       0.819  -4.133   0.286  1.00  0.00     0.193 C 
BRANCH   5   6
ATOM      6  N   UNL     1      -0.610  -3.827   0.271  1.00  0.00    -0.338 N 
ATOM      7  C   UNL     1      -1.350  -2.663   0.366  1.00  0.00     0.263 C 
ATOM      8  O   UNL     1      -2.569  -2.860   0.320  1.00  0.00    -0.268 OA
ATOM      9  H   UNL     1      -1.171  -4.630   0.169  1.00  0.00     0.164 HD
BRANCH   7  10
ATOM     10  C   UNL     1      -0.797  -1.313   0.482  1.00  0.00     0.115 A 
ATOM     11  C   UNL     1       1.680   1.689   0.824  1.00  0.00     0.079 C 
ATOM     12  C   UNL     1       0.555   0.716   0.714  1.00  0.00     0.091 A 
ATOM     13  N   UNL     1      -0.633   1.025   0.259  1.00  0.00    -0.246 NA
ATOM     14  S   UNL     1       0.724  -0.920   1.189  1.00  0.00    -0.113 S 
ATOM     15  C   UNL     1      -1.432  -0.107   0.167  1.00  0.00     0.061 A 
ATOM     16  C   UNL     1      -2.830   0.141  -0.285  1.00  0.00     0.068 C 
ENDBRANCH   7  10
ENDBRANCH   5   6
BRANCH   5  17
ATOM     17  C   UNL     1       1.220  -4.878   1.577  1.00  0.00     0.053 C 
BRANCH  17  18
ATOM     18  C   UNL     1       0.525  -6.198   1.911  1.00  0.00     0.139 C 
BRANCH  18  19
ATOM     19  S   UNL     1       0.951  -7.673   0.995  1.00  0.00     0.147 S 
ATOM     20  C   UNL     1       2.690  -7.622   0.606  1.00  0.00     0.158 C 
ATOM     21  O   UNL     1       0.760  -8.801   1.889  1.00  0.00    -0.229 OA
ATOM     22  O   UNL     1       0.216  -7.628  -0.253  1.00  0.00    -0.229 OA
ENDBRANCH  18  19
ENDBRANCH  17  18
ENDBRANCH   5  17
ENDBRANCH   3   5
ENDBRANCH   2   3
ENDBRANCH   1   2
BRANCH   1  23
ATOM     23  C   UNL     1       0.464  -5.486  -4.219  1.00  0.00     0.275 C 
BRANCH  23  24
ATOM     24  O   UNL     1       1.007  -4.167  -4.396  1.00  0.00    -0.458 OA
BRANCH  24  25
ATOM     25  C   UNL     1       0.273  -3.182  -3.837  1.00  0.00     0.338 C 
ATOM     26  O   UNL     1      -0.823  -3.279  -3.296  1.00  0.00    -0.246 OA
BRANCH  25  27
ATOM     27  C   UNL     1       1.080  -1.965  -3.769  1.00  0.00     0.060 A 
ATOM     28  C   UNL     1       1.560  -1.589  -2.517  1.00  0.00     0.016 A 
ATOM     29  C   UNL     1       1.288  -1.156  -4.883  1.00  0.00     0.016 A 
ATOM     30  C   UNL     1       2.211  -0.378  -2.353  1.00  0.00     0.010 A 
ATOM     31  C   UNL     1       1.955   0.062  -4.719  1.00  0.00     0.010 A 
ATOM     32  C   UNL     1       2.392   0.474  -3.446  1.00  0.00    -0.014 A 
BRANCH  32  33
ATOM     33  C   UNL     1       2.933   1.836  -3.217  1.00  0.00     0.031 A 
ATOM     34  C   UNL     1       2.039   3.024  -3.434  1.00  0.00     0.074 A 
ATOM     35  C   UNL     1       4.185   2.007  -2.751  1.00  0.00     0.049 A 
ATOM     36  N   UNL     1       2.346   4.294  -3.470  1.00  0.00    -0.248 NA
ATOM     37  C   UNL     1       0.609   2.744  -3.644  1.00  0.00     0.031 C 
ATOM     38  C   UNL     1       5.114   0.931  -2.402  1.00  0.00     0.029 A 
ATOM     39  N   UNL     1       4.889   3.154  -2.483  1.00  0.00    -0.354 N 
ATOM     40  C   UNL     1       1.162   4.960  -3.766  1.00  0.00     0.074 A 
ATOM     41  C   UNL     1       0.130   3.954  -3.895  1.00  0.00     0.031 C 
ATOM     42  C   UNL     1       6.260   1.468  -1.954  1.00  0.00     0.029 A 
ATOM     43  C   UNL     1       6.177   2.921  -2.064  1.00  0.00     0.049 A 
ATOM     44  H   UNL     1       4.508   4.056  -2.582  1.00  0.00     0.167 HD
ATOM     45  C   UNL     1       0.961   6.290  -3.919  1.00  0.00     0.037 A 
ATOM     46  C   UNL     1       7.192   3.779  -1.846  1.00  0.00     0.037 A 
ATOM     47  C   UNL     1       1.989   7.281  -3.730  1.00  0.00     0.049 A 
ATOM     48  C   UNL     1       6.964   5.248  -2.077  1.00  0.00     0.074 A 
ATOM     49  C   UNL     1       1.898   8.655  -3.862  1.00  0.00     0.029 A 
ATOM     50  N   UNL     1       3.294   7.002  -3.348  1.00  0.00    -0.354 N 
ATOM     51  N   UNL     1       5.863   5.863  -2.441  1.00  0.00    -0.248 NA
ATOM     52  C   UNL     1       8.118   6.137  -1.889  1.00  0.00     0.031 C 
ATOM     53  C   UNL     1       3.157   9.204  -3.595  1.00  0.00     0.029 A 
ATOM     54  C   UNL     1       4.021   8.177  -3.252  1.00  0.00     0.049 A 
ATOM     55  H   UNL     1       3.651   6.102  -3.171  1.00  0.00     0.167 HD
ATOM     56  C   UNL     1       6.189   7.212  -2.515  1.00  0.00     0.074 A 
ATOM     57  C   UNL     1       7.584   7.325  -2.138  1.00  0.00     0.031 C 
ATOM     58  C   UNL     1       5.408   8.264  -2.869  1.00  0.00     0.037 A 
BRANCH  45  59
ATOM     59  C   UNL     1      -0.403   6.747  -4.355  1.00  0.00     0.058 A 
ATOM     60  C   UNL     1      -1.511   6.726  -3.494  1.00  0.00     0.135 A 
ATOM     61  C   UNL     1      -0.596   7.240  -5.656  1.00  0.00     0.135 A 
ATOM     62  F   UNL     1      -1.388   6.248  -2.246  1.00  0.00    -0.206 F 
ATOM     63  C   UNL     1      -2.767   7.155  -3.916  1.00  0.00     0.059 A 
ATOM     64  C   UNL     1      -1.835   7.699  -6.090  1.00  0.00     0.059 A 
ATOM     65  F   UNL     1       0.430   7.279  -6.522  1.00  0.00    -0.206 F 
ATOM     66  C   UNL     1      -2.919   7.639  -5.216  1.00  0.00     0.060 A 
BRANCH  66  67
ATOM     67  S   UNL     1      -4.551   8.201  -5.748  1.00  0.00     0.124 S 
ATOM     68  O   UNL     1      -5.256   6.934  -5.915  1.00  0.00    -0.237 OA
ATOM     69  O   UNL     1      -4.982   9.023  -4.622  1.00  0.00    -0.237 OA
ATOM     70  O   UNL     1      -4.274   8.931  -6.982  1.00  0.00    -0.744 OA
ENDBRANCH  66  67
ENDBRANCH  45  59
BRANCH  46  71
ATOM     71  C   UNL     1       8.528   3.264  -1.440  1.00  0.00     0.058 A 
ATOM     72  C   UNL     1       9.047   3.524  -0.163  1.00  0.00     0.135 A 
ATOM     73  C   UNL     1       9.306   2.491  -2.317  1.00  0.00     0.135 A 
ATOM     74  F   UNL     1       8.348   4.267   0.707  1.00  0.00    -0.206 F 
ATOM     75  C   UNL     1      10.293   3.041   0.228  1.00  0.00     0.059 A 
ATOM     76  C   UNL     1      10.540   1.973  -1.939  1.00  0.00     0.059 A 
ATOM     77  F   UNL     1       8.851   2.206  -3.547  1.00  0.00    -0.206 F 
ATOM     78  C   UNL     1      11.029   2.262  -0.666  1.00  0.00     0.060 A 
BRANCH  78  79
ATOM     79  S   UNL     1      12.615   1.586  -0.129  1.00  0.00     0.124 S 
ATOM     80  O   UNL     1      13.470   2.766  -0.183  1.00  0.00    -0.237 OA
ATOM     81  O   UNL     1      12.300   1.086   1.206  1.00  0.00    -0.237 OA
ATOM     82  O   UNL     1      12.894   0.556  -1.125  1.00  0.00    -0.744 OA
ENDBRANCH  78  79
ENDBRANCH  46  71
BRANCH  58  83
ATOM     83  C   UNL     1       6.037   9.628  -2.834  1.00  0.00     0.058 A 
ATOM     84  C   UNL     1       6.953  10.040  -3.814  1.00  0.00     0.135 A 
ATOM     85  C   UNL     1       5.684  10.547  -1.834  1.00  0.00     0.135 A 
ATOM     86  F   UNL     1       7.329   9.195  -4.786  1.00  0.00    -0.206 F 
ATOM     87  C   UNL     1       7.515  11.312  -3.790  1.00  0.00     0.059 A 
ATOM     88  C   UNL     1       6.214  11.833  -1.805  1.00  0.00     0.059 A 
ATOM     89  F   UNL     1       4.804  10.203  -0.879  1.00  0.00    -0.206 F 
ATOM     90  C   UNL     1       7.138  12.202  -2.781  1.00  0.00     0.060 A 
BRANCH  90  91
ATOM     91  S   UNL     1       7.854  13.859  -2.777  1.00  0.00     0.124 S 
ATOM     92  O   UNL     1       9.206  13.593  -2.295  1.00  0.00    -0.237 OA
ATOM     93  O   UNL     1       7.746  14.251  -4.179  1.00  0.00    -0.237 OA
ATOM     94  O   UNL     1       6.994  14.598  -1.858  1.00  0.00    -0.744 OA
ENDBRANCH  90  91
ENDBRANCH  58  83
ENDBRANCH  32  33
ENDBRANCH  25  27
ENDBRANCH  24  25
ENDBRANCH  23  24
ENDBRANCH   1  23
TORSDOF 19
