REMARK SMILES COC(=O)c1c(NC(=O)[C@@H]2C[C@@H]2C(=O)OCCOC(=O)c2ccc(-c3c4nc(c(-c5c(F)cc(S(=O)(=O)[O-])cc5F)c5ccc([nH]5)c(-c5c(F)cc(S(=O)(=O)[O-])cc5F)c5nc(c(-c6c(F)cc(S(=O)(=O)[O-])cc6F)c6ccc3[nH]6)C=C5)C=C4)cc2)sc2c1CC[N@@H+](Cc1ccccc1)C2
REMARK SMILES IDX 16 1 15 2 13 3 14 4 12 5 10 6 11 7 8 8 7 9 9 11 6 12 5 13
REMARK SMILES IDX 89 14 87 15 88 16 90 17 100 18 91 19 92 20 3 22 4 23 2 24
REMARK SMILES IDX 1 25 93 26 94 27 95 28 99 29 96 30 98 31 97 32 17 33 18 34
REMARK SMILES IDX 19 35 20 36 21 37 22 38 86 39 23 40 85 41 24 42 25 43 26 44
REMARK SMILES IDX 79 45 27 46 84 47 78 48 80 49 28 50 83 51 77 52 76 53 29 55
REMARK SMILES IDX 63 56 42 57 62 58 43 59 46 60 61 61 81 62 44 63 45 64 60 66
REMARK SMILES IDX 82 67 47 68 30 69 31 70 40 71 32 72 33 73 39 74 41 75 34 76
REMARK SMILES IDX 35 77 36 78 37 79 38 80 64 81 65 82 74 83 66 84 67 85 73 86
REMARK SMILES IDX 75 87 68 88 69 89 70 90 71 91 72 92 48 93 49 94 58 95 50 96
REMARK SMILES IDX 51 97 57 98 59 99 52 100 53 101 54 102 55 103 56 104
REMARK H PARENT 7 10 92 21 80 54 46 65
REMARK Flexibility Score: inf
ROOT
ATOM      1  C   UNL     1      -3.165  -4.417  -0.426  1.00  0.00     0.274 C 
ENDROOT
BRANCH   1   2
ATOM      2  O   UNL     1      -2.157  -3.492   0.039  1.00  0.00    -0.462 OA
BRANCH   2   3
ATOM      3  C   UNL     1      -2.211  -2.258  -0.531  1.00  0.00     0.309 C 
ATOM      4  O   UNL     1      -3.013  -1.922  -1.400  1.00  0.00    -0.252 OA
BRANCH   3   5
ATOM      5  C   UNL     1      -1.081  -1.367  -0.158  1.00  0.00     0.112 C 
ATOM      6  C   UNL     1      -0.923  -0.324   0.931  1.00  0.00     0.094 C 
ATOM      7  C   UNL     1      -1.362   0.100  -0.439  1.00  0.00     0.030 C 
BRANCH   6   8
ATOM      8  C   UNL     1      -1.781  -0.088   2.095  1.00  0.00     0.229 C 
ATOM      9  N   UNL     1      -1.765  -0.891   3.195  1.00  0.00    -0.317 N 
ATOM     10  H   UNL     1      -2.637  -0.980   3.643  1.00  0.00     0.170 HD
ATOM     11  O   UNL     1      -2.446   0.945   2.114  1.00  0.00    -0.274 OA
BRANCH   9  12
ATOM     12  C   UNL     1      -0.751  -1.599   3.794  1.00  0.00     0.110 A 
ATOM     13  C   UNL     1       0.553  -1.998   3.552  1.00  0.00     0.098 A 
ATOM     14  C   UNL     1       1.175  -2.434   4.789  1.00  0.00    -0.006 A 
ATOM     15  S   UNL     1      -1.265  -2.002   5.386  1.00  0.00    -0.116 S 
ATOM     16  C   UNL     1       0.320  -2.331   5.867  1.00  0.00     0.065 A 
ATOM     17  C   UNL     1       2.625  -2.758   5.003  1.00  0.00     0.099 C 
ATOM     18  C   UNL     1       0.728  -2.419   7.305  1.00  0.00     0.310 C 
ATOM     19  C   UNL     1       2.980  -2.910   6.507  1.00  0.00     0.267 C 
ATOM     20  N   UNL     1       2.171  -2.152   7.476  1.00  0.00    -0.326 N 
ATOM     21  H   UNL     1       2.431  -2.525   8.389  1.00  0.00     0.348 HD
BRANCH  13  22
ATOM     22  C   UNL     1       1.286  -1.913   2.303  1.00  0.00     0.341 C 
ATOM     23  O   UNL     1       1.431  -2.863   1.543  1.00  0.00    -0.246 OA
BRANCH  22  24
ATOM     24  O   UNL     1       1.844  -0.684   2.111  1.00  0.00    -0.465 OA
ATOM     25  C   UNL     1       2.447  -0.440   0.834  1.00  0.00     0.282 C 
ENDBRANCH  22  24
ENDBRANCH  13  22
BRANCH  20  26
ATOM     26  C   UNL     1       2.524  -0.732   7.650  1.00  0.00     0.299 C 
BRANCH  26  27
ATOM     27  C   UNL     1       2.434   0.189   6.450  1.00  0.00     0.006 A 
ATOM     28  C   UNL     1       3.570   0.469   5.675  1.00  0.00     0.009 A 
ATOM     29  C   UNL     1       1.211   0.762   6.072  1.00  0.00     0.009 A 
ATOM     30  C   UNL     1       3.467   1.235   4.510  1.00  0.00     0.001 A 
ATOM     31  C   UNL     1       1.103   1.511   4.898  1.00  0.00     0.001 A 
ATOM     32  C   UNL     1       2.230   1.740   4.114  1.00  0.00     0.000 A 
ENDBRANCH  26  27
ENDBRANCH  20  26
ENDBRANCH   9  12
ENDBRANCH   6   8
ENDBRANCH   3   5
ENDBRANCH   2   3
ENDBRANCH   1   2
BRANCH   1  33
ATOM     33  C   UNL     1      -4.473  -4.382   0.369  1.00  0.00     0.275 C 
BRANCH  33  34
ATOM     34  O   UNL     1      -5.202  -3.161   0.228  1.00  0.00    -0.458 OA
BRANCH  34  35
ATOM     35  C   UNL     1      -4.779  -2.227   1.103  1.00  0.00     0.338 C 
ATOM     36  O   UNL     1      -3.752  -2.254   1.762  1.00  0.00    -0.246 OA
BRANCH  35  37
ATOM     37  C   UNL     1      -5.815  -1.256   1.413  1.00  0.00     0.060 A 
ATOM     38  C   UNL     1      -5.367  -0.022   1.872  1.00  0.00     0.016 A 
ATOM     39  C   UNL     1      -7.091  -1.734   1.698  1.00  0.00     0.016 A 
ATOM     40  C   UNL     1      -6.092   0.634   2.834  1.00  0.00     0.010 A 
ATOM     41  C   UNL     1      -7.864  -1.028   2.591  1.00  0.00     0.010 A 
ATOM     42  C   UNL     1      -7.327   0.103   3.218  1.00  0.00    -0.014 A 
BRANCH  42  43
ATOM     43  C   UNL     1      -8.161   0.928   4.082  1.00  0.00     0.031 A 
ATOM     44  C   UNL     1      -8.399   2.277   3.480  1.00  0.00     0.074 A 
ATOM     45  C   UNL     1      -8.774   0.421   5.173  1.00  0.00     0.049 A 
ATOM     46  N   UNL     1      -8.226   3.442   4.010  1.00  0.00    -0.248 NA
ATOM     47  C   UNL     1      -8.678   2.329   2.025  1.00  0.00     0.031 C 
ATOM     48  C   UNL     1      -8.736  -0.968   5.643  1.00  0.00     0.029 A 
ATOM     49  N   UNL     1      -9.684   0.986   6.012  1.00  0.00    -0.354 N 
ATOM     50  C   UNL     1      -8.615   4.354   3.029  1.00  0.00     0.074 A 
ATOM     51  C   UNL     1      -8.661   3.638   1.788  1.00  0.00     0.031 C 
ATOM     52  C   UNL     1      -9.781  -1.188   6.471  1.00  0.00     0.029 A 
ATOM     53  C   UNL     1     -10.489   0.063   6.680  1.00  0.00     0.049 A 
ATOM     54  H   UNL     1      -9.767   1.959   6.137  1.00  0.00     0.167 HD
ATOM     55  C   UNL     1      -9.184   5.541   3.369  1.00  0.00     0.037 A 
ATOM     56  C   UNL     1     -11.693   0.301   7.267  1.00  0.00     0.037 A 
ATOM     57  C   UNL     1      -8.783   5.936   4.694  1.00  0.00     0.049 A 
ATOM     58  C   UNL     1     -11.814   1.775   7.422  1.00  0.00     0.074 A 
ATOM     59  C   UNL     1      -7.566   6.169   5.305  1.00  0.00     0.029 A 
ATOM     60  N   UNL     1      -9.691   5.765   5.709  1.00  0.00    -0.354 N 
ATOM     61  N   UNL     1     -11.079   2.489   8.228  1.00  0.00    -0.248 NA
ATOM     62  C   UNL     1     -12.447   2.512   6.338  1.00  0.00     0.031 C 
ATOM     63  C   UNL     1      -7.713   5.664   6.628  1.00  0.00     0.029 A 
ATOM     64  C   UNL     1      -9.029   5.225   6.779  1.00  0.00     0.049 A 
ATOM     65  H   UNL     1     -10.649   5.991   5.674  1.00  0.00     0.167 HD
ATOM     66  C   UNL     1     -10.800   3.646   7.517  1.00  0.00     0.074 A 
ATOM     67  C   UNL     1     -11.736   3.640   6.395  1.00  0.00     0.031 C 
ATOM     68  C   UNL     1      -9.650   4.347   7.743  1.00  0.00     0.037 A 
BRANCH  55  69
ATOM     69  C   UNL     1     -10.432   6.069   2.691  1.00  0.00     0.058 A 
ATOM     70  C   UNL     1     -10.938   7.325   3.080  1.00  0.00     0.135 A 
ATOM     71  C   UNL     1     -11.310   5.281   1.908  1.00  0.00     0.135 A 
ATOM     72  F   UNL     1     -10.198   8.158   3.829  1.00  0.00    -0.206 F 
ATOM     73  C   UNL     1     -12.242   7.729   2.788  1.00  0.00     0.059 A 
ATOM     74  C   UNL     1     -12.592   5.686   1.563  1.00  0.00     0.059 A 
ATOM     75  F   UNL     1     -11.017   4.039   1.510  1.00  0.00    -0.206 F 
ATOM     76  C   UNL     1     -13.066   6.893   2.041  1.00  0.00     0.060 A 
BRANCH  76  77
ATOM     77  S   UNL     1     -14.773   7.367   1.732  1.00  0.00     0.124 S 
ATOM     78  O   UNL     1     -15.349   7.260   3.067  1.00  0.00    -0.237 OA
ATOM     79  O   UNL     1     -14.617   8.719   1.206  1.00  0.00    -0.237 OA
ATOM     80  O   UNL     1     -15.227   6.373   0.764  1.00  0.00    -0.744 OA
ENDBRANCH  76  77
ENDBRANCH  55  69
BRANCH  56  81
ATOM     81  C   UNL     1     -12.886  -0.590   7.377  1.00  0.00     0.058 A 
ATOM     82  C   UNL     1     -13.984  -0.225   8.183  1.00  0.00     0.135 A 
ATOM     83  C   UNL     1     -13.110  -1.656   6.484  1.00  0.00     0.135 A 
ATOM     84  F   UNL     1     -13.873   0.786   9.058  1.00  0.00    -0.206 F 
ATOM     85  C   UNL     1     -15.241  -0.831   8.061  1.00  0.00     0.059 A 
ATOM     86  C   UNL     1     -14.350  -2.285   6.355  1.00  0.00     0.059 A 
ATOM     87  F   UNL     1     -12.157  -2.063   5.634  1.00  0.00    -0.206 F 
ATOM     88  C   UNL     1     -15.421  -1.845   7.123  1.00  0.00     0.060 A 
BRANCH  88  89
ATOM     89  S   UNL     1     -17.082  -2.495   6.819  1.00  0.00     0.124 S 
ATOM     90  O   UNL     1     -17.349  -3.235   8.048  1.00  0.00    -0.237 OA
ATOM     91  O   UNL     1     -17.861  -1.276   6.628  1.00  0.00    -0.237 OA
ATOM     92  O   UNL     1     -16.911  -3.316   5.622  1.00  0.00    -0.744 OA
ENDBRANCH  88  89
ENDBRANCH  56  81
BRANCH  68  93
ATOM     93  C   UNL     1      -8.871   4.058   8.998  1.00  0.00     0.058 A 
ATOM     94  C   UNL     1      -8.273   2.827   9.321  1.00  0.00     0.135 A 
ATOM     95  C   UNL     1      -8.612   5.141   9.852  1.00  0.00     0.135 A 
ATOM     96  F   UNL     1      -8.382   1.768   8.505  1.00  0.00    -0.206 F 
ATOM     97  C   UNL     1      -7.495   2.671  10.471  1.00  0.00     0.059 A 
ATOM     98  C   UNL     1      -7.812   5.018  10.981  1.00  0.00     0.059 A 
ATOM     99  F   UNL     1      -9.107   6.357   9.567  1.00  0.00    -0.206 F 
ATOM    100  C   UNL     1      -7.270   3.775  11.296  1.00  0.00     0.060 A 
BRANCH 100 101
ATOM    101  S   UNL     1      -6.225   3.595  12.757  1.00  0.00     0.124 S 
ATOM    102  O   UNL     1      -7.059   2.779  13.632  1.00  0.00    -0.237 OA
ATOM    103  O   UNL     1      -5.037   2.938  12.219  1.00  0.00    -0.237 OA
ATOM    104  O   UNL     1      -6.017   4.971  13.200  1.00  0.00    -0.744 OA
ENDBRANCH 100 101
ENDBRANCH  68  93
ENDBRANCH  42  43
ENDBRANCH  35  37
ENDBRANCH  34  35
ENDBRANCH  33  34
ENDBRANCH   1  33
TORSDOF 20
