REMARK SMILES O=C(OCCOC(=O)[C@@H]1CCCC[C@@H]1C(=O)Nc1nc(-c2ccc(Cl)c(Cl)c2)cs1)c1ccc(-c2c3nc(c(-c4c(F)cc(S(=O)(=O)[O-])cc4F)c4ccc([nH]4)c(-c4c(F)cc(S(=O)(=O)[O-])cc4F)c4nc(c(-c5c(F)cc(S(=O)(=O)[O-])cc5F)c5ccc2[nH]5)C=C4)C=C3)cc1
REMARK SMILES IDX 4 1 3 2 2 3 1 4 31 5 32 6 96 7 33 8 95 9 34 10 35 11 36 12
REMARK SMILES IDX 89 13 37 14 94 15 88 16 90 17 38 18 93 19 87 20 86 21 39 23
REMARK SMILES IDX 73 24 52 25 72 26 53 27 56 28 71 29 91 30 54 31 55 32 70 34
REMARK SMILES IDX 92 35 57 36 40 37 41 38 50 39 42 40 43 41 49 42 51 43 44 44
REMARK SMILES IDX 45 45 46 46 47 47 48 48 74 49 75 50 84 51 76 52 77 53 83 54
REMARK SMILES IDX 85 55 78 56 79 57 80 58 81 59 82 60 58 61 59 62 68 63 60 64
REMARK SMILES IDX 61 65 67 66 69 67 62 68 63 69 64 70 65 71 66 72 5 73 6 74
REMARK SMILES IDX 7 75 8 76 9 77 10 78 14 79 11 80 13 81 12 82 15 83 16 84
REMARK SMILES IDX 17 85 18 87 19 88 30 89 20 90 29 91 21 92 22 93 28 94 23 95
REMARK SMILES IDX 26 96 24 97 27 98 25 99
REMARK H PARENT 90 22 56 33 17 86
REMARK Flexibility Score: inf
ROOT
ATOM      1  C   UNL     1       3.663   0.274  -1.613  1.00  0.00     0.275 C 
ENDROOT
BRANCH   1   2
ATOM      2  O   UNL     1       2.561  -0.544  -1.158  1.00  0.00    -0.458 OA
BRANCH   2   3
ATOM      3  C   UNL     1       2.362  -1.222   0.000  1.00  0.00     0.338 C 
ATOM      4  O   UNL     1       1.345  -1.896   0.131  1.00  0.00    -0.246 OA
BRANCH   3   5
ATOM      5  C   UNL     1       3.235  -1.066   1.194  1.00  0.00     0.060 A 
ATOM      6  C   UNL     1       4.981  -0.561   1.101  1.00  0.00     0.016 A 
ATOM      7  C   UNL     1       2.455  -1.298   2.870  1.00  0.00     0.016 A 
ATOM      8  C   UNL     1       5.952  -0.207   2.588  1.00  0.00     0.010 A 
ATOM      9  C   UNL     1       3.452  -0.927   4.383  1.00  0.00     0.010 A 
ATOM     10  C   UNL     1       5.177  -0.359   4.222  1.00  0.00    -0.014 A 
BRANCH  10  11
ATOM     11  C   UNL     1       6.019  -0.104   5.401  1.00  0.00     0.031 A 
ATOM     12  C   UNL     1       6.799  -1.235   5.969  1.00  0.00     0.074 A 
ATOM     13  C   UNL     1       6.104   1.120   5.941  1.00  0.00     0.049 A 
ATOM     14  N   UNL     1       7.102  -1.503   7.204  1.00  0.00    -0.248 NA
ATOM     15  C   UNL     1       7.261  -2.238   5.006  1.00  0.00     0.031 C 
ATOM     16  C   UNL     1       5.596   2.355   5.355  1.00  0.00     0.029 A 
ATOM     17  N   UNL     1       6.639   1.520   7.134  1.00  0.00    -0.354 N 
ATOM     18  C   UNL     1       7.628  -2.791   7.182  1.00  0.00     0.074 A 
ATOM     19  C   UNL     1       7.627  -3.228   5.808  1.00  0.00     0.031 C 
ATOM     20  C   UNL     1       5.738   3.360   6.231  1.00  0.00     0.029 A 
ATOM     21  C   UNL     1       6.347   2.829   7.439  1.00  0.00     0.049 A 
ATOM     22  H   UNL     1       7.175   0.933   7.714  1.00  0.00     0.167 HD
ATOM     23  C   UNL     1       8.076  -3.510   8.238  1.00  0.00     0.037 A 
ATOM     24  C   UNL     1       6.528   3.499   8.589  1.00  0.00     0.037 A 
ATOM     25  C   UNL     1       8.327  -2.878   9.507  1.00  0.00     0.049 A 
ATOM     26  C   UNL     1       7.213   2.756   9.699  1.00  0.00     0.074 A 
ATOM     27  C   UNL     1       8.879  -3.405  10.658  1.00  0.00     0.029 A 
ATOM     28  N   UNL     1       8.134  -1.518   9.739  1.00  0.00    -0.354 N 
ATOM     29  N   UNL     1       7.486   1.471   9.776  1.00  0.00    -0.248 NA
ATOM     30  C   UNL     1       7.667   3.544  10.846  1.00  0.00     0.031 C 
ATOM     31  C   UNL     1       9.063  -2.350  11.565  1.00  0.00     0.029 A 
ATOM     32  C   UNL     1       8.637  -1.168  10.973  1.00  0.00     0.049 A 
ATOM     33  H   UNL     1       7.700  -0.896   9.111  1.00  0.00     0.167 HD
ATOM     34  C   UNL     1       8.195   1.303  10.955  1.00  0.00     0.074 A 
ATOM     35  C   UNL     1       8.295   2.620  11.562  1.00  0.00     0.031 C 
ATOM     36  C   UNL     1       8.729   0.176  11.490  1.00  0.00     0.037 A 
BRANCH  23  37
ATOM     37  C   UNL     1       8.290  -4.992   8.059  1.00  0.00     0.058 A 
ATOM     38  C   UNL     1       9.250  -5.540   7.193  1.00  0.00     0.135 A 
ATOM     39  C   UNL     1       7.455  -5.897   8.742  1.00  0.00     0.135 A 
ATOM     40  F   UNL     1      10.085  -4.738   6.513  1.00  0.00    -0.206 F 
ATOM     41  C   UNL     1       9.320  -6.911   6.945  1.00  0.00     0.059 A 
ATOM     42  C   UNL     1       7.537  -7.275   8.543  1.00  0.00     0.059 A 
ATOM     43  F   UNL     1       6.523  -5.445   9.595  1.00  0.00    -0.206 F 
ATOM     44  C   UNL     1       8.448  -7.769   7.614  1.00  0.00     0.060 A 
BRANCH  44  45
ATOM     45  S   UNL     1       8.510  -9.540   7.260  1.00  0.00     0.124 S 
ATOM     46  O   UNL     1       7.679  -9.623   6.063  1.00  0.00    -0.237 OA
ATOM     47  O   UNL     1       9.936  -9.776   7.056  1.00  0.00    -0.237 OA
ATOM     48  O   UNL     1       7.945 -10.142   8.463  1.00  0.00    -0.744 OA
ENDBRANCH  44  45
ENDBRANCH  23  37
BRANCH  24  49
ATOM     49  C   UNL     1       6.112   4.920   8.697  1.00  0.00     0.058 A 
ATOM     50  C   UNL     1       7.058   5.953   8.637  1.00  0.00     0.135 A 
ATOM     51  C   UNL     1       4.757   5.283   8.779  1.00  0.00     0.135 A 
ATOM     52  F   UNL     1       8.364   5.660   8.539  1.00  0.00    -0.206 F 
ATOM     53  C   UNL     1       6.682   7.292   8.678  1.00  0.00     0.059 A 
ATOM     54  C   UNL     1       4.354   6.617   8.805  1.00  0.00     0.059 A 
ATOM     55  F   UNL     1       3.808   4.334   8.801  1.00  0.00    -0.206 F 
ATOM     56  C   UNL     1       5.327   7.615   8.761  1.00  0.00     0.060 A 
BRANCH  56  57
ATOM     57  S   UNL     1       4.858   9.360   8.776  1.00  0.00     0.124 S 
ATOM     58  O   UNL     1       5.363   9.790  10.075  1.00  0.00    -0.237 OA
ATOM     59  O   UNL     1       5.571   9.877   7.612  1.00  0.00    -0.237 OA
ATOM     60  O   UNL     1       3.404   9.322   8.647  1.00  0.00    -0.744 OA
ENDBRANCH  56  57
ENDBRANCH  24  49
BRANCH  36  61
ATOM     61  C   UNL     1       9.530   0.352  12.740  1.00  0.00     0.058 A 
ATOM     62  C   UNL     1       8.912   0.513  13.986  1.00  0.00     0.135 A 
ATOM     63  C   UNL     1      10.931   0.290  12.685  1.00  0.00     0.135 A 
ATOM     64  F   UNL     1       7.575   0.586  14.074  1.00  0.00    -0.206 F 
ATOM     65  C   UNL     1       9.663   0.619  15.147  1.00  0.00     0.059 A 
ATOM     66  C   UNL     1      11.700   0.373  13.837  1.00  0.00     0.059 A 
ATOM     67  F   UNL     1      11.557   0.133  11.508  1.00  0.00    -0.206 F 
ATOM     68  C   UNL     1      11.056   0.542  15.062  1.00  0.00     0.060 A 
BRANCH  68  69
ATOM     69  S   UNL     1      12.015   0.619  16.587  1.00  0.00     0.124 S 
ATOM     70  O   UNL     1      11.944   2.041  16.904  1.00  0.00    -0.237 OA
ATOM     71  O   UNL     1      11.265  -0.268  17.471  1.00  0.00    -0.237 OA
ATOM     72  O   UNL     1      13.329   0.128  16.184  1.00  0.00    -0.744 OA
ENDBRANCH  68  69
ENDBRANCH  36  61
ENDBRANCH  10  11
ENDBRANCH   3   5
ENDBRANCH   2   3
ENDBRANCH   1   2
BRANCH   1  73
ATOM     73  C   UNL     1       3.637   1.726  -1.137  1.00  0.00     0.274 C 
BRANCH  73  74
ATOM     74  O   UNL     1       3.351   1.817   0.259  1.00  0.00    -0.462 OA
BRANCH  74  75
ATOM     75  C   UNL     1       2.172   2.381   0.603  1.00  0.00     0.309 C 
ATOM     76  O   UNL     1       1.373   2.865  -0.192  1.00  0.00    -0.252 OA
BRANCH  75  77
ATOM     77  C   UNL     1       1.905   2.331   2.091  1.00  0.00     0.111 C 
ATOM     78  C   UNL     1       2.515   3.480   2.891  1.00  0.00     0.016 C 
ATOM     79  C   UNL     1       2.057   0.914   2.724  1.00  0.00     0.093 C 
ATOM     80  C   UNL     1       2.014   3.489   4.337  1.00  0.00     0.001 C 
ATOM     81  C   UNL     1       1.369   1.056   4.123  1.00  0.00     0.014 C 
ATOM     82  C   UNL     1       2.030   2.114   4.997  1.00  0.00     0.001 C 
BRANCH  79  83
ATOM     83  C   UNL     1       3.781   0.257   2.693  1.00  0.00     0.230 C 
ATOM     84  O   UNL     1       4.463   1.328   2.617  1.00  0.00    -0.274 OA
ATOM     85  N   UNL     1       4.418  -1.606   2.760  1.00  0.00    -0.302 N 
ATOM     86  H   UNL     1       5.401  -1.597   2.815  1.00  0.00     0.172 HD
BRANCH  85  87
ATOM     87  C   UNL     1       3.949  -3.048   2.758  1.00  0.00     0.189 A 
ATOM     88  N   UNL     1       2.914  -3.619   2.191  1.00  0.00    -0.220 NA
ATOM     89  S   UNL     1       4.805  -4.091   3.823  1.00  0.00    -0.105 S 
ATOM     90  C   UNL     1       2.527  -4.712   2.936  1.00  0.00     0.084 A 
ATOM     91  C   UNL     1       3.413  -5.103   3.916  1.00  0.00     0.097 A 
BRANCH  90  92
ATOM     92  C   UNL     1       1.226  -5.286   2.679  1.00  0.00     0.003 A 
ATOM     93  C   UNL     1       0.934  -5.702   1.376  1.00  0.00     0.012 A 
ATOM     94  C   UNL     1       0.214  -5.256   3.645  1.00  0.00     0.032 A 
ATOM     95  C   UNL     1      -0.360  -6.089   1.033  1.00  0.00     0.023 A 
ATOM     96  C   UNL     1      -1.089  -5.630   3.297  1.00  0.00     0.060 A 
ATOM     97  C   UNL     1      -1.376  -6.047   1.990  1.00  0.00     0.059 A 
ATOM     98  Cl  UNL     1      -2.313  -5.514   4.513  1.00  0.00    -0.083 Cl
ATOM     99  Cl  UNL     1      -2.967  -6.494   1.484  1.00  0.00    -0.083 Cl
ENDBRANCH  90  92
ENDBRANCH  85  87
ENDBRANCH  79  83
ENDBRANCH  75  77
ENDBRANCH  74  75
ENDBRANCH  73  74
ENDBRANCH   1  73
TORSDOF 17
