REMARK SMILES CC[C@](C)(NC(=O)CNC(=O)c1cccc(Cl)c1)C(=O)OCCOC(=O)c1ccc(-c2c3nc(c(-c4c(F)cc(S(=O)(=O)[O-])cc4F)c4ccc([nH]4)c(-c4c(F)cc(S(=O)(=O)[O-])cc4F)c4nc(c(-c5c(F)cc(S(=O)(=O)[O-])cc5F)c5ccc2[nH]5)C=C4)C=C3)cc1
REMARK SMILES IDX 22 1 21 2 19 3 20 4 3 5 4 6 2 7 1 8 5 9 6 10 7 12 8 13 9 14
REMARK SMILES IDX 10 15 11 17 12 18 13 19 18 20 14 21 16 22 15 23 17 24 23 25
REMARK SMILES IDX 24 26 25 27 26 28 27 29 28 30 92 31 29 32 91 33 30 34 31 35
REMARK SMILES IDX 32 36 85 37 33 38 90 39 84 40 86 41 34 42 89 43 83 44 82 45
REMARK SMILES IDX 35 47 69 48 48 49 68 50 49 51 52 52 67 53 87 54 50 55 51 56
REMARK SMILES IDX 66 58 88 59 53 60 36 61 37 62 46 63 38 64 39 65 45 66 47 67
REMARK SMILES IDX 40 68 41 69 42 70 43 71 44 72 70 73 71 74 80 75 72 76 73 77
REMARK SMILES IDX 79 78 81 79 74 80 75 81 76 82 77 83 78 84 54 85 55 86 64 87
REMARK SMILES IDX 56 88 57 89 63 90 65 91 58 92 59 93 60 94 61 95 62 96
REMARK H PARENT 5 11 9 16 86 46 52 57
REMARK Flexibility Score: inf
ROOT
ATOM      1  C   UNL     1       4.278  -0.350  -4.719  1.00  0.00     0.274 C 
ENDROOT
BRANCH   1   2
ATOM      2  O   UNL     1       2.795  -0.697  -4.559  1.00  0.00    -0.460 OA
BRANCH   2   3
ATOM      3  C   UNL     1       2.115  -1.648  -3.780  1.00  0.00     0.331 C 
ATOM      4  O   UNL     1       2.588  -2.748  -3.523  1.00  0.00    -0.249 OA
BRANCH   3   5
ATOM      5  C   UNL     1       0.626  -1.113  -3.150  1.00  0.00     0.135 C 
ATOM      6  C   UNL     1       0.518  -0.318  -1.803  1.00  0.00     0.047 C 
BRANCH   5   7
ATOM      7  C   UNL     1      -0.327  -2.342  -2.964  1.00  0.00     0.037 C 
ATOM      8  C   UNL     1      -1.517  -2.160  -1.994  1.00  0.00     0.007 C 
ENDBRANCH   5   7
BRANCH   5   9
ATOM      9  N   UNL     1       0.121  -0.205  -4.159  1.00  0.00    -0.339 N 
ATOM     10  C   UNL     1       0.742   0.971  -4.436  1.00  0.00     0.240 C 
ATOM     11  H   UNL     1      -0.694  -0.446  -4.656  1.00  0.00     0.164 HD
ATOM     12  O   UNL     1       0.282   1.693  -5.321  1.00  0.00    -0.273 OA
BRANCH  10  13
ATOM     13  C   UNL     1       2.075   1.323  -3.703  1.00  0.00     0.216 C 
BRANCH  13  14
ATOM     14  N   UNL     1       2.900   0.598  -2.452  1.00  0.00    -0.343 N 
ATOM     15  C   UNL     1       3.627  -0.192  -1.582  1.00  0.00     0.251 C 
ATOM     16  H   UNL     1       2.741   1.323  -1.806  1.00  0.00     0.164 HD
ATOM     17  O   UNL     1       3.988   0.379  -0.541  1.00  0.00    -0.269 OA
BRANCH  15  18
ATOM     18  C   UNL     1       4.114  -1.573  -1.599  1.00  0.00     0.041 A 
ATOM     19  C   UNL     1       5.266  -2.001  -2.272  1.00  0.00     0.014 A 
ATOM     20  C   UNL     1       3.569  -2.425  -0.635  1.00  0.00     0.034 A 
ATOM     21  C   UNL     1       5.633  -3.353  -2.263  1.00  0.00     0.002 A 
ATOM     22  C   UNL     1       3.993  -3.748  -0.552  1.00  0.00     0.041 A 
ATOM     23  C   UNL     1       4.968  -4.237  -1.418  1.00  0.00     0.020 A 
ATOM     24  Cl  UNL     1       3.319  -4.779   0.646  1.00  0.00    -0.084 Cl
ENDBRANCH  15  18
ENDBRANCH  13  14
ENDBRANCH  10  13
ENDBRANCH   5   9
ENDBRANCH   3   5
ENDBRANCH   2   3
ENDBRANCH   1   2
BRANCH   1  25
ATOM     25  C   UNL     1       5.001   1.169  -4.200  1.00  0.00     0.275 C 
BRANCH  25  26
ATOM     26  O   UNL     1       4.817   1.813  -2.814  1.00  0.00    -0.458 OA
BRANCH  26  27
ATOM     27  C   UNL     1       4.460   3.150  -2.584  1.00  0.00     0.338 C 
ATOM     28  O   UNL     1       4.510   3.986  -3.476  1.00  0.00    -0.246 OA
BRANCH  27  29
ATOM     29  C   UNL     1       3.776   3.527  -1.197  1.00  0.00     0.060 A 
ATOM     30  C   UNL     1       2.630   2.898  -0.655  1.00  0.00     0.016 A 
ATOM     31  C   UNL     1       4.102   4.719  -0.540  1.00  0.00     0.016 A 
ATOM     32  C   UNL     1       1.856   3.366   0.411  1.00  0.00     0.010 A 
ATOM     33  C   UNL     1       3.338   5.201   0.577  1.00  0.00     0.010 A 
ATOM     34  C   UNL     1       2.189   4.535   1.054  1.00  0.00    -0.014 A 
BRANCH  34  35
ATOM     35  C   UNL     1       1.213   5.075   2.054  1.00  0.00     0.031 A 
ATOM     36  C   UNL     1       0.520   6.379   1.752  1.00  0.00     0.074 A 
ATOM     37  C   UNL     1       0.815   4.364   3.135  1.00  0.00     0.049 A 
ATOM     38  N   UNL     1      -0.200   7.142   2.531  1.00  0.00    -0.248 NA
ATOM     39  C   UNL     1       0.660   6.888   0.378  1.00  0.00     0.031 C 
ATOM     40  C   UNL     1       1.259   3.008   3.477  1.00  0.00     0.029 A 
ATOM     41  N   UNL     1      -0.062   4.677   4.152  1.00  0.00    -0.354 N 
ATOM     42  C   UNL     1      -0.534   8.256   1.767  1.00  0.00     0.074 A 
ATOM     43  C   UNL     1       0.056   8.064   0.461  1.00  0.00     0.031 C 
ATOM     44  C   UNL     1       0.669   2.617   4.618  1.00  0.00     0.029 A 
ATOM     45  C   UNL     1      -0.125   3.720   5.145  1.00  0.00     0.049 A 
ATOM     46  H   UNL     1      -0.594   5.505   4.169  1.00  0.00     0.167 HD
ATOM     47  C   UNL     1      -1.260   9.341   2.130  1.00  0.00     0.037 A 
ATOM     48  C   UNL     1      -0.694   3.752   6.369  1.00  0.00     0.037 A 
ATOM     49  C   UNL     1      -1.878   9.489   3.423  1.00  0.00     0.049 A 
ATOM     50  C   UNL     1      -1.424   5.001   6.790  1.00  0.00     0.074 A 
ATOM     51  C   UNL     1      -2.594  10.563   3.921  1.00  0.00     0.029 A 
ATOM     52  N   UNL     1      -1.873   8.519   4.416  1.00  0.00    -0.354 N 
ATOM     53  N   UNL     1      -1.622   6.108   6.112  1.00  0.00    -0.248 NA
ATOM     54  C   UNL     1      -1.997   5.015   8.143  1.00  0.00     0.031 C 
ATOM     55  C   UNL     1      -2.986  10.258   5.229  1.00  0.00     0.029 A 
ATOM     56  C   UNL     1      -2.566   8.971   5.526  1.00  0.00     0.049 A 
ATOM     57  H   UNL     1      -1.439   7.638   4.342  1.00  0.00     0.167 HD
ATOM     58  C   UNL     1      -2.353   6.943   6.949  1.00  0.00     0.074 A 
ATOM     59  C   UNL     1      -2.588   6.201   8.172  1.00  0.00     0.031 C 
ATOM     60  C   UNL     1      -2.786   8.211   6.732  1.00  0.00     0.037 A 
BRANCH  47  61
ATOM     61  C   UNL     1      -1.371  10.469   1.139  1.00  0.00     0.058 A 
ATOM     62  C   UNL     1      -2.134  10.366  -0.035  1.00  0.00     0.135 A 
ATOM     63  C   UNL     1      -0.707  11.685   1.378  1.00  0.00     0.135 A 
ATOM     64  F   UNL     1      -2.768   9.220  -0.331  1.00  0.00    -0.206 F 
ATOM     65  C   UNL     1      -2.215  11.416  -0.946  1.00  0.00     0.059 A 
ATOM     66  C   UNL     1      -0.799  12.758   0.497  1.00  0.00     0.059 A 
ATOM     67  F   UNL     1       0.044  11.838   2.480  1.00  0.00    -0.206 F 
ATOM     68  C   UNL     1      -1.545  12.610  -0.669  1.00  0.00     0.060 A 
BRANCH  68  69
ATOM     69  S   UNL     1      -1.676  13.964  -1.856  1.00  0.00     0.124 S 
ATOM     70  O   UNL     1      -0.873  13.463  -2.964  1.00  0.00    -0.237 OA
ATOM     71  O   UNL     1      -3.110  14.038  -2.090  1.00  0.00    -0.237 OA
ATOM     72  O   UNL     1      -1.102  15.104  -1.134  1.00  0.00    -0.744 OA
ENDBRANCH  68  69
ENDBRANCH  47  61
BRANCH  48  73
ATOM     73  C   UNL     1      -0.518   2.611   7.319  1.00  0.00     0.058 A 
ATOM     74  C   UNL     1      -1.605   1.841   7.758  1.00  0.00     0.135 A 
ATOM     75  C   UNL     1       0.752   2.279   7.824  1.00  0.00     0.135 A 
ATOM     76  F   UNL     1      -2.845   2.123   7.327  1.00  0.00    -0.206 F 
ATOM     77  C   UNL     1      -1.445   0.795   8.666  1.00  0.00     0.059 A 
ATOM     78  C   UNL     1       0.942   1.218   8.704  1.00  0.00     0.059 A 
ATOM     79  F   UNL     1       1.831   2.980   7.443  1.00  0.00    -0.206 F 
ATOM     80  C   UNL     1      -0.165   0.488   9.129  1.00  0.00     0.060 A 
BRANCH  80  81
ATOM     81  S   UNL     1       0.038  -0.900  10.269  1.00  0.00     0.124 S 
ATOM     82  O   UNL     1      -0.522  -0.357  11.499  1.00  0.00    -0.237 OA
ATOM     83  O   UNL     1      -0.739  -1.948   9.618  1.00  0.00    -0.237 OA
ATOM     84  O   UNL     1       1.485  -1.117  10.278  1.00  0.00    -0.744 OA
ENDBRANCH  80  81
ENDBRANCH  48  73
BRANCH  60  85
ATOM     85  C   UNL     1      -3.592   8.851   7.830  1.00  0.00     0.058 A 
ATOM     86  C   UNL     1      -3.009   9.243   9.045  1.00  0.00     0.135 A 
ATOM     87  C   UNL     1      -4.966   9.082   7.657  1.00  0.00     0.135 A 
ATOM     88  F   UNL     1      -1.700   9.042   9.263  1.00  0.00    -0.206 F 
ATOM     89  C   UNL     1      -3.770   9.795  10.070  1.00  0.00     0.059 A 
ATOM     90  C   UNL     1      -5.740   9.664   8.655  1.00  0.00     0.059 A 
ATOM     91  F   UNL     1      -5.571   8.741   6.507  1.00  0.00    -0.206 F 
ATOM     92  C   UNL     1      -5.137   9.996   9.867  1.00  0.00     0.060 A 
BRANCH  92  93
ATOM     93  S   UNL     1      -6.117  10.702  11.207  1.00  0.00     0.124 S 
ATOM     94  O   UNL     1      -6.205   9.575  12.130  1.00  0.00    -0.237 OA
ATOM     95  O   UNL     1      -5.286  11.819  11.648  1.00  0.00    -0.237 OA
ATOM     96  O   UNL     1      -7.366  11.079  10.554  1.00  0.00    -0.744 OA
ENDBRANCH  92  93
ENDBRANCH  60  85
ENDBRANCH  34  35
ENDBRANCH  27  29
ENDBRANCH  26  27
ENDBRANCH  25  26
ENDBRANCH   1  25
TORSDOF 19
