REMARK SMILES C[C@@H](NC(=O)[C@H]1CC=CC[C@@H]1C(=O)OCCOC(=O)c1ccc(-c2c3nc(c(-c4c(F)cc(S(=O)(=O)[O-])cc4F)c4ccc([nH]4)c(-c4c(F)cc(S(=O)(=O)[O-])cc4F)c4nc(c(-c5c(F)cc(S(=O)(=O)[O-])cc5F)c5ccc2[nH]5)C=C4)C=C3)cc1)c1ccc(-n2ccnc2)cc1
REMARK SMILES IDX 15 1 14 2 12 3 13 4 11 5 6 6 7 7 8 8 10 9 9 10 4 11 3 12
REMARK SMILES IDX 5 14 2 15 1 16 86 17 87 18 96 19 88 20 95 21 89 22 90 23
REMARK SMILES IDX 91 24 94 25 92 26 93 27 16 28 17 29 18 30 19 31 20 32 21 33
REMARK SMILES IDX 85 34 22 35 84 36 23 37 24 38 25 39 78 40 26 41 83 42 77 43
REMARK SMILES IDX 79 44 27 45 82 46 76 47 75 48 28 50 62 51 41 52 61 53 42 54
REMARK SMILES IDX 45 55 60 56 80 57 43 58 44 59 59 61 81 62 46 63 29 64 30 65
REMARK SMILES IDX 39 66 31 67 32 68 38 69 40 70 33 71 34 72 35 73 36 74 37 75
REMARK SMILES IDX 63 76 64 77 73 78 65 79 66 80 72 81 74 82 67 83 68 84 69 85
REMARK SMILES IDX 70 86 71 87 47 88 48 89 57 90 49 91 50 92 56 93 58 94 51 95
REMARK SMILES IDX 52 96 53 97 54 98 55 99
REMARK H PARENT 3 13 79 49 45 60
REMARK Flexibility Score: inf
ROOT
ATOM      1  C   UNL     1      -5.023  -4.349  -1.862  1.00  0.00     0.274 C 
ENDROOT
BRANCH   1   2
ATOM      2  O   UNL     1      -3.605  -4.361  -2.141  1.00  0.00    -0.462 OA
BRANCH   2   3
ATOM      3  C   UNL     1      -3.304  -4.393  -3.483  1.00  0.00     0.310 C 
ATOM      4  O   UNL     1      -4.151  -4.389  -4.367  1.00  0.00    -0.252 OA
BRANCH   3   5
ATOM      5  C   UNL     1      -1.791  -4.428  -3.716  1.00  0.00     0.115 C 
ATOM      6  C   UNL     1      -1.229  -3.002  -3.595  1.00  0.00     0.097 C 
ATOM      7  C   UNL     1      -1.405  -2.131  -4.841  1.00  0.00     0.041 C 
ATOM      8  C   UNL     1      -1.362  -2.868  -6.138  1.00  0.00    -0.030 C 
ATOM      9  C   UNL     1      -1.434  -5.114  -5.040  1.00  0.00     0.043 C 
ATOM     10  C   UNL     1      -1.363  -4.202  -6.228  1.00  0.00    -0.030 C 
BRANCH   6  11
ATOM     11  C   UNL     1       0.190  -2.956  -3.043  1.00  0.00     0.224 C 
ATOM     12  N   UNL     1       0.680  -1.865  -2.385  1.00  0.00    -0.349 N 
ATOM     13  H   UNL     1       1.488  -2.084  -1.867  1.00  0.00     0.164 HD
ATOM     14  O   UNL     1       0.929  -3.942  -3.115  1.00  0.00    -0.275 OA
BRANCH  12  15
ATOM     15  C   UNL     1       0.307  -0.433  -2.248  1.00  0.00     0.109 C 
ATOM     16  C   UNL     1       0.936   0.108  -0.955  1.00  0.00     0.036 C 
BRANCH  15  17
ATOM     17  C   UNL     1      -1.173  -0.127  -2.260  1.00  0.00    -0.026 A 
ATOM     18  C   UNL     1      -1.725   0.845  -3.108  1.00  0.00     0.008 A 
ATOM     19  C   UNL     1      -2.043  -0.857  -1.461  1.00  0.00     0.008 A 
ATOM     20  C   UNL     1      -3.119   1.008  -3.219  1.00  0.00     0.027 A 
ATOM     21  C   UNL     1      -3.423  -0.749  -1.625  1.00  0.00     0.027 A 
ATOM     22  C   UNL     1      -3.983   0.195  -2.479  1.00  0.00     0.046 A 
BRANCH  22  23
ATOM     23  N   UNL     1      -5.400   0.345  -2.519  1.00  0.00    -0.306 N 
ATOM     24  C   UNL     1      -6.335  -0.368  -1.794  1.00  0.00     0.113 A 
ATOM     25  C   UNL     1      -6.133   1.256  -3.247  1.00  0.00     0.204 A 
ATOM     26  C   UNL     1      -7.559   0.175  -2.094  1.00  0.00     0.131 A 
ATOM     27  N   UNL     1      -7.427   1.173  -3.010  1.00  0.00    -0.245 NA
ENDBRANCH  22  23
ENDBRANCH  15  17
ENDBRANCH  12  15
ENDBRANCH   6  11
ENDBRANCH   3   5
ENDBRANCH   2   3
ENDBRANCH   1   2
BRANCH   1  28
ATOM     28  C   UNL     1      -5.302  -4.444  -0.354  1.00  0.00     0.275 C 
BRANCH  28  29
ATOM     29  O   UNL     1      -5.101  -3.158   0.271  1.00  0.00    -0.458 OA
BRANCH  29  30
ATOM     30  C   UNL     1      -4.272  -3.113   1.348  1.00  0.00     0.338 C 
ATOM     31  O   UNL     1      -3.749  -4.057   1.902  1.00  0.00    -0.246 OA
BRANCH  30  32
ATOM     32  C   UNL     1      -3.914  -1.690   1.599  1.00  0.00     0.060 A 
ATOM     33  C   UNL     1      -2.556  -1.395   1.725  1.00  0.00     0.016 A 
ATOM     34  C   UNL     1      -4.850  -0.645   1.548  1.00  0.00     0.016 A 
ATOM     35  C   UNL     1      -2.132  -0.064   1.687  1.00  0.00     0.010 A 
ATOM     36  C   UNL     1      -4.420   0.696   1.559  1.00  0.00     0.010 A 
ATOM     37  C   UNL     1      -3.053   1.001   1.601  1.00  0.00    -0.014 A 
BRANCH  37  38
ATOM     38  C   UNL     1      -2.523   2.393   1.732  1.00  0.00     0.031 A 
ATOM     39  C   UNL     1      -1.808   2.728   3.010  1.00  0.00     0.074 A 
ATOM     40  C   UNL     1      -2.549   3.310   0.743  1.00  0.00     0.049 A 
ATOM     41  N   UNL     1      -1.016   3.728   3.282  1.00  0.00    -0.248 NA
ATOM     42  C   UNL     1      -1.982   1.769   4.114  1.00  0.00     0.031 C 
ATOM     43  C   UNL     1      -3.201   3.142  -0.547  1.00  0.00     0.029 A 
ATOM     44  N   UNL     1      -1.978   4.561   0.654  1.00  0.00    -0.354 N 
ATOM     45  C   UNL     1      -0.547   3.484   4.564  1.00  0.00     0.074 A 
ATOM     46  C   UNL     1      -1.128   2.236   5.008  1.00  0.00     0.031 C 
ATOM     47  C   UNL     1      -2.940   4.206  -1.328  1.00  0.00     0.029 A 
ATOM     48  C   UNL     1      -2.134   5.165  -0.577  1.00  0.00     0.049 A 
ATOM     49  H   UNL     1      -1.500   4.987   1.403  1.00  0.00     0.167 HD
ATOM     50  C   UNL     1       0.259   4.249   5.334  1.00  0.00     0.037 A 
ATOM     51  C   UNL     1      -1.684   6.353  -1.040  1.00  0.00     0.037 A 
ATOM     52  C   UNL     1       0.669   5.579   4.996  1.00  0.00     0.049 A 
ATOM     53  C   UNL     1      -0.905   7.251  -0.107  1.00  0.00     0.074 A 
ATOM     54  C   UNL     1       1.314   6.507   5.792  1.00  0.00     0.029 A 
ATOM     55  N   UNL     1       0.412   6.195   3.781  1.00  0.00    -0.354 N 
ATOM     56  N   UNL     1      -0.451   6.996   1.097  1.00  0.00    -0.248 NA
ATOM     57  C   UNL     1      -0.610   8.613  -0.582  1.00  0.00     0.031 C 
ATOM     58  C   UNL     1       1.396   7.707   5.076  1.00  0.00     0.029 A 
ATOM     59  C   UNL     1       0.853   7.505   3.816  1.00  0.00     0.049 A 
ATOM     60  H   UNL     1      -0.019   5.763   3.008  1.00  0.00     0.167 HD
ATOM     61  C   UNL     1       0.166   8.168   1.528  1.00  0.00     0.074 A 
ATOM     62  C   UNL     1       0.068   9.118   0.440  1.00  0.00     0.031 C 
ATOM     63  C   UNL     1       0.741   8.440   2.725  1.00  0.00     0.037 A 
BRANCH  50  64
ATOM     64  C   UNL     1       0.607   3.676   6.670  1.00  0.00     0.058 A 
ATOM     65  C   UNL     1       1.589   2.680   6.798  1.00  0.00     0.135 A 
ATOM     66  C   UNL     1      -0.137   4.029   7.805  1.00  0.00     0.135 A 
ATOM     67  F   UNL     1       2.293   2.282   5.727  1.00  0.00    -0.206 F 
ATOM     68  C   UNL     1       1.796   2.026   8.007  1.00  0.00     0.059 A 
ATOM     69  C   UNL     1       0.061   3.396   9.025  1.00  0.00     0.059 A 
ATOM     70  F   UNL     1      -1.107   4.952   7.715  1.00  0.00    -0.206 F 
ATOM     71  C   UNL     1       1.013   2.380   9.109  1.00  0.00     0.060 A 
BRANCH  71  72
ATOM     72  S   UNL     1       1.225   1.463  10.648  1.00  0.00     0.124 S 
ATOM     73  O   UNL     1       0.568   0.201  10.324  1.00  0.00    -0.237 OA
ATOM     74  O   UNL     1       2.677   1.407  10.781  1.00  0.00    -0.237 OA
ATOM     75  O   UNL     1       0.539   2.293  11.633  1.00  0.00    -0.744 OA
ENDBRANCH  71  72
ENDBRANCH  50  64
BRANCH  51  76
ATOM     76  C   UNL     1      -1.973   6.811  -2.433  1.00  0.00     0.058 A 
ATOM     77  C   UNL     1      -0.936   7.014  -3.359  1.00  0.00     0.135 A 
ATOM     78  C   UNL     1      -3.277   7.126  -2.847  1.00  0.00     0.135 A 
ATOM     79  F   UNL     1       0.333   6.748  -3.012  1.00  0.00    -0.206 F 
ATOM     80  C   UNL     1      -1.176   7.530  -4.631  1.00  0.00     0.059 A 
ATOM     81  C   UNL     1      -3.546   7.619  -4.122  1.00  0.00     0.059 A 
ATOM     82  F   UNL     1      -4.309   6.957  -2.006  1.00  0.00    -0.206 F 
ATOM     83  C   UNL     1      -2.486   7.834  -5.003  1.00  0.00     0.060 A 
BRANCH  83  84
ATOM     84  S   UNL     1      -2.802   8.475  -6.663  1.00  0.00     0.124 S 
ATOM     85  O   UNL     1      -2.453   9.882  -6.506  1.00  0.00    -0.237 OA
ATOM     86  O   UNL     1      -1.893   7.679  -7.482  1.00  0.00    -0.237 OA
ATOM     87  O   UNL     1      -4.220   8.191  -6.862  1.00  0.00    -0.744 OA
ENDBRANCH  83  84
ENDBRANCH  51  76
BRANCH  63  88
ATOM     88  C   UNL     1       1.294   9.819   2.942  1.00  0.00     0.058 A 
ATOM     89  C   UNL     1       0.448  10.915   3.176  1.00  0.00     0.135 A 
ATOM     90  C   UNL     1       2.679  10.028   3.022  1.00  0.00     0.135 A 
ATOM     91  F   UNL     1      -0.884  10.767   3.109  1.00  0.00    -0.206 F 
ATOM     92  C   UNL     1       0.958  12.174   3.477  1.00  0.00     0.059 A 
ATOM     93  C   UNL     1       3.211  11.273   3.343  1.00  0.00     0.059 A 
ATOM     94  F   UNL     1       3.529   9.009   2.818  1.00  0.00    -0.206 F 
ATOM     95  C   UNL     1       2.342  12.341   3.565  1.00  0.00     0.060 A 
BRANCH  95  96
ATOM     96  S   UNL     1       2.993  13.960   4.029  1.00  0.00     0.124 S 
ATOM     97  O   UNL     1       2.861  14.700   2.779  1.00  0.00    -0.237 OA
ATOM     98  O   UNL     1       2.094  14.366   5.105  1.00  0.00    -0.237 OA
ATOM     99  O   UNL     1       4.362  13.667   4.444  1.00  0.00    -0.744 OA
ENDBRANCH  95  96
ENDBRANCH  63  88
ENDBRANCH  37  38
ENDBRANCH  30  32
ENDBRANCH  29  30
ENDBRANCH  28  29
ENDBRANCH   1  28
TORSDOF 18
