REMARK SMILES C[C@@H]1[C@@H](C(=O)OCCOC(=O)c2ccc(-c3c4nc(c(-c5c(F)cc(S(=O)(=O)[O-])cc5F)c5ccc([nH]5)c(-c5c(F)cc(S(=O)(=O)[O-])cc5F)c5nc(c(-c6c(F)cc(S(=O)(=O)[O-])cc6F)c6ccc3[nH]6)C=C5)C=C4)cc2)CCN1C(=O)[C@]1([NH3+])CCOC1
REMARK SMILES IDX 7 1 6 2 4 3 5 4 3 5 1 6 2 7 80 8 78 9 79 10 81 11 82 12
REMARK SMILES IDX 83 13 85 14 88 15 86 16 87 17 84 18 8 22 9 23 10 24 11 25
REMARK SMILES IDX 12 26 13 27 77 28 14 29 76 30 15 31 16 32 17 33 70 34 18 35
REMARK SMILES IDX 75 36 69 37 71 38 19 39 74 40 68 41 67 42 20 44 54 45 33 46
REMARK SMILES IDX 53 47 34 48 37 49 52 50 72 51 35 52 36 53 51 55 73 56 38 57
REMARK SMILES IDX 21 58 22 59 31 60 23 61 24 62 30 63 32 64 25 65 26 66 27 67
REMARK SMILES IDX 28 68 29 69 55 70 56 71 65 72 57 73 58 74 64 75 66 76 59 77
REMARK SMILES IDX 60 78 61 79 62 80 63 81 39 82 40 83 49 84 41 85 42 86 48 87
REMARK SMILES IDX 50 88 43 89 44 90 45 91 46 92 47 93
REMARK H PARENT 84 19 84 20 84 21 71 43 37 54
REMARK Flexibility Score: inf
ROOT
ATOM      1  C   UNL     1       5.700  -7.907   1.153  1.00  0.00     0.274 C 
ENDROOT
BRANCH   1   2
ATOM      2  O   UNL     1       5.286  -7.728  -0.216  1.00  0.00    -0.462 OA
BRANCH   2   3
ATOM      3  C   UNL     1       4.515  -6.630  -0.463  1.00  0.00     0.311 C 
ATOM      4  O   UNL     1       4.153  -5.836   0.391  1.00  0.00    -0.252 OA
BRANCH   3   5
ATOM      5  C   UNL     1       4.209  -6.521  -1.947  1.00  0.00     0.123 C 
ATOM      6  C   UNL     1       3.664  -4.821  -3.730  1.00  0.00     0.032 C 
ATOM      7  C   UNL     1       3.438  -5.228  -2.269  1.00  0.00     0.096 C 
ATOM      8  N   UNL     1       2.038  -5.583  -2.034  1.00  0.00    -0.334 N 
ATOM      9  C   UNL     1       3.243  -7.611  -2.402  1.00  0.00     0.039 C 
ATOM     10  C   UNL     1       1.868  -7.029  -2.095  1.00  0.00     0.121 C 
BRANCH   8  11
ATOM     11  C   UNL     1       0.951  -4.820  -1.656  1.00  0.00     0.286 C 
ATOM     12  O   UNL     1      -0.169  -5.365  -1.673  1.00  0.00    -0.267 OA
BRANCH  11  13
ATOM     13  C   UNL     1       1.024  -3.295  -1.250  1.00  0.00     0.199 C 
ATOM     14  C   UNL     1       1.236  -2.381  -2.447  1.00  0.00     0.110 C 
ATOM     15  C   UNL     1       2.147  -2.926  -0.290  1.00  0.00     0.239 C 
ATOM     16  C   UNL     1       2.607  -1.764  -2.253  1.00  0.00     0.167 C 
ATOM     17  O   UNL     1       3.175  -2.283  -1.054  1.00  0.00    -0.374 OA
BRANCH  13  18
ATOM     18  N   UNL     1      -0.272  -2.981  -0.580  1.00  0.00    -0.343 N 
ATOM     19  H   UNL     1      -0.279  -2.001  -0.295  1.00  0.00     0.345 HD
ATOM     20  H   UNL     1      -0.383  -3.574   0.242  1.00  0.00     0.345 HD
ATOM     21  H   UNL     1      -1.041  -3.152  -1.228  1.00  0.00     0.345 HD
ENDBRANCH  13  18
ENDBRANCH  11  13
ENDBRANCH   8  11
ENDBRANCH   3   5
ENDBRANCH   2   3
ENDBRANCH   1   2
BRANCH   1  22
ATOM     22  C   UNL     1       7.126  -7.401   1.395  1.00  0.00     0.275 C 
BRANCH  22  23
ATOM     23  O   UNL     1       7.214  -5.965   1.327  1.00  0.00    -0.458 OA
BRANCH  23  24
ATOM     24  C   UNL     1       7.493  -5.463   0.101  1.00  0.00     0.338 C 
ATOM     25  O   UNL     1       7.725  -6.110  -0.914  1.00  0.00    -0.246 OA
BRANCH  24  26
ATOM     26  C   UNL     1       7.303  -4.001   0.087  1.00  0.00     0.060 A 
ATOM     27  C   UNL     1       6.555  -3.473  -0.967  1.00  0.00     0.016 A 
ATOM     28  C   UNL     1       7.853  -3.151   1.052  1.00  0.00     0.016 A 
ATOM     29  C   UNL     1       6.319  -2.105  -1.044  1.00  0.00     0.010 A 
ATOM     30  C   UNL     1       7.634  -1.768   0.960  1.00  0.00     0.010 A 
ATOM     31  C   UNL     1       6.856  -1.240  -0.084  1.00  0.00    -0.014 A 
BRANCH  31  32
ATOM     32  C   UNL     1       6.641   0.217  -0.247  1.00  0.00     0.031 A 
ATOM     33  C   UNL     1       7.633   1.022  -1.034  1.00  0.00     0.074 A 
ATOM     34  C   UNL     1       5.514   0.794   0.212  1.00  0.00     0.049 A 
ATOM     35  N   UNL     1       7.631   2.300  -1.306  1.00  0.00    -0.248 NA
ATOM     36  C   UNL     1       8.769   0.282  -1.606  1.00  0.00     0.031 C 
ATOM     37  C   UNL     1       4.432   0.093   0.902  1.00  0.00     0.029 A 
ATOM     38  N   UNL     1       5.081   2.095   0.145  1.00  0.00    -0.354 N 
ATOM     39  C   UNL     1       8.766   2.523  -2.076  1.00  0.00     0.074 A 
ATOM     40  C   UNL     1       9.434   1.248  -2.225  1.00  0.00     0.031 C 
ATOM     41  C   UNL     1       3.450   0.969   1.180  1.00  0.00     0.029 A 
ATOM     42  C   UNL     1       3.852   2.299   0.729  1.00  0.00     0.049 A 
ATOM     43  H   UNL     1       5.601   2.814  -0.281  1.00  0.00     0.167 HD
ATOM     44  C   UNL     1       9.212   3.689  -2.601  1.00  0.00     0.037 A 
ATOM     45  C   UNL     1       3.144   3.435   0.894  1.00  0.00     0.037 A 
ATOM     46  C   UNL     1       8.557   4.958  -2.428  1.00  0.00     0.049 A 
ATOM     47  C   UNL     1       3.716   4.735   0.388  1.00  0.00     0.074 A 
ATOM     48  C   UNL     1       8.966   6.206  -2.865  1.00  0.00     0.029 A 
ATOM     49  N   UNL     1       7.355   5.144  -1.760  1.00  0.00    -0.354 N 
ATOM     50  N   UNL     1       4.815   4.943  -0.299  1.00  0.00    -0.248 NA
ATOM     51  C   UNL     1       2.961   5.960   0.693  1.00  0.00     0.031 C 
ATOM     52  C   UNL     1       8.031   7.151  -2.427  1.00  0.00     0.029 A 
ATOM     53  C   UNL     1       7.016   6.487  -1.759  1.00  0.00     0.049 A 
ATOM     54  H   UNL     1       6.821   4.426  -1.349  1.00  0.00     0.167 HD
ATOM     55  C   UNL     1       4.874   6.316  -0.518  1.00  0.00     0.074 A 
ATOM     56  C   UNL     1       3.691   6.887   0.089  1.00  0.00     0.031 C 
ATOM     57  C   UNL     1       5.827   7.039  -1.158  1.00  0.00     0.037 A 
BRANCH  44  58
ATOM     58  C   UNL     1      10.504   3.647  -3.364  1.00  0.00     0.058 A 
ATOM     59  C   UNL     1      10.582   3.110  -4.658  1.00  0.00     0.135 A 
ATOM     60  C   UNL     1      11.680   4.158  -2.792  1.00  0.00     0.135 A 
ATOM     61  F   UNL     1       9.491   2.587  -5.240  1.00  0.00    -0.206 F 
ATOM     62  C   UNL     1      11.788   3.060  -5.351  1.00  0.00     0.059 A 
ATOM     63  C   UNL     1      12.892   4.139  -3.475  1.00  0.00     0.059 A 
ATOM     64  F   UNL     1      11.660   4.677  -1.554  1.00  0.00    -0.206 F 
ATOM     65  C   UNL     1      12.938   3.574  -4.748  1.00  0.00     0.060 A 
BRANCH  65  66
ATOM     66  S   UNL     1      14.499   3.490  -5.652  1.00  0.00     0.124 S 
ATOM     67  O   UNL     1      14.815   2.069  -5.554  1.00  0.00    -0.237 OA
ATOM     68  O   UNL     1      14.118   3.964  -6.979  1.00  0.00    -0.237 OA
ATOM     69  O   UNL     1      15.376   4.381  -4.900  1.00  0.00    -0.744 OA
ENDBRANCH  65  66
ENDBRANCH  44  58
BRANCH  45  70
ATOM     70  C   UNL     1       1.834   3.415   1.602  1.00  0.00     0.058 A 
ATOM     71  C   UNL     1       0.641   3.727   0.932  1.00  0.00     0.135 A 
ATOM     72  C   UNL     1       1.753   3.126   2.974  1.00  0.00     0.135 A 
ATOM     73  F   UNL     1       0.665   4.023  -0.377  1.00  0.00    -0.206 F 
ATOM     74  C   UNL     1      -0.579   3.780   1.599  1.00  0.00     0.059 A 
ATOM     75  C   UNL     1       0.541   3.144   3.657  1.00  0.00     0.059 A 
ATOM     76  F   UNL     1       2.862   2.818   3.664  1.00  0.00    -0.206 F 
ATOM     77  C   UNL     1      -0.618   3.490   2.964  1.00  0.00     0.060 A 
BRANCH  77  78
ATOM     78  S   UNL     1      -2.206   3.550   3.823  1.00  0.00     0.124 S 
ATOM     79  O   UNL     1      -2.410   4.987   3.960  1.00  0.00    -0.237 OA
ATOM     80  O   UNL     1      -3.091   2.866   2.885  1.00  0.00    -0.237 OA
ATOM     81  O   UNL     1      -1.942   2.827   5.064  1.00  0.00    -0.744 OA
ENDBRANCH  77  78
ENDBRANCH  45  70
BRANCH  57  82
ATOM     82  C   UNL     1       5.620   8.525  -1.260  1.00  0.00     0.058 A 
ATOM     83  C   UNL     1       5.796   9.370  -0.154  1.00  0.00     0.135 A 
ATOM     84  C   UNL     1       5.305   9.116  -2.495  1.00  0.00     0.135 A 
ATOM     85  F   UNL     1       6.092   8.855   1.050  1.00  0.00    -0.206 F 
ATOM     86  C   UNL     1       5.651  10.750  -0.264  1.00  0.00     0.059 A 
ATOM     87  C   UNL     1       5.180  10.495  -2.633  1.00  0.00     0.059 A 
ATOM     88  F   UNL     1       5.136   8.353  -3.586  1.00  0.00    -0.206 F 
ATOM     89  C   UNL     1       5.346  11.304  -1.509  1.00  0.00     0.060 A 
BRANCH  89  90
ATOM     90  S   UNL     1       5.207  13.099  -1.649  1.00  0.00     0.124 S 
ATOM     91  O   UNL     1       3.910  13.343  -1.029  1.00  0.00    -0.237 OA
ATOM     92  O   UNL     1       6.368  13.563  -0.896  1.00  0.00    -0.237 OA
ATOM     93  O   UNL     1       5.269  13.332  -3.089  1.00  0.00    -0.744 OA
ENDBRANCH  89  90
ENDBRANCH  57  82
ENDBRANCH  31  32
ENDBRANCH  24  26
ENDBRANCH  23  24
ENDBRANCH  22  23
ENDBRANCH   1  22
TORSDOF 17
