REMARK SMILES COc1ccc(CCN2/C(=[NH+]/C(=O)CCC(=O)OCCOC(=O)c3ccc(-c4c5nc(c(-c6c(F)cc(S(=O)(=O)[O-])cc6F)c6ccc([nH]6)c(-c6c(F)cc(S(=O)(=O)[O-])cc6F)c6nc(c(-c7c(F)cc(S(=O)(=O)[O-])cc7F)c7ccc4[nH]7)C=C6)C=C5)cc3)S[C@@H]3CS(=O)(=O)C[C@@H]32)cc1
REMARK SMILES IDX 18 1 16 2 17 3 15 4 14 5 12 6 9 7 10 8 97 9 11 10 90 11
REMARK SMILES IDX 91 12 96 13 92 15 93 16 13 17 94 18 95 19 8 20 7 21 6 22
REMARK SMILES IDX 3 23 4 24 99 25 5 26 98 27 2 28 1 29 19 30 20 31 21 32 22 33
REMARK SMILES IDX 23 34 24 35 25 36 89 37 26 38 88 39 27 40 28 41 29 42 82 43
REMARK SMILES IDX 30 44 87 45 81 46 83 47 31 48 86 49 80 50 79 51 32 53 66 54
REMARK SMILES IDX 45 55 65 56 46 57 49 58 64 59 84 60 47 61 48 62 63 64 85 65
REMARK SMILES IDX 50 66 33 67 34 68 43 69 35 70 36 71 42 72 44 73 37 74 38 75
REMARK SMILES IDX 39 76 40 77 41 78 67 79 68 80 77 81 69 82 70 83 76 84 78 85
REMARK SMILES IDX 71 86 72 87 73 88 74 89 75 90 51 91 52 92 61 93 53 94 54 95
REMARK SMILES IDX 60 96 62 97 55 98 56 99 57 100 58 101 59 102
REMARK H PARENT 11 14 83 52 49 63
REMARK Flexibility Score: inf
ROOT
ATOM      1  O   UNL     1       1.623   3.094  10.473  1.00  0.00    -0.462 OA
ENDROOT
BRANCH   1   2
ATOM      2  C   UNL     1       1.478   4.093  11.379  1.00  0.00     0.306 C 
ATOM      3  O   UNL     1       2.255   4.329  12.293  1.00  0.00    -0.252 OA
BRANCH   2   4
ATOM      4  C   UNL     1       0.207   4.873  11.150  1.00  0.00     0.135 C 
BRANCH   4   5
ATOM      5  C   UNL     1       0.165   5.541   9.784  1.00  0.00     0.139 C 
BRANCH   5   6
ATOM      6  C   UNL     1      -0.743   4.796   8.825  1.00  0.00     0.308 C 
ATOM      7  N   UNL     1      -0.230   1.529   7.312  1.00  0.00    -0.251 N 
ATOM      8  C   UNL     1      -0.818   2.716   7.736  1.00  0.00     0.314 C 
ATOM      9  C   UNL     1      -1.149   0.415   7.025  1.00  0.00     0.206 C 
ATOM     10  N   UNL     1      -0.160   3.673   8.296  1.00  0.00    -0.205 N 
ATOM     11  S   UNL     1      -2.554   2.633   7.464  1.00  0.00    -0.030 SA
ATOM     12  C   UNL     1      -2.536   0.835   7.558  1.00  0.00     0.120 C 
ATOM     13  C   UNL     1      -0.773  -0.914   7.678  1.00  0.00     0.187 C 
ATOM     14  H   UNL     1       0.820   3.593   8.347  1.00  0.00     0.316 HD
ATOM     15  C   UNL     1      -2.638   0.404   9.010  1.00  0.00     0.156 C 
ATOM     16  S   UNL     1      -1.944  -1.218   8.976  1.00  0.00     0.155 S 
ATOM     17  O   UNL     1      -1.878   5.213   8.618  1.00  0.00    -0.247 OA
ATOM     18  O   UNL     1      -1.231  -1.465  10.211  1.00  0.00    -0.229 OA
ATOM     19  O   UNL     1      -2.952  -2.128   8.471  1.00  0.00    -0.229 OA
BRANCH   7  20
ATOM     20  C   UNL     1       1.227   1.463   7.129  1.00  0.00     0.242 C 
BRANCH  20  21
ATOM     21  C   UNL     1       1.794   0.460   6.114  1.00  0.00     0.081 C 
BRANCH  21  22
ATOM     22  C   UNL     1       1.529   0.627   4.637  1.00  0.00    -0.044 A 
ATOM     23  C   UNL     1       0.996   0.644   1.862  1.00  0.00     0.118 A 
ATOM     24  C   UNL     1       0.263   1.448   2.737  1.00  0.00     0.046 A 
ATOM     25  C   UNL     1       2.035  -0.131   2.368  1.00  0.00     0.046 A 
ATOM     26  C   UNL     1       0.533   1.452   4.109  1.00  0.00     0.007 A 
ATOM     27  C   UNL     1       2.291  -0.145   3.743  1.00  0.00     0.007 A 
BRANCH  23  28
ATOM     28  O   UNL     1       0.604   0.709   0.554  1.00  0.00    -0.497 OA
ATOM     29  C   UNL     1       1.194  -0.230  -0.335  1.00  0.00     0.278 C 
ENDBRANCH  23  28
ENDBRANCH  21  22
ENDBRANCH  20  21
ENDBRANCH   7  20
ENDBRANCH   5   6
ENDBRANCH   4   5
ENDBRANCH   2   4
ENDBRANCH   1   2
BRANCH   1  30
ATOM     30  C   UNL     1       2.840   2.327  10.543  1.00  0.00     0.274 C 
BRANCH  30  31
ATOM     31  C   UNL     1       3.856   2.847   9.527  1.00  0.00     0.275 C 
BRANCH  31  32
ATOM     32  O   UNL     1       4.499   4.023  10.039  1.00  0.00    -0.458 OA
BRANCH  32  33
ATOM     33  C   UNL     1       4.128   5.193   9.479  1.00  0.00     0.338 C 
ATOM     34  O   UNL     1       3.392   5.360   8.517  1.00  0.00    -0.246 OA
BRANCH  33  35
ATOM     35  C   UNL     1       4.683   6.284  10.282  1.00  0.00     0.060 A 
ATOM     36  C   UNL     1       3.830   7.016  11.112  1.00  0.00     0.016 A 
ATOM     37  C   UNL     1       6.037   6.605  10.178  1.00  0.00     0.016 A 
ATOM     38  C   UNL     1       4.331   8.093  11.839  1.00  0.00     0.010 A 
ATOM     39  C   UNL     1       6.538   7.680  10.911  1.00  0.00     0.010 A 
ATOM     40  C   UNL     1       5.683   8.441  11.728  1.00  0.00    -0.014 A 
BRANCH  40  41
ATOM     41  C   UNL     1       6.190   9.666  12.386  1.00  0.00     0.031 A 
ATOM     42  C   UNL     1       6.449  10.887  11.551  1.00  0.00     0.074 A 
ATOM     43  C   UNL     1       6.414   9.679  13.712  1.00  0.00     0.049 A 
ATOM     44  N   UNL     1       6.970  12.034  11.898  1.00  0.00    -0.248 NA
ATOM     45  C   UNL     1       6.077  10.799  10.129  1.00  0.00     0.031 C 
ATOM     46  C   UNL     1       6.171   8.558  14.621  1.00  0.00     0.029 A 
ATOM     47  N   UNL     1       6.906  10.669  14.523  1.00  0.00    -0.354 N 
ATOM     48  C   UNL     1       7.004  12.800  10.739  1.00  0.00     0.074 A 
ATOM     49  C   UNL     1       6.476  11.978   9.672  1.00  0.00     0.031 C 
ATOM     50  C   UNL     1       6.523   8.922  15.866  1.00  0.00     0.029 A 
ATOM     51  C   UNL     1       7.045  10.286  15.836  1.00  0.00     0.049 A 
ATOM     52  H   UNL     1       7.138  11.568  14.197  1.00  0.00     0.167 HD
ATOM     53  C   UNL     1       7.430  14.075  10.583  1.00  0.00     0.037 A 
ATOM     54  C   UNL     1       7.555  10.956  16.887  1.00  0.00     0.037 A 
ATOM     55  C   UNL     1       7.948  14.884  11.656  1.00  0.00     0.049 A 
ATOM     56  C   UNL     1       8.045  12.366  16.685  1.00  0.00     0.074 A 
ATOM     57  C   UNL     1       8.417  16.185  11.608  1.00  0.00     0.029 A 
ATOM     58  N   UNL     1       8.061  14.467  12.975  1.00  0.00    -0.354 N 
ATOM     59  N   UNL     1       8.080  13.076  15.582  1.00  0.00    -0.248 NA
ATOM     60  C   UNL     1       8.558  13.067  17.869  1.00  0.00     0.031 C 
ATOM     61  C   UNL     1       8.840  16.544  12.893  1.00  0.00     0.029 A 
ATOM     62  C   UNL     1       8.594  15.483  13.750  1.00  0.00     0.049 A 
ATOM     63  H   UNL     1       7.801  13.578  13.310  1.00  0.00     0.167 HD
ATOM     64  C   UNL     1       8.588  14.319  15.945  1.00  0.00     0.074 A 
ATOM     65  C   UNL     1       8.841  14.264  17.371  1.00  0.00     0.031 C 
ATOM     66  C   UNL     1       8.822  15.409  15.171  1.00  0.00     0.037 A 
BRANCH  53  67
ATOM     67  C   UNL     1       7.372  14.660   9.200  1.00  0.00     0.058 A 
ATOM     68  C   UNL     1       6.153  15.006   8.595  1.00  0.00     0.135 A 
ATOM     69  C   UNL     1       8.551  14.886   8.471  1.00  0.00     0.135 A 
ATOM     70  F   UNL     1       4.994  14.791   9.239  1.00  0.00    -0.206 F 
ATOM     71  C   UNL     1       6.102  15.528   7.306  1.00  0.00     0.059 A 
ATOM     72  C   UNL     1       8.525  15.431   7.190  1.00  0.00     0.059 A 
ATOM     73  F   UNL     1       9.743  14.569   8.999  1.00  0.00    -0.206 F 
ATOM     74  C   UNL     1       7.294  15.734   6.610  1.00  0.00     0.060 A 
BRANCH  74  75
ATOM     75  S   UNL     1       7.214  16.407   4.937  1.00  0.00     0.124 S 
ATOM     76  O   UNL     1       6.747  15.249   4.180  1.00  0.00    -0.237 OA
ATOM     77  O   UNL     1       6.256  17.498   5.082  1.00  0.00    -0.237 OA
ATOM     78  O   UNL     1       8.589  16.817   4.670  1.00  0.00    -0.744 OA
ENDBRANCH  74  75
ENDBRANCH  53  67
BRANCH  54  79
ATOM     79  C   UNL     1       7.624  10.304  18.221  1.00  0.00     0.058 A 
ATOM     80  C   UNL     1       6.790  10.713  19.272  1.00  0.00     0.135 A 
ATOM     81  C   UNL     1       8.518   9.251  18.469  1.00  0.00     0.135 A 
ATOM     82  F   UNL     1       5.924  11.722  19.087  1.00  0.00    -0.206 F 
ATOM     83  C   UNL     1       6.849  10.113  20.526  1.00  0.00     0.059 A 
ATOM     84  C   UNL     1       8.578   8.618  19.707  1.00  0.00     0.059 A 
ATOM     85  F   UNL     1       9.328   8.813  17.493  1.00  0.00    -0.206 F 
ATOM     86  C   UNL     1       7.746   9.064  20.733  1.00  0.00     0.060 A 
BRANCH  86  87
ATOM     87  S   UNL     1       7.783   8.259  22.349  1.00  0.00     0.124 S 
ATOM     88  O   UNL     1       8.485   9.251  23.155  1.00  0.00    -0.237 OA
ATOM     89  O   UNL     1       6.364   8.087  22.641  1.00  0.00    -0.237 OA
ATOM     90  O   UNL     1       8.516   7.023  22.090  1.00  0.00    -0.744 OA
ENDBRANCH  86  87
ENDBRANCH  54  79
BRANCH  66  91
ATOM     91  C   UNL     1       9.327  16.645  15.861  1.00  0.00     0.058 A 
ATOM     92  C   UNL     1      10.649  16.750  16.320  1.00  0.00     0.135 A 
ATOM     93  C   UNL     1       8.482  17.754  16.028  1.00  0.00     0.135 A 
ATOM     94  F   UNL     1      11.494  15.716  16.186  1.00  0.00    -0.206 F 
ATOM     95  C   UNL     1      11.108  17.902  16.949  1.00  0.00     0.059 A 
ATOM     96  C   UNL     1       8.928  18.925  16.632  1.00  0.00     0.059 A 
ATOM     97  F   UNL     1       7.212  17.709  15.595  1.00  0.00    -0.206 F 
ATOM     98  C   UNL     1      10.239  18.984  17.103  1.00  0.00     0.060 A 
BRANCH  98  99
ATOM     99  S   UNL     1      10.849  20.482  17.904  1.00  0.00     0.124 S 
ATOM    100  O   UNL     1      10.839  20.087  19.309  1.00  0.00    -0.237 OA
ATOM    101  O   UNL     1      12.168  20.647  17.302  1.00  0.00    -0.237 OA
ATOM    102  O   UNL     1       9.865  21.493  17.528  1.00  0.00    -0.744 OA
ENDBRANCH  98  99
ENDBRANCH  66  91
ENDBRANCH  40  41
ENDBRANCH  33  35
ENDBRANCH  32  33
ENDBRANCH  31  32
ENDBRANCH  30  31
ENDBRANCH   1  30
TORSDOF 20
