REMARK SMILES Cc1ccc(NC(=O)C[NH+]2CCN(c3ccc(C(=O)OCCOC(=O)c4ccc(-c5c6nc(c(-c7c(F)cc(S(=O)(=O)[O-])cc7F)c7ccc([nH]7)c(-c7c(F)cc(S(=O)(=O)[O-])cc7F)c7nc(c(-c8c(F)cc(S(=O)(=O)[O-])cc8F)c8ccc5[nH]8)C=C7)C=C6)cc4)cc3NS(C)(=O)=O)CC2)cc1
REMARK SMILES IDX 21 1 20 2 18 3 19 4 17 5 14 6 15 7 93 8 16 9 92 10 13 11
REMARK SMILES IDX 10 12 11 13 100 14 12 16 99 17 9 18 7 19 6 20 8 22 5 23 1 24
REMARK SMILES IDX 2 25 3 26 102 27 4 28 101 29 94 30 95 32 96 33 97 34 98 35
REMARK SMILES IDX 22 36 23 37 24 38 25 39 26 40 27 41 91 42 28 43 90 44 29 45
REMARK SMILES IDX 30 46 31 47 84 48 32 49 89 50 83 51 85 52 33 53 88 54 82 55
REMARK SMILES IDX 81 56 34 58 68 59 47 60 67 61 48 62 51 63 66 64 86 65 49 66
REMARK SMILES IDX 50 67 65 69 87 70 52 71 35 72 36 73 45 74 37 75 38 76 44 77
REMARK SMILES IDX 46 78 39 79 40 80 41 81 42 82 43 83 69 84 70 85 79 86 71 87
REMARK SMILES IDX 72 88 78 89 80 90 73 91 74 92 75 93 76 94 77 95 53 96 54 97
REMARK SMILES IDX 63 98 55 99 56 100 62 101 64 102 57 103 58 104 59 105 60 106
REMARK SMILES IDX 61 107
REMARK H PARENT 10 15 6 21 94 31 85 57 51 68
REMARK Flexibility Score: inf
ROOT
ATOM      1  C   UNL     1       7.374  -2.791  -2.592  1.00  0.00     0.275 C 
ENDROOT
BRANCH   1   2
ATOM      2  O   UNL     1       6.106  -3.158  -2.009  1.00  0.00    -0.458 OA
BRANCH   2   3
ATOM      3  C   UNL     1       5.098  -2.260  -2.041  1.00  0.00     0.338 C 
ATOM      4  O   UNL     1       5.080  -1.218  -2.671  1.00  0.00    -0.246 OA
BRANCH   3   5
ATOM      5  C   UNL     1       3.953  -2.801  -1.262  1.00  0.00     0.062 A 
ATOM      6  C   UNL     1       1.468  -3.511  -0.279  1.00  0.00     0.062 A 
ATOM      7  C   UNL     1       2.039  -4.255  -1.322  1.00  0.00     0.029 A 
ATOM      8  C   UNL     1       2.271  -2.599   0.480  1.00  0.00     0.073 A 
ATOM      9  C   UNL     1       3.293  -3.907  -1.807  1.00  0.00     0.018 A 
ATOM     10  C   UNL     1       3.458  -2.161  -0.102  1.00  0.00     0.044 A 
BRANCH   6  11
ATOM     11  N   UNL     1       0.076  -3.352  -0.304  1.00  0.00    -0.359 N 
ATOM     12  N   UNL     1      -2.693  -2.845  -1.184  1.00  0.00    -0.324 N 
ATOM     13  C   UNL     1      -1.563  -2.094  -1.760  1.00  0.00     0.284 C 
ATOM     14  C   UNL     1      -2.187  -4.229  -0.948  1.00  0.00     0.284 C 
ATOM     15  H   UNL     1      -3.488  -2.847  -1.823  1.00  0.00     0.348 HD
ATOM     16  C   UNL     1      -0.321  -2.059  -0.868  1.00  0.00     0.178 C 
ATOM     17  C   UNL     1      -0.911  -4.399  -0.070  1.00  0.00     0.178 C 
BRANCH  12  18
ATOM     18  C   UNL     1      -3.221  -2.219   0.062  1.00  0.00     0.364 C 
BRANCH  18  19
ATOM     19  C   UNL     1      -4.061  -0.943  -0.212  1.00  0.00     0.279 C 
ATOM     20  N   UNL     1      -3.582   0.344  -0.164  1.00  0.00    -0.321 N 
ATOM     21  H   UNL     1      -4.254   1.025  -0.393  1.00  0.00     0.170 HD
ATOM     22  O   UNL     1      -5.247  -1.053  -0.562  1.00  0.00    -0.268 OA
BRANCH  20  23
ATOM     23  C   UNL     1      -2.326   0.877   0.148  1.00  0.00     0.041 A 
ATOM     24  C   UNL     1       1.874   1.455  -0.230  1.00  0.00     0.044 C 
ATOM     25  C   UNL     1       0.405   1.494   0.091  1.00  0.00    -0.051 A 
ATOM     26  C   UNL     1      -0.139   0.653   1.057  1.00  0.00     0.005 A 
ATOM     27  C   UNL     1      -0.482   2.235  -0.676  1.00  0.00     0.005 A 
ATOM     28  C   UNL     1      -1.499   0.353   1.116  1.00  0.00     0.026 A 
ATOM     29  C   UNL     1      -1.852   1.941  -0.632  1.00  0.00     0.026 A 
ENDBRANCH  20  23
ENDBRANCH  18  19
ENDBRANCH  12  18
ENDBRANCH   6  11
BRANCH   8  30
ATOM     30  N   UNL     1       1.623  -1.949   1.616  1.00  0.00    -0.282 N 
ATOM     31  H   UNL     1       0.699  -1.633   1.489  1.00  0.00     0.180 HD
BRANCH  30  32
ATOM     32  S   UNL     1       2.329  -1.694   3.132  1.00  0.00     0.229 S 
ATOM     33  C   UNL     1       2.278   0.078   3.394  1.00  0.00     0.183 C 
ATOM     34  O   UNL     1       1.371  -2.250   4.075  1.00  0.00    -0.207 OA
ATOM     35  O   UNL     1       3.703  -2.096   3.157  1.00  0.00    -0.207 OA
ENDBRANCH  30  32
ENDBRANCH   8  30
ENDBRANCH   3   5
ENDBRANCH   2   3
ENDBRANCH   1   2
BRANCH   1  36
ATOM     36  C   UNL     1       8.093  -1.547  -2.000  1.00  0.00     0.275 C 
BRANCH  36  37
ATOM     37  O   UNL     1       8.305  -1.524  -0.582  1.00  0.00    -0.458 OA
BRANCH  37  38
ATOM     38  C   UNL     1       7.188  -1.542   0.183  1.00  0.00     0.338 C 
ATOM     39  O   UNL     1       6.266  -0.749   0.136  1.00  0.00    -0.246 OA
BRANCH  38  40
ATOM     40  C   UNL     1       7.066  -2.921   0.704  1.00  0.00     0.060 A 
ATOM     41  C   UNL     1       5.939  -3.309   1.431  1.00  0.00     0.016 A 
ATOM     42  C   UNL     1       7.904  -3.876   0.135  1.00  0.00     0.016 A 
ATOM     43  C   UNL     1       5.663  -4.647   1.624  1.00  0.00     0.010 A 
ATOM     44  C   UNL     1       7.470  -5.155   0.033  1.00  0.00     0.010 A 
ATOM     45  C   UNL     1       6.479  -5.532   0.933  1.00  0.00    -0.014 A 
BRANCH  45  46
ATOM     46  C   UNL     1       6.780  -6.856   1.427  1.00  0.00     0.031 A 
ATOM     47  C   UNL     1       5.897  -7.884   0.879  1.00  0.00     0.074 A 
ATOM     48  C   UNL     1       7.921  -6.810   2.166  1.00  0.00     0.049 A 
ATOM     49  N   UNL     1       5.130  -8.690   1.532  1.00  0.00    -0.248 NA
ATOM     50  C   UNL     1       5.601  -7.896  -0.571  1.00  0.00     0.031 C 
ATOM     51  C   UNL     1       8.816  -7.788   2.736  1.00  0.00     0.029 A 
ATOM     52  N   UNL     1       8.453  -5.603   2.669  1.00  0.00    -0.354 N 
ATOM     53  C   UNL     1       4.837  -9.660   0.591  1.00  0.00     0.074 A 
ATOM     54  C   UNL     1       4.766  -8.933  -0.649  1.00  0.00     0.031 C 
ATOM     55  C   UNL     1       9.462  -7.215   3.779  1.00  0.00     0.029 A 
ATOM     56  C   UNL     1       9.032  -5.823   3.904  1.00  0.00     0.049 A 
ATOM     57  H   UNL     1       8.417  -4.733   2.208  1.00  0.00     0.167 HD
ATOM     58  C   UNL     1       5.322 -10.929   0.795  1.00  0.00     0.037 A 
ATOM     59  C   UNL     1       8.369  -5.238   4.943  1.00  0.00     0.037 A 
ATOM     60  C   UNL     1       6.119 -10.947   2.042  1.00  0.00     0.049 A 
ATOM     61  C   UNL     1       7.458  -6.292   5.554  1.00  0.00     0.074 A 
ATOM     62  C   UNL     1       7.480 -11.047   2.284  1.00  0.00     0.029 A 
ATOM     63  N   UNL     1       5.565 -10.453   3.226  1.00  0.00    -0.354 N 
ATOM     64  N   UNL     1       6.951  -7.314   4.899  1.00  0.00    -0.248 NA
ATOM     65  C   UNL     1       7.279  -6.419   6.995  1.00  0.00     0.031 C 
ATOM     66  C   UNL     1       7.734 -10.553   3.598  1.00  0.00     0.029 A 
ATOM     67  C   UNL     1       6.547 -10.069   4.126  1.00  0.00     0.049 A 
ATOM     68  H   UNL     1       4.598 -10.386   3.400  1.00  0.00     0.167 HD
ATOM     69  C   UNL     1       6.548  -8.282   5.788  1.00  0.00     0.074 A 
ATOM     70  C   UNL     1       6.746  -7.651   7.087  1.00  0.00     0.031 C 
ATOM     71  C   UNL     1       6.170  -9.559   5.444  1.00  0.00     0.037 A 
BRANCH  58  72
ATOM     72  C   UNL     1       5.406 -12.007  -0.288  1.00  0.00     0.058 A 
ATOM     73  C   UNL     1       6.181 -13.172  -0.097  1.00  0.00     0.135 A 
ATOM     74  C   UNL     1       4.711 -11.982  -1.521  1.00  0.00     0.135 A 
ATOM     75  F   UNL     1       6.834 -13.394   1.052  1.00  0.00    -0.206 F 
ATOM     76  C   UNL     1       6.297 -14.188  -1.056  1.00  0.00     0.059 A 
ATOM     77  C   UNL     1       4.849 -12.958  -2.515  1.00  0.00     0.059 A 
ATOM     78  F   UNL     1       3.799 -11.045  -1.803  1.00  0.00    -0.206 F 
ATOM     79  C   UNL     1       5.634 -14.069  -2.268  1.00  0.00     0.060 A 
BRANCH  79  80
ATOM     80  S   UNL     1       5.726 -15.415  -3.465  1.00  0.00     0.124 S 
ATOM     81  O   UNL     1       7.157 -15.486  -3.739  1.00  0.00    -0.237 OA
ATOM     82  O   UNL     1       5.165 -16.531  -2.711  1.00  0.00    -0.237 OA
ATOM     83  O   UNL     1       4.904 -14.940  -4.577  1.00  0.00    -0.744 OA
ENDBRANCH  79  80
ENDBRANCH  58  72
BRANCH  59  84
ATOM     84  C   UNL     1       8.228  -3.733   4.760  1.00  0.00     0.058 A 
ATOM     85  C   UNL     1       9.432  -3.020   4.504  1.00  0.00     0.135 A 
ATOM     86  C   UNL     1       7.056  -2.986   4.568  1.00  0.00     0.135 A 
ATOM     87  F   UNL     1      10.616  -3.623   4.712  1.00  0.00    -0.206 F 
ATOM     88  C   UNL     1       9.479  -1.728   3.971  1.00  0.00     0.059 A 
ATOM     89  C   UNL     1       7.078  -1.660   4.051  1.00  0.00     0.059 A 
ATOM     90  F   UNL     1       5.861  -3.543   4.810  1.00  0.00    -0.206 F 
ATOM     91  C   UNL     1       8.293  -1.055   3.719  1.00  0.00     0.060 A 
BRANCH  91  92
ATOM     92  S   UNL     1       8.410   0.554   2.875  1.00  0.00     0.124 S 
ATOM     93  O   UNL     1       9.002   1.398   3.909  1.00  0.00    -0.237 OA
ATOM     94  O   UNL     1       9.291   0.243   1.752  1.00  0.00    -0.237 OA
ATOM     95  O   UNL     1       7.030   0.871   2.535  1.00  0.00    -0.744 OA
ENDBRANCH  91  92
ENDBRANCH  59  84
BRANCH  71  96
ATOM     96  C   UNL     1       5.453 -10.547   6.348  1.00  0.00     0.058 A 
ATOM     97  C   UNL     1       4.671 -10.177   7.452  1.00  0.00     0.135 A 
ATOM     98  C   UNL     1       5.378 -11.923   5.990  1.00  0.00     0.135 A 
ATOM     99  F   UNL     1       4.554  -8.901   7.839  1.00  0.00    -0.206 F 
ATOM    100  C   UNL     1       3.924 -11.104   8.179  1.00  0.00     0.059 A 
ATOM    101  C   UNL     1       4.564 -12.839   6.638  1.00  0.00     0.059 A 
ATOM    102  F   UNL     1       6.080 -12.439   4.970  1.00  0.00    -0.206 F 
ATOM    103  C   UNL     1       3.866 -12.428   7.757  1.00  0.00     0.060 A 
BRANCH 103 104
ATOM    104  S   UNL     1       2.847 -13.605   8.651  1.00  0.00     0.124 S 
ATOM    105  O   UNL     1       3.748 -14.000   9.729  1.00  0.00    -0.237 OA
ATOM    106  O   UNL     1       1.700 -12.794   9.049  1.00  0.00    -0.237 OA
ATOM    107  O   UNL     1       2.563 -14.633   7.655  1.00  0.00    -0.744 OA
ENDBRANCH 103 104
ENDBRANCH  71  96
ENDBRANCH  45  46
ENDBRANCH  38  40
ENDBRANCH  37  38
ENDBRANCH  36  37
ENDBRANCH   1  36
TORSDOF 20
