REMARK SMILES O=C(OCCOC(=O)c1csc(S(=O)(=O)Nc2ccc(F)cc2)c1)c1ccc(-c2c3nc(c(-c4c(F)cc(S(=O)(=O)[O-])cc4F)c4ccc([nH]4)c(-c4c(F)cc(S(=O)(=O)[O-])cc4F)c4nc(c(-c5c(F)cc(S(=O)(=O)[O-])cc5F)c5ccc2[nH]5)C=C4)C=C3)cc1
REMARK SMILES IDX 4 1 3 2 2 3 1 4 25 5 26 6 90 7 27 8 89 9 28 10 29 11 30 12
REMARK SMILES IDX 83 13 31 14 88 15 82 16 84 17 32 18 87 19 81 20 80 21 33 23
REMARK SMILES IDX 67 24 46 25 66 26 47 27 50 28 65 29 85 30 48 31 49 32 64 34
REMARK SMILES IDX 86 35 51 36 34 37 35 38 44 39 36 40 37 41 43 42 45 43 38 44
REMARK SMILES IDX 39 45 40 46 41 47 42 48 68 49 69 50 78 51 70 52 71 53 77 54
REMARK SMILES IDX 79 55 72 56 73 57 74 58 75 59 76 60 52 61 53 62 62 63 54 64
REMARK SMILES IDX 55 65 61 66 63 67 56 68 57 69 58 70 59 71 60 72 5 73 6 74
REMARK SMILES IDX 7 75 8 76 9 77 10 78 24 79 11 80 12 81 13 82 14 83 15 84
REMARK SMILES IDX 16 85 17 87 18 88 23 89 19 90 22 91 20 92 21 93
REMARK H PARENT 84 22 50 33 16 86
REMARK Flexibility Score: inf
ROOT
ATOM      1  C   UNL     1       4.494  -0.199  -1.882  1.00  0.00     0.275 C 
ENDROOT
BRANCH   1   2
ATOM      2  O   UNL     1       3.674  -0.932  -0.951  1.00  0.00    -0.458 OA
BRANCH   2   3
ATOM      3  C   UNL     1       3.281  -0.595   0.298  1.00  0.00     0.338 C 
ATOM      4  O   UNL     1       2.284  -1.133   0.776  1.00  0.00    -0.246 OA
BRANCH   3   5
ATOM      5  C   UNL     1       3.989   0.425   1.126  1.00  0.00     0.060 A 
ATOM      6  C   UNL     1       5.349   0.725   1.051  1.00  0.00     0.016 A 
ATOM      7  C   UNL     1       3.226   1.061   2.119  1.00  0.00     0.016 A 
ATOM      8  C   UNL     1       5.911   1.702   1.884  1.00  0.00     0.010 A 
ATOM      9  C   UNL     1       3.783   2.022   2.962  1.00  0.00     0.010 A 
ATOM     10  C   UNL     1       5.132   2.351   2.848  1.00  0.00    -0.014 A 
BRANCH  10  11
ATOM     11  C   UNL     1       5.754   3.283   3.813  1.00  0.00     0.031 A 
ATOM     12  C   UNL     1       6.107   2.782   5.182  1.00  0.00     0.074 A 
ATOM     13  C   UNL     1       6.002   4.557   3.460  1.00  0.00     0.049 A 
ATOM     14  N   UNL     1       6.820   3.361   6.112  1.00  0.00    -0.248 NA
ATOM     15  C   UNL     1       5.601   1.450   5.552  1.00  0.00     0.031 C 
ATOM     16  C   UNL     1       5.643   5.159   2.177  1.00  0.00     0.029 A 
ATOM     17  N   UNL     1       6.610   5.574   4.148  1.00  0.00    -0.354 N 
ATOM     18  C   UNL     1       6.896   2.441   7.150  1.00  0.00     0.074 A 
ATOM     19  C   UNL     1       6.086   1.304   6.775  1.00  0.00     0.031 C 
ATOM     20  C   UNL     1       6.026   6.447   2.173  1.00  0.00     0.029 A 
ATOM     21  C   UNL     1       6.687   6.750   3.439  1.00  0.00     0.049 A 
ATOM     22  H   UNL     1       6.959   5.473   5.063  1.00  0.00     0.167 HD
ATOM     23  C   UNL     1       7.618   2.522   8.291  1.00  0.00     0.037 A 
ATOM     24  C   UNL     1       7.259   7.925   3.767  1.00  0.00     0.037 A 
ATOM     25  C   UNL     1       8.376   3.684   8.669  1.00  0.00     0.049 A 
ATOM     26  C   UNL     1       8.030   8.014   5.056  1.00  0.00     0.074 A 
ATOM     27  C   UNL     1       9.147   3.888   9.797  1.00  0.00     0.029 A 
ATOM     28  N   UNL     1       8.438   4.853   7.921  1.00  0.00    -0.354 N 
ATOM     29  N   UNL     1       8.192   7.097   5.981  1.00  0.00    -0.248 NA
ATOM     30  C   UNL     1       8.730   9.275   5.329  1.00  0.00     0.031 C 
ATOM     31  C   UNL     1       9.655   5.192   9.745  1.00  0.00     0.029 A 
ATOM     32  C   UNL     1       9.229   5.786   8.565  1.00  0.00     0.049 A 
ATOM     33  H   UNL     1       7.985   4.997   7.059  1.00  0.00     0.167 HD
ATOM     34  C   UNL     1       9.044   7.654   6.926  1.00  0.00     0.074 A 
ATOM     35  C   UNL     1       9.360   8.991   6.462  1.00  0.00     0.031 C 
ATOM     36  C   UNL     1       9.532   7.106   8.068  1.00  0.00     0.037 A 
BRANCH  23  37
ATOM     37  C   UNL     1       7.633   1.307   9.175  1.00  0.00     0.058 A 
ATOM     38  C   UNL     1       6.958   1.286  10.403  1.00  0.00     0.135 A 
ATOM     39  C   UNL     1       8.312   0.140   8.781  1.00  0.00     0.135 A 
ATOM     40  F   UNL     1       6.285   2.368  10.825  1.00  0.00    -0.206 F 
ATOM     41  C   UNL     1       6.944   0.148  11.205  1.00  0.00     0.059 A 
ATOM     42  C   UNL     1       8.296  -1.014   9.557  1.00  0.00     0.059 A 
ATOM     43  F   UNL     1       8.955   0.099   7.603  1.00  0.00    -0.206 F 
ATOM     44  C   UNL     1       7.611  -1.000  10.771  1.00  0.00     0.060 A 
BRANCH  44  45
ATOM     45  S   UNL     1       7.512  -2.497  11.777  1.00  0.00     0.124 S 
ATOM     46  O   UNL     1       8.398  -2.171  12.888  1.00  0.00    -0.237 OA
ATOM     47  O   UNL     1       6.088  -2.562  12.094  1.00  0.00    -0.237 OA
ATOM     48  O   UNL     1       7.990  -3.541  10.874  1.00  0.00    -0.744 OA
ENDBRANCH  44  45
ENDBRANCH  23  37
BRANCH  24  49
ATOM     49  C   UNL     1       7.204   9.059   2.807  1.00  0.00     0.058 A 
ATOM     50  C   UNL     1       6.015   9.772   2.592  1.00  0.00     0.135 A 
ATOM     51  C   UNL     1       8.322   9.407   2.035  1.00  0.00     0.135 A 
ATOM     52  F   UNL     1       4.914   9.472   3.298  1.00  0.00    -0.206 F 
ATOM     53  C   UNL     1       5.929  10.774   1.630  1.00  0.00     0.059 A 
ATOM     54  C   UNL     1       8.266  10.417   1.077  1.00  0.00     0.059 A 
ATOM     55  F   UNL     1       9.483   8.757   2.207  1.00  0.00    -0.206 F 
ATOM     56  C   UNL     1       7.058  11.082   0.869  1.00  0.00     0.060 A 
BRANCH  56  57
ATOM     57  S   UNL     1       6.917  12.352  -0.408  1.00  0.00     0.124 S 
ATOM     58  O   UNL     1       6.060  11.687  -1.385  1.00  0.00    -0.237 OA
ATOM     59  O   UNL     1       6.309  13.458   0.323  1.00  0.00    -0.237 OA
ATOM     60  O   UNL     1       8.298  12.564  -0.829  1.00  0.00    -0.744 OA
ENDBRANCH  56  57
ENDBRANCH  24  49
BRANCH  36  61
ATOM     61  C   UNL     1      10.484   7.936   8.879  1.00  0.00     0.058 A 
ATOM     62  C   UNL     1      11.851   7.618   8.906  1.00  0.00     0.135 A 
ATOM     63  C   UNL     1      10.033   8.988   9.690  1.00  0.00     0.135 A 
ATOM     64  F   UNL     1      12.328   6.617   8.149  1.00  0.00    -0.206 F 
ATOM     65  C   UNL     1      12.738   8.304   9.726  1.00  0.00     0.059 A 
ATOM     66  C   UNL     1      10.907   9.702  10.503  1.00  0.00     0.059 A 
ATOM     67  F   UNL     1       8.736   9.334   9.687  1.00  0.00    -0.206 F 
ATOM     68  C   UNL     1      12.255   9.340  10.527  1.00  0.00     0.060 A 
BRANCH  68  69
ATOM     69  S   UNL     1      13.418  10.227  11.584  1.00  0.00     0.124 S 
ATOM     70  O   UNL     1      13.627   9.270  12.665  1.00  0.00    -0.237 OA
ATOM     71  O   UNL     1      14.554  10.436  10.691  1.00  0.00    -0.237 OA
ATOM     72  O   UNL     1      12.687  11.437  11.947  1.00  0.00    -0.744 OA
ENDBRANCH  68  69
ENDBRANCH  36  61
ENDBRANCH  10  11
ENDBRANCH   3   5
ENDBRANCH   2   3
ENDBRANCH   1   2
BRANCH   1  73
ATOM     73  C   UNL     1       3.788   0.984  -2.542  1.00  0.00     0.275 C 
BRANCH  73  74
ATOM     74  O   UNL     1       3.382   1.976  -1.587  1.00  0.00    -0.458 OA
BRANCH  74  75
ATOM     75  C   UNL     1       2.039   2.069  -1.352  1.00  0.00     0.339 C 
ATOM     76  O   UNL     1       1.182   1.397  -1.915  1.00  0.00    -0.246 OA
BRANCH  75  77
ATOM     77  C   UNL     1       1.726   2.986  -0.262  1.00  0.00     0.072 A 
ATOM     78  C   UNL     1       2.429   4.140   0.022  1.00  0.00     0.082 A 
ATOM     79  C   UNL     1       0.673   2.784   0.698  1.00  0.00     0.050 A 
ATOM     80  S   UNL     1       1.865   4.917   1.438  1.00  0.00    -0.130 S 
ATOM     81  C   UNL     1       0.719   3.679   1.751  1.00  0.00     0.141 A 
BRANCH  81  82
ATOM     82  S   UNL     1      -0.070   3.784   3.345  1.00  0.00     0.271 S 
ATOM     83  O   UNL     1       0.955   3.430   4.304  1.00  0.00    -0.200 OA
ATOM     84  O   UNL     1      -0.723   5.074   3.382  1.00  0.00    -0.200 OA
BRANCH  82  85
ATOM     85  N   UNL     1      -1.311   2.641   3.522  1.00  0.00    -0.279 N 
ATOM     86  H   UNL     1      -2.197   2.917   3.852  1.00  0.00     0.180 HD
BRANCH  85  87
ATOM     87  C   UNL     1      -1.063   1.277   3.189  1.00  0.00     0.049 A 
ATOM     88  C   UNL     1      -0.116   0.485   3.841  1.00  0.00     0.030 A 
ATOM     89  C   UNL     1      -1.890   0.722   2.208  1.00  0.00     0.030 A 
ATOM     90  C   UNL     1       0.042  -0.852   3.456  1.00  0.00     0.041 A 
ATOM     91  C   UNL     1      -1.728  -0.607   1.826  1.00  0.00     0.041 A 
ATOM     92  C   UNL     1      -0.760  -1.383   2.450  1.00  0.00     0.123 A 
ATOM     93  F   UNL     1      -0.613  -2.664   2.088  1.00  0.00    -0.207 F 
ENDBRANCH  85  87
ENDBRANCH  82  85
ENDBRANCH  81  82
ENDBRANCH  75  77
ENDBRANCH  74  75
ENDBRANCH  73  74
ENDBRANCH   1  73
TORSDOF 17
