REMARK SMILES O=C(OCCOC(=O)c1ccsc1NC(=O)c1cc2c(F)cccc2s1)c1ccc(-c2c3nc(c(-c4c(F)cc(S(=O)(=O)[O-])cc4F)c4ccc([nH]4)c(-c4c(F)cc(S(=O)(=O)[O-])cc4F)c4nc(c(-c5c(F)cc(S(=O)(=O)[O-])cc5F)c5ccc2[nH]5)C=C4)C=C3)cc1
REMARK SMILES IDX 4 1 3 2 2 3 1 4 27 5 28 6 92 7 29 8 91 9 30 10 31 11 32 12
REMARK SMILES IDX 85 13 33 14 90 15 84 16 86 17 34 18 89 19 83 20 82 21 35 23
REMARK SMILES IDX 69 24 48 25 68 26 49 27 52 28 67 29 87 30 50 31 51 32 66 34
REMARK SMILES IDX 88 35 53 36 36 37 37 38 46 39 38 40 39 41 45 42 47 43 40 44
REMARK SMILES IDX 41 45 42 46 43 47 44 48 70 49 71 50 80 51 72 52 73 53 79 54
REMARK SMILES IDX 81 55 74 56 75 57 76 58 77 59 78 60 54 61 55 62 64 63 56 64
REMARK SMILES IDX 57 65 63 66 65 67 58 68 59 69 60 70 61 71 62 72 5 73 6 74
REMARK SMILES IDX 7 75 8 76 9 77 10 78 13 79 11 80 12 81 14 82 15 83 16 85
REMARK SMILES IDX 17 86 18 87 26 88 19 89 25 90 20 91 24 92 21 93 22 94 23 95
REMARK H PARENT 86 22 52 33 14 84
REMARK Flexibility Score: inf
ROOT
ATOM      1  C   UNL     1       4.871   0.464   1.248  1.00  0.00     0.275 C 
ENDROOT
BRANCH   1   2
ATOM      2  O   UNL     1       3.728   1.331   1.111  1.00  0.00    -0.458 OA
BRANCH   2   3
ATOM      3  C   UNL     1       2.709   0.947   0.319  1.00  0.00     0.338 C 
ATOM      4  O   UNL     1       1.756   0.273   0.685  1.00  0.00    -0.246 OA
BRANCH   3   5
ATOM      5  C   UNL     1       2.732   1.587  -1.009  1.00  0.00     0.060 A 
ATOM      6  C   UNL     1       3.886   1.683  -1.786  1.00  0.00     0.016 A 
ATOM      7  C   UNL     1       1.499   1.993  -1.530  1.00  0.00     0.016 A 
ATOM      8  C   UNL     1       3.802   2.226  -3.063  1.00  0.00     0.010 A 
ATOM      9  C   UNL     1       1.405   2.465  -2.829  1.00  0.00     0.010 A 
ATOM     10  C   UNL     1       2.561   2.627  -3.582  1.00  0.00    -0.014 A 
BRANCH  10  11
ATOM     11  C   UNL     1       2.506   3.169  -4.937  1.00  0.00     0.031 A 
ATOM     12  C   UNL     1       3.128   2.322  -5.988  1.00  0.00     0.074 A 
ATOM     13  C   UNL     1       1.922   4.340  -5.263  1.00  0.00     0.049 A 
ATOM     14  N   UNL     1       4.307   2.458  -6.498  1.00  0.00    -0.248 NA
ATOM     15  C   UNL     1       2.430   1.105  -6.420  1.00  0.00     0.031 C 
ATOM     16  C   UNL     1       1.054   5.197  -4.449  1.00  0.00     0.029 A 
ATOM     17  N   UNL     1       1.975   5.006  -6.452  1.00  0.00    -0.354 N 
ATOM     18  C   UNL     1       4.417   1.488  -7.491  1.00  0.00     0.074 A 
ATOM     19  C   UNL     1       3.317   0.583  -7.274  1.00  0.00     0.031 C 
ATOM     20  C   UNL     1       0.517   6.167  -5.224  1.00  0.00     0.029 A 
ATOM     21  C   UNL     1       1.132   6.108  -6.538  1.00  0.00     0.049 A 
ATOM     22  H   UNL     1       2.563   4.728  -7.191  1.00  0.00     0.167 HD
ATOM     23  C   UNL     1       5.280   1.651  -8.535  1.00  0.00     0.037 A 
ATOM     24  C   UNL     1       0.973   6.938  -7.599  1.00  0.00     0.037 A 
ATOM     25  C   UNL     1       6.242   2.691  -8.247  1.00  0.00     0.049 A 
ATOM     26  C   UNL     1       2.225   6.853  -8.393  1.00  0.00     0.074 A 
ATOM     27  C   UNL     1       7.204   2.889  -7.275  1.00  0.00     0.029 A 
ATOM     28  N   UNL     1       6.038   3.924  -8.819  1.00  0.00    -0.354 N 
ATOM     29  N   UNL     1       3.384   7.279  -7.967  1.00  0.00    -0.248 NA
ATOM     30  C   UNL     1       2.276   5.892  -9.482  1.00  0.00     0.031 C 
ATOM     31  C   UNL     1       7.155   4.285  -6.985  1.00  0.00     0.029 A 
ATOM     32  C   UNL     1       6.219   4.869  -7.842  1.00  0.00     0.049 A 
ATOM     33  H   UNL     1       5.804   4.098  -9.760  1.00  0.00     0.167 HD
ATOM     34  C   UNL     1       4.296   6.338  -8.422  1.00  0.00     0.074 A 
ATOM     35  C   UNL     1       3.569   5.562  -9.424  1.00  0.00     0.031 C 
ATOM     36  C   UNL     1       5.466   6.103  -7.757  1.00  0.00     0.037 A 
BRANCH  23  37
ATOM     37  C   UNL     1       5.049   1.155  -9.949  1.00  0.00     0.058 A 
ATOM     38  C   UNL     1       6.055   1.358 -10.921  1.00  0.00     0.135 A 
ATOM     39  C   UNL     1       3.793   0.760 -10.460  1.00  0.00     0.135 A 
ATOM     40  F   UNL     1       7.296   1.722 -10.559  1.00  0.00    -0.206 F 
ATOM     41  C   UNL     1       5.806   1.278 -12.292  1.00  0.00     0.059 A 
ATOM     42  C   UNL     1       3.537   0.625 -11.822  1.00  0.00     0.059 A 
ATOM     43  F   UNL     1       2.726   0.573  -9.677  1.00  0.00    -0.206 F 
ATOM     44  C   UNL     1       4.534   0.930 -12.732  1.00  0.00     0.060 A 
BRANCH  44  45
ATOM     45  S   UNL     1       4.180   0.935 -14.497  1.00  0.00     0.124 S 
ATOM     46  O   UNL     1       4.287   2.355 -14.811  1.00  0.00    -0.237 OA
ATOM     47  O   UNL     1       5.243   0.083 -15.019  1.00  0.00    -0.237 OA
ATOM     48  O   UNL     1       2.836   0.370 -14.572  1.00  0.00    -0.744 OA
ENDBRANCH  44  45
ENDBRANCH  23  37
BRANCH  24  49
ATOM     49  C   UNL     1      -0.291   7.505  -8.144  1.00  0.00     0.058 A 
ATOM     50  C   UNL     1      -0.272   8.445  -9.193  1.00  0.00     0.135 A 
ATOM     51  C   UNL     1      -1.541   6.920  -7.862  1.00  0.00     0.135 A 
ATOM     52  F   UNL     1       0.875   9.049  -9.538  1.00  0.00    -0.206 F 
ATOM     53  C   UNL     1      -1.406   8.731  -9.962  1.00  0.00     0.059 A 
ATOM     54  C   UNL     1      -2.686   7.195  -8.610  1.00  0.00     0.059 A 
ATOM     55  F   UNL     1      -1.668   5.989  -6.906  1.00  0.00    -0.206 F 
ATOM     56  C   UNL     1      -2.605   8.078  -9.680  1.00  0.00     0.060 A 
BRANCH  56  57
ATOM     57  S   UNL     1      -4.018   8.300 -10.788  1.00  0.00     0.124 S 
ATOM     58  O   UNL     1      -4.366   9.698 -10.560  1.00  0.00    -0.237 OA
ATOM     59  O   UNL     1      -3.439   7.992 -12.091  1.00  0.00    -0.237 OA
ATOM     60  O   UNL     1      -4.992   7.328 -10.296  1.00  0.00    -0.744 OA
ENDBRANCH  56  57
ENDBRANCH  24  49
BRANCH  36  61
ATOM     61  C   UNL     1       5.900   7.079  -6.690  1.00  0.00     0.058 A 
ATOM     62  C   UNL     1       5.216   7.289  -5.479  1.00  0.00     0.135 A 
ATOM     63  C   UNL     1       7.159   7.684  -6.823  1.00  0.00     0.135 A 
ATOM     64  F   UNL     1       4.048   6.681  -5.231  1.00  0.00    -0.206 F 
ATOM     65  C   UNL     1       5.755   8.073  -4.455  1.00  0.00     0.059 A 
ATOM     66  C   UNL     1       7.729   8.445  -5.805  1.00  0.00     0.059 A 
ATOM     67  F   UNL     1       7.888   7.481  -7.934  1.00  0.00    -0.206 F 
ATOM     68  C   UNL     1       7.019   8.637  -4.622  1.00  0.00     0.060 A 
BRANCH  68  69
ATOM     69  S   UNL     1       7.765   9.548  -3.251  1.00  0.00     0.124 S 
ATOM     70  O   UNL     1       6.928  10.741  -3.179  1.00  0.00    -0.237 OA
ATOM     71  O   UNL     1       7.631   8.610  -2.140  1.00  0.00    -0.237 OA
ATOM     72  O   UNL     1       9.137   9.776  -3.698  1.00  0.00    -0.744 OA
ENDBRANCH  68  69
ENDBRANCH  36  61
ENDBRANCH  10  11
ENDBRANCH   3   5
ENDBRANCH   2   3
ENDBRANCH   1   2
BRANCH   1  73
ATOM     73  C   UNL     1       4.588  -1.027   1.434  1.00  0.00     0.275 C 
BRANCH  73  74
ATOM     74  O   UNL     1       4.170  -1.576   0.180  1.00  0.00    -0.458 OA
BRANCH  74  75
ATOM     75  C   UNL     1       3.002  -2.263   0.121  1.00  0.00     0.341 C 
ATOM     76  O   UNL     1       2.298  -2.600   1.072  1.00  0.00    -0.246 OA
BRANCH  75  77
ATOM     77  C   UNL     1       2.733  -2.574  -1.258  1.00  0.00     0.094 A 
ATOM     78  C   UNL     1       3.367  -3.647  -1.970  1.00  0.00     0.029 A 
ATOM     79  C   UNL     1       1.859  -1.892  -2.086  1.00  0.00     0.110 A 
ATOM     80  C   UNL     1       3.162  -3.555  -3.327  1.00  0.00     0.068 A 
ATOM     81  S   UNL     1       2.402  -2.068  -3.711  1.00  0.00    -0.126 S 
BRANCH  79  82
ATOM     82  N   UNL     1       0.823  -1.025  -1.769  1.00  0.00    -0.312 N 
ATOM     83  C   UNL     1      -0.298  -0.671  -2.521  1.00  0.00     0.266 C 
ATOM     84  H   UNL     1       0.888  -0.598  -0.884  1.00  0.00     0.171 HD
ATOM     85  O   UNL     1      -0.968   0.295  -2.146  1.00  0.00    -0.268 OA
BRANCH  83  86
ATOM     86  C   UNL     1      -0.756  -1.554  -3.577  1.00  0.00     0.094 A 
ATOM     87  C   UNL     1      -0.496  -2.896  -3.707  1.00  0.00     0.037 A 
ATOM     88  S   UNL     1      -1.899  -1.066  -4.760  1.00  0.00    -0.130 S 
ATOM     89  C   UNL     1      -1.114  -3.503  -4.814  1.00  0.00     0.029 A 
ATOM     90  C   UNL     1      -2.196  -2.716  -5.194  1.00  0.00     0.038 A 
ATOM     91  C   UNL     1      -1.023  -4.838  -5.212  1.00  0.00     0.131 A 
ATOM     92  C   UNL     1      -3.328  -3.314  -5.756  1.00  0.00     0.020 A 
ATOM     93  F   UNL     1       0.083  -5.553  -4.957  1.00  0.00    -0.206 F 
ATOM     94  C   UNL     1      -2.198  -5.470  -5.562  1.00  0.00     0.040 A 
ATOM     95  C   UNL     1      -3.353  -4.718  -5.774  1.00  0.00     0.005 A 
ENDBRANCH  83  86
ENDBRANCH  79  82
ENDBRANCH  75  77
ENDBRANCH  74  75
ENDBRANCH  73  74
ENDBRANCH   1  73
TORSDOF 16
