REMARK SMILES C[N@H+]1CCO[C@H](C[C@@H](NC(=O)OC(C)(C)C)C(=O)OCCOC(=O)c2ccc(-c3c4nc(c(-c5c(F)cc(S(=O)(=O)[O-])cc5F)c5ccc([nH]5)c(-c5c(F)cc(S(=O)(=O)[O-])cc5F)c5nc(c(-c6c(F)cc(S(=O)(=O)[O-])cc6F)c6ccc3[nH]6)C=C5)C=C4)cc2)C1
REMARK SMILES IDX 20 1 19 2 17 3 18 4 8 5 7 6 6 7 1 8 2 9 3 10 91 11 4 13 5 14
REMARK SMILES IDX 9 15 10 16 11 18 12 19 13 20 14 21 15 22 16 23 21 24 22 25
REMARK SMILES IDX 23 26 24 27 25 28 26 29 90 30 27 31 89 32 28 33 29 34 30 35
REMARK SMILES IDX 83 36 31 37 88 38 82 39 84 40 32 41 87 42 81 43 80 44 33 46
REMARK SMILES IDX 67 47 46 48 66 49 47 50 50 51 65 52 85 53 48 54 49 55 64 57
REMARK SMILES IDX 86 58 51 59 34 60 35 61 44 62 36 63 37 64 43 65 45 66 38 67
REMARK SMILES IDX 39 68 40 69 41 70 42 71 68 72 69 73 78 74 70 75 71 76 77 77
REMARK SMILES IDX 79 78 72 79 73 80 74 81 75 82 76 83 52 84 53 85 62 86 54 87
REMARK SMILES IDX 55 88 61 89 63 90 56 91 57 92 58 93 59 94 60 95
REMARK H PARENT 2 12 9 17 84 45 50 56
REMARK Flexibility Score: inf
ROOT
ATOM      1  C   UNL     1      -6.934  -2.925   1.552  1.00  0.00     0.274 C 
ENDROOT
BRANCH   1   2
ATOM      2  O   UNL     1      -5.633  -2.319   1.477  1.00  0.00    -0.461 OA
BRANCH   2   3
ATOM      3  C   UNL     1      -4.761  -2.600   2.488  1.00  0.00     0.328 C 
ATOM      4  O   UNL     1      -5.016  -3.321   3.447  1.00  0.00    -0.250 OA
BRANCH   3   5
ATOM      5  C   UNL     1      -3.439  -1.814   2.339  1.00  0.00     0.198 C 
BRANCH   5   6
ATOM      6  C   UNL     1      -3.029  -1.587   0.865  1.00  0.00     0.075 C 
BRANCH   6   7
ATOM      7  C   UNL     1      -1.856  -0.634   0.599  1.00  0.00     0.176 C 
ATOM      8  C   UNL     1       1.191  -0.034  -0.101  1.00  0.00     0.332 C 
ATOM      9  N   UNL     1       0.541  -0.056   1.207  1.00  0.00    -0.333 N 
ATOM     10  C   UNL     1       0.011   1.272   1.579  1.00  0.00     0.290 C 
ATOM     11  C   UNL     1      -0.541  -1.056   1.298  1.00  0.00     0.294 C 
ATOM     12  H   UNL     1       1.273  -0.323   1.865  1.00  0.00     0.348 HD
ATOM     13  C   UNL     1      -1.268   1.655   0.819  1.00  0.00     0.222 C 
ATOM     14  O   UNL     1      -2.286   0.674   1.006  1.00  0.00    -0.366 OA
ENDBRANCH   6   7
ENDBRANCH   5   6
BRANCH   5  15
ATOM     15  N   UNL     1      -3.304  -0.655   3.220  1.00  0.00    -0.308 N 
ATOM     16  C   UNL     1      -4.252   0.070   3.868  1.00  0.00     0.408 C 
ATOM     17  H   UNL     1      -2.379  -0.352   3.367  1.00  0.00     0.168 HD
ATOM     18  O   UNL     1      -3.951   1.095   4.462  1.00  0.00    -0.225 OA
BRANCH  16  19
ATOM     19  O   UNL     1      -5.481  -0.484   3.819  1.00  0.00    -0.444 OA
BRANCH  19  20
ATOM     20  C   UNL     1      -6.571   0.059   4.599  1.00  0.00     0.106 C 
ATOM     21  C   UNL     1      -6.257   0.036   6.099  1.00  0.00     0.056 C 
ATOM     22  C   UNL     1      -6.940   1.452   4.087  1.00  0.00     0.056 C 
ATOM     23  C   UNL     1      -7.759  -0.884   4.353  1.00  0.00     0.056 C 
ENDBRANCH  19  20
ENDBRANCH  16  19
ENDBRANCH   5  15
ENDBRANCH   3   5
ENDBRANCH   2   3
ENDBRANCH   1   2
BRANCH   1  24
ATOM     24  C   UNL     1      -7.034  -4.174   0.677  1.00  0.00     0.275 C 
BRANCH  24  25
ATOM     25  O   UNL     1      -6.247  -5.251   1.211  1.00  0.00    -0.458 OA
BRANCH  25  26
ATOM     26  C   UNL     1      -4.949  -5.245   0.827  1.00  0.00     0.338 C 
ATOM     27  O   UNL     1      -4.423  -4.497   0.019  1.00  0.00    -0.246 OA
BRANCH  26  28
ATOM     28  C   UNL     1      -4.179  -6.178   1.661  1.00  0.00     0.060 A 
ATOM     29  C   UNL     1      -3.042  -5.685   2.310  1.00  0.00     0.016 A 
ATOM     30  C   UNL     1      -4.518  -7.527   1.744  1.00  0.00     0.016 A 
ATOM     31  C   UNL     1      -2.222  -6.539   3.032  1.00  0.00     0.010 A 
ATOM     32  C   UNL     1      -3.690  -8.389   2.463  1.00  0.00     0.010 A 
ATOM     33  C   UNL     1      -2.528  -7.901   3.090  1.00  0.00    -0.014 A 
BRANCH  33  34
ATOM     34  C   UNL     1      -1.566  -8.834   3.712  1.00  0.00     0.031 A 
ATOM     35  C   UNL     1      -0.743  -9.724   2.828  1.00  0.00     0.074 A 
ATOM     36  C   UNL     1      -1.420  -8.857   5.049  1.00  0.00     0.049 A 
ATOM     37  N   UNL     1       0.073 -10.689   3.154  1.00  0.00    -0.248 NA
ATOM     38  C   UNL     1      -0.863  -9.499   1.377  1.00  0.00     0.031 C 
ATOM     39  C   UNL     1      -2.128  -7.988   5.990  1.00  0.00     0.029 A 
ATOM     40  N   UNL     1      -0.636  -9.649   5.846  1.00  0.00    -0.354 N 
ATOM     41  C   UNL     1       0.547 -11.204   1.954  1.00  0.00     0.074 A 
ATOM     42  C   UNL     1      -0.092 -10.461   0.890  1.00  0.00     0.031 C 
ATOM     43  C   UNL     1      -1.756  -8.306   7.241  1.00  0.00     0.029 A 
ATOM     44  C   UNL     1      -0.827  -9.431   7.189  1.00  0.00     0.049 A 
ATOM     45  H   UNL     1       0.003 -10.309   5.490  1.00  0.00     0.167 HD
ATOM     46  C   UNL     1       1.439 -12.204   1.764  1.00  0.00     0.037 A 
ATOM     47  C   UNL     1      -0.338 -10.096   8.253  1.00  0.00     0.037 A 
ATOM     48  C   UNL     1       2.066 -12.926   2.841  1.00  0.00     0.049 A 
ATOM     49  C   UNL     1       0.598 -11.251   8.016  1.00  0.00     0.074 A 
ATOM     50  C   UNL     1       2.986 -13.955   2.767  1.00  0.00     0.029 A 
ATOM     51  N   UNL     1       1.834 -12.693   4.191  1.00  0.00    -0.354 N 
ATOM     52  N   UNL     1       1.034 -11.740   6.878  1.00  0.00    -0.248 NA
ATOM     53  C   UNL     1       1.109 -11.946   9.204  1.00  0.00     0.031 C 
ATOM     54  C   UNL     1       3.269 -14.381   4.069  1.00  0.00     0.029 A 
ATOM     55  C   UNL     1       2.575 -13.575   4.958  1.00  0.00     0.049 A 
ATOM     56  H   UNL     1       1.230 -12.002   4.548  1.00  0.00     0.167 HD
ATOM     57  C   UNL     1       1.891 -12.781   7.214  1.00  0.00     0.074 A 
ATOM     58  C   UNL     1       1.921 -12.842   8.662  1.00  0.00     0.031 C 
ATOM     59  C   UNL     1       2.592 -13.612   6.401  1.00  0.00     0.037 A 
BRANCH  46  60
ATOM     60  C   UNL     1       1.755 -12.598   0.347  1.00  0.00     0.058 A 
ATOM     61  C   UNL     1       2.486 -11.763  -0.513  1.00  0.00     0.135 A 
ATOM     62  C   UNL     1       1.337 -13.842  -0.154  1.00  0.00     0.135 A 
ATOM     63  F   UNL     1       2.894 -10.553  -0.097  1.00  0.00    -0.206 F 
ATOM     64  C   UNL     1       2.766 -12.133  -1.825  1.00  0.00     0.059 A 
ATOM     65  C   UNL     1       1.632 -14.247  -1.453  1.00  0.00     0.059 A 
ATOM     66  F   UNL     1       0.629 -14.679   0.621  1.00  0.00    -0.206 F 
ATOM     67  C   UNL     1       2.335 -13.379  -2.285  1.00  0.00     0.060 A 
BRANCH  67  68
ATOM     68  S   UNL     1       2.708 -13.844  -3.989  1.00  0.00     0.124 S 
ATOM     69  O   UNL     1       1.821 -12.957  -4.735  1.00  0.00    -0.237 OA
ATOM     70  O   UNL     1       4.133 -13.544  -4.088  1.00  0.00    -0.237 OA
ATOM     71  O   UNL     1       2.364 -15.262  -4.039  1.00  0.00    -0.744 OA
ENDBRANCH  67  68
ENDBRANCH  46  60
BRANCH  47  72
ATOM     72  C   UNL     1      -0.749  -9.700   9.627  1.00  0.00     0.058 A 
ATOM     73  C   UNL     1       0.166  -9.128  10.522  1.00  0.00     0.135 A 
ATOM     74  C   UNL     1      -2.072  -9.872  10.066  1.00  0.00     0.135 A 
ATOM     75  F   UNL     1       1.444  -8.951  10.154  1.00  0.00    -0.206 F 
ATOM     76  C   UNL     1      -0.211  -8.753  11.808  1.00  0.00     0.059 A 
ATOM     77  C   UNL     1      -2.480  -9.477  11.336  1.00  0.00     0.059 A 
ATOM     78  F   UNL     1      -2.990 -10.404   9.245  1.00  0.00    -0.206 F 
ATOM     79  C   UNL     1      -1.538  -8.928  12.204  1.00  0.00     0.060 A 
BRANCH  79  80
ATOM     80  S   UNL     1      -2.025  -8.395  13.859  1.00  0.00     0.124 S 
ATOM     81  O   UNL     1      -1.376  -9.400  14.694  1.00  0.00    -0.237 OA
ATOM     82  O   UNL     1      -1.463  -7.050  13.925  1.00  0.00    -0.237 OA
ATOM     83  O   UNL     1      -3.483  -8.456  13.817  1.00  0.00    -0.744 OA
ENDBRANCH  79  80
ENDBRANCH  47  72
BRANCH  59  84
ATOM     84  C   UNL     1       3.483 -14.630   7.059  1.00  0.00     0.058 A 
ATOM     85  C   UNL     1       2.963 -15.745   7.734  1.00  0.00     0.135 A 
ATOM     86  C   UNL     1       4.880 -14.512   6.966  1.00  0.00     0.135 A 
ATOM     87  F   UNL     1       1.636 -15.903   7.857  1.00  0.00    -0.206 F 
ATOM     88  C   UNL     1       3.797 -16.693   8.319  1.00  0.00     0.059 A 
ATOM     89  C   UNL     1       5.732 -15.465   7.515  1.00  0.00     0.059 A 
ATOM     90  F   UNL     1       5.430 -13.471   6.321  1.00  0.00    -0.206 F 
ATOM     91  C   UNL     1       5.180 -16.546   8.201  1.00  0.00     0.060 A 
BRANCH  91  92
ATOM     92  S   UNL     1       6.249 -17.800   8.936  1.00  0.00     0.124 S 
ATOM     93  O   UNL     1       6.101 -17.515  10.360  1.00  0.00    -0.237 OA
ATOM     94  O   UNL     1       5.638 -19.041   8.471  1.00  0.00    -0.237 OA
ATOM     95  O   UNL     1       7.562 -17.504   8.370  1.00  0.00    -0.744 OA
ENDBRANCH  91  92
ENDBRANCH  59  84
ENDBRANCH  33  34
ENDBRANCH  26  28
ENDBRANCH  25  26
ENDBRANCH  24  25
ENDBRANCH   1  24
TORSDOF 19
