REMARK SMILES COC[C@H](O)CC1(C(=O)OCCOC(=O)c2ccc(-c3c4nc(c(-c5c(F)cc(S(=O)(=O)[O-])cc5F)c5ccc([nH]5)c(-c5c(F)cc(S(=O)(=O)[O-])cc5F)c5nc(c(-c6c(F)cc(S(=O)(=O)[O-])cc6F)c6ccc3[nH]6)C=C5)C=C4)cc2)CC1
REMARK SMILES IDX 11 1 10 2 8 3 9 4 7 5 82 6 83 7 6 8 4 9 3 10 2 11 1 12 5 13
REMARK SMILES IDX 12 15 13 16 14 17 15 18 16 19 17 20 81 21 18 22 80 23 19 24
REMARK SMILES IDX 20 25 21 26 74 27 22 28 79 29 73 30 75 31 23 32 78 33 72 34
REMARK SMILES IDX 71 35 24 37 58 38 37 39 57 40 38 41 41 42 56 43 76 44 39 45
REMARK SMILES IDX 40 46 55 48 77 49 42 50 25 51 26 52 35 53 27 54 28 55 34 56
REMARK SMILES IDX 36 57 29 58 30 59 31 60 32 61 33 62 59 63 60 64 69 65 61 66
REMARK SMILES IDX 62 67 68 68 70 69 63 70 64 71 65 72 66 73 67 74 43 75 44 76
REMARK SMILES IDX 53 77 45 78 46 79 52 80 54 81 47 82 48 83 49 84 50 85 51 86
REMARK H PARENT 5 14 75 36 41 47
REMARK Flexibility Score: inf
ROOT
ATOM      1  C   UNL     1      -2.571   3.439  -5.718  1.00  0.00     0.274 C 
ENDROOT
BRANCH   1   2
ATOM      2  O   UNL     1      -1.680   2.342  -5.430  1.00  0.00    -0.462 OA
BRANCH   2   3
ATOM      3  C   UNL     1      -0.380   2.677  -5.205  1.00  0.00     0.312 C 
ATOM      4  O   UNL     1       0.070   3.811  -5.198  1.00  0.00    -0.252 OA
BRANCH   3   5
ATOM      5  C   UNL     1       0.517   1.487  -4.976  1.00  0.00     0.071 C 
ATOM      6  C   UNL     1       1.409   1.133  -6.168  1.00  0.00     0.020 C 
ATOM      7  C   UNL     1       0.304   0.207  -5.773  1.00  0.00     0.020 C 
BRANCH   5   8
ATOM      8  C   UNL     1       1.164   1.367  -3.590  1.00  0.00     0.053 C 
BRANCH   8   9
ATOM      9  C   UNL     1       0.431   0.392  -2.656  1.00  0.00     0.141 C 
BRANCH   9  10
ATOM     10  C   UNL     1       0.477   0.844  -1.190  1.00  0.00     0.191 C 
BRANCH  10  11
ATOM     11  O   UNL     1      -0.229  -0.077  -0.348  1.00  0.00    -0.382 OA
ATOM     12  C   UNL     1      -1.605   0.270  -0.207  1.00  0.00     0.195 C 
ENDBRANCH  10  11
ENDBRANCH   9  10
BRANCH   9  13
ATOM     13  O   UNL     1       1.074  -0.891  -2.743  1.00  0.00    -0.391 OA
ATOM     14  H   UNL     1       1.997  -0.810  -2.456  1.00  0.00     0.211 HD
ENDBRANCH   9  13
ENDBRANCH   8   9
ENDBRANCH   5   8
ENDBRANCH   3   5
ENDBRANCH   2   3
ENDBRANCH   1   2
BRANCH   1  15
ATOM     15  C   UNL     1      -3.438   3.802  -4.511  1.00  0.00     0.275 C 
BRANCH  15  16
ATOM     16  O   UNL     1      -2.667   4.446  -3.477  1.00  0.00    -0.458 OA
BRANCH  16  17
ATOM     17  C   UNL     1      -2.211   3.590  -2.540  1.00  0.00     0.338 C 
ATOM     18  O   UNL     1      -2.389   2.381  -2.505  1.00  0.00    -0.246 OA
BRANCH  17  19
ATOM     19  C   UNL     1      -1.371   4.237  -1.525  1.00  0.00     0.060 A 
ATOM     20  C   UNL     1      -0.015   4.353  -1.807  1.00  0.00     0.016 A 
ATOM     21  C   UNL     1      -1.823   4.265  -0.203  1.00  0.00     0.016 A 
ATOM     22  C   UNL     1       0.897   4.280  -0.756  1.00  0.00     0.010 A 
ATOM     23  C   UNL     1      -0.900   4.334   0.849  1.00  0.00     0.010 A 
ATOM     24  C   UNL     1       0.477   4.271   0.591  1.00  0.00    -0.014 A 
BRANCH  24  25
ATOM     25  C   UNL     1       1.485   4.228   1.695  1.00  0.00     0.031 A 
ATOM     26  C   UNL     1       1.443   3.195   2.803  1.00  0.00     0.074 A 
ATOM     27  C   UNL     1       2.472   5.147   1.694  1.00  0.00     0.049 A 
ATOM     28  N   UNL     1       2.150   3.135   3.906  1.00  0.00    -0.248 NA
ATOM     29  C   UNL     1       0.483   2.091   2.663  1.00  0.00     0.031 C 
ATOM     30  C   UNL     1       2.647   6.189   0.679  1.00  0.00     0.029 A 
ATOM     31  N   UNL     1       3.509   5.361   2.566  1.00  0.00    -0.354 N 
ATOM     32  C   UNL     1       1.690   2.023   4.611  1.00  0.00     0.074 A 
ATOM     33  C   UNL     1       0.645   1.430   3.803  1.00  0.00     0.031 C 
ATOM     34  C   UNL     1       3.747   6.894   0.952  1.00  0.00     0.029 A 
ATOM     35  C   UNL     1       4.266   6.461   2.240  1.00  0.00     0.049 A 
ATOM     36  H   UNL     1       3.693   4.786   3.343  1.00  0.00     0.167 HD
ATOM     37  C   UNL     1       2.093   1.555   5.821  1.00  0.00     0.037 A 
ATOM     38  C   UNL     1       5.211   7.125   2.929  1.00  0.00     0.037 A 
ATOM     39  C   UNL     1       3.160   2.146   6.597  1.00  0.00     0.049 A 
ATOM     40  C   UNL     1       5.603   6.633   4.282  1.00  0.00     0.074 A 
ATOM     41  C   UNL     1       3.675   1.729   7.814  1.00  0.00     0.029 A 
ATOM     42  N   UNL     1       3.869   3.286   6.240  1.00  0.00    -0.354 N 
ATOM     43  N   UNL     1       5.135   5.604   4.945  1.00  0.00    -0.248 NA
ATOM     44  C   UNL     1       6.638   7.394   4.985  1.00  0.00     0.031 C 
ATOM     45  C   UNL     1       4.641   2.654   8.225  1.00  0.00     0.029 A 
ATOM     46  C   UNL     1       4.784   3.610   7.232  1.00  0.00     0.049 A 
ATOM     47  H   UNL     1       3.742   3.791   5.405  1.00  0.00     0.167 HD
ATOM     48  C   UNL     1       5.819   5.591   6.152  1.00  0.00     0.074 A 
ATOM     49  C   UNL     1       6.751   6.703   6.112  1.00  0.00     0.031 C 
ATOM     50  C   UNL     1       5.687   4.735   7.195  1.00  0.00     0.037 A 
BRANCH  37  51
ATOM     51  C   UNL     1       1.348   0.387   6.431  1.00  0.00     0.058 A 
ATOM     52  C   UNL     1       1.444  -0.923   5.935  1.00  0.00     0.135 A 
ATOM     53  C   UNL     1       0.567   0.582   7.585  1.00  0.00     0.135 A 
ATOM     54  F   UNL     1       2.173  -1.178   4.838  1.00  0.00    -0.206 F 
ATOM     55  C   UNL     1       0.770  -1.986   6.539  1.00  0.00     0.059 A 
ATOM     56  C   UNL     1      -0.091  -0.469   8.222  1.00  0.00     0.059 A 
ATOM     57  F   UNL     1       0.443   1.809   8.117  1.00  0.00    -0.206 F 
ATOM     58  C   UNL     1       0.002  -1.748   7.681  1.00  0.00     0.060 A 
BRANCH  58  59
ATOM     59  S   UNL     1      -0.879  -3.129   8.444  1.00  0.00     0.124 S 
ATOM     60  O   UNL     1      -1.932  -3.381   7.465  1.00  0.00    -0.237 OA
ATOM     61  O   UNL     1       0.158  -4.152   8.536  1.00  0.00    -0.237 OA
ATOM     62  O   UNL     1      -1.331  -2.584   9.721  1.00  0.00    -0.744 OA
ENDBRANCH  58  59
ENDBRANCH  37  51
BRANCH  38  63
ATOM     63  C   UNL     1       5.754   8.378   2.345  1.00  0.00     0.058 A 
ATOM     64  C   UNL     1       7.045   8.432   1.808  1.00  0.00     0.135 A 
ATOM     65  C   UNL     1       4.924   9.502   2.180  1.00  0.00     0.135 A 
ATOM     66  F   UNL     1       7.874   7.386   1.947  1.00  0.00    -0.206 F 
ATOM     67  C   UNL     1       7.488   9.545   1.102  1.00  0.00     0.059 A 
ATOM     68  C   UNL     1       5.331  10.610   1.448  1.00  0.00     0.059 A 
ATOM     69  F   UNL     1       3.668   9.487   2.656  1.00  0.00    -0.206 F 
ATOM     70  C   UNL     1       6.615  10.620   0.909  1.00  0.00     0.060 A 
BRANCH  70  71
ATOM     71  S   UNL     1       7.150  11.999  -0.126  1.00  0.00     0.124 S 
ATOM     72  O   UNL     1       8.088  12.681   0.757  1.00  0.00    -0.237 OA
ATOM     73  O   UNL     1       7.734  11.312  -1.274  1.00  0.00    -0.237 OA
ATOM     74  O   UNL     1       5.906  12.713  -0.402  1.00  0.00    -0.744 OA
ENDBRANCH  70  71
ENDBRANCH  38  63
BRANCH  50  75
ATOM     75  C   UNL     1       6.590   4.965   8.374  1.00  0.00     0.058 A 
ATOM     76  C   UNL     1       6.412   6.058   9.238  1.00  0.00     0.135 A 
ATOM     77  C   UNL     1       7.648   4.082   8.641  1.00  0.00     0.135 A 
ATOM     78  F   UNL     1       5.424   6.940   9.019  1.00  0.00    -0.206 F 
ATOM     79  C   UNL     1       7.275   6.287  10.304  1.00  0.00     0.059 A 
ATOM     80  C   UNL     1       8.504   4.275   9.720  1.00  0.00     0.059 A 
ATOM     81  F   UNL     1       7.858   3.018   7.850  1.00  0.00    -0.206 F 
ATOM     82  C   UNL     1       8.320   5.391  10.535  1.00  0.00     0.060 A 
BRANCH  82  83
ATOM     83  S   UNL     1       9.433   5.699  11.922  1.00  0.00     0.124 S 
ATOM     84  O   UNL     1      10.209   6.832  11.430  1.00  0.00    -0.237 OA
ATOM     85  O   UNL     1       8.503   5.991  13.009  1.00  0.00    -0.237 OA
ATOM     86  O   UNL     1      10.168   4.445  12.054  1.00  0.00    -0.744 OA
ENDBRANCH  82  83
ENDBRANCH  50  75
ENDBRANCH  24  25
ENDBRANCH  17  19
ENDBRANCH  16  17
ENDBRANCH  15  16
ENDBRANCH   1  15
TORSDOF 19
