REMARK SMILES CC[C@@]1(C)C[C@@H]([NH2+]C[C@H]2CC[C@@H](C(=O)OCCOC(=O)c3ccc(-c4c5nc(c(-c6c(F)cc(S(=O)(=O)[O-])cc6F)c6ccc([nH]6)c(-c6c(F)cc(S(=O)(=O)[O-])cc6F)c6nc(c(-c7c(F)cc(S(=O)(=O)[O-])cc7F)c7ccc4[nH]7)C=C6)C=C5)cc3)CC2)CCO1
REMARK SMILES IDX 16 1 15 2 13 3 14 4 12 5 9 6 10 7 88 8 11 9 87 10 8 11 7 12
REMARK SMILES IDX 6 15 3 16 4 17 5 18 91 19 90 20 89 21 2 22 1 23 17 24 18 25
REMARK SMILES IDX 19 26 20 27 21 28 22 29 86 30 23 31 85 32 24 33 25 34 26 35
REMARK SMILES IDX 79 36 27 37 84 38 78 39 80 40 28 41 83 42 77 43 76 44 29 46
REMARK SMILES IDX 63 47 42 48 62 49 43 50 46 51 61 52 81 53 44 54 45 55 60 57
REMARK SMILES IDX 82 58 47 59 30 60 31 61 40 62 32 63 33 64 39 65 41 66 34 67
REMARK SMILES IDX 35 68 36 69 37 70 38 71 64 72 65 73 74 74 66 75 67 76 73 77
REMARK SMILES IDX 75 78 68 79 69 80 70 81 71 82 72 83 48 84 49 85 58 86 50 87
REMARK SMILES IDX 51 88 57 89 59 90 52 91 53 92 54 93 55 94 56 95
REMARK H PARENT 7 13 7 14 80 45 46 56
REMARK Flexibility Score: inf
ROOT
ATOM      1  C   UNL     1      -2.447  -2.834  -2.680  1.00  0.00     0.274 C 
ENDROOT
BRANCH   1   2
ATOM      2  O   UNL     1      -1.441  -3.298  -1.762  1.00  0.00    -0.462 OA
BRANCH   2   3
ATOM      3  C   UNL     1      -1.452  -2.656  -0.567  1.00  0.00     0.309 C 
ATOM      4  O   UNL     1      -2.215  -1.732  -0.299  1.00  0.00    -0.252 OA
BRANCH   3   5
ATOM      5  C   UNL     1      -0.484  -3.245   0.455  1.00  0.00     0.099 C 
ATOM      6  C   UNL     1       2.249  -2.843   1.691  1.00  0.00     0.044 C 
ATOM      7  C   UNL     1       0.956  -2.415   2.381  1.00  0.00     0.010 C 
ATOM      8  C   UNL     1       1.895  -4.121   0.891  1.00  0.00     0.010 C 
ATOM      9  C   UNL     1      -0.138  -2.088   1.392  1.00  0.00     0.016 C 
ATOM     10  C   UNL     1       0.770  -3.898  -0.139  1.00  0.00     0.016 C 
BRANCH   6  11
ATOM     11  C   UNL     1       2.997  -1.819   0.780  1.00  0.00     0.264 C 
BRANCH  11  12
ATOM     12  N   UNL     1       2.644  -0.392   0.778  1.00  0.00    -0.343 N 
ATOM     13  H   UNL     1       2.833  -0.027  -0.155  1.00  0.00     0.346 HD
ATOM     14  H   UNL     1       1.663  -0.356   1.056  1.00  0.00     0.346 HD
BRANCH  12  15
ATOM     15  C   UNL     1       3.354   0.459   1.742  1.00  0.00     0.187 C 
ATOM     16  C   UNL     1       1.389   1.945   2.559  1.00  0.00     0.071 C 
ATOM     17  C   UNL     1       0.765   2.332   3.925  1.00  0.00     0.042 C 
ATOM     18  C   UNL     1       2.459   0.883   2.899  1.00  0.00     0.100 C 
ATOM     19  O   UNL     1       2.050   3.115   2.068  1.00  0.00    -0.375 OA
ATOM     20  C   UNL     1       2.941   2.917   0.975  1.00  0.00     0.167 C 
ATOM     21  C   UNL     1       3.923   1.752   1.122  1.00  0.00     0.093 C 
BRANCH  16  22
ATOM     22  C   UNL     1       0.180   1.500   1.684  1.00  0.00     0.032 C 
ATOM     23  C   UNL     1       0.208   1.627   0.167  1.00  0.00     0.007 C 
ENDBRANCH  16  22
ENDBRANCH  12  15
ENDBRANCH  11  12
ENDBRANCH   6  11
ENDBRANCH   3   5
ENDBRANCH   2   3
ENDBRANCH   1   2
BRANCH   1  24
ATOM     24  C   UNL     1      -3.731  -3.663  -2.583  1.00  0.00     0.275 C 
BRANCH  24  25
ATOM     25  O   UNL     1      -4.293  -3.661  -1.257  1.00  0.00    -0.458 OA
BRANCH  25  26
ATOM     26  C   UNL     1      -3.936  -4.718  -0.492  1.00  0.00     0.338 C 
ATOM     27  O   UNL     1      -3.205  -5.646  -0.812  1.00  0.00    -0.246 OA
BRANCH  26  28
ATOM     28  C   UNL     1      -4.544  -4.633   0.842  1.00  0.00     0.060 A 
ATOM     29  C   UNL     1      -3.938  -3.864   1.837  1.00  0.00     0.016 A 
ATOM     30  C   UNL     1      -5.610  -5.478   1.153  1.00  0.00     0.016 A 
ATOM     31  C   UNL     1      -4.345  -3.998   3.164  1.00  0.00     0.010 A 
ATOM     32  C   UNL     1      -6.058  -5.562   2.474  1.00  0.00     0.010 A 
ATOM     33  C   UNL     1      -5.403  -4.855   3.498  1.00  0.00    -0.014 A 
BRANCH  33  34
ATOM     34  C   UNL     1      -5.793  -5.067   4.917  1.00  0.00     0.031 A 
ATOM     35  C   UNL     1      -5.633  -6.428   5.542  1.00  0.00     0.074 A 
ATOM     36  C   UNL     1      -6.298  -4.051   5.643  1.00  0.00     0.049 A 
ATOM     37  N   UNL     1      -6.083  -6.872   6.687  1.00  0.00    -0.248 NA
ATOM     38  C   UNL     1      -4.874  -7.424   4.769  1.00  0.00     0.031 C 
ATOM     39  C   UNL     1      -6.463  -2.675   5.173  1.00  0.00     0.029 A 
ATOM     40  N   UNL     1      -6.773  -4.023   6.930  1.00  0.00    -0.354 N 
ATOM     41  C   UNL     1      -5.709  -8.210   6.750  1.00  0.00     0.074 A 
ATOM     42  C   UNL     1      -4.991  -8.505   5.529  1.00  0.00     0.031 C 
ATOM     43  C   UNL     1      -6.992  -1.935   6.160  1.00  0.00     0.029 A 
ATOM     44  C   UNL     1      -7.263  -2.796   7.307  1.00  0.00     0.049 A 
ATOM     45  H   UNL     1      -6.763  -4.807   7.526  1.00  0.00     0.167 HD
ATOM     46  C   UNL     1      -5.949  -9.110   7.735  1.00  0.00     0.037 A 
ATOM     47  C   UNL     1      -7.897  -2.415   8.433  1.00  0.00     0.037 A 
ATOM     48  C   UNL     1      -6.626  -8.798   8.967  1.00  0.00     0.049 A 
ATOM     49  C   UNL     1      -8.159  -3.431   9.509  1.00  0.00     0.074 A 
ATOM     50  C   UNL     1      -6.918  -9.637  10.029  1.00  0.00     0.029 A 
ATOM     51  N   UNL     1      -7.101  -7.541   9.311  1.00  0.00    -0.354 N 
ATOM     52  N   UNL     1      -7.853  -4.706   9.529  1.00  0.00    -0.248 NA
ATOM     53  C   UNL     1      -8.864  -2.959  10.709  1.00  0.00     0.031 C 
ATOM     54  C   UNL     1      -7.588  -8.892  11.006  1.00  0.00     0.029 A 
ATOM     55  C   UNL     1      -7.686  -7.581  10.566  1.00  0.00     0.049 A 
ATOM     56  H   UNL     1      -7.034  -6.738   8.745  1.00  0.00     0.167 HD
ATOM     57  C   UNL     1      -8.321  -5.189  10.746  1.00  0.00     0.074 A 
ATOM     58  C   UNL     1      -8.914  -4.064  11.441  1.00  0.00     0.031 C 
ATOM     59  C   UNL     1      -8.268  -6.450  11.241  1.00  0.00     0.037 A 
BRANCH  46  60
ATOM     60  C   UNL     1      -5.506 -10.527   7.503  1.00  0.00     0.058 A 
ATOM     61  C   UNL     1      -4.159 -10.908   7.587  1.00  0.00     0.135 A 
ATOM     62  C   UNL     1      -6.452 -11.524   7.210  1.00  0.00     0.135 A 
ATOM     63  F   UNL     1      -3.212  -9.992   7.846  1.00  0.00    -0.206 F 
ATOM     64  C   UNL     1      -3.760 -12.223   7.363  1.00  0.00     0.059 A 
ATOM     65  C   UNL     1      -6.078 -12.849   7.004  1.00  0.00     0.059 A 
ATOM     66  F   UNL     1      -7.754 -11.213   7.117  1.00  0.00    -0.206 F 
ATOM     67  C   UNL     1      -4.727 -13.185   7.066  1.00  0.00     0.060 A 
BRANCH  67  68
ATOM     68  S   UNL     1      -4.199 -14.887   6.770  1.00  0.00     0.124 S 
ATOM     69  O   UNL     1      -3.681 -14.797   5.409  1.00  0.00    -0.237 OA
ATOM     70  O   UNL     1      -3.202 -15.096   7.815  1.00  0.00    -0.237 OA
ATOM     71  O   UNL     1      -5.431 -15.655   6.923  1.00  0.00    -0.744 OA
ENDBRANCH  67  68
ENDBRANCH  46  60
BRANCH  47  72
ATOM     72  C   UNL     1      -8.356  -1.010   8.579  1.00  0.00     0.058 A 
ATOM     73  C   UNL     1      -7.710  -0.128   9.457  1.00  0.00     0.135 A 
ATOM     74  C   UNL     1      -9.428  -0.514   7.821  1.00  0.00     0.135 A 
ATOM     75  F   UNL     1      -6.687  -0.561  10.210  1.00  0.00    -0.206 F 
ATOM     76  C   UNL     1      -8.113   1.197   9.584  1.00  0.00     0.059 A 
ATOM     77  C   UNL     1      -9.835   0.813   7.913  1.00  0.00     0.059 A 
ATOM     78  F   UNL     1     -10.069  -1.317   6.958  1.00  0.00    -0.206 F 
ATOM     79  C   UNL     1      -9.175   1.659   8.804  1.00  0.00     0.060 A 
BRANCH  79  80
ATOM     80  S   UNL     1      -9.652   3.398   8.920  1.00  0.00     0.124 S 
ATOM     81  O   UNL     1     -10.439   3.404  10.148  1.00  0.00    -0.237 OA
ATOM     82  O   UNL     1      -8.359   4.072   8.987  1.00  0.00    -0.237 OA
ATOM     83  O   UNL     1     -10.401   3.620   7.686  1.00  0.00    -0.744 OA
ENDBRANCH  79  80
ENDBRANCH  47  72
BRANCH  59  84
ATOM     84  C   UNL     1      -8.844  -6.669  12.610  1.00  0.00     0.058 A 
ATOM     85  C   UNL     1     -10.230  -6.742  12.818  1.00  0.00     0.135 A 
ATOM     86  C   UNL     1      -8.000  -6.837  13.718  1.00  0.00     0.135 A 
ATOM     87  F   UNL     1     -11.077  -6.582  11.790  1.00  0.00    -0.206 F 
ATOM     88  C   UNL     1     -10.761  -6.951  14.086  1.00  0.00     0.059 A 
ATOM     89  C   UNL     1      -8.510  -7.065  14.992  1.00  0.00     0.059 A 
ATOM     90  F   UNL     1      -6.668  -6.783  13.568  1.00  0.00    -0.206 F 
ATOM     91  C   UNL     1      -9.893  -7.107  15.168  1.00  0.00     0.060 A 
BRANCH  91  92
ATOM     92  S   UNL     1     -10.588  -7.397  16.809  1.00  0.00     0.124 S 
ATOM     93  O   UNL     1     -10.980  -6.048  17.204  1.00  0.00    -0.237 OA
ATOM     94  O   UNL     1     -11.684  -8.319  16.532  1.00  0.00    -0.237 OA
ATOM     95  O   UNL     1      -9.470  -7.970  17.553  1.00  0.00    -0.744 OA
ENDBRANCH  91  92
ENDBRANCH  59  84
ENDBRANCH  33  34
ENDBRANCH  26  28
ENDBRANCH  25  26
ENDBRANCH  24  25
ENDBRANCH   1  24
TORSDOF 18
