REMARK SMILES O=C(Nc1ccc(/C=C/C(=O)OCCOC(=O)c2ccc(-c3c4nc(c(-c5c(F)cc(S(=O)(=O)[O-])cc5F)c5ccc([nH]5)c(-c5c(F)cc(S(=O)(=O)[O-])cc5F)c5nc(c(-c6c(F)cc(S(=O)(=O)[O-])cc6F)c6ccc3[nH]6)C=C5)C=C4)cc2)cc1F)NC1CCCC1
REMARK SMILES IDX 13 1 12 2 10 3 11 4 9 5 8 6 7 7 4 8 5 9 85 10 6 11 84 12
REMARK SMILES IDX 86 13 3 14 1 15 2 16 87 17 88 20 89 21 92 22 90 23 91 24
REMARK SMILES IDX 14 25 15 26 16 27 17 28 18 29 19 30 83 31 20 32 82 33 21 34
REMARK SMILES IDX 22 35 23 36 76 37 24 38 81 39 75 40 77 41 25 42 80 43 74 44
REMARK SMILES IDX 73 45 26 47 60 48 39 49 59 50 40 51 43 52 58 53 78 54 41 55
REMARK SMILES IDX 42 56 57 58 79 59 44 60 27 61 28 62 37 63 29 64 30 65 36 66
REMARK SMILES IDX 38 67 31 68 32 69 33 70 34 71 35 72 61 73 62 74 71 75 63 76
REMARK SMILES IDX 64 77 70 78 72 79 65 80 66 81 67 82 68 83 69 84 45 85 46 86
REMARK SMILES IDX 55 87 47 88 48 89 54 90 56 91 49 92 50 93 51 94 52 95 53 96
REMARK H PARENT 3 18 87 19 77 46 43 57
REMARK Flexibility Score: inf
ROOT
ATOM      1  C   UNL     1      13.065  -0.433   1.040  1.00  0.00     0.275 C 
ENDROOT
BRANCH   1   2
ATOM      2  O   UNL     1      11.635  -0.334   0.917  1.00  0.00    -0.459 OA
BRANCH   2   3
ATOM      3  C   UNL     1      10.994  -1.478   0.579  1.00  0.00     0.330 C 
ATOM      4  O   UNL     1      11.521  -2.535   0.263  1.00  0.00    -0.247 OA
BRANCH   3   5
ATOM      5  C   UNL     1       9.526  -1.347   0.651  1.00  0.00     0.094 C 
ATOM      6  C   UNL     1       8.867  -0.286   1.143  1.00  0.00     0.016 C 
BRANCH   6   7
ATOM      7  C   UNL     1       7.402  -0.252   1.193  1.00  0.00    -0.022 A 
ATOM      8  C   UNL     1       4.583  -0.228   1.078  1.00  0.00     0.078 A 
ATOM      9  C   UNL     1       5.252  -1.268   1.726  1.00  0.00     0.030 A 
ATOM     10  C   UNL     1       5.341   0.849   0.598  1.00  0.00     0.147 A 
ATOM     11  C   UNL     1       6.652  -1.288   1.765  1.00  0.00     0.010 A 
ATOM     12  C   UNL     1       6.732   0.845   0.653  1.00  0.00     0.049 A 
ATOM     13  F   UNL     1       4.746   1.927   0.066  1.00  0.00    -0.205 F 
BRANCH   8  14
ATOM     14  N   UNL     1       3.183  -0.333   0.946  1.00  0.00    -0.305 N 
ATOM     15  O   UNL     1       1.130   0.104   0.136  1.00  0.00    -0.248 OA
ATOM     16  C   UNL     1       2.347   0.147  -0.025  1.00  0.00     0.319 C 
ATOM     17  N   UNL     1       2.932   0.532  -1.191  1.00  0.00    -0.335 N 
ATOM     18  H   UNL     1       2.736  -0.831   1.668  1.00  0.00     0.171 HD
ATOM     19  H   UNL     1       3.914   0.486  -1.242  1.00  0.00     0.165 HD
BRANCH  17  20
ATOM     20  C   UNL     1       2.228   1.002  -2.358  1.00  0.00     0.083 C 
ATOM     21  C   UNL     1       2.710   2.388  -2.773  1.00  0.00     0.025 C 
ATOM     22  C   UNL     1       2.554   0.152  -3.584  1.00  0.00     0.025 C 
ATOM     23  C   UNL     1       2.297   2.496  -4.232  1.00  0.00     0.002 C 
ATOM     24  C   UNL     1       2.335   1.071  -4.781  1.00  0.00     0.002 C 
ENDBRANCH  17  20
ENDBRANCH   8  14
ENDBRANCH   6   7
ENDBRANCH   3   5
ENDBRANCH   2   3
ENDBRANCH   1   2
BRANCH   1  25
ATOM     25  C   UNL     1      13.490  -0.535   2.508  1.00  0.00     0.275 C 
BRANCH  25  26
ATOM     26  O   UNL     1      13.063  -1.771   3.110  1.00  0.00    -0.458 OA
BRANCH  26  27
ATOM     27  C   UNL     1      11.837  -1.728   3.687  1.00  0.00     0.338 C 
ATOM     28  O   UNL     1      11.100  -0.758   3.762  1.00  0.00    -0.246 OA
BRANCH  27  29
ATOM     29  C   UNL     1      11.431  -3.070   4.145  1.00  0.00     0.060 A 
ATOM     30  C   UNL     1      10.132  -3.492   3.844  1.00  0.00     0.016 A 
ATOM     31  C   UNL     1      12.265  -3.861   4.940  1.00  0.00     0.016 A 
ATOM     32  C   UNL     1       9.649  -4.689   4.367  1.00  0.00     0.010 A 
ATOM     33  C   UNL     1      11.777  -5.063   5.466  1.00  0.00     0.010 A 
ATOM     34  C   UNL     1      10.457  -5.469   5.206  1.00  0.00    -0.014 A 
BRANCH  34  35
ATOM     35  C   UNL     1       9.867  -6.650   5.884  1.00  0.00     0.031 A 
ATOM     36  C   UNL     1       9.447  -6.547   7.324  1.00  0.00     0.074 A 
ATOM     37  C   UNL     1       9.644  -7.784   5.195  1.00  0.00     0.049 A 
ATOM     38  N   UNL     1       8.874  -7.444   8.084  1.00  0.00    -0.248 NA
ATOM     39  C   UNL     1       9.701  -5.263   7.995  1.00  0.00     0.031 C 
ATOM     40  C   UNL     1       9.977  -7.993   3.787  1.00  0.00     0.029 A 
ATOM     41  N   UNL     1       9.070  -8.968   5.585  1.00  0.00    -0.354 N 
ATOM     42  C   UNL     1       8.696  -6.836   9.321  1.00  0.00     0.074 A 
ATOM     43  C   UNL     1       9.253  -5.503   9.220  1.00  0.00     0.031 C 
ATOM     44  C   UNL     1       9.584  -9.225   3.424  1.00  0.00     0.029 A 
ATOM     45  C   UNL     1       8.996  -9.902   4.579  1.00  0.00     0.049 A 
ATOM     46  H   UNL     1       8.741  -9.133   6.498  1.00  0.00     0.167 HD
ATOM     47  C   UNL     1       8.110  -7.336  10.435  1.00  0.00     0.037 A 
ATOM     48  C   UNL     1       8.509 -11.159   4.587  1.00  0.00     0.037 A 
ATOM     49  C   UNL     1       7.558  -8.662  10.535  1.00  0.00     0.049 A 
ATOM     50  C   UNL     1       7.897 -11.708   5.846  1.00  0.00     0.074 A 
ATOM     51  C   UNL     1       6.963  -9.267  11.629  1.00  0.00     0.029 A 
ATOM     52  N   UNL     1       7.530  -9.588   9.502  1.00  0.00    -0.354 N 
ATOM     53  N   UNL     1       7.746 -11.124   7.011  1.00  0.00    -0.248 NA
ATOM     54  C   UNL     1       7.381 -13.083   5.792  1.00  0.00     0.031 C 
ATOM     55  C   UNL     1       6.601 -10.569  11.266  1.00  0.00     0.029 A 
ATOM     56  C   UNL     1       6.932 -10.760   9.934  1.00  0.00     0.049 A 
ATOM     57  H   UNL     1       7.882  -9.434   8.596  1.00  0.00     0.167 HD
ATOM     58  C   UNL     1       7.096 -12.049   7.820  1.00  0.00     0.074 A 
ATOM     59  C   UNL     1       6.878 -13.231   7.011  1.00  0.00     0.031 C 
ATOM     60  C   UNL     1       6.712 -11.927   9.115  1.00  0.00     0.037 A 
BRANCH  47  61
ATOM     61  C   UNL     1       8.050  -6.444  11.644  1.00  0.00     0.058 A 
ATOM     62  C   UNL     1       8.868  -6.693  12.756  1.00  0.00     0.135 A 
ATOM     63  C   UNL     1       7.166  -5.355  11.710  1.00  0.00     0.135 A 
ATOM     64  F   UNL     1       9.736  -7.717  12.743  1.00  0.00    -0.206 F 
ATOM     65  C   UNL     1       8.812  -5.894  13.894  1.00  0.00     0.059 A 
ATOM     66  C   UNL     1       7.109  -4.529  12.829  1.00  0.00     0.059 A 
ATOM     67  F   UNL     1       6.379  -5.060  10.663  1.00  0.00    -0.206 F 
ATOM     68  C   UNL     1       7.931  -4.812  13.920  1.00  0.00     0.060 A 
BRANCH  68  69
ATOM     69  S   UNL     1       7.919  -3.741  15.374  1.00  0.00     0.124 S 
ATOM     70  O   UNL     1       7.222  -4.570  16.351  1.00  0.00    -0.237 OA
ATOM     71  O   UNL     1       9.344  -3.534  15.616  1.00  0.00    -0.237 OA
ATOM     72  O   UNL     1       7.194  -2.560  14.916  1.00  0.00    -0.744 OA
ENDBRANCH  68  69
ENDBRANCH  47  61
BRANCH  48  73
ATOM     73  C   UNL     1       8.559 -11.967   3.341  1.00  0.00     0.058 A 
ATOM     74  C   UNL     1       9.777 -12.455   2.843  1.00  0.00     0.135 A 
ATOM     75  C   UNL     1       7.397 -12.222   2.598  1.00  0.00     0.135 A 
ATOM     76  F   UNL     1      10.917 -12.233   3.515  1.00  0.00    -0.206 F 
ATOM     77  C   UNL     1       9.845 -13.139   1.635  1.00  0.00     0.059 A 
ATOM     78  C   UNL     1       7.437 -12.924   1.397  1.00  0.00     0.059 A 
ATOM     79  F   UNL     1       6.209 -11.787   3.044  1.00  0.00    -0.206 F 
ATOM     80  C   UNL     1       8.671 -13.360   0.913  1.00  0.00     0.060 A 
BRANCH  80  81
ATOM     81  S   UNL     1       8.786 -14.217  -0.671  1.00  0.00     0.124 S 
ATOM     82  O   UNL     1       9.431 -13.205  -1.502  1.00  0.00    -0.237 OA
ATOM     83  O   UNL     1       9.603 -15.378  -0.334  1.00  0.00    -0.237 OA
ATOM     84  O   UNL     1       7.394 -14.507  -1.000  1.00  0.00    -0.744 OA
ENDBRANCH  80  81
ENDBRANCH  48  73
BRANCH  60  85
ATOM     85  C   UNL     1       5.982 -13.084   9.739  1.00  0.00     0.058 A 
ATOM     86  C   UNL     1       4.608 -12.990  10.012  1.00  0.00     0.135 A 
ATOM     87  C   UNL     1       6.651 -14.254  10.131  1.00  0.00     0.135 A 
ATOM     88  F   UNL     1       3.922 -11.890   9.662  1.00  0.00    -0.206 F 
ATOM     89  C   UNL     1       3.924 -14.011  10.663  1.00  0.00     0.059 A 
ATOM     90  C   UNL     1       5.982 -15.297  10.765  1.00  0.00     0.059 A 
ATOM     91  F   UNL     1       7.963 -14.396   9.884  1.00  0.00    -0.206 F 
ATOM     92  C   UNL     1       4.621 -15.160  11.040  1.00  0.00     0.060 A 
BRANCH  92  93
ATOM     93  S   UNL     1       3.716 -16.485  11.868  1.00  0.00     0.124 S 
ATOM     94  O   UNL     1       3.532 -15.932  13.204  1.00  0.00    -0.237 OA
ATOM     95  O   UNL     1       2.510 -16.594  11.053  1.00  0.00    -0.237 OA
ATOM     96  O   UNL     1       4.627 -17.623  11.778  1.00  0.00    -0.744 OA
ENDBRANCH  92  93
ENDBRANCH  60  85
ENDBRANCH  34  35
ENDBRANCH  27  29
ENDBRANCH  26  27
ENDBRANCH  25  26
ENDBRANCH   1  25
TORSDOF 17
