REMARK SMILES COC(=O)N[C@@H](C(=O)OCCOC(=O)c1ccc(-c2c3nc(c(-c4c(F)cc(S(=O)(=O)[O-])cc4F)c4ccc([nH]4)c(-c4c(F)cc(S(=O)(=O)[O-])cc4F)c4nc(c(-c5c(F)cc(S(=O)(=O)[O-])cc5F)c5ccc2[nH]5)C=C4)C=C3)cc1)C1COC1
REMARK SMILES IDX 11 1 10 2 9 3 7 4 8 5 6 6 5 7 3 8 4 9 2 11 1 12 81 13 82 14
REMARK SMILES IDX 84 15 83 16 12 17 13 18 14 19 15 20 16 21 80 22 17 23 79 24
REMARK SMILES IDX 18 25 19 26 20 27 73 28 21 29 78 30 72 31 74 32 22 33 77 34
REMARK SMILES IDX 71 35 70 36 23 38 57 39 36 40 56 41 37 42 40 43 55 44 75 45
REMARK SMILES IDX 38 46 39 47 54 49 76 50 41 51 24 52 25 53 34 54 26 55 27 56
REMARK SMILES IDX 33 57 35 58 28 59 29 60 30 61 31 62 32 63 58 64 59 65 68 66
REMARK SMILES IDX 60 67 61 68 67 69 69 70 62 71 63 72 64 73 65 74 66 75 42 76
REMARK SMILES IDX 43 77 52 78 44 79 45 80 51 81 53 82 46 83 47 84 48 85 49 86
REMARK SMILES IDX 50 87
REMARK H PARENT 5 10 74 37 40 48
REMARK Flexibility Score: inf
ROOT
ATOM      1  C   UNL     1      -3.680  -5.467  -2.772  1.00  0.00     0.275 C 
ENDROOT
BRANCH   1   2
ATOM      2  C   UNL     1      -3.683  -4.313  -1.771  1.00  0.00     0.274 C 
BRANCH   2   3
ATOM      3  O   UNL     1      -2.339  -3.908  -1.440  1.00  0.00    -0.461 OA
BRANCH   3   4
ATOM      4  C   UNL     1      -1.912  -4.152  -0.166  1.00  0.00     0.329 C 
ATOM      5  O   UNL     1      -2.579  -4.735   0.678  1.00  0.00    -0.250 OA
BRANCH   4   6
ATOM      6  C   UNL     1      -0.591  -3.436   0.135  1.00  0.00     0.203 C 
BRANCH   6   7
ATOM      7  N   UNL     1       0.110  -3.011  -1.077  1.00  0.00    -0.307 N 
ATOM      8  C   UNL     1       0.759  -1.824  -1.233  1.00  0.00     0.407 C 
ATOM      9  O   UNL     1       1.329  -1.517  -2.266  1.00  0.00    -0.225 OA
ATOM     10  H   UNL     1       0.112  -3.632  -1.840  1.00  0.00     0.168 HD
BRANCH   8  11
ATOM     11  O   UNL     1       0.678  -1.052  -0.120  1.00  0.00    -0.453 OA
ATOM     12  C   UNL     1       1.302   0.223  -0.234  1.00  0.00     0.284 C 
ENDBRANCH   8  11
ENDBRANCH   6   7
BRANCH   6  13
ATOM     13  C   UNL     1       0.459  -4.131   0.991  1.00  0.00     0.075 C 
ATOM     14  C   UNL     1       0.081  -5.010   2.194  1.00  0.00     0.168 C 
ATOM     15  C   UNL     1       1.168  -5.387   0.478  1.00  0.00     0.168 C 
ATOM     16  O   UNL     1       1.006  -6.035   1.761  1.00  0.00    -0.380 OA
ENDBRANCH   6  13
ENDBRANCH   4   6
ENDBRANCH   3   4
ENDBRANCH   2   3
ENDBRANCH   1   2
BRANCH   1  17
ATOM     17  O   UNL     1      -3.215  -6.681  -2.153  1.00  0.00    -0.458 OA
BRANCH  17  18
ATOM     18  C   UNL     1      -1.903  -6.943  -2.347  1.00  0.00     0.338 C 
ATOM     19  O   UNL     1      -1.109  -6.282  -2.998  1.00  0.00    -0.246 OA
BRANCH  18  20
ATOM     20  C   UNL     1      -1.470  -8.074  -1.515  1.00  0.00     0.060 A 
ATOM     21  C   UNL     1      -1.156  -7.784  -0.198  1.00  0.00     0.016 A 
ATOM     22  C   UNL     1      -1.093  -9.298  -2.065  1.00  0.00     0.016 A 
ATOM     23  C   UNL     1      -0.308  -8.632   0.503  1.00  0.00     0.010 A 
ATOM     24  C   UNL     1      -0.371 -10.222  -1.284  1.00  0.00     0.010 A 
ATOM     25  C   UNL     1       0.090  -9.879   0.000  1.00  0.00    -0.014 A 
BRANCH  25  26
ATOM     26  C   UNL     1       1.014 -10.739   0.819  1.00  0.00     0.031 A 
ATOM     27  C   UNL     1       2.275 -11.336   0.225  1.00  0.00     0.074 A 
ATOM     28  C   UNL     1       0.785 -10.921   2.141  1.00  0.00     0.049 A 
ATOM     29  N   UNL     1       3.101 -12.213   0.746  1.00  0.00    -0.248 NA
ATOM     30  C   UNL     1       2.654 -10.908  -1.131  1.00  0.00     0.031 C 
ATOM     31  C   UNL     1      -0.348 -10.370   2.892  1.00  0.00     0.029 A 
ATOM     32  N   UNL     1       1.510 -11.583   3.107  1.00  0.00    -0.354 N 
ATOM     33  C   UNL     1       4.049 -12.489  -0.236  1.00  0.00     0.074 A 
ATOM     34  C   UNL     1       3.698 -11.687  -1.387  1.00  0.00     0.031 C 
ATOM     35  C   UNL     1      -0.182 -10.612   4.197  1.00  0.00     0.029 A 
ATOM     36  C   UNL     1       0.967 -11.487   4.369  1.00  0.00     0.049 A 
ATOM     37  H   UNL     1       2.339 -12.078   2.913  1.00  0.00     0.167 HD
ATOM     38  C   UNL     1       5.110 -13.334  -0.183  1.00  0.00     0.037 A 
ATOM     39  C   UNL     1       1.294 -12.084   5.532  1.00  0.00     0.037 A 
ATOM     40  C   UNL     1       5.499 -14.078   0.993  1.00  0.00     0.049 A 
ATOM     41  C   UNL     1       2.434 -13.058   5.551  1.00  0.00     0.074 A 
ATOM     42  C   UNL     1       6.556 -14.962   1.142  1.00  0.00     0.029 A 
ATOM     43  N   UNL     1       4.866 -14.012   2.226  1.00  0.00    -0.354 N 
ATOM     44  N   UNL     1       3.254 -13.385   4.582  1.00  0.00    -0.248 NA
ATOM     45  C   UNL     1       2.672 -13.771   6.812  1.00  0.00     0.031 C 
ATOM     46  C   UNL     1       6.529 -15.470   2.445  1.00  0.00     0.029 A 
ATOM     47  C   UNL     1       5.495 -14.857   3.131  1.00  0.00     0.049 A 
ATOM     48  H   UNL     1       4.085 -13.448   2.429  1.00  0.00     0.167 HD
ATOM     49  C   UNL     1       4.109 -14.340   5.117  1.00  0.00     0.074 A 
ATOM     50  C   UNL     1       3.729 -14.508   6.506  1.00  0.00     0.031 C 
ATOM     51  C   UNL     1       5.108 -15.026   4.509  1.00  0.00     0.037 A 
BRANCH  38  52
ATOM     52  C   UNL     1       5.909 -13.554  -1.445  1.00  0.00     0.058 A 
ATOM     53  C   UNL     1       6.765 -12.580  -1.981  1.00  0.00     0.135 A 
ATOM     54  C   UNL     1       5.857 -14.800  -2.098  1.00  0.00     0.135 A 
ATOM     55  F   UNL     1       6.850 -11.367  -1.411  1.00  0.00    -0.206 F 
ATOM     56  C   UNL     1       7.519 -12.821  -3.128  1.00  0.00     0.059 A 
ATOM     57  C   UNL     1       6.625 -15.074  -3.227  1.00  0.00     0.059 A 
ATOM     58  F   UNL     1       5.060 -15.774  -1.630  1.00  0.00    -0.206 F 
ATOM     59  C   UNL     1       7.444 -14.073  -3.743  1.00  0.00     0.060 A 
BRANCH  59  60
ATOM     60  S   UNL     1       8.433 -14.374  -5.224  1.00  0.00     0.124 S 
ATOM     61  O   UNL     1       7.748 -13.540  -6.208  1.00  0.00    -0.237 OA
ATOM     62  O   UNL     1       9.755 -13.914  -4.815  1.00  0.00    -0.237 OA
ATOM     63  O   UNL     1       8.309 -15.814  -5.431  1.00  0.00    -0.744 OA
ENDBRANCH  59  60
ENDBRANCH  38  52
BRANCH  39  64
ATOM     64  C   UNL     1       0.462 -11.854   6.749  1.00  0.00     0.058 A 
ATOM     65  C   UNL     1       0.991 -11.242   7.895  1.00  0.00     0.135 A 
ATOM     66  C   UNL     1      -0.888 -12.246   6.787  1.00  0.00     0.135 A 
ATOM     67  F   UNL     1       2.279 -10.867   7.922  1.00  0.00    -0.206 F 
ATOM     68  C   UNL     1       0.217 -11.034   9.034  1.00  0.00     0.059 A 
ATOM     69  C   UNL     1      -1.692 -12.008   7.895  1.00  0.00     0.059 A 
ATOM     70  F   UNL     1      -1.450 -12.835   5.720  1.00  0.00    -0.206 F 
ATOM     71  C   UNL     1      -1.126 -11.414   9.020  1.00  0.00     0.060 A 
BRANCH  71  72
ATOM     72  S   UNL     1      -2.138 -11.098  10.482  1.00  0.00     0.124 S 
ATOM     73  O   UNL     1      -1.636 -12.106  11.409  1.00  0.00    -0.237 OA
ATOM     74  O   UNL     1      -1.799  -9.714  10.797  1.00  0.00    -0.237 OA
ATOM     75  O   UNL     1      -3.500 -11.307   9.999  1.00  0.00    -0.744 OA
ENDBRANCH  71  72
ENDBRANCH  39  64
BRANCH  51  76
ATOM     76  C   UNL     1       5.880 -15.997   5.361  1.00  0.00     0.058 A 
ATOM     77  C   UNL     1       5.301 -17.186   5.837  1.00  0.00     0.135 A 
ATOM     78  C   UNL     1       7.210 -15.729   5.720  1.00  0.00     0.135 A 
ATOM     79  F   UNL     1       4.029 -17.488   5.532  1.00  0.00    -0.206 F 
ATOM     80  C   UNL     1       5.997 -18.046   6.680  1.00  0.00     0.059 A 
ATOM     81  C   UNL     1       7.937 -16.593   6.533  1.00  0.00     0.059 A 
ATOM     82  F   UNL     1       7.817 -14.613   5.285  1.00  0.00    -0.206 F 
ATOM     83  C   UNL     1       7.313 -17.738   7.027  1.00  0.00     0.060 A 
BRANCH  83  84
ATOM     84  S   UNL     1       8.201 -18.856   8.132  1.00  0.00     0.124 S 
ATOM     85  O   UNL     1       7.555 -18.578   9.411  1.00  0.00    -0.237 OA
ATOM     86  O   UNL     1       7.916 -20.163   7.549  1.00  0.00    -0.237 OA
ATOM     87  O   UNL     1       9.588 -18.415   8.020  1.00  0.00    -0.744 OA
ENDBRANCH  83  84
ENDBRANCH  51  76
ENDBRANCH  25  26
ENDBRANCH  18  20
ENDBRANCH  17  18
ENDBRANCH   1  17
TORSDOF 17
