REMARK SMILES C=CCN(CC(=O)OCCOC(=O)c1ccc(-c2c3nc(c(-c4c(F)cc(S(=O)(=O)[O-])cc4F)c4ccc([nH]4)c(-c4c(F)cc(S(=O)(=O)[O-])cc4F)c4nc(c(-c5c(F)cc(S(=O)(=O)[O-])cc5F)c5ccc2[nH]5)C=C4)C=C3)cc1)C(=O)C1C[NH2+]C1
REMARK SMILES IDX 9 1 8 2 6 3 7 4 5 5 4 6 3 7 2 8 1 9 80 10 81 11 82 12 83 13
REMARK SMILES IDX 85 14 84 15 10 18 11 19 12 20 13 21 14 22 15 23 79 24 16 25
REMARK SMILES IDX 78 26 17 27 18 28 19 29 72 30 20 31 77 32 71 33 73 34 21 35
REMARK SMILES IDX 76 36 70 37 69 38 22 40 56 41 35 42 55 43 36 44 39 45 54 46
REMARK SMILES IDX 74 47 37 48 38 49 53 51 75 52 40 53 23 54 24 55 33 56 25 57
REMARK SMILES IDX 26 58 32 59 34 60 27 61 28 62 29 63 30 64 31 65 57 66 58 67
REMARK SMILES IDX 67 68 59 69 60 70 66 71 68 72 61 73 62 74 63 75 64 76 65 77
REMARK SMILES IDX 41 78 42 79 51 80 43 81 44 82 50 83 52 84 45 85 46 86 47 87
REMARK SMILES IDX 48 88 49 89
REMARK H PARENT 84 16 84 17 73 39 39 50
REMARK Flexibility Score: inf
ROOT
ATOM      1  C   UNL     1      -5.732   1.824   1.400  1.00  0.00     0.274 C 
ENDROOT
BRANCH   1   2
ATOM      2  O   UNL     1      -4.302   1.711   1.266  1.00  0.00    -0.461 OA
BRANCH   2   3
ATOM      3  C   UNL     1      -3.690   2.784   0.695  1.00  0.00     0.325 C 
ATOM      4  O   UNL     1      -4.275   3.779   0.277  1.00  0.00    -0.250 OA
BRANCH   3   5
ATOM      5  C   UNL     1      -2.166   2.706   0.727  1.00  0.00     0.242 C 
BRANCH   5   6
ATOM      6  N   UNL     1      -1.564   1.399   0.993  1.00  0.00    -0.327 N 
BRANCH   6   7
ATOM      7  C   UNL     1      -1.409   0.508  -0.148  1.00  0.00     0.147 C 
BRANCH   7   8
ATOM      8  C   UNL     1      -0.042   0.751  -0.727  1.00  0.00    -0.014 C 
ATOM      9  C   UNL     1       1.003  -0.070  -0.553  1.00  0.00     0.006 C 
ENDBRANCH   7   8
ENDBRANCH   6   7
BRANCH   6  10
ATOM     10  C   UNL     1      -1.103   0.948   2.236  1.00  0.00     0.237 C 
ATOM     11  O   UNL     1      -0.799  -0.247   2.383  1.00  0.00    -0.274 OA
BRANCH  10  12
ATOM     12  C   UNL     1      -0.951   1.941   3.404  1.00  0.00     0.188 C 
ATOM     13  C   UNL     1       0.165   1.581   4.427  1.00  0.00     0.280 C 
ATOM     14  C   UNL     1      -0.128   3.242   3.251  1.00  0.00     0.280 C 
ATOM     15  N   UNL     1       0.421   3.026   4.604  1.00  0.00    -0.345 N 
ATOM     16  H   UNL     1       1.407   3.271   4.704  1.00  0.00     0.346 HD
ATOM     17  H   UNL     1       0.060   3.534   5.411  1.00  0.00     0.346 HD
ENDBRANCH  10  12
ENDBRANCH   6  10
ENDBRANCH   5   6
ENDBRANCH   3   5
ENDBRANCH   2   3
ENDBRANCH   1   2
BRANCH   1  18
ATOM     18  C   UNL     1      -6.121   2.296   2.800  1.00  0.00     0.275 C 
BRANCH  18  19
ATOM     19  O   UNL     1      -5.437   3.520   3.131  1.00  0.00    -0.458 OA
BRANCH  19  20
ATOM     20  C   UNL     1      -4.668   3.467   4.239  1.00  0.00     0.338 C 
ATOM     21  O   UNL     1      -4.522   2.503   4.984  1.00  0.00    -0.246 OA
BRANCH  20  22
ATOM     22  C   UNL     1      -3.978   4.747   4.486  1.00  0.00     0.060 A 
ATOM     23  C   UNL     1      -3.312   5.429   3.466  1.00  0.00     0.016 A 
ATOM     24  C   UNL     1      -3.877   5.192   5.807  1.00  0.00     0.016 A 
ATOM     25  C   UNL     1      -2.464   6.495   3.787  1.00  0.00     0.010 A 
ATOM     26  C   UNL     1      -3.090   6.303   6.113  1.00  0.00     0.010 A 
ATOM     27  C   UNL     1      -2.333   6.936   5.115  1.00  0.00    -0.014 A 
BRANCH  27  28
ATOM     28  C   UNL     1      -1.381   8.022   5.484  1.00  0.00     0.031 A 
ATOM     29  C   UNL     1      -0.229   7.744   6.418  1.00  0.00     0.074 A 
ATOM     30  C   UNL     1      -1.543   9.265   4.992  1.00  0.00     0.049 A 
ATOM     31  N   UNL     1       0.620   8.581   6.962  1.00  0.00    -0.248 NA
ATOM     32  C   UNL     1      -0.007   6.340   6.797  1.00  0.00     0.031 C 
ATOM     33  C   UNL     1      -2.590   9.676   4.056  1.00  0.00     0.029 A 
ATOM     34  N   UNL     1      -0.822  10.412   5.212  1.00  0.00    -0.354 N 
ATOM     35  C   UNL     1       1.452   7.812   7.769  1.00  0.00     0.074 A 
ATOM     36  C   UNL     1       1.003   6.441   7.649  1.00  0.00     0.031 C 
ATOM     37  C   UNL     1      -2.420  10.972   3.752  1.00  0.00     0.029 A 
ATOM     38  C   UNL     1      -1.296  11.500   4.520  1.00  0.00     0.049 A 
ATOM     39  H   UNL     1      -0.040  10.451   5.808  1.00  0.00     0.167 HD
ATOM     40  C   UNL     1       2.493   8.208   8.542  1.00  0.00     0.037 A 
ATOM     41  C   UNL     1      -0.892  12.785   4.519  1.00  0.00     0.037 A 
ATOM     42  C   UNL     1       2.965   9.564   8.644  1.00  0.00     0.049 A 
ATOM     43  C   UNL     1       0.244  13.210   5.402  1.00  0.00     0.074 A 
ATOM     44  C   UNL     1       4.008  10.061   9.407  1.00  0.00     0.029 A 
ATOM     45  N   UNL     1       2.432  10.640   7.951  1.00  0.00    -0.354 N 
ATOM     46  N   UNL     1       0.975  12.481   6.210  1.00  0.00    -0.248 NA
ATOM     47  C   UNL     1       0.596  14.636   5.388  1.00  0.00     0.031 C 
ATOM     48  C   UNL     1       4.094  11.442   9.189  1.00  0.00     0.029 A 
ATOM     49  C   UNL     1       3.120  11.799   8.271  1.00  0.00     0.049 A 
ATOM     50  H   UNL     1       1.676  10.588   7.323  1.00  0.00     0.167 HD
ATOM     51  C   UNL     1       1.876  13.359   6.800  1.00  0.00     0.074 A 
ATOM     52  C   UNL     1       1.607  14.671   6.246  1.00  0.00     0.031 C 
ATOM     53  C   UNL     1       2.836  13.100   7.721  1.00  0.00     0.037 A 
BRANCH  40  54
ATOM     54  C   UNL     1       3.178   7.154   9.366  1.00  0.00     0.058 A 
ATOM     55  C   UNL     1       4.082   6.244   8.797  1.00  0.00     0.135 A 
ATOM     56  C   UNL     1       2.936   7.064  10.746  1.00  0.00     0.135 A 
ATOM     57  F   UNL     1       4.336   6.280   7.480  1.00  0.00    -0.206 F 
ATOM     58  C   UNL     1       4.705   5.263   9.564  1.00  0.00     0.059 A 
ATOM     59  C   UNL     1       3.561   6.103  11.535  1.00  0.00     0.059 A 
ATOM     60  F   UNL     1       2.079   7.911  11.338  1.00  0.00    -0.206 F 
ATOM     61  C   UNL     1       4.431   5.196  10.932  1.00  0.00     0.060 A 
BRANCH  61  62
ATOM     62  S   UNL     1       5.233   3.918  11.925  1.00  0.00     0.124 S 
ATOM     63  O   UNL     1       4.380   2.765  11.656  1.00  0.00    -0.237 OA
ATOM     64  O   UNL     1       6.574   3.861  11.352  1.00  0.00    -0.237 OA
ATOM     65  O   UNL     1       5.159   4.452  13.282  1.00  0.00    -0.744 OA
ENDBRANCH  61  62
ENDBRANCH  40  54
BRANCH  41  66
ATOM     66  C   UNL     1      -1.586  13.758   3.641  1.00  0.00     0.058 A 
ATOM     67  C   UNL     1      -0.992  14.192   2.449  1.00  0.00     0.135 A 
ATOM     68  C   UNL     1      -2.881  14.209   3.936  1.00  0.00     0.135 A 
ATOM     69  F   UNL     1       0.250  13.793   2.134  1.00  0.00    -0.206 F 
ATOM     70  C   UNL     1      -1.666  15.027   1.564  1.00  0.00     0.059 A 
ATOM     71  C   UNL     1      -3.583  15.029   3.059  1.00  0.00     0.059 A 
ATOM     72  F   UNL     1      -3.492  13.809   5.062  1.00  0.00    -0.206 F 
ATOM     73  C   UNL     1      -2.967  15.430   1.873  1.00  0.00     0.060 A 
BRANCH  73  74
ATOM     74  S   UNL     1      -3.889  16.410   0.668  1.00  0.00     0.124 S 
ATOM     75  O   UNL     1      -3.403  17.755   0.951  1.00  0.00    -0.237 OA
ATOM     76  O   UNL     1      -3.461  15.830  -0.601  1.00  0.00    -0.237 OA
ATOM     77  O   UNL     1      -5.280  16.148   1.027  1.00  0.00    -0.744 OA
ENDBRANCH  73  74
ENDBRANCH  41  66
BRANCH  53  78
ATOM     78  C   UNL     1       3.670  14.260   8.177  1.00  0.00     0.058 A 
ATOM     79  C   UNL     1       3.184  15.184   9.115  1.00  0.00     0.135 A 
ATOM     80  C   UNL     1       4.970  14.445   7.681  1.00  0.00     0.135 A 
ATOM     81  F   UNL     1       1.945  15.052   9.613  1.00  0.00    -0.206 F 
ATOM     82  C   UNL     1       3.950  16.269   9.527  1.00  0.00     0.059 A 
ATOM     83  C   UNL     1       5.759  15.516   8.090  1.00  0.00     0.059 A 
ATOM     84  F   UNL     1       5.481  13.584   6.787  1.00  0.00    -0.206 F 
ATOM     85  C   UNL     1       5.234  16.431   9.002  1.00  0.00     0.060 A 
BRANCH  85  86
ATOM     86  S   UNL     1       6.226  17.841   9.540  1.00  0.00     0.124 S 
ATOM     87  O   UNL     1       5.696  18.909   8.700  1.00  0.00    -0.237 OA
ATOM     88  O   UNL     1       5.905  17.935  10.961  1.00  0.00    -0.237 OA
ATOM     89  O   UNL     1       7.593  17.423   9.240  1.00  0.00    -0.744 OA
ENDBRANCH  85  86
ENDBRANCH  53  78
ENDBRANCH  27  28
ENDBRANCH  20  22
ENDBRANCH  19  20
ENDBRANCH  18  19
ENDBRANCH   1  18
TORSDOF 19
