REMARK SMILES Cc1cc(OC(F)(F)F)cc2c1O[C@H](C(F)(F)F)C(C(=O)OCCOC(=O)c1ccc(-c3c4nc(c(-c5c(F)cc(S(=O)(=O)[O-])cc5F)c5ccc([nH]5)c(-c5c(F)cc(S(=O)(=O)[O-])cc5F)c5nc(c(-c6c(F)cc(S(=O)(=O)[O-])cc6F)c6ccc3[nH]6)C=C5)C=C4)cc1)=C2
REMARK SMILES IDX 24 1 23 2 22 3 20 4 21 5 19 6 1 7 2 8 3 9 12 10 4 11 11 12
REMARK SMILES IDX 13 13 10 14 94 15 14 16 5 17 6 18 7 19 8 20 9 21 15 22 16 23
REMARK SMILES IDX 17 24 18 25 25 26 26 27 27 28 28 29 29 30 93 31 30 32 92 33
REMARK SMILES IDX 31 34 32 35 33 36 86 37 34 38 91 39 85 40 87 41 35 42 90 43
REMARK SMILES IDX 84 44 83 45 36 47 70 48 49 49 69 50 50 51 53 52 68 53 88 54
REMARK SMILES IDX 51 55 52 56 67 58 89 59 54 60 37 61 38 62 47 63 39 64 40 65
REMARK SMILES IDX 46 66 48 67 41 68 42 69 43 70 44 71 45 72 71 73 72 74 81 75
REMARK SMILES IDX 73 76 74 77 80 78 82 79 75 80 76 81 77 82 78 83 79 84 55 85
REMARK SMILES IDX 56 86 65 87 57 88 58 89 64 90 66 91 59 92 60 93 61 94 62 95
REMARK SMILES IDX 63 96
REMARK H PARENT 87 46 53 57
REMARK Flexibility Score: inf
ROOT
ATOM      1  C   UNL     1       1.498  -7.850   4.402  1.00  0.00     0.275 C 
ENDROOT
BRANCH   1   2
ATOM      2  C   UNL     1       0.734  -7.618   3.099  1.00  0.00     0.275 C 
BRANCH   2   3
ATOM      3  O   UNL     1       0.894  -6.261   2.635  1.00  0.00    -0.459 OA
BRANCH   3   4
ATOM      4  C   UNL     1      -0.149  -5.437   2.893  1.00  0.00     0.338 C 
ATOM      5  O   UNL     1      -1.205  -5.744   3.415  1.00  0.00    -0.246 OA
BRANCH   4   6
ATOM      6  C   UNL     1       0.159  -4.064   2.452  1.00  0.00     0.087 C 
ATOM      7  C   UNL     1       1.039   0.143  -0.346  1.00  0.00     0.048 C 
ATOM      8  C   UNL     1       0.562  -0.147   1.049  1.00  0.00    -0.005 A 
ATOM      9  C   UNL     1       0.208   0.919   1.898  1.00  0.00     0.054 A 
ATOM     10  C   UNL     1       0.495  -1.464   1.528  1.00  0.00     0.131 A 
ATOM     11  C   UNL     1      -0.220   0.682   3.205  1.00  0.00     0.130 A 
ATOM     12  C   UNL     1       0.058  -1.703   2.830  1.00  0.00     0.021 A 
ATOM     13  O   UNL     1       0.891  -2.466   0.683  1.00  0.00    -0.475 OA
ATOM     14  C   UNL     1      -0.287  -0.633   3.665  1.00  0.00     0.058 A 
ATOM     15  C   UNL     1      -0.080  -3.064   3.307  1.00  0.00     0.027 C 
ATOM     16  C   UNL     1       0.588  -3.844   1.033  1.00  0.00     0.316 C 
BRANCH  11  17
ATOM     17  O   UNL     1      -0.601   1.616   4.124  1.00  0.00    -0.406 OA
BRANCH  17  18
ATOM     18  C   UNL     1      -0.658   2.971   3.715  1.00  0.00     0.573 C 
ATOM     19  F   UNL     1       0.565   3.421   3.357  1.00  0.00    -0.132 F 
ATOM     20  F   UNL     1      -1.509   3.128   2.677  1.00  0.00    -0.132 F 
ATOM     21  F   UNL     1      -1.104   3.726   4.741  1.00  0.00    -0.132 F 
ENDBRANCH  17  18
ENDBRANCH  11  17
BRANCH  16  22
ATOM     22  C   UNL     1      -0.448  -4.394   0.040  1.00  0.00     0.430 C 
ATOM     23  F   UNL     1      -0.062  -4.180  -1.242  1.00  0.00    -0.167 F 
ATOM     24  F   UNL     1      -0.603  -5.735   0.171  1.00  0.00    -0.167 F 
ATOM     25  F   UNL     1      -1.665  -3.828   0.197  1.00  0.00    -0.167 F 
ENDBRANCH  16  22
ENDBRANCH   4   6
ENDBRANCH   3   4
ENDBRANCH   2   3
ENDBRANCH   1   2
BRANCH   1  26
ATOM     26  O   UNL     1       0.906  -7.100   5.476  1.00  0.00    -0.458 OA
BRANCH  26  27
ATOM     27  C   UNL     1       1.549  -5.958   5.806  1.00  0.00     0.338 C 
ATOM     28  O   UNL     1       2.578  -5.519   5.318  1.00  0.00    -0.246 OA
BRANCH  27  29
ATOM     29  C   UNL     1       0.794  -5.248   6.846  1.00  0.00     0.060 A 
ATOM     30  C   UNL     1      -0.426  -4.664   6.517  1.00  0.00     0.016 A 
ATOM     31  C   UNL     1       1.356  -5.039   8.104  1.00  0.00     0.016 A 
ATOM     32  C   UNL     1      -1.024  -3.766   7.391  1.00  0.00     0.010 A 
ATOM     33  C   UNL     1       0.680  -4.242   9.035  1.00  0.00     0.010 A 
ATOM     34  C   UNL     1      -0.497  -3.565   8.675  1.00  0.00    -0.014 A 
BRANCH  34  35
ATOM     35  C   UNL     1      -1.200  -2.655   9.621  1.00  0.00     0.031 A 
ATOM     36  C   UNL     1      -0.506  -1.439  10.176  1.00  0.00     0.074 A 
ATOM     37  C   UNL     1      -2.484  -2.911   9.947  1.00  0.00     0.049 A 
ATOM     38  N   UNL     1      -0.947  -0.565  11.044  1.00  0.00    -0.248 NA
ATOM     39  C   UNL     1       0.863  -1.170   9.704  1.00  0.00     0.031 C 
ATOM     40  C   UNL     1      -3.268  -4.047   9.452  1.00  0.00     0.029 A 
ATOM     41  N   UNL     1      -3.368  -2.229  10.745  1.00  0.00    -0.354 N 
ATOM     42  C   UNL     1       0.092   0.338  11.241  1.00  0.00     0.074 A 
ATOM     43  C   UNL     1       1.199  -0.109  10.425  1.00  0.00     0.031 C 
ATOM     44  C   UNL     1      -4.527  -3.948   9.902  1.00  0.00     0.029 A 
ATOM     45  C   UNL     1      -4.622  -2.794  10.787  1.00  0.00     0.049 A 
ATOM     46  H   UNL     1      -3.128  -1.413  11.240  1.00  0.00     0.167 HD
ATOM     47  C   UNL     1       0.113   1.446  12.020  1.00  0.00     0.037 A 
ATOM     48  C   UNL     1      -5.724  -2.441  11.478  1.00  0.00     0.037 A 
ATOM     49  C   UNL     1      -1.010   1.896  12.803  1.00  0.00     0.049 A 
ATOM     50  C   UNL     1      -5.659  -1.239  12.375  1.00  0.00     0.074 A 
ATOM     51  C   UNL     1      -1.093   3.007  13.624  1.00  0.00     0.029 A 
ATOM     52  N   UNL     1      -2.245   1.265  12.856  1.00  0.00    -0.354 N 
ATOM     53  N   UNL     1      -4.660  -0.410  12.563  1.00  0.00    -0.248 NA
ATOM     54  C   UNL     1      -6.856  -0.929  13.167  1.00  0.00     0.031 C 
ATOM     55  C   UNL     1      -2.362   3.023  14.208  1.00  0.00     0.029 A 
ATOM     56  C   UNL     1      -3.090   1.953  13.710  1.00  0.00     0.049 A 
ATOM     57  H   UNL     1      -2.485   0.450  12.360  1.00  0.00     0.167 HD
ATOM     58  C   UNL     1      -5.113   0.530  13.479  1.00  0.00     0.074 A 
ATOM     59  C   UNL     1      -6.480   0.174  13.802  1.00  0.00     0.031 C 
ATOM     60  C   UNL     1      -4.455   1.590  14.005  1.00  0.00     0.037 A 
BRANCH  47  61
ATOM     61  C   UNL     1       1.385   2.248  12.079  1.00  0.00     0.058 A 
ATOM     62  C   UNL     1       1.816   3.031  10.997  1.00  0.00     0.135 A 
ATOM     63  C   UNL     1       2.152   2.284  13.256  1.00  0.00     0.135 A 
ATOM     64  F   UNL     1       1.131   3.023   9.842  1.00  0.00    -0.206 F 
ATOM     65  C   UNL     1       2.970   3.805  11.072  1.00  0.00     0.059 A 
ATOM     66  C   UNL     1       3.295   3.072  13.363  1.00  0.00     0.059 A 
ATOM     67  F   UNL     1       1.786   1.556  14.323  1.00  0.00    -0.206 F 
ATOM     68  C   UNL     1       3.702   3.821  12.261  1.00  0.00     0.060 A 
BRANCH  68  69
ATOM     69  S   UNL     1       5.190   4.841  12.341  1.00  0.00     0.124 S 
ATOM     70  O   UNL     1       6.087   4.120  11.443  1.00  0.00    -0.237 OA
ATOM     71  O   UNL     1       4.710   6.130  11.856  1.00  0.00    -0.237 OA
ATOM     72  O   UNL     1       5.556   4.801  13.754  1.00  0.00    -0.744 OA
ENDBRANCH  68  69
ENDBRANCH  47  61
BRANCH  48  73
ATOM     73  C   UNL     1      -6.970  -3.243  11.341  1.00  0.00     0.058 A 
ATOM     74  C   UNL     1      -8.099  -2.718  10.697  1.00  0.00     0.135 A 
ATOM     75  C   UNL     1      -7.041  -4.567  11.806  1.00  0.00     0.135 A 
ATOM     76  F   UNL     1      -8.085  -1.456  10.242  1.00  0.00    -0.206 F 
ATOM     77  C   UNL     1      -9.254  -3.474  10.518  1.00  0.00     0.059 A 
ATOM     78  C   UNL     1      -8.174  -5.352  11.613  1.00  0.00     0.059 A 
ATOM     79  F   UNL     1      -5.983  -5.124  12.416  1.00  0.00    -0.206 F 
ATOM     80  C   UNL     1      -9.278  -4.794  10.973  1.00  0.00     0.060 A 
BRANCH  80  81
ATOM     81  S   UNL     1     -10.760  -5.784  10.680  1.00  0.00     0.124 S 
ATOM     82  O   UNL     1     -11.714  -5.160  11.589  1.00  0.00    -0.237 OA
ATOM     83  O   UNL     1     -10.997  -5.564   9.256  1.00  0.00    -0.237 OA
ATOM     84  O   UNL     1     -10.339  -7.135  11.037  1.00  0.00    -0.744 OA
ENDBRANCH  80  81
ENDBRANCH  48  73
BRANCH  60  85
ATOM     85  C   UNL     1      -5.198   2.471  14.968  1.00  0.00     0.058 A 
ATOM     86  C   UNL     1      -5.423   2.077  16.295  1.00  0.00     0.135 A 
ATOM     87  C   UNL     1      -5.573   3.771  14.592  1.00  0.00     0.135 A 
ATOM     88  F   UNL     1      -5.092   0.841  16.699  1.00  0.00    -0.206 F 
ATOM     89  C   UNL     1      -5.984   2.948  17.222  1.00  0.00     0.059 A 
ATOM     90  C   UNL     1      -6.113   4.667  15.508  1.00  0.00     0.059 A 
ATOM     91  F   UNL     1      -5.373   4.195  13.334  1.00  0.00    -0.206 F 
ATOM     92  C   UNL     1      -6.311   4.247  16.823  1.00  0.00     0.060 A 
BRANCH  92  93
ATOM     93  S   UNL     1      -6.944   5.394  18.064  1.00  0.00     0.124 S 
ATOM     94  O   UNL     1      -8.268   4.841  18.330  1.00  0.00    -0.237 OA
ATOM     95  O   UNL     1      -5.970   5.251  19.142  1.00  0.00    -0.237 OA
ATOM     96  O   UNL     1      -6.928   6.682  17.378  1.00  0.00    -0.744 OA
ENDBRANCH  92  93
ENDBRANCH  60  85
ENDBRANCH  34  35
ENDBRANCH  27  29
ENDBRANCH  26  27
ENDBRANCH   1  26
TORSDOF 17
