REMARK SMILES COc1ccc(C(=O)c2ccccc2)cc1[C@@H](C)C(=O)OCCOC(=O)c1ccc(-c2c3nc(c(-c4c(F)cc(S(=O)(=O)[O-])cc4F)c4ccc([nH]4)c(-c4c(F)cc(S(=O)(=O)[O-])cc4F)c4nc(c(-c5c(F)cc(S(=O)(=O)[O-])cc5F)c5ccc2[nH]5)C=C4)C=C3)cc1
REMARK SMILES IDX 22 1 21 2 19 3 20 4 17 5 18 6 16 7 3 8 4 9 5 10 15 11 6 12
REMARK SMILES IDX 2 13 1 14 7 15 8 16 9 17 10 18 14 19 11 20 13 21 12 22 23 23
REMARK SMILES IDX 24 24 25 25 26 26 27 27 28 28 92 29 29 30 91 31 30 32 31 33
REMARK SMILES IDX 32 34 85 35 33 36 90 37 84 38 86 39 34 40 89 41 83 42 82 43
REMARK SMILES IDX 35 45 69 46 48 47 68 48 49 49 52 50 67 51 87 52 50 53 51 54
REMARK SMILES IDX 66 56 88 57 53 58 36 59 37 60 46 61 38 62 39 63 45 64 47 65
REMARK SMILES IDX 40 66 41 67 42 68 43 69 44 70 70 71 71 72 80 73 72 74 73 75
REMARK SMILES IDX 79 76 81 77 74 78 75 79 76 80 77 81 78 82 54 83 55 84 64 85
REMARK SMILES IDX 56 86 57 87 63 88 65 89 58 90 59 91 60 92 61 93 62 94
REMARK H PARENT 86 44 52 55
REMARK Flexibility Score: inf
ROOT
ATOM      1  C   UNL     1       4.785  -0.465   4.316  1.00  0.00     0.274 C 
ENDROOT
BRANCH   1   2
ATOM      2  O   UNL     1       4.220   0.522   3.432  1.00  0.00    -0.462 OA
BRANCH   2   3
ATOM      3  C   UNL     1       4.281   0.286   2.098  1.00  0.00     0.313 C 
ATOM      4  O   UNL     1       4.863  -0.675   1.603  1.00  0.00    -0.252 OA
BRANCH   3   5
ATOM      5  C   UNL     1       3.605   1.352   1.236  1.00  0.00     0.130 C 
ATOM      6  C   UNL     1       4.668   2.235   0.586  1.00  0.00     0.025 C 
BRANCH   5   7
ATOM      7  C   UNL     1       2.518   2.204   1.881  1.00  0.00     0.009 A 
ATOM      8  C   UNL     1       1.258   2.353   1.282  1.00  0.00     0.122 A 
ATOM      9  C   UNL     1       0.268   3.151   1.864  1.00  0.00     0.047 A 
ATOM     10  C   UNL     1       0.525   3.825   3.060  1.00  0.00     0.016 A 
ATOM     11  C   UNL     1       2.762   2.916   3.066  1.00  0.00     0.020 A 
ATOM     12  C   UNL     1       1.784   3.728   3.659  1.00  0.00     0.023 A 
BRANCH   8  13
ATOM     13  O   UNL     1       1.046   1.809   0.043  1.00  0.00    -0.496 OA
ATOM     14  C   UNL     1       0.128   0.717   0.087  1.00  0.00     0.278 C 
ENDBRANCH   8  13
BRANCH  12  15
ATOM     15  C   UNL     1       2.055   4.474   4.926  1.00  0.00     0.193 C 
ATOM     16  O   UNL     1       1.146   5.009   5.553  1.00  0.00    -0.289 OA
BRANCH  15  17
ATOM     17  C   UNL     1       3.430   4.553   5.474  1.00  0.00     0.022 A 
ATOM     18  C   UNL     1       3.659   4.095   6.774  1.00  0.00     0.012 A 
ATOM     19  C   UNL     1       4.489   5.040   4.698  1.00  0.00     0.012 A 
ATOM     20  C   UNL     1       4.961   4.072   7.277  1.00  0.00     0.001 A 
ATOM     21  C   UNL     1       5.789   5.005   5.203  1.00  0.00     0.001 A 
ATOM     22  C   UNL     1       6.024   4.514   6.488  1.00  0.00     0.000 A 
ENDBRANCH  15  17
ENDBRANCH  12  15
ENDBRANCH   5   7
ENDBRANCH   3   5
ENDBRANCH   2   3
ENDBRANCH   1   2
BRANCH   1  23
ATOM     23  C   UNL     1       3.681  -1.251   5.023  1.00  0.00     0.275 C 
BRANCH  23  24
ATOM     24  O   UNL     1       3.000  -2.118   4.101  1.00  0.00    -0.458 OA
BRANCH  24  25
ATOM     25  C   UNL     1       1.889  -1.592   3.538  1.00  0.00     0.338 C 
ATOM     26  O   UNL     1       1.386  -0.504   3.753  1.00  0.00    -0.246 OA
BRANCH  25  27
ATOM     27  C   UNL     1       1.387  -2.513   2.514  1.00  0.00     0.060 A 
ATOM     28  C   UNL     1       1.676  -2.245   1.175  1.00  0.00     0.016 A 
ATOM     29  C   UNL     1       0.544  -3.565   2.869  1.00  0.00     0.016 A 
ATOM     30  C   UNL     1       1.077  -3.004   0.173  1.00  0.00     0.010 A 
ATOM     31  C   UNL     1      -0.023  -4.349   1.862  1.00  0.00     0.010 A 
ATOM     32  C   UNL     1       0.220  -4.060   0.506  1.00  0.00    -0.014 A 
BRANCH  32  33
ATOM     33  C   UNL     1      -0.466  -4.846  -0.549  1.00  0.00     0.031 A 
ATOM     34  C   UNL     1      -1.963  -4.783  -0.668  1.00  0.00     0.074 A 
ATOM     35  C   UNL     1       0.245  -5.631  -1.380  1.00  0.00     0.049 A 
ATOM     36  N   UNL     1      -2.772  -5.551  -1.348  1.00  0.00    -0.248 NA
ATOM     37  C   UNL     1      -2.639  -3.716   0.089  1.00  0.00     0.031 C 
ATOM     38  C   UNL     1       1.705  -5.731  -1.409  1.00  0.00     0.029 A 
ATOM     39  N   UNL     1      -0.169  -6.507  -2.351  1.00  0.00    -0.354 N 
ATOM     40  C   UNL     1      -4.054  -5.097  -1.064  1.00  0.00     0.074 A 
ATOM     41  C   UNL     1      -3.916  -3.979  -0.156  1.00  0.00     0.031 C 
ATOM     42  C   UNL     1       2.065  -6.620  -2.348  1.00  0.00     0.029 A 
ATOM     43  C   UNL     1       0.862  -7.204  -2.935  1.00  0.00     0.049 A 
ATOM     44  H   UNL     1      -1.113  -6.626  -2.605  1.00  0.00     0.167 HD
ATOM     45  C   UNL     1      -5.237  -5.580  -1.514  1.00  0.00     0.037 A 
ATOM     46  C   UNL     1       0.841  -8.232  -3.804  1.00  0.00     0.037 A 
ATOM     47  C   UNL     1      -5.358  -6.673  -2.444  1.00  0.00     0.049 A 
ATOM     48  C   UNL     1      -0.481  -8.777  -4.264  1.00  0.00     0.074 A 
ATOM     49  C   UNL     1      -6.509  -7.246  -2.956  1.00  0.00     0.029 A 
ATOM     50  N   UNL     1      -4.288  -7.348  -3.012  1.00  0.00    -0.354 N 
ATOM     51  N   UNL     1      -1.690  -8.385  -3.938  1.00  0.00    -0.248 NA
ATOM     52  C   UNL     1      -0.447  -9.915  -5.194  1.00  0.00     0.031 C 
ATOM     53  C   UNL     1      -6.134  -8.284  -3.817  1.00  0.00     0.029 A 
ATOM     54  C   UNL     1      -4.750  -8.334  -3.867  1.00  0.00     0.049 A 
ATOM     55  H   UNL     1      -3.339  -7.155  -2.833  1.00  0.00     0.167 HD
ATOM     56  C   UNL     1      -2.559  -9.214  -4.636  1.00  0.00     0.074 A 
ATOM     57  C   UNL     1      -1.739 -10.128  -5.405  1.00  0.00     0.031 C 
ATOM     58  C   UNL     1      -3.914  -9.219  -4.638  1.00  0.00     0.037 A 
BRANCH  45  59
ATOM     59  C   UNL     1      -6.493  -4.957  -0.977  1.00  0.00     0.058 A 
ATOM     60  C   UNL     1      -6.937  -3.696  -1.402  1.00  0.00     0.135 A 
ATOM     61  C   UNL     1      -7.278  -5.648  -0.039  1.00  0.00     0.135 A 
ATOM     62  F   UNL     1      -6.213  -2.987  -2.282  1.00  0.00    -0.206 F 
ATOM     63  C   UNL     1      -8.104  -3.130  -0.898  1.00  0.00     0.059 A 
ATOM     64  C   UNL     1      -8.460  -5.111   0.463  1.00  0.00     0.059 A 
ATOM     65  F   UNL     1      -6.897  -6.857   0.402  1.00  0.00    -0.206 F 
ATOM     66  C   UNL     1      -8.856  -3.843   0.038  1.00  0.00     0.060 A 
BRANCH  66  67
ATOM     67  S   UNL     1     -10.366  -3.098   0.691  1.00  0.00     0.124 S 
ATOM     68  O   UNL     1      -9.825  -2.141   1.650  1.00  0.00    -0.237 OA
ATOM     69  O   UNL     1     -10.976  -2.521  -0.503  1.00  0.00    -0.237 OA
ATOM     70  O   UNL     1     -11.081  -4.232   1.269  1.00  0.00    -0.744 OA
ENDBRANCH  66  67
ENDBRANCH  45  59
BRANCH  46  71
ATOM     71  C   UNL     1       2.121  -8.834  -4.260  1.00  0.00     0.058 A 
ATOM     72  C   UNL     1       2.589  -8.628  -5.564  1.00  0.00     0.135 A 
ATOM     73  C   UNL     1       2.918  -9.591  -3.387  1.00  0.00     0.135 A 
ATOM     74  F   UNL     1       1.857  -7.919  -6.436  1.00  0.00    -0.206 F 
ATOM     75  C   UNL     1       3.806  -9.152  -5.991  1.00  0.00     0.059 A 
ATOM     76  C   UNL     1       4.148 -10.106  -3.783  1.00  0.00     0.059 A 
ATOM     77  F   UNL     1       2.518  -9.805  -2.124  1.00  0.00    -0.206 F 
ATOM     78  C   UNL     1       4.581  -9.886  -5.090  1.00  0.00     0.060 A 
BRANCH  78  79
ATOM     79  S   UNL     1       6.192 -10.500  -5.626  1.00  0.00     0.124 S 
ATOM     80  O   UNL     1       5.814 -11.668  -6.411  1.00  0.00    -0.237 OA
ATOM     81  O   UNL     1       6.722  -9.367  -6.380  1.00  0.00    -0.237 OA
ATOM     82  O   UNL     1       6.878 -10.777  -4.367  1.00  0.00    -0.744 OA
ENDBRANCH  78  79
ENDBRANCH  46  71
BRANCH  58  83
ATOM     83  C   UNL     1      -4.601 -10.209  -5.532  1.00  0.00     0.058 A 
ATOM     84  C   UNL     1      -4.739 -11.556  -5.165  1.00  0.00     0.135 A 
ATOM     85  C   UNL     1      -5.196  -9.785  -6.730  1.00  0.00     0.135 A 
ATOM     86  F   UNL     1      -4.181 -12.008  -4.032  1.00  0.00    -0.206 F 
ATOM     87  C   UNL     1      -5.444 -12.453  -5.961  1.00  0.00     0.059 A 
ATOM     88  C   UNL     1      -5.919 -10.661  -7.533  1.00  0.00     0.059 A 
ATOM     89  F   UNL     1      -5.095  -8.504  -7.118  1.00  0.00    -0.206 F 
ATOM     90  C   UNL     1      -6.034 -11.994  -7.142  1.00  0.00     0.060 A 
BRANCH  90  91
ATOM     91  S   UNL     1      -7.000 -13.151  -8.137  1.00  0.00     0.124 S 
ATOM     92  O   UNL     1      -5.949 -13.906  -8.811  1.00  0.00    -0.237 OA
ATOM     93  O   UNL     1      -7.756 -13.883  -7.125  1.00  0.00    -0.237 OA
ATOM     94  O   UNL     1      -7.795 -12.277  -8.994  1.00  0.00    -0.744 OA
ENDBRANCH  90  91
ENDBRANCH  58  83
ENDBRANCH  32  33
ENDBRANCH  25  27
ENDBRANCH  24  25
ENDBRANCH  23  24
ENDBRANCH   1  23
TORSDOF 18
