REMARK SMILES CC[N@@H+]1CC[C@H](C[NH2+]Cc2cc(C(=O)OCCOC(=O)c3ccc(-c4c5nc(c(-c6c(F)cc(S(=O)(=O)[O-])cc6F)c6ccc([nH]6)c(-c6c(F)cc(S(=O)(=O)[O-])cc6F)c6nc(c(-c7c(F)cc(S(=O)(=O)[O-])cc7F)c7ccc4[nH]7)C=C6)C=C5)cc3)cs2)C1
REMARK SMILES IDX 16 1 15 2 13 3 14 4 12 5 10 6 11 7 88 8 87 9 9 10 8 11 7 14
REMARK SMILES IDX 6 15 3 16 4 17 89 18 5 20 2 21 1 22 17 23 18 24 19 25 20 26
REMARK SMILES IDX 21 27 22 28 86 29 23 30 85 31 24 32 25 33 26 34 79 35 27 36
REMARK SMILES IDX 84 37 78 38 80 39 28 40 83 41 77 42 76 43 29 45 63 46 42 47
REMARK SMILES IDX 62 48 43 49 46 50 61 51 81 52 44 53 45 54 60 56 82 57 47 58
REMARK SMILES IDX 30 59 31 60 40 61 32 62 33 63 39 64 41 65 34 66 35 67 36 68
REMARK SMILES IDX 37 69 38 70 64 71 65 72 74 73 66 74 67 75 73 76 75 77 68 78
REMARK SMILES IDX 69 79 70 80 71 81 72 82 48 83 49 84 58 85 50 86 51 87 57 88
REMARK SMILES IDX 59 89 52 90 53 91 54 92 55 93 56 94
REMARK H PARENT 8 12 8 13 3 19 80 44 46 55
REMARK Flexibility Score: inf
ROOT
ATOM      1  C   UNL     1      -7.129  -5.922  -6.643  1.00  0.00     0.275 C 
ENDROOT
BRANCH   1   2
ATOM      2  O   UNL     1      -5.825  -6.033  -6.044  1.00  0.00    -0.458 OA
BRANCH   2   3
ATOM      3  C   UNL     1      -4.897  -5.136  -6.500  1.00  0.00     0.339 C 
ATOM      4  O   UNL     1      -5.123  -4.289  -7.348  1.00  0.00    -0.246 OA
BRANCH   3   5
ATOM      5  C   UNL     1      -3.587  -5.281  -5.864  1.00  0.00     0.071 A 
ATOM      6  C   UNL     1      -1.831  -6.122  -4.528  1.00  0.00     0.059 A 
ATOM      7  C   UNL     1      -3.156  -6.268  -4.911  1.00  0.00     0.037 A 
ATOM      8  S   UNL     1      -1.105  -4.794  -5.336  1.00  0.00    -0.142 S 
ATOM      9  C   UNL     1      -2.552  -4.404  -6.142  1.00  0.00     0.081 A 
BRANCH   6  10
ATOM     10  C   UNL     1      -1.039  -7.007  -3.595  1.00  0.00     0.308 C 
BRANCH  10  11
ATOM     11  N   UNL     1       0.076  -6.349  -2.903  1.00  0.00    -0.341 N 
ATOM     12  H   UNL     1       0.691  -7.066  -2.518  1.00  0.00     0.346 HD
ATOM     13  H   UNL     1       0.562  -5.764  -3.583  1.00  0.00     0.346 HD
BRANCH  11  14
ATOM     14  C   UNL     1      -0.376  -5.482  -1.812  1.00  0.00     0.270 C 
BRANCH  14  15
ATOM     15  C   UNL     1       0.788  -4.705  -1.186  1.00  0.00     0.105 C 
ATOM     16  N   UNL     1       1.164  -2.536  -0.162  1.00  0.00    -0.335 N 
ATOM     17  C   UNL     1       2.186  -2.796  -1.191  1.00  0.00     0.262 C 
ATOM     18  C   UNL     1       0.309  -3.739  -0.099  1.00  0.00     0.271 C 
ATOM     19  H   UNL     1       1.602  -2.356   0.742  1.00  0.00     0.348 HD
ATOM     20  C   UNL     1       1.553  -3.799  -2.139  1.00  0.00     0.076 C 
BRANCH  16  21
ATOM     21  C   UNL     1       0.376  -1.331  -0.474  1.00  0.00     0.258 C 
ATOM     22  C   UNL     1       1.092  -0.073   0.003  1.00  0.00     0.071 C 
ENDBRANCH  16  21
ENDBRANCH  14  15
ENDBRANCH  11  14
ENDBRANCH  10  11
ENDBRANCH   6  10
ENDBRANCH   3   5
ENDBRANCH   2   3
ENDBRANCH   1   2
BRANCH   1  23
ATOM     23  C   UNL     1      -8.101  -5.119  -5.774  1.00  0.00     0.275 C 
BRANCH  23  24
ATOM     24  O   UNL     1      -7.703  -3.741  -5.653  1.00  0.00    -0.458 OA
BRANCH  24  25
ATOM     25  C   UNL     1      -7.042  -3.435  -4.512  1.00  0.00     0.338 C 
ATOM     26  O   UNL     1      -6.774  -4.190  -3.592  1.00  0.00    -0.246 OA
BRANCH  25  27
ATOM     27  C   UNL     1      -6.563  -2.046  -4.569  1.00  0.00     0.060 A 
ATOM     28  C   UNL     1      -5.202  -1.836  -4.793  1.00  0.00     0.016 A 
ATOM     29  C   UNL     1      -7.408  -0.972  -4.285  1.00  0.00     0.016 A 
ATOM     30  C   UNL     1      -4.670  -0.551  -4.715  1.00  0.00     0.010 A 
ATOM     31  C   UNL     1      -6.874   0.323  -4.223  1.00  0.00     0.010 A 
ATOM     32  C   UNL     1      -5.497   0.541  -4.417  1.00  0.00    -0.014 A 
BRANCH  32  33
ATOM     33  C   UNL     1      -4.896   1.891  -4.243  1.00  0.00     0.031 A 
ATOM     34  C   UNL     1      -4.853   2.524  -2.878  1.00  0.00     0.074 A 
ATOM     35  C   UNL     1      -4.348   2.531  -5.294  1.00  0.00     0.049 A 
ATOM     36  N   UNL     1      -4.453   3.721  -2.533  1.00  0.00    -0.248 NA
ATOM     37  C   UNL     1      -5.325   1.702  -1.753  1.00  0.00     0.031 C 
ATOM     38  C   UNL     1      -4.281   2.008  -6.660  1.00  0.00     0.029 A 
ATOM     39  N   UNL     1      -3.736   3.757  -5.377  1.00  0.00    -0.354 N 
ATOM     40  C   UNL     1      -4.659   3.812  -1.161  1.00  0.00     0.074 A 
ATOM     41  C   UNL     1      -5.226   2.549  -0.738  1.00  0.00     0.031 C 
ATOM     42  C   UNL     1      -3.645   2.898  -7.439  1.00  0.00     0.029 A 
ATOM     43  C   UNL     1      -3.311   4.077  -6.645  1.00  0.00     0.049 A 
ATOM     44  H   UNL     1      -3.612   4.351  -4.602  1.00  0.00     0.167 HD
ATOM     45  C   UNL     1      -4.400   4.852  -0.332  1.00  0.00     0.037 A 
ATOM     46  C   UNL     1      -2.743   5.202  -7.122  1.00  0.00     0.037 A 
ATOM     47  C   UNL     1      -3.801   6.093  -0.750  1.00  0.00     0.049 A 
ATOM     48  C   UNL     1      -2.487   6.353  -6.187  1.00  0.00     0.074 A 
ATOM     49  C   UNL     1      -3.492   7.203   0.019  1.00  0.00     0.029 A 
ATOM     50  N   UNL     1      -3.407   6.386  -2.047  1.00  0.00    -0.354 N 
ATOM     51  N   UNL     1      -2.724   6.437  -4.900  1.00  0.00    -0.248 NA
ATOM     52  C   UNL     1      -1.898   7.567  -6.771  1.00  0.00     0.031 C 
ATOM     53  C   UNL     1      -2.941   8.178  -0.820  1.00  0.00     0.029 A 
ATOM     54  C   UNL     1      -2.869   7.662  -2.103  1.00  0.00     0.049 A 
ATOM     55  H   UNL     1      -3.498   5.777  -2.816  1.00  0.00     0.167 HD
ATOM     56  C   UNL     1      -2.303   7.706  -4.518  1.00  0.00     0.074 A 
ATOM     57  C   UNL     1      -1.781   8.349  -5.706  1.00  0.00     0.031 C 
ATOM     58  C   UNL     1      -2.349   8.287  -3.293  1.00  0.00     0.037 A 
BRANCH  45  59
ATOM     59  C   UNL     1      -4.797   4.705   1.111  1.00  0.00     0.058 A 
ATOM     60  C   UNL     1      -4.080   3.890   2.000  1.00  0.00     0.135 A 
ATOM     61  C   UNL     1      -5.899   5.415   1.616  1.00  0.00     0.135 A 
ATOM     62  F   UNL     1      -3.029   3.177   1.565  1.00  0.00    -0.206 F 
ATOM     63  C   UNL     1      -4.459   3.760   3.333  1.00  0.00     0.059 A 
ATOM     64  C   UNL     1      -6.281   5.319   2.950  1.00  0.00     0.059 A 
ATOM     65  F   UNL     1      -6.619   6.209   0.808  1.00  0.00    -0.206 F 
ATOM     66  C   UNL     1      -5.564   4.476   3.798  1.00  0.00     0.060 A 
BRANCH  66  67
ATOM     67  S   UNL     1      -6.052   4.294   5.527  1.00  0.00     0.124 S 
ATOM     68  O   UNL     1      -6.690   2.981   5.511  1.00  0.00    -0.237 OA
ATOM     69  O   UNL     1      -4.773   4.368   6.225  1.00  0.00    -0.237 OA
ATOM     70  O   UNL     1      -6.949   5.424   5.747  1.00  0.00    -0.744 OA
ENDBRANCH  66  67
ENDBRANCH  45  59
BRANCH  46  71
ATOM     71  C   UNL     1      -2.404   5.305  -8.566  1.00  0.00     0.058 A 
ATOM     72  C   UNL     1      -1.070   5.309  -9.000  1.00  0.00     0.135 A 
ATOM     73  C   UNL     1      -3.410   5.386  -9.542  1.00  0.00     0.135 A 
ATOM     74  F   UNL     1      -0.073   5.247  -8.104  1.00  0.00    -0.206 F 
ATOM     75  C   UNL     1      -0.744   5.394 -10.350  1.00  0.00     0.059 A 
ATOM     76  C   UNL     1      -3.110   5.446 -10.898  1.00  0.00     0.059 A 
ATOM     77  F   UNL     1      -4.702   5.376  -9.178  1.00  0.00    -0.206 F 
ATOM     78  C   UNL     1      -1.772   5.458 -11.293  1.00  0.00     0.060 A 
BRANCH  78  79
ATOM     79  S   UNL     1      -1.345   5.505 -13.047  1.00  0.00     0.124 S 
ATOM     80  O   UNL     1      -0.930   6.893 -13.211  1.00  0.00    -0.237 OA
ATOM     81  O   UNL     1      -0.285   4.506 -13.134  1.00  0.00    -0.237 OA
ATOM     82  O   UNL     1      -2.596   5.137 -13.704  1.00  0.00    -0.744 OA
ENDBRANCH  78  79
ENDBRANCH  46  71
BRANCH  58  83
ATOM     83  C   UNL     1      -1.797   9.679  -3.170  1.00  0.00     0.058 A 
ATOM     84  C   UNL     1      -2.502  10.794  -3.649  1.00  0.00     0.135 A 
ATOM     85  C   UNL     1      -0.571   9.904  -2.525  1.00  0.00     0.135 A 
ATOM     86  F   UNL     1      -3.676  10.632  -4.279  1.00  0.00    -0.206 F 
ATOM     87  C   UNL     1      -1.999  12.084  -3.511  1.00  0.00     0.059 A 
ATOM     88  C   UNL     1      -0.059  11.187  -2.357  1.00  0.00     0.059 A 
ATOM     89  F   UNL     1       0.138   8.871  -2.041  1.00  0.00    -0.206 F 
ATOM     90  C   UNL     1      -0.776  12.271  -2.863  1.00  0.00     0.060 A 
BRANCH  90  91
ATOM     91  S   UNL     1      -0.147  13.951  -2.662  1.00  0.00     0.124 S 
ATOM     92  O   UNL     1       0.355  14.239  -4.002  1.00  0.00    -0.237 OA
ATOM     93  O   UNL     1      -1.340  14.689  -2.260  1.00  0.00    -0.237 OA
ATOM     94  O   UNL     1       0.873  13.809  -1.626  1.00  0.00    -0.744 OA
ENDBRANCH  90  91
ENDBRANCH  58  83
ENDBRANCH  32  33
ENDBRANCH  25  27
ENDBRANCH  24  25
ENDBRANCH  23  24
ENDBRANCH   1  23
TORSDOF 19
