REMARK SMILES Cc1cc(C)c(S(=O)(=O)n2cc([C@@H](C)[C@@H]([NH3+])C(=O)OCCOC(=O)c3ccc(-c4c5nc(c(-c6c(F)cc(S(=O)(=O)[O-])cc6F)c6ccc([nH]6)c(-c6c(F)cc(S(=O)(=O)[O-])cc6F)c6nc(c(-c7c(F)cc(S(=O)(=O)[O-])cc7F)c7ccc4[nH]7)C=C6)C=C5)cc3)c3ccccc32)c(C)c1
REMARK SMILES IDX 20 1 19 2 17 3 18 4 15 5 13 6 14 7 12 8 10 9 11 10 96 11
REMARK SMILES IDX 91 12 95 13 92 14 94 15 93 16 7 17 8 18 9 19 6 20 1 21 2 22
REMARK SMILES IDX 3 23 99 24 4 25 97 26 5 27 98 28 16 29 21 33 22 34 23 35
REMARK SMILES IDX 24 36 25 37 26 38 90 39 27 40 89 41 28 42 29 43 30 44 83 45
REMARK SMILES IDX 31 46 88 47 82 48 84 49 32 50 87 51 81 52 80 53 33 55 67 56
REMARK SMILES IDX 46 57 66 58 47 59 50 60 65 61 85 62 48 63 49 64 64 66 86 67
REMARK SMILES IDX 51 68 34 69 35 70 44 71 36 72 37 73 43 74 45 75 38 76 39 77
REMARK SMILES IDX 40 78 41 79 42 80 68 81 69 82 78 83 70 84 71 85 77 86 79 87
REMARK SMILES IDX 72 88 73 89 74 90 75 91 76 92 52 93 53 94 62 95 54 96 55 97
REMARK SMILES IDX 61 98 63 99 56 100 57 101 58 102 59 103 60 104
REMARK H PARENT 16 30 16 31 16 32 84 54 50 65
REMARK Flexibility Score: inf
ROOT
ATOM      1  C   UNL     1      -2.398 -10.527  -3.702  1.00  0.00     0.274 C 
ENDROOT
BRANCH   1   2
ATOM      2  O   UNL     1      -2.181  -9.255  -3.043  1.00  0.00    -0.458 OA
BRANCH   2   3
ATOM      3  C   UNL     1      -2.755  -9.122  -1.822  1.00  0.00     0.365 C 
ATOM      4  O   UNL     1      -3.393 -10.022  -1.279  1.00  0.00    -0.245 OA
BRANCH   3   5
ATOM      5  C   UNL     1      -2.616  -7.731  -1.159  1.00  0.00     0.299 C 
BRANCH   5   6
ATOM      6  C   UNL     1      -1.706  -6.631  -1.774  1.00  0.00     0.088 C 
ATOM      7  C   UNL     1      -0.318  -7.024  -2.279  1.00  0.00     0.020 C 
BRANCH   6   8
ATOM      8  C   UNL     1      -1.593  -5.452  -0.798  1.00  0.00    -0.012 A 
ATOM      9  N   UNL     1      -2.018  -3.456   0.094  1.00  0.00    -0.241 N 
ATOM     10  C   UNL     1      -2.284  -4.271  -0.970  1.00  0.00     0.109 A 
ATOM     11  C   UNL     1      -1.289  -4.113   1.057  1.00  0.00     0.064 A 
ATOM     12  C   UNL     1      -0.867  -5.309   0.449  1.00  0.00     0.004 A 
ATOM     13  C   UNL     1      -0.886  -3.738   2.354  1.00  0.00     0.028 A 
ATOM     14  C   UNL     1       0.113  -6.060   1.135  1.00  0.00     0.010 A 
ATOM     15  C   UNL     1       0.035  -4.545   3.022  1.00  0.00     0.002 A 
ATOM     16  C   UNL     1       0.557  -5.673   2.407  1.00  0.00     0.001 A 
BRANCH   9  17
ATOM     17  S   UNL     1      -2.430  -1.820   0.106  1.00  0.00     0.268 S 
ATOM     18  O   UNL     1      -2.988  -1.593   1.425  1.00  0.00    -0.201 OA
ATOM     19  O   UNL     1      -3.212  -1.620  -1.104  1.00  0.00    -0.201 OA
BRANCH  17  20
ATOM     20  C   UNL     1      -0.994  -0.749  -0.052  1.00  0.00     0.094 A 
ATOM     21  C   UNL     1       2.229   2.151   0.045  1.00  0.00     0.044 C 
ATOM     22  C   UNL     1       1.115   1.153  -0.015  1.00  0.00    -0.051 A 
ATOM     23  C   UNL     1      -0.208   1.567   0.082  1.00  0.00     0.008 A 
ATOM     24  C   UNL     1       1.374  -0.203  -0.190  1.00  0.00     0.008 A 
ATOM     25  C   UNL     1      -1.270   0.644   0.067  1.00  0.00    -0.030 A 
ATOM     26  C   UNL     1       0.343  -1.167  -0.260  1.00  0.00    -0.030 A 
ATOM     27  C   UNL     1      -2.651   1.255   0.157  1.00  0.00     0.046 C 
ATOM     28  C   UNL     1       0.840  -2.551  -0.552  1.00  0.00     0.046 C 
ENDBRANCH  17  20
ENDBRANCH   9  17
ENDBRANCH   6   8
ENDBRANCH   5   6
BRANCH   5  29
ATOM     29  N   UNL     1      -4.004  -7.189  -0.995  1.00  0.00    -0.345 N 
ATOM     30  H   UNL     1      -4.415  -7.025  -1.914  1.00  0.00     0.345 HD
ATOM     31  H   UNL     1      -3.967  -6.311  -0.477  1.00  0.00     0.345 HD
ATOM     32  H   UNL     1      -4.574  -7.862  -0.483  1.00  0.00     0.345 HD
ENDBRANCH   5  29
ENDBRANCH   3   5
ENDBRANCH   2   3
ENDBRANCH   1   2
BRANCH   1  33
ATOM     33  C   UNL     1      -1.085 -11.300  -3.868  1.00  0.00     0.275 C 
BRANCH  33  34
ATOM     34  O   UNL     1      -0.687 -11.836  -2.598  1.00  0.00    -0.458 OA
BRANCH  34  35
ATOM     35  C   UNL     1       0.340 -11.210  -1.979  1.00  0.00     0.338 C 
ATOM     36  O   UNL     1       1.230 -10.556  -2.502  1.00  0.00    -0.246 OA
BRANCH  35  37
ATOM     37  C   UNL     1      -0.054 -11.108  -0.561  1.00  0.00     0.060 A 
ATOM     38  C   UNL     1      -0.766 -12.117   0.096  1.00  0.00     0.016 A 
ATOM     39  C   UNL     1       0.051  -9.838  -0.005  1.00  0.00     0.016 A 
ATOM     40  C   UNL     1      -1.505 -11.802   1.236  1.00  0.00     0.010 A 
ATOM     41  C   UNL     1      -0.725  -9.525   1.095  1.00  0.00     0.010 A 
ATOM     42  C   UNL     1      -1.548 -10.482   1.684  1.00  0.00    -0.014 A 
BRANCH  42  43
ATOM     43  C   UNL     1      -2.298 -10.104   2.877  1.00  0.00     0.031 A 
ATOM     44  C   UNL     1      -1.480 -10.089   4.111  1.00  0.00     0.074 A 
ATOM     45  C   UNL     1      -3.547  -9.601   2.937  1.00  0.00     0.049 A 
ATOM     46  N   UNL     1      -1.440 -11.001   5.023  1.00  0.00    -0.248 NA
ATOM     47  C   UNL     1      -0.490  -9.018   4.285  1.00  0.00     0.031 C 
ATOM     48  C   UNL     1      -4.440  -9.208   1.855  1.00  0.00     0.029 A 
ATOM     49  N   UNL     1      -4.261  -9.269   4.052  1.00  0.00    -0.354 N 
ATOM     50  C   UNL     1      -0.568 -10.520   5.988  1.00  0.00     0.074 A 
ATOM     51  C   UNL     1       0.145  -9.426   5.383  1.00  0.00     0.031 C 
ATOM     52  C   UNL     1      -5.488  -8.507   2.355  1.00  0.00     0.029 A 
ATOM     53  C   UNL     1      -5.432  -8.562   3.806  1.00  0.00     0.049 A 
ATOM     54  H   UNL     1      -3.970  -9.511   4.960  1.00  0.00     0.167 HD
ATOM     55  C   UNL     1      -0.658 -10.899   7.291  1.00  0.00     0.037 A 
ATOM     56  C   UNL     1      -6.292  -8.077   4.738  1.00  0.00     0.037 A 
ATOM     57  C   UNL     1      -1.546 -12.022   7.459  1.00  0.00     0.049 A 
ATOM     58  C   UNL     1      -6.085  -8.877   5.973  1.00  0.00     0.074 A 
ATOM     59  C   UNL     1      -1.591 -13.308   6.956  1.00  0.00     0.029 A 
ATOM     60  N   UNL     1      -2.806 -11.771   7.949  1.00  0.00    -0.354 N 
ATOM     61  N   UNL     1      -6.384 -10.143   6.086  1.00  0.00    -0.248 NA
ATOM     62  C   UNL     1      -5.181  -8.360   6.988  1.00  0.00     0.031 C 
ATOM     63  C   UNL     1      -2.976 -13.580   6.746  1.00  0.00     0.029 A 
ATOM     64  C   UNL     1      -3.698 -12.463   7.167  1.00  0.00     0.049 A 
ATOM     65  H   UNL     1      -3.028 -11.200   8.720  1.00  0.00     0.167 HD
ATOM     66  C   UNL     1      -5.399 -10.669   6.907  1.00  0.00     0.074 A 
ATOM     67  C   UNL     1      -4.763  -9.509   7.523  1.00  0.00     0.031 C 
ATOM     68  C   UNL     1      -5.014 -11.975   6.803  1.00  0.00     0.037 A 
BRANCH  55  69
ATOM     69  C   UNL     1      -0.195 -10.049   8.443  1.00  0.00     0.058 A 
ATOM     70  C   UNL     1      -0.018 -10.636   9.709  1.00  0.00     0.135 A 
ATOM     71  C   UNL     1      -0.134  -8.637   8.407  1.00  0.00     0.135 A 
ATOM     72  F   UNL     1      -0.088 -11.969   9.859  1.00  0.00    -0.206 F 
ATOM     73  C   UNL     1       0.169  -9.874  10.862  1.00  0.00     0.059 A 
ATOM     74  C   UNL     1       0.118  -7.862   9.531  1.00  0.00     0.059 A 
ATOM     75  F   UNL     1      -0.411  -7.940   7.297  1.00  0.00    -0.206 F 
ATOM     76  C   UNL     1       0.228  -8.487  10.762  1.00  0.00     0.060 A 
BRANCH  76  77
ATOM     77  S   UNL     1       0.373  -7.497  12.258  1.00  0.00     0.124 S 
ATOM     78  O   UNL     1      -0.946  -7.680  12.853  1.00  0.00    -0.237 OA
ATOM     79  O   UNL     1       1.482  -8.149  12.947  1.00  0.00    -0.237 OA
ATOM     80  O   UNL     1       0.660  -6.160  11.749  1.00  0.00    -0.744 OA
ENDBRANCH  76  77
ENDBRANCH  55  69
BRANCH  56  81
ATOM     81  C   UNL     1      -7.090  -6.822   4.740  1.00  0.00     0.058 A 
ATOM     82  C   UNL     1      -8.079  -6.599   5.718  1.00  0.00     0.135 A 
ATOM     83  C   UNL     1      -6.685  -5.695   3.999  1.00  0.00     0.135 A 
ATOM     84  F   UNL     1      -8.520  -7.614   6.478  1.00  0.00    -0.206 F 
ATOM     85  C   UNL     1      -8.576  -5.324   6.001  1.00  0.00     0.059 A 
ATOM     86  C   UNL     1      -7.173  -4.412   4.259  1.00  0.00     0.059 A 
ATOM     87  F   UNL     1      -5.726  -5.795   3.065  1.00  0.00    -0.206 F 
ATOM     88  C   UNL     1      -8.093  -4.230   5.287  1.00  0.00     0.060 A 
BRANCH  88  89
ATOM     89  S   UNL     1      -8.578  -2.565   5.802  1.00  0.00     0.124 S 
ATOM     90  O   UNL     1      -9.999  -2.546   5.470  1.00  0.00    -0.237 OA
ATOM     91  O   UNL     1      -8.259  -2.580   7.226  1.00  0.00    -0.237 OA
ATOM     92  O   UNL     1      -7.735  -1.696   4.987  1.00  0.00    -0.744 OA
ENDBRANCH  88  89
ENDBRANCH  56  81
BRANCH  68  93
ATOM     93  C   UNL     1      -5.905 -12.923   6.037  1.00  0.00     0.058 A 
ATOM     94  C   UNL     1      -6.185 -12.819   4.662  1.00  0.00     0.135 A 
ATOM     95  C   UNL     1      -6.378 -14.069   6.696  1.00  0.00     0.135 A 
ATOM     96  F   UNL     1      -5.690 -11.810   3.932  1.00  0.00    -0.206 F 
ATOM     97  C   UNL     1      -6.928 -13.789   3.985  1.00  0.00     0.059 A 
ATOM     98  C   UNL     1      -7.094 -15.065   6.034  1.00  0.00     0.059 A 
ATOM     99  F   UNL     1      -6.100 -14.259   7.997  1.00  0.00    -0.206 F 
ATOM    100  C   UNL     1      -7.373 -14.914   4.678  1.00  0.00     0.060 A 
BRANCH 100 101
ATOM    101  S   UNL     1      -8.247 -16.213   3.777  1.00  0.00     0.124 S 
ATOM    102  O   UNL     1      -9.529 -15.581   3.487  1.00  0.00    -0.237 OA
ATOM    103  O   UNL     1      -7.378 -16.440   2.625  1.00  0.00    -0.237 OA
ATOM    104  O   UNL     1      -8.298 -17.318   4.732  1.00  0.00    -0.744 OA
ENDBRANCH 100 101
ENDBRANCH  68  93
ENDBRANCH  42  43
ENDBRANCH  35  37
ENDBRANCH  34  35
ENDBRANCH  33  34
ENDBRANCH   1  33
TORSDOF 19
