REMARK SMILES CC(=O)Nc1ccc(/N=C2\C(=O)N(c3ccc(NC(C)=O)cc3)[C@H](c3ccccc3)[C@H]2CC(=O)OCCOC(=O)c2ccc(-c3c4nc(c(-c5c(F)cc(S(=O)(=O)[O-])cc5F)c5ccc([nH]5)c(-c5c(F)cc(S(=O)(=O)[O-])cc5F)c5nc(c(-c6c(F)cc(S(=O)(=O)[O-])cc6F)c6ccc3[nH]6)C=C5)C=C4)cc2)cc1
REMARK SMILES IDX 36 1 35 2 33 3 34 4 32 5 31 6 9 7 10 8 11 9 12 10 13 11
REMARK SMILES IDX 24 12 8 13 5 14 6 15 108 16 7 17 107 18 4 19 1 20 2 21 3 22
REMARK SMILES IDX 14 24 15 25 23 26 16 27 22 28 17 29 18 30 19 31 20 33 21 34
REMARK SMILES IDX 25 35 26 36 30 37 27 38 29 39 28 40 37 41 38 42 39 43 40 44
REMARK SMILES IDX 41 45 42 46 106 47 43 48 105 49 44 50 45 51 46 52 99 53
REMARK SMILES IDX 47 54 104 55 98 56 100 57 48 58 103 59 97 60 96 61 49 63
REMARK SMILES IDX 83 64 62 65 82 66 63 67 66 68 81 69 101 70 64 71 65 72 80 74
REMARK SMILES IDX 102 75 67 76 50 77 51 78 60 79 52 80 53 81 59 82 61 83 54 84
REMARK SMILES IDX 55 85 56 86 57 87 58 88 84 89 85 90 94 91 86 92 87 93 93 94
REMARK SMILES IDX 95 95 88 96 89 97 90 98 91 99 92 100 68 101 69 102 78 103
REMARK SMILES IDX 70 104 71 105 77 106 79 107 72 108 73 109 74 110 75 111
REMARK SMILES IDX 76 112
REMARK H PARENT 4 23 18 32 100 62 66 73
REMARK Flexibility Score: inf
ROOT
ATOM      1  C   UNL     1       5.871   2.130   7.823  1.00  0.00     0.274 C 
ENDROOT
BRANCH   1   2
ATOM      2  O   UNL     1       6.164   1.247   6.724  1.00  0.00    -0.462 OA
BRANCH   2   3
ATOM      3  C   UNL     1       7.314   0.531   6.791  1.00  0.00     0.306 C 
ATOM      4  O   UNL     1       8.131   0.589   7.699  1.00  0.00    -0.252 OA
BRANCH   3   5
ATOM      5  C   UNL     1       7.500  -0.327   5.559  1.00  0.00     0.135 C 
BRANCH   5   6
ATOM      6  C   UNL     1       6.358  -1.330   5.389  1.00  0.00     0.083 C 
ATOM      7  N   UNL     1       4.406  -0.044   4.695  1.00  0.00    -0.247 NA
ATOM      8  C   UNL     1       5.379  -0.835   4.365  1.00  0.00     0.112 C 
ATOM      9  C   UNL     1       5.657  -1.510   3.051  1.00  0.00     0.273 C 
ATOM     10  O   UNL     1       5.374  -1.031   1.973  1.00  0.00    -0.267 OA
ATOM     11  N   UNL     1       6.224  -2.727   3.390  1.00  0.00    -0.299 N 
ATOM     12  C   UNL     1       6.792  -2.681   4.743  1.00  0.00     0.131 C 
BRANCH   7  13
ATOM     13  C   UNL     1       3.386   0.378   3.832  1.00  0.00     0.064 A 
ATOM     14  C   UNL     1       1.246   1.376   2.252  1.00  0.00     0.041 A 
ATOM     15  C   UNL     1       1.860   2.175   3.227  1.00  0.00     0.028 A 
ATOM     16  C   UNL     1       1.678   0.058   2.112  1.00  0.00     0.028 A 
ATOM     17  C   UNL     1       2.922   1.684   3.995  1.00  0.00     0.030 A 
ATOM     18  C   UNL     1       2.716  -0.442   2.919  1.00  0.00     0.030 A 
BRANCH  14  19
ATOM     19  N   UNL     1       0.201   1.976   1.527  1.00  0.00    -0.326 N 
ATOM     20  C   UNL     1      -0.131   0.430  -0.412  1.00  0.00     0.114 C 
ATOM     21  C   UNL     1      -0.503   1.624   0.415  1.00  0.00     0.221 C 
ATOM     22  O   UNL     1      -1.451   2.341   0.077  1.00  0.00    -0.275 OA
ATOM     23  H   UNL     1      -0.084   2.839   1.905  1.00  0.00     0.169 HD
ENDBRANCH  14  19
ENDBRANCH   7  13
BRANCH  11  24
ATOM     24  C   UNL     1       6.388  -3.786   2.457  1.00  0.00     0.045 A 
ATOM     25  C   UNL     1       6.637  -3.521   1.104  1.00  0.00     0.028 A 
ATOM     26  C   UNL     1       6.168  -5.118   2.820  1.00  0.00     0.028 A 
ATOM     27  C   UNL     1       6.645  -4.546   0.144  1.00  0.00     0.028 A 
ATOM     28  C   UNL     1       6.157  -6.141   1.863  1.00  0.00     0.028 A 
ATOM     29  C   UNL     1       6.378  -5.862   0.513  1.00  0.00     0.041 A 
BRANCH  29  30
ATOM     30  N   UNL     1       6.267  -6.938  -0.391  1.00  0.00    -0.326 N 
ATOM     31  C   UNL     1       6.394  -6.899  -1.766  1.00  0.00     0.221 C 
ATOM     32  H   UNL     1       6.076  -7.819   0.004  1.00  0.00     0.169 HD
ATOM     33  C   UNL     1       6.106  -8.231  -2.414  1.00  0.00     0.114 C 
ATOM     34  O   UNL     1       6.712  -5.933  -2.452  1.00  0.00    -0.275 OA
ENDBRANCH  29  30
ENDBRANCH  11  24
BRANCH  12  35
ATOM     35  C   UNL     1       6.525  -3.856   5.666  1.00  0.00    -0.024 A 
ATOM     36  C   UNL     1       7.566  -4.763   5.949  1.00  0.00     0.006 A 
ATOM     37  C   UNL     1       5.270  -4.073   6.258  1.00  0.00     0.006 A 
ATOM     38  C   UNL     1       7.355  -5.854   6.794  1.00  0.00     0.000 A 
ATOM     39  C   UNL     1       5.068  -5.158   7.115  1.00  0.00     0.000 A 
ATOM     40  C   UNL     1       6.108  -6.049   7.379  1.00  0.00     0.000 A 
ENDBRANCH  12  35
ENDBRANCH   5   6
ENDBRANCH   3   5
ENDBRANCH   2   3
ENDBRANCH   1   2
BRANCH   1  41
ATOM     41  C   UNL     1       4.957   1.464   8.853  1.00  0.00     0.275 C 
BRANCH  41  42
ATOM     42  O   UNL     1       5.721   0.602   9.712  1.00  0.00    -0.458 OA
BRANCH  42  43
ATOM     43  C   UNL     1       5.689  -0.718   9.412  1.00  0.00     0.338 C 
ATOM     44  O   UNL     1       4.982  -1.258   8.578  1.00  0.00    -0.246 OA
BRANCH  43  45
ATOM     45  C   UNL     1       6.760  -1.419  10.154  1.00  0.00     0.060 A 
ATOM     46  C   UNL     1       7.423  -2.470   9.509  1.00  0.00     0.016 A 
ATOM     47  C   UNL     1       7.127  -1.046  11.451  1.00  0.00     0.016 A 
ATOM     48  C   UNL     1       8.473  -3.129  10.147  1.00  0.00     0.010 A 
ATOM     49  C   UNL     1       8.164  -1.722  12.099  1.00  0.00     0.010 A 
ATOM     50  C   UNL     1       8.846  -2.761  11.447  1.00  0.00    -0.014 A 
BRANCH  50  51
ATOM     51  C   UNL     1       9.944  -3.484  12.125  1.00  0.00     0.031 A 
ATOM     52  C   UNL     1       9.694  -4.838  12.718  1.00  0.00     0.074 A 
ATOM     53  C   UNL     1      11.171  -2.936  12.184  1.00  0.00     0.049 A 
ATOM     54  N   UNL     1      10.544  -5.668  13.264  1.00  0.00    -0.248 NA
ATOM     55  C   UNL     1       8.307  -5.324  12.685  1.00  0.00     0.031 C 
ATOM     56  C   UNL     1      11.543  -1.631  11.637  1.00  0.00     0.029 A 
ATOM     57  N   UNL     1      12.331  -3.414  12.735  1.00  0.00    -0.354 N 
ATOM     58  C   UNL     1       9.806  -6.791  13.607  1.00  0.00     0.074 A 
ATOM     59  C   UNL     1       8.431  -6.525  13.232  1.00  0.00     0.031 C 
ATOM     60  C   UNL     1      12.842  -1.405  11.894  1.00  0.00     0.029 A 
ATOM     61  C   UNL     1      13.392  -2.552  12.612  1.00  0.00     0.049 A 
ATOM     62  H   UNL     1      12.397  -4.291  13.177  1.00  0.00     0.167 HD
ATOM     63  C   UNL     1      10.234  -7.944  14.173  1.00  0.00     0.037 A 
ATOM     64  C   UNL     1      14.666  -2.677  13.028  1.00  0.00     0.037 A 
ATOM     65  C   UNL     1      11.588  -8.201  14.582  1.00  0.00     0.049 A 
ATOM     66  C   UNL     1      15.102  -3.933  13.724  1.00  0.00     0.074 A 
ATOM     67  C   UNL     1      12.121  -9.348  15.143  1.00  0.00     0.029 A 
ATOM     68  N   UNL     1      12.622  -7.282  14.492  1.00  0.00    -0.354 N 
ATOM     69  N   UNL     1      14.404  -5.010  13.989  1.00  0.00    -0.248 NA
ATOM     70  C   UNL     1      16.500  -3.990  14.173  1.00  0.00     0.031 C 
ATOM     71  C   UNL     1      13.478  -9.114  15.410  1.00  0.00     0.029 A 
ATOM     72  C   UNL     1      13.786  -7.825  15.007  1.00  0.00     0.049 A 
ATOM     73  H   UNL     1      12.540  -6.375  14.116  1.00  0.00     0.167 HD
ATOM     74  C   UNL     1      15.279  -5.880  14.627  1.00  0.00     0.074 A 
ATOM     75  C   UNL     1      16.557  -5.201  14.713  1.00  0.00     0.031 C 
ATOM     76  C   UNL     1      15.045  -7.130  15.094  1.00  0.00     0.037 A 
BRANCH  63  77
ATOM     77  C   UNL     1       9.201  -9.011  14.365  1.00  0.00     0.058 A 
ATOM     78  C   UNL     1       8.895  -9.903  13.326  1.00  0.00     0.135 A 
ATOM     79  C   UNL     1       8.477  -9.109  15.561  1.00  0.00     0.135 A 
ATOM     80  F   UNL     1       9.550  -9.831  12.157  1.00  0.00    -0.206 F 
ATOM     81  C   UNL     1       7.880 -10.844  13.457  1.00  0.00     0.059 A 
ATOM     82  C   UNL     1       7.458 -10.044  15.714  1.00  0.00     0.059 A 
ATOM     83  F   UNL     1       8.725  -8.264  16.574  1.00  0.00    -0.206 F 
ATOM     84  C   UNL     1       7.153 -10.893  14.648  1.00  0.00     0.060 A 
BRANCH  84  85
ATOM     85  S   UNL     1       5.790 -12.067  14.799  1.00  0.00     0.124 S 
ATOM     86  O   UNL     1       4.685 -11.297  14.235  1.00  0.00    -0.237 OA
ATOM     87  O   UNL     1       6.245 -13.198  13.996  1.00  0.00    -0.237 OA
ATOM     88  O   UNL     1       5.721 -12.311  16.236  1.00  0.00    -0.744 OA
ENDBRANCH  84  85
ENDBRANCH  63  77
BRANCH  64  89
ATOM     89  C   UNL     1      15.620  -1.571  12.788  1.00  0.00     0.058 A 
ATOM     90  C   UNL     1      16.448  -1.567  11.658  1.00  0.00     0.135 A 
ATOM     91  C   UNL     1      15.686  -0.479  13.664  1.00  0.00     0.135 A 
ATOM     92  F   UNL     1      16.412  -2.595  10.796  1.00  0.00    -0.206 F 
ATOM     93  C   UNL     1      17.312  -0.509  11.398  1.00  0.00     0.059 A 
ATOM     94  C   UNL     1      16.539   0.592  13.424  1.00  0.00     0.059 A 
ATOM     95  F   UNL     1      14.904  -0.444  14.754  1.00  0.00    -0.206 F 
ATOM     96  C   UNL     1      17.350   0.566  12.288  1.00  0.00     0.060 A 
BRANCH  96  97
ATOM     97  S   UNL     1      18.409   1.986  11.928  1.00  0.00     0.124 S 
ATOM     98  O   UNL     1      19.622   1.637  12.658  1.00  0.00    -0.237 OA
ATOM     99  O   UNL     1      18.510   1.954  10.472  1.00  0.00    -0.237 OA
ATOM    100  O   UNL     1      17.640   3.103  12.468  1.00  0.00    -0.744 OA
ENDBRANCH  96  97
ENDBRANCH  64  89
BRANCH  76 101
ATOM    101  C   UNL     1      16.197  -7.837  15.739  1.00  0.00     0.058 A 
ATOM    102  C   UNL     1      16.481  -7.659  17.100  1.00  0.00     0.135 A 
ATOM    103  C   UNL     1      17.007  -8.712  15.000  1.00  0.00     0.135 A 
ATOM    104  F   UNL     1      15.735  -6.826  17.842  1.00  0.00    -0.206 F 
ATOM    105  C   UNL     1      17.543  -8.319  17.710  1.00  0.00     0.059 A 
ATOM    106  C   UNL     1      18.070  -9.386  15.591  1.00  0.00     0.059 A 
ATOM    107  F   UNL     1      16.771  -8.911  13.694  1.00  0.00    -0.206 F 
ATOM    108  C   UNL     1      18.336  -9.176  16.945  1.00  0.00     0.060 A 
BRANCH 108 109
ATOM    109  S   UNL     1      19.703 -10.061  17.726  1.00  0.00     0.124 S 
ATOM    110  O   UNL     1      20.817  -9.150  17.483  1.00  0.00    -0.237 OA
ATOM    111  O   UNL     1      19.271 -10.174  19.116  1.00  0.00    -0.237 OA
ATOM    112  O   UNL     1      19.741 -11.319  16.987  1.00  0.00    -0.744 OA
ENDBRANCH 108 109
ENDBRANCH  76 101
ENDBRANCH  50  51
ENDBRANCH  43  45
ENDBRANCH  42  43
ENDBRANCH  41  42
ENDBRANCH   1  41
TORSDOF 20
