REMARK SMILES [NH3+][C@@H](C(=O)OCCOC(=O)c1ccc(-c2c3nc(c(-c4c(F)cc(S(=O)(=O)[O-])cc4F)c4ccc([nH]4)c(-c4c(F)cc(S(=O)(=O)[O-])cc4F)c4nc(c(-c5c(F)cc(S(=O)(=O)[O-])cc5F)c5ccc2[nH]5)C=C4)C=C3)cc1)[C@@H](O)c1cccs1
REMARK SMILES IDX 7 1 6 2 5 3 3 4 4 5 2 6 1 7 77 11 78 12 79 14 80 15 83 16
REMARK SMILES IDX 81 17 82 18 8 19 9 20 10 21 11 22 12 23 76 24 13 25 75 26
REMARK SMILES IDX 14 27 15 28 16 29 69 30 17 31 74 32 68 33 70 34 18 35 73 36
REMARK SMILES IDX 67 37 66 38 19 40 53 41 32 42 52 43 33 44 36 45 51 46 71 47
REMARK SMILES IDX 34 48 35 49 50 51 72 52 37 53 20 54 21 55 30 56 22 57 23 58
REMARK SMILES IDX 29 59 31 60 24 61 25 62 26 63 27 64 28 65 54 66 55 67 64 68
REMARK SMILES IDX 56 69 57 70 63 71 65 72 58 73 59 74 60 75 61 76 62 77 38 78
REMARK SMILES IDX 39 79 48 80 40 81 41 82 47 83 49 84 42 85 43 86 44 87 45 88
REMARK SMILES IDX 46 89
REMARK H PARENT 1 8 1 9 1 10 78 13 70 39 36 50
REMARK Flexibility Score: inf
ROOT
ATOM      1  C   UNL     1       2.200  -4.299  -0.870  1.00  0.00     0.275 C 
ENDROOT
BRANCH   1   2
ATOM      2  C   UNL     1       2.610  -3.153  -1.799  1.00  0.00     0.274 C 
BRANCH   2   3
ATOM      3  O   UNL     1       2.037  -1.898  -1.371  1.00  0.00    -0.458 OA
BRANCH   3   4
ATOM      4  C   UNL     1       1.335  -1.194  -2.313  1.00  0.00     0.368 C 
ATOM      5  O   UNL     1       1.171  -1.589  -3.460  1.00  0.00    -0.245 OA
BRANCH   4   6
ATOM      6  C   UNL     1       0.894   0.193  -1.793  1.00  0.00     0.326 C 
BRANCH   6   7
ATOM      7  N   UNL     1       1.252   0.374  -0.334  1.00  0.00    -0.343 N 
ATOM      8  H   UNL     1       2.234   0.139  -0.193  1.00  0.00     0.345 HD
ATOM      9  H   UNL     1       0.670  -0.239   0.237  1.00  0.00     0.345 HD
ATOM     10  H   UNL     1       1.092   1.344  -0.063  1.00  0.00     0.345 HD
ENDBRANCH   6   7
BRANCH   6  11
ATOM     11  C   UNL     1      -0.600   0.558  -1.966  1.00  0.00     0.224 C 
BRANCH  11  12
ATOM     12  O   UNL     1      -0.755   1.954  -1.651  1.00  0.00    -0.381 OA
ATOM     13  H   UNL     1      -0.263   2.487  -2.294  1.00  0.00     0.211 HD
ENDBRANCH  11  12
BRANCH  11  14
ATOM     14  C   UNL     1      -1.252   0.266  -3.295  1.00  0.00     0.040 A 
ATOM     15  C   UNL     1      -1.679  -0.969  -3.764  1.00  0.00     0.018 A 
ATOM     16  S   UNL     1      -1.657   1.500  -4.420  1.00  0.00    -0.146 S 
ATOM     17  C   UNL     1      -2.341  -0.897  -5.021  1.00  0.00     0.012 A 
ATOM     18  C   UNL     1      -2.427   0.397  -5.474  1.00  0.00     0.065 A 
ENDBRANCH  11  14
ENDBRANCH   6  11
ENDBRANCH   4   6
ENDBRANCH   3   4
ENDBRANCH   2   3
ENDBRANCH   1   2
BRANCH   1  19
ATOM     19  O   UNL     1       0.772  -4.491  -0.867  1.00  0.00    -0.458 OA
BRANCH  19  20
ATOM     20  C   UNL     1       0.122  -3.818   0.114  1.00  0.00     0.338 C 
ATOM     21  O   UNL     1       0.624  -3.124   0.982  1.00  0.00    -0.246 OA
BRANCH  20  22
ATOM     22  C   UNL     1      -1.326  -3.818  -0.153  1.00  0.00     0.060 A 
ATOM     23  C   UNL     1      -1.882  -2.573  -0.435  1.00  0.00     0.016 A 
ATOM     24  C   UNL     1      -2.142  -4.940  -0.055  1.00  0.00     0.016 A 
ATOM     25  C   UNL     1      -3.248  -2.423  -0.649  1.00  0.00     0.010 A 
ATOM     26  C   UNL     1      -3.527  -4.792  -0.242  1.00  0.00     0.010 A 
ATOM     27  C   UNL     1      -4.089  -3.532  -0.536  1.00  0.00    -0.014 A 
BRANCH  27  28
ATOM     28  C   UNL     1      -5.559  -3.335  -0.614  1.00  0.00     0.031 A 
ATOM     29  C   UNL     1      -6.368  -3.316   0.652  1.00  0.00     0.074 A 
ATOM     30  C   UNL     1      -6.163  -3.105  -1.796  1.00  0.00     0.049 A 
ATOM     31  N   UNL     1      -7.665  -3.260   0.808  1.00  0.00    -0.248 NA
ATOM     32  C   UNL     1      -5.609  -3.354   1.913  1.00  0.00     0.031 C 
ATOM     33  C   UNL     1      -5.482  -2.986  -3.085  1.00  0.00     0.029 A 
ATOM     34  N   UNL     1      -7.490  -2.928  -2.101  1.00  0.00    -0.354 N 
ATOM     35  C   UNL     1      -7.883  -3.278   2.180  1.00  0.00     0.074 A 
ATOM     36  C   UNL     1      -6.583  -3.359   2.812  1.00  0.00     0.031 C 
ATOM     37  C   UNL     1      -6.397  -2.769  -4.044  1.00  0.00     0.029 A 
ATOM     38  C   UNL     1      -7.732  -2.788  -3.447  1.00  0.00     0.049 A 
ATOM     39  H   UNL     1      -8.201  -2.904  -1.421  1.00  0.00     0.167 HD
ATOM     40  C   UNL     1      -9.059  -3.235   2.850  1.00  0.00     0.037 A 
ATOM     41  C   UNL     1      -8.896  -2.724  -4.126  1.00  0.00     0.037 A 
ATOM     42  C   UNL     1     -10.350  -3.147   2.216  1.00  0.00     0.049 A 
ATOM     43  C   UNL     1     -10.197  -2.784  -3.367  1.00  0.00     0.074 A 
ATOM     44  C   UNL     1     -11.600  -3.122   2.809  1.00  0.00     0.029 A 
ATOM     45  N   UNL     1     -10.557  -3.069   0.847  1.00  0.00    -0.354 N 
ATOM     46  N   UNL     1     -10.396  -2.855  -2.072  1.00  0.00    -0.248 NA
ATOM     47  C   UNL     1     -11.434  -2.768  -4.162  1.00  0.00     0.031 C 
ATOM     48  C   UNL     1     -12.565  -3.078   1.797  1.00  0.00     0.029 A 
ATOM     49  C   UNL     1     -11.915  -3.021   0.574  1.00  0.00     0.049 A 
ATOM     50  H   UNL     1      -9.844  -3.051   0.168  1.00  0.00     0.167 HD
ATOM     51  C   UNL     1     -11.776  -2.864  -1.897  1.00  0.00     0.074 A 
ATOM     52  C   UNL     1     -12.365  -2.784  -3.217  1.00  0.00     0.031 C 
ATOM     53  C   UNL     1     -12.491  -2.932  -0.745  1.00  0.00     0.037 A 
BRANCH  40  54
ATOM     54  C   UNL     1      -9.005  -3.340   4.349  1.00  0.00     0.058 A 
ATOM     55  C   UNL     1      -8.546  -2.287   5.155  1.00  0.00     0.135 A 
ATOM     56  C   UNL     1      -9.432  -4.516   4.988  1.00  0.00     0.135 A 
ATOM     57  F   UNL     1      -8.107  -1.149   4.595  1.00  0.00    -0.206 F 
ATOM     58  C   UNL     1      -8.480  -2.408   6.540  1.00  0.00     0.059 A 
ATOM     59  C   UNL     1      -9.400  -4.649   6.373  1.00  0.00     0.059 A 
ATOM     60  F   UNL     1      -9.878  -5.555   4.264  1.00  0.00    -0.206 F 
ATOM     61  C   UNL     1      -8.906  -3.595   7.139  1.00  0.00     0.060 A 
BRANCH  61  62
ATOM     62  S   UNL     1      -8.796  -3.747   8.934  1.00  0.00     0.124 S 
ATOM     63  O   UNL     1      -7.356  -3.893   9.126  1.00  0.00    -0.237 OA
ATOM     64  O   UNL     1      -9.371  -2.486   9.391  1.00  0.00    -0.237 OA
ATOM     65  O   UNL     1      -9.591  -4.936   9.225  1.00  0.00    -0.744 OA
ENDBRANCH  61  62
ENDBRANCH  40  54
BRANCH  41  66
ATOM     66  C   UNL     1      -8.888  -2.649  -5.613  1.00  0.00     0.058 A 
ATOM     67  C   UNL     1      -9.333  -1.504  -6.289  1.00  0.00     0.135 A 
ATOM     68  C   UNL     1      -8.444  -3.732  -6.388  1.00  0.00     0.135 A 
ATOM     69  F   UNL     1      -9.786  -0.449  -5.594  1.00  0.00    -0.206 F 
ATOM     70  C   UNL     1      -9.348  -1.437  -7.679  1.00  0.00     0.059 A 
ATOM     71  C   UNL     1      -8.423  -3.680  -7.778  1.00  0.00     0.059 A 
ATOM     72  F   UNL     1      -8.005  -4.852  -5.792  1.00  0.00    -0.206 F 
ATOM     73  C   UNL     1      -8.886  -2.530  -8.415  1.00  0.00     0.060 A 
BRANCH  73  74
ATOM     74  S   UNL     1      -8.863  -2.418 -10.218  1.00  0.00     0.124 S 
ATOM     75  O   UNL     1     -10.282  -2.524 -10.537  1.00  0.00    -0.237 OA
ATOM     76  O   UNL     1      -8.255  -1.109 -10.435  1.00  0.00    -0.237 OA
ATOM     77  O   UNL     1      -8.039  -3.556 -10.614  1.00  0.00    -0.744 OA
ENDBRANCH  73  74
ENDBRANCH  41  66
BRANCH  53  78
ATOM     78  C   UNL     1     -13.992  -2.884  -0.851  1.00  0.00     0.058 A 
ATOM     79  C   UNL     1     -14.736  -3.974  -1.328  1.00  0.00     0.135 A 
ATOM     80  C   UNL     1     -14.698  -1.752  -0.411  1.00  0.00     0.135 A 
ATOM     81  F   UNL     1     -14.111  -5.078  -1.767  1.00  0.00    -0.206 F 
ATOM     82  C   UNL     1     -16.126  -3.938  -1.383  1.00  0.00     0.059 A 
ATOM     83  C   UNL     1     -16.089  -1.704  -0.431  1.00  0.00     0.059 A 
ATOM     84  F   UNL     1     -14.037  -0.685   0.065  1.00  0.00    -0.206 F 
ATOM     85  C   UNL     1     -16.794  -2.799  -0.929  1.00  0.00     0.060 A 
BRANCH  85  86
ATOM     86  S   UNL     1     -18.600  -2.780  -0.967  1.00  0.00     0.124 S 
ATOM     87  O   UNL     1     -18.863  -2.614  -2.392  1.00  0.00    -0.237 OA
ATOM     88  O   UNL     1     -18.938  -4.085  -0.407  1.00  0.00    -0.237 OA
ATOM     89  O   UNL     1     -18.946  -1.637  -0.127  1.00  0.00    -0.744 OA
ENDBRANCH  85  86
ENDBRANCH  53  78
ENDBRANCH  27  28
ENDBRANCH  20  22
ENDBRANCH  19  20
ENDBRANCH   1  19
TORSDOF 18
