REMARK SMILES O=Cc1ccc2c(c1)C=C(C(=O)OCCOC(=O)c1ccc(-c3c4nc(c(-c5c(F)cc(S(=O)(=O)[O-])cc5F)c5ccc([nH]5)c(-c5c(F)cc(S(=O)(=O)[O-])cc5F)c5nc(c(-c6c(F)cc(S(=O)(=O)[O-])cc6F)c6ccc3[nH]6)C=C5)C=C4)cc1)[C@H](C(F)(F)F)O2
REMARK SMILES IDX 15 1 14 2 13 3 11 4 12 5 10 6 3 7 4 8 8 9 5 10 7 11 6 12
REMARK SMILES IDX 9 13 90 14 85 15 2 16 1 17 86 18 87 19 88 20 89 21 16 22
REMARK SMILES IDX 17 23 18 24 19 25 20 26 84 27 21 28 83 29 22 30 23 31 24 32
REMARK SMILES IDX 77 33 25 34 82 35 76 36 78 37 26 38 81 39 75 40 74 41 27 43
REMARK SMILES IDX 61 44 40 45 60 46 41 47 44 48 59 49 79 50 42 51 43 52 58 54
REMARK SMILES IDX 80 55 45 56 28 57 29 58 38 59 30 60 31 61 37 62 39 63 32 64
REMARK SMILES IDX 33 65 34 66 35 67 36 68 62 69 63 70 72 71 64 72 65 73 71 74
REMARK SMILES IDX 73 75 66 76 67 77 68 78 69 79 70 80 46 81 47 82 56 83 48 84
REMARK SMILES IDX 49 85 55 86 57 87 50 88 51 89 52 90 53 91 54 92
REMARK H PARENT 78 42 44 53
REMARK Flexibility Score: inf
ROOT
ATOM      1  C   UNL     1       9.788   0.430   6.012  1.00  0.00     0.275 C 
ENDROOT
BRANCH   1   2
ATOM      2  C   UNL     1       9.856   0.230   4.495  1.00  0.00     0.275 C 
BRANCH   2   3
ATOM      3  O   UNL     1       8.597  -0.217   3.947  1.00  0.00    -0.459 OA
BRANCH   3   4
ATOM      4  C   UNL     1       8.555  -1.512   3.536  1.00  0.00     0.338 C 
ATOM      5  O   UNL     1       9.489  -2.293   3.593  1.00  0.00    -0.246 OA
BRANCH   4   6
ATOM      6  C   UNL     1       7.220  -1.887   3.013  1.00  0.00     0.087 C 
ATOM      7  C   UNL     1       3.043  -0.892   0.800  1.00  0.00     0.015 A 
ATOM      8  C   UNL     1       2.690  -2.243   0.858  1.00  0.00     0.015 A 
ATOM      9  C   UNL     1       4.273  -0.451   1.308  1.00  0.00     0.023 A 
ATOM     10  C   UNL     1       3.593  -3.166   1.379  1.00  0.00     0.048 A 
ATOM     11  C   UNL     1       5.171  -1.376   1.853  1.00  0.00     0.018 A 
ATOM     12  C   UNL     1       4.828  -2.732   1.859  1.00  0.00     0.128 A 
ATOM     13  C   UNL     1       6.479  -0.971   2.363  1.00  0.00     0.027 C 
ATOM     14  O   UNL     1       5.707  -3.702   2.244  1.00  0.00    -0.475 OA
ATOM     15  C   UNL     1       6.710  -3.306   3.221  1.00  0.00     0.316 C 
BRANCH   7  16
ATOM     16  C   UNL     1       2.131   0.079   0.161  1.00  0.00     0.260 C 
ATOM     17  O   UNL     1       1.025  -0.235  -0.260  1.00  0.00    -0.298 OA
ENDBRANCH   7  16
BRANCH  15  18
ATOM     18  C   UNL     1       7.737  -4.454   3.308  1.00  0.00     0.430 C 
ATOM     19  F   UNL     1       8.464  -4.399   4.446  1.00  0.00    -0.167 F 
ATOM     20  F   UNL     1       7.099  -5.653   3.337  1.00  0.00    -0.167 F 
ATOM     21  F   UNL     1       8.575  -4.476   2.249  1.00  0.00    -0.167 F 
ENDBRANCH  15  18
ENDBRANCH   4   6
ENDBRANCH   3   4
ENDBRANCH   2   3
ENDBRANCH   1   2
BRANCH   1  22
ATOM     22  O   UNL     1       9.478  -0.796   6.696  1.00  0.00    -0.458 OA
BRANCH  22  23
ATOM     23  C   UNL     1       8.158  -0.981   6.943  1.00  0.00     0.338 C 
ATOM     24  O   UNL     1       7.258  -0.192   6.701  1.00  0.00    -0.246 OA
BRANCH  23  25
ATOM     25  C   UNL     1       7.902  -2.371   7.372  1.00  0.00     0.060 A 
ATOM     26  C   UNL     1       6.792  -3.001   6.801  1.00  0.00     0.016 A 
ATOM     27  C   UNL     1       8.682  -3.046   8.315  1.00  0.00     0.016 A 
ATOM     28  C   UNL     1       6.486  -4.321   7.118  1.00  0.00     0.010 A 
ATOM     29  C   UNL     1       8.340  -4.358   8.679  1.00  0.00     0.010 A 
ATOM     30  C   UNL     1       7.242  -5.000   8.081  1.00  0.00    -0.014 A 
BRANCH  30  31
ATOM     31  C   UNL     1       6.736  -6.305   8.572  1.00  0.00     0.031 A 
ATOM     32  C   UNL     1       5.726  -6.304   9.684  1.00  0.00     0.074 A 
ATOM     33  C   UNL     1       7.088  -7.460   7.980  1.00  0.00     0.049 A 
ATOM     34  N   UNL     1       5.077  -7.305  10.221  1.00  0.00    -0.248 NA
ATOM     35  C   UNL     1       5.389  -4.990  10.253  1.00  0.00     0.031 C 
ATOM     36  C   UNL     1       7.993  -7.587   6.840  1.00  0.00     0.029 A 
ATOM     37  N   UNL     1       6.704  -8.751   8.251  1.00  0.00    -0.354 N 
ATOM     38  C   UNL     1       4.239  -6.741  11.175  1.00  0.00     0.074 A 
ATOM     39  C   UNL     1       4.490  -5.315  11.169  1.00  0.00     0.031 C 
ATOM     40  C   UNL     1       8.097  -8.887   6.510  1.00  0.00     0.029 A 
ATOM     41  C   UNL     1       7.284  -9.685   7.427  1.00  0.00     0.049 A 
ATOM     42  H   UNL     1       6.072  -8.985   8.970  1.00  0.00     0.167 HD
ATOM     43  C   UNL     1       3.336  -7.352  11.979  1.00  0.00     0.037 A 
ATOM     44  C   UNL     1       7.172 -11.030   7.419  1.00  0.00     0.037 A 
ATOM     45  C   UNL     1       3.126  -8.776  12.020  1.00  0.00     0.049 A 
ATOM     46  C   UNL     1       6.256 -11.702   8.413  1.00  0.00     0.074 A 
ATOM     47  C   UNL     1       2.269  -9.497  12.832  1.00  0.00     0.029 A 
ATOM     48  N   UNL     1       3.796  -9.698  11.229  1.00  0.00    -0.354 N 
ATOM     49  N   UNL     1       5.467 -11.161   9.312  1.00  0.00    -0.248 NA
ATOM     50  C   UNL     1       6.209 -13.172   8.385  1.00  0.00     0.031 C 
ATOM     51  C   UNL     1       2.461 -10.859  12.570  1.00  0.00     0.029 A 
ATOM     52  C   UNL     1       3.389 -10.983  11.548  1.00  0.00     0.049 A 
ATOM     53  H   UNL     1       4.464  -9.473  10.541  1.00  0.00     0.167 HD
ATOM     54  C   UNL     1       4.799 -12.219   9.923  1.00  0.00     0.074 A 
ATOM     55  C   UNL     1       5.279 -13.432   9.293  1.00  0.00     0.031 C 
ATOM     56  C   UNL     1       3.864 -12.187  10.907  1.00  0.00     0.037 A 
BRANCH  43  57
ATOM     57  C   UNL     1       2.556  -6.470  12.914  1.00  0.00     0.058 A 
ATOM     58  C   UNL     1       1.585  -5.569  12.444  1.00  0.00     0.135 A 
ATOM     59  C   UNL     1       2.807  -6.499  14.295  1.00  0.00     0.135 A 
ATOM     60  F   UNL     1       1.320  -5.485  11.131  1.00  0.00    -0.206 F 
ATOM     61  C   UNL     1       0.931  -4.692  13.303  1.00  0.00     0.059 A 
ATOM     62  C   UNL     1       2.141  -5.653  15.177  1.00  0.00     0.059 A 
ATOM     63  F   UNL     1       3.724  -7.340  14.799  1.00  0.00    -0.206 F 
ATOM     64  C   UNL     1       1.224  -4.735  14.667  1.00  0.00     0.060 A 
BRANCH  64  65
ATOM     65  S   UNL     1       0.411  -3.554  15.763  1.00  0.00     0.124 S 
ATOM     66  O   UNL     1       1.091  -2.312  15.406  1.00  0.00    -0.237 OA
ATOM     67  O   UNL     1      -0.985  -3.652  15.348  1.00  0.00    -0.237 OA
ATOM     68  O   UNL     1       0.704  -4.068  17.096  1.00  0.00    -0.744 OA
ENDBRANCH  64  65
ENDBRANCH  43  57
BRANCH  44  69
ATOM     69  C   UNL     1       7.939 -11.837   6.431  1.00  0.00     0.058 A 
ATOM     70  C   UNL     1       7.290 -12.533   5.401  1.00  0.00     0.135 A 
ATOM     71  C   UNL     1       9.338 -11.938   6.505  1.00  0.00     0.135 A 
ATOM     72  F   UNL     1       5.953 -12.486   5.298  1.00  0.00    -0.206 F 
ATOM     73  C   UNL     1       7.996 -13.306   4.483  1.00  0.00     0.059 A 
ATOM     74  C   UNL     1      10.068 -12.683   5.584  1.00  0.00     0.059 A 
ATOM     75  F   UNL     1      10.009 -11.293   7.472  1.00  0.00    -0.206 F 
ATOM     76  C   UNL     1       9.387 -13.370   4.580  1.00  0.00     0.060 A 
BRANCH  76  77
ATOM     77  S   UNL     1      10.297 -14.333   3.352  1.00  0.00     0.124 S 
ATOM     78  O   UNL     1       9.937 -15.697   3.720  1.00  0.00    -0.237 OA
ATOM     79  O   UNL     1       9.734 -13.840   2.099  1.00  0.00    -0.237 OA
ATOM     80  O   UNL     1      11.688 -13.962   3.595  1.00  0.00    -0.744 OA
ENDBRANCH  76  77
ENDBRANCH  44  69
BRANCH  56  81
ATOM     81  C   UNL     1       3.243 -13.495  11.328  1.00  0.00     0.058 A 
ATOM     82  C   UNL     1       3.955 -14.466  12.050  1.00  0.00     0.135 A 
ATOM     83  C   UNL     1       1.892 -13.757  11.043  1.00  0.00     0.135 A 
ATOM     84  F   UNL     1       5.249 -14.271  12.349  1.00  0.00    -0.206 F 
ATOM     85  C   UNL     1       3.361 -15.661  12.446  1.00  0.00     0.059 A 
ATOM     86  C   UNL     1       1.268 -14.930  11.457  1.00  0.00     0.059 A 
ATOM     87  F   UNL     1       1.156 -12.859  10.368  1.00  0.00    -0.206 F 
ATOM     88  C   UNL     1       2.015 -15.884  12.145  1.00  0.00     0.060 A 
BRANCH  88  89
ATOM     89  S   UNL     1       1.249 -17.428  12.684  1.00  0.00     0.124 S 
ATOM     90  O   UNL     1       1.841 -18.389  11.760  1.00  0.00    -0.237 OA
ATOM     91  O   UNL     1       1.689 -17.527  14.072  1.00  0.00    -0.237 OA
ATOM     92  O   UNL     1      -0.179 -17.181  12.503  1.00  0.00    -0.744 OA
ENDBRANCH  88  89
ENDBRANCH  56  81
ENDBRANCH  30  31
ENDBRANCH  23  25
ENDBRANCH  22  23
ENDBRANCH   1  22
TORSDOF 16
