REMARK SMILES Cc1cc2n(n1)[C@H](C(F)(F)F)CCN2C(=O)c1cnn([C@@H](C)C(=O)OCCOC(=O)c2ccc(-c3c4nc(c(-c5c(F)cc(S(=O)(=O)[O-])cc5F)c5ccc([nH]5)c(-c5c(F)cc(S(=O)(=O)[O-])cc5F)c5nc(c(-c6c(F)cc(S(=O)(=O)[O-])cc6F)c6ccc3[nH]6)C=C5)C=C4)cc2)c1
REMARK SMILES IDX 26 1 25 2 23 3 24 4 21 5 22 6 20 7 17 8 18 9 97 10 19 11
REMARK SMILES IDX 15 12 16 13 14 14 1 15 2 16 3 17 6 18 4 19 5 20 7 21 13 22
REMARK SMILES IDX 12 23 8 24 9 25 10 26 11 27 27 28 28 29 29 30 30 31 31 32
REMARK SMILES IDX 32 33 96 34 33 35 95 36 34 37 35 38 36 39 89 40 37 41 94 42
REMARK SMILES IDX 88 43 90 44 38 45 93 46 87 47 86 48 39 50 73 51 52 52 72 53
REMARK SMILES IDX 53 54 56 55 71 56 91 57 54 58 55 59 70 61 92 62 57 63 40 64
REMARK SMILES IDX 41 65 50 66 42 67 43 68 49 69 51 70 44 71 45 72 46 73 47 74
REMARK SMILES IDX 48 75 74 76 75 77 84 78 76 79 77 80 83 81 85 82 78 83 79 84
REMARK SMILES IDX 80 85 81 86 82 87 58 88 59 89 68 90 60 91 61 92 67 93 69 94
REMARK SMILES IDX 62 95 63 96 64 97 65 98 66 99
REMARK H PARENT 90 49 56 60
REMARK Flexibility Score: inf
ROOT
ATOM      1  C   UNL     1      -0.028 -12.194   4.053  1.00  0.00     0.274 C 
ENDROOT
BRANCH   1   2
ATOM      2  O   UNL     1       0.347 -10.926   4.628  1.00  0.00    -0.460 OA
BRANCH   2   3
ATOM      3  C   UNL     1       1.678 -10.685   4.748  1.00  0.00     0.330 C 
ATOM      4  O   UNL     1       2.546 -11.541   4.578  1.00  0.00    -0.250 OA
BRANCH   3   5
ATOM      5  C   UNL     1       2.035  -9.284   5.194  1.00  0.00     0.213 C 
ATOM      6  C   UNL     1       2.029  -9.218   6.713  1.00  0.00     0.046 C 
BRANCH   5   7
ATOM      7  N   UNL     1       1.273  -8.195   4.580  1.00  0.00    -0.258 N 
ATOM      8  C   UNL     1       0.747  -6.345   3.473  1.00  0.00     0.078 A 
ATOM      9  C   UNL     1      -0.378  -7.009   4.007  1.00  0.00     0.149 A 
ATOM     10  C   UNL     1       1.804  -7.156   3.849  1.00  0.00     0.123 A 
ATOM     11  N   UNL     1      -0.045  -8.014   4.822  1.00  0.00    -0.180 NA
BRANCH   8  12
ATOM     12  C   UNL     1       0.834  -5.167   2.639  1.00  0.00     0.262 C 
ATOM     13  O   UNL     1       1.399  -5.150   1.558  1.00  0.00    -0.269 OA
BRANCH  12  14
ATOM     14  N   UNL     1       0.315  -3.947   3.265  1.00  0.00    -0.293 N 
ATOM     15  C   UNL     1       0.965  -0.144   0.018  1.00  0.00     0.069 C 
ATOM     16  C   UNL     1       0.618  -1.009   1.176  1.00  0.00     0.062 A 
ATOM     17  C   UNL     1       0.763  -2.419   1.287  1.00  0.00     0.072 A 
ATOM     18  N   UNL     1       0.116  -0.480   2.299  1.00  0.00    -0.176 NA
ATOM     19  C   UNL     1       0.366  -2.729   2.568  1.00  0.00     0.134 A 
ATOM     20  N   UNL     1      -0.000  -1.529   3.118  1.00  0.00    -0.237 N 
ATOM     21  C   UNL     1      -0.530  -1.360   4.449  1.00  0.00     0.216 C 
ATOM     22  C   UNL     1      -0.025  -3.888   4.707  1.00  0.00     0.130 C 
ATOM     23  C   UNL     1      -0.939  -2.710   5.054  1.00  0.00     0.059 C 
BRANCH  21  24
ATOM     24  C   UNL     1       0.448  -0.615   5.331  1.00  0.00     0.410 C 
ATOM     25  F   UNL     1      -0.099  -0.442   6.564  1.00  0.00    -0.169 F 
ATOM     26  F   UNL     1       1.589  -1.316   5.511  1.00  0.00    -0.169 F 
ATOM     27  F   UNL     1       0.766   0.613   4.881  1.00  0.00    -0.169 F 
ENDBRANCH  21  24
ENDBRANCH  12  14
ENDBRANCH   8  12
ENDBRANCH   5   7
ENDBRANCH   3   5
ENDBRANCH   2   3
ENDBRANCH   1   2
BRANCH   1  28
ATOM     28  C   UNL     1      -0.143 -12.114   2.535  1.00  0.00     0.275 C 
BRANCH  28  29
ATOM     29  O   UNL     1       1.136 -11.964   1.922  1.00  0.00    -0.458 OA
BRANCH  29  30
ATOM     30  C   UNL     1       1.503 -10.672   1.732  1.00  0.00     0.338 C 
ATOM     31  O   UNL     1       1.016  -9.693   2.237  1.00  0.00    -0.246 OA
BRANCH  30  32
ATOM     32  C   UNL     1       2.463 -10.572   0.635  1.00  0.00     0.060 A 
ATOM     33  C   UNL     1       3.005  -9.302   0.398  1.00  0.00     0.016 A 
ATOM     34  C   UNL     1       2.496 -11.598  -0.312  1.00  0.00     0.016 A 
ATOM     35  C   UNL     1       3.413  -8.996  -0.878  1.00  0.00     0.010 A 
ATOM     36  C   UNL     1       2.878 -11.283  -1.588  1.00  0.00     0.010 A 
ATOM     37  C   UNL     1       3.258  -9.969  -1.865  1.00  0.00    -0.014 A 
BRANCH  37  38
ATOM     38  C   UNL     1       3.570  -9.622  -3.230  1.00  0.00     0.031 A 
ATOM     39  C   UNL     1       5.022  -9.601  -3.502  1.00  0.00     0.074 A 
ATOM     40  C   UNL     1       2.596  -9.521  -4.152  1.00  0.00     0.049 A 
ATOM     41  N   UNL     1       5.743  -8.585  -3.835  1.00  0.00    -0.248 NA
ATOM     42  C   UNL     1       5.800 -10.809  -3.175  1.00  0.00     0.031 C 
ATOM     43  C   UNL     1       1.165  -9.793  -3.990  1.00  0.00     0.029 A 
ATOM     44  N   UNL     1       2.710  -9.280  -5.481  1.00  0.00    -0.354 N 
ATOM     45  C   UNL     1       7.031  -9.085  -3.990  1.00  0.00     0.074 A 
ATOM     46  C   UNL     1       7.046 -10.379  -3.362  1.00  0.00     0.031 C 
ATOM     47  C   UNL     1       0.604  -9.938  -5.211  1.00  0.00     0.029 A 
ATOM     48  C   UNL     1       1.609  -9.677  -6.227  1.00  0.00     0.049 A 
ATOM     49  H   UNL     1       3.505  -8.861  -5.882  1.00  0.00     0.167 HD
ATOM     50  C   UNL     1       7.914  -8.514  -4.851  1.00  0.00     0.037 A 
ATOM     51  C   UNL     1       1.592  -9.880  -7.570  1.00  0.00     0.037 A 
ATOM     52  C   UNL     1       7.476  -7.206  -5.262  1.00  0.00     0.049 A 
ATOM     53  C   UNL     1       2.764  -9.142  -8.130  1.00  0.00     0.074 A 
ATOM     54  C   UNL     1       7.200  -6.032  -4.589  1.00  0.00     0.029 A 
ATOM     55  N   UNL     1       6.876  -7.092  -6.494  1.00  0.00    -0.354 N 
ATOM     56  N   UNL     1       2.866  -7.838  -8.116  1.00  0.00    -0.248 NA
ATOM     57  C   UNL     1       4.031  -9.854  -8.251  1.00  0.00     0.031 C 
ATOM     58  C   UNL     1       6.072  -5.479  -5.258  1.00  0.00     0.029 A 
ATOM     59  C   UNL     1       5.761  -6.306  -6.339  1.00  0.00     0.049 A 
ATOM     60  H   UNL     1       7.189  -7.499  -7.334  1.00  0.00     0.167 HD
ATOM     61  C   UNL     1       4.193  -7.582  -7.795  1.00  0.00     0.074 A 
ATOM     62  C   UNL     1       4.881  -8.858  -7.978  1.00  0.00     0.031 C 
ATOM     63  C   UNL     1       4.553  -6.447  -7.123  1.00  0.00     0.037 A 
BRANCH  50  64
ATOM     64  C   UNL     1       8.972  -9.283  -5.592  1.00  0.00     0.058 A 
ATOM     65  C   UNL     1       9.999  -8.581  -6.250  1.00  0.00     0.135 A 
ATOM     66  C   UNL     1       8.867 -10.657  -5.905  1.00  0.00     0.135 A 
ATOM     67  F   UNL     1      10.174  -7.268  -6.034  1.00  0.00    -0.206 F 
ATOM     68  C   UNL     1      10.821  -9.187  -7.198  1.00  0.00     0.059 A 
ATOM     69  C   UNL     1       9.714 -11.295  -6.799  1.00  0.00     0.059 A 
ATOM     70  F   UNL     1       7.872 -11.424  -5.439  1.00  0.00    -0.206 F 
ATOM     71  C   UNL     1      10.659 -10.543  -7.475  1.00  0.00     0.060 A 
BRANCH  71  72
ATOM     72  S   UNL     1      11.638 -11.302  -8.779  1.00  0.00     0.124 S 
ATOM     73  O   UNL     1      11.067 -10.678  -9.967  1.00  0.00    -0.237 OA
ATOM     74  O   UNL     1      12.990 -10.887  -8.422  1.00  0.00    -0.237 OA
ATOM     75  O   UNL     1      11.361 -12.727  -8.618  1.00  0.00    -0.744 OA
ENDBRANCH  71  72
ENDBRANCH  50  64
BRANCH  51  76
ATOM     76  C   UNL     1       0.859 -10.950  -8.306  1.00  0.00     0.058 A 
ATOM     77  C   UNL     1       0.796 -10.961  -9.712  1.00  0.00     0.135 A 
ATOM     78  C   UNL     1       0.413 -12.126  -7.666  1.00  0.00     0.135 A 
ATOM     79  F   UNL     1       1.218  -9.898 -10.414  1.00  0.00    -0.206 F 
ATOM     80  C   UNL     1       0.362 -12.082 -10.434  1.00  0.00     0.059 A 
ATOM     81  C   UNL     1      -0.040 -13.245  -8.361  1.00  0.00     0.059 A 
ATOM     82  F   UNL     1       0.488 -12.272  -6.335  1.00  0.00    -0.206 F 
ATOM     83  C   UNL     1      -0.036 -13.228  -9.747  1.00  0.00     0.060 A 
BRANCH  83  84
ATOM     84  S   UNL     1      -0.414 -14.743 -10.659  1.00  0.00     0.124 S 
ATOM     85  O   UNL     1      -1.685 -14.405 -11.290  1.00  0.00    -0.237 OA
ATOM     86  O   UNL     1       0.734 -14.859 -11.552  1.00  0.00    -0.237 OA
ATOM     87  O   UNL     1      -0.487 -15.758  -9.611  1.00  0.00    -0.744 OA
ENDBRANCH  83  84
ENDBRANCH  51  76
BRANCH  63  88
ATOM     88  C   UNL     1       3.524  -5.354  -6.965  1.00  0.00     0.058 A 
ATOM     89  C   UNL     1       2.332  -5.496  -6.233  1.00  0.00     0.135 A 
ATOM     90  C   UNL     1       3.843  -4.065  -7.416  1.00  0.00     0.135 A 
ATOM     91  F   UNL     1       2.006  -6.663  -5.664  1.00  0.00    -0.206 F 
ATOM     92  C   UNL     1       1.477  -4.420  -5.994  1.00  0.00     0.059 A 
ATOM     93  C   UNL     1       3.023  -2.968  -7.160  1.00  0.00     0.059 A 
ATOM     94  F   UNL     1       5.001  -3.846  -8.060  1.00  0.00    -0.206 F 
ATOM     95  C   UNL     1       1.835  -3.156  -6.456  1.00  0.00     0.060 A 
BRANCH  95  96
ATOM     96  S   UNL     1       0.780  -1.748  -6.048  1.00  0.00     0.124 S 
ATOM     97  O   UNL     1      -0.371  -1.966  -6.917  1.00  0.00    -0.237 OA
ATOM     98  O   UNL     1       0.538  -1.933  -4.619  1.00  0.00    -0.237 OA
ATOM     99  O   UNL     1       1.608  -0.593  -6.383  1.00  0.00    -0.744 OA
ENDBRANCH  95  96
ENDBRANCH  63  88
ENDBRANCH  37  38
ENDBRANCH  30  32
ENDBRANCH  29  30
ENDBRANCH  28  29
ENDBRANCH   1  28
TORSDOF 18
