REMARK SMILES N#Cc1cc([N+](=O)[O-])cnc1Oc1csc(C(=O)OCCOC(=O)c2ccc(-c3c4nc(c(-c5c(F)cc(S(=O)(=O)[O-])cc5F)c5ccc([nH]5)c(-c5c(F)cc(S(=O)(=O)[O-])cc5F)c5nc(c(-c6c(F)cc(S(=O)(=O)[O-])cc6F)c6ccc3[nH]6)C=C5)C=C4)cc2)c1
REMARK SMILES IDX 20 1 19 2 17 3 18 4 16 5 13 6 14 7 91 8 15 9 12 10 11 11
REMARK SMILES IDX 3 12 4 13 5 14 10 15 9 16 2 17 1 18 6 19 7 20 8 21 21 22
REMARK SMILES IDX 22 23 23 24 24 25 25 26 26 27 90 28 27 29 89 30 28 31 29 32
REMARK SMILES IDX 30 33 83 34 31 35 88 36 82 37 84 38 32 39 87 40 81 41 80 42
REMARK SMILES IDX 33 44 67 45 46 46 66 47 47 48 50 49 65 50 85 51 48 52 49 53
REMARK SMILES IDX 64 55 86 56 51 57 34 58 35 59 44 60 36 61 37 62 43 63 45 64
REMARK SMILES IDX 38 65 39 66 40 67 41 68 42 69 68 70 69 71 78 72 70 73 71 74
REMARK SMILES IDX 77 75 79 76 72 77 73 78 74 79 75 80 76 81 52 82 53 83 62 84
REMARK SMILES IDX 54 85 55 86 61 87 63 88 56 89 57 90 58 91 59 92 60 93
REMARK H PARENT 84 43 50 54
REMARK Flexibility Score: inf
ROOT
ATOM      1  C   UNL     1       5.677  -5.057  -2.998  1.00  0.00     0.275 C 
ENDROOT
BRANCH   1   2
ATOM      2  O   UNL     1       4.548  -4.543  -2.266  1.00  0.00    -0.458 OA
BRANCH   2   3
ATOM      3  C   UNL     1       4.656  -4.529  -0.901  1.00  0.00     0.348 C 
ATOM      4  O   UNL     1       5.616  -4.978  -0.288  1.00  0.00    -0.245 OA
BRANCH   3   5
ATOM      5  C   UNL     1       3.493  -3.879  -0.319  1.00  0.00     0.116 A 
ATOM      6  C   UNL     1       1.488  -2.715  -0.053  1.00  0.00     0.141 A 
ATOM      7  C   UNL     1       1.964  -2.690   1.237  1.00  0.00     0.112 A 
ATOM      8  C   UNL     1       2.342  -3.429  -0.936  1.00  0.00     0.074 A 
ATOM      9  S   UNL     1       3.435  -3.564   1.371  1.00  0.00    -0.133 S 
BRANCH   6  10
ATOM     10  O   UNL     1       0.310  -2.208  -0.471  1.00  0.00    -0.437 OA
BRANCH  10  11
ATOM     11  C   UNL     1      -0.193  -0.980  -0.128  1.00  0.00     0.237 A 
ATOM     12  C   UNL     1       0.535   0.212  -0.111  1.00  0.00     0.121 A 
ATOM     13  C   UNL     1      -0.172   1.421   0.007  1.00  0.00     0.112 A 
ATOM     14  C   UNL     1      -1.566   1.395   0.085  1.00  0.00     0.289 A 
ATOM     15  N   UNL     1      -1.550  -1.005  -0.027  1.00  0.00    -0.213 NA
ATOM     16  C   UNL     1      -2.211   0.173   0.080  1.00  0.00     0.200 A 
BRANCH  12  17
ATOM     17  C   UNL     1       1.956   0.271  -0.268  1.00  0.00     0.105 C 
ATOM     18  N   UNL     1       3.104   0.355  -0.376  1.00  0.00    -0.192 NA
ENDBRANCH  12  17
BRANCH  14  19
ATOM     19  N   UNL     1      -2.349   2.622   0.118  1.00  0.00     0.064 N 
ATOM     20  O   UNL     1      -3.584   2.516   0.119  1.00  0.00    -0.258 OA
ATOM     21  O   UNL     1      -1.734   3.695   0.125  1.00  0.00    -0.258 OA
ENDBRANCH  14  19
ENDBRANCH  10  11
ENDBRANCH   6  10
ENDBRANCH   3   5
ENDBRANCH   2   3
ENDBRANCH   1   2
BRANCH   1  22
ATOM     22  C   UNL     1       6.562  -3.940  -3.565  1.00  0.00     0.275 C 
BRANCH  22  23
ATOM     23  O   UNL     1       7.258  -3.220  -2.531  1.00  0.00    -0.458 OA
BRANCH  23  24
ATOM     24  C   UNL     1       6.593  -2.131  -2.074  1.00  0.00     0.338 C 
ATOM     25  O   UNL     1       5.513  -1.726  -2.472  1.00  0.00    -0.246 OA
BRANCH  24  26
ATOM     26  C   UNL     1       7.276  -1.556  -0.903  1.00  0.00     0.060 A 
ATOM     27  C   UNL     1       6.551  -1.511   0.287  1.00  0.00     0.016 A 
ATOM     28  C   UNL     1       8.528  -0.945  -0.986  1.00  0.00     0.016 A 
ATOM     29  C   UNL     1       7.041  -0.818   1.386  1.00  0.00     0.010 A 
ATOM     30  C   UNL     1       9.031  -0.260   0.131  1.00  0.00     0.010 A 
ATOM     31  C   UNL     1       8.275  -0.160   1.315  1.00  0.00    -0.014 A 
BRANCH  31  32
ATOM     32  C   UNL     1       8.687   0.714   2.448  1.00  0.00     0.031 A 
ATOM     33  C   UNL     1       8.743   2.209   2.259  1.00  0.00     0.074 A 
ATOM     34  C   UNL     1       8.920   0.183   3.665  1.00  0.00     0.049 A 
ATOM     35  N   UNL     1       9.100   3.140   3.108  1.00  0.00    -0.248 NA
ATOM     36  C   UNL     1       8.352   2.725   0.938  1.00  0.00     0.031 C 
ATOM     37  C   UNL     1       8.854  -1.243   3.990  1.00  0.00     0.029 A 
ATOM     38  N   UNL     1       9.248   0.780   4.858  1.00  0.00    -0.354 N 
ATOM     39  C   UNL     1       8.988   4.345   2.423  1.00  0.00     0.074 A 
ATOM     40  C   UNL     1       8.577   4.024   1.074  1.00  0.00     0.031 C 
ATOM     41  C   UNL     1       9.121  -1.409   5.295  1.00  0.00     0.029 A 
ATOM     42  C   UNL     1       9.430  -0.112   5.889  1.00  0.00     0.049 A 
ATOM     43  H   UNL     1       9.344   1.754   4.965  1.00  0.00     0.167 HD
ATOM     44  C   UNL     1       9.190   5.606   2.881  1.00  0.00     0.037 A 
ATOM     45  C   UNL     1       9.830   0.087   7.161  1.00  0.00     0.037 A 
ATOM     46  C   UNL     1       9.584   5.920   4.232  1.00  0.00     0.049 A 
ATOM     47  C   UNL     1      10.102   1.492   7.630  1.00  0.00     0.074 A 
ATOM     48  C   UNL     1       9.827   7.163   4.791  1.00  0.00     0.029 A 
ATOM     49  N   UNL     1       9.783   4.987   5.239  1.00  0.00    -0.354 N 
ATOM     50  N   UNL     1      10.015   2.619   6.962  1.00  0.00    -0.248 NA
ATOM     51  C   UNL     1      10.518   1.655   9.029  1.00  0.00     0.031 C 
ATOM     52  C   UNL     1      10.221   6.978   6.121  1.00  0.00     0.029 A 
ATOM     53  C   UNL     1      10.156   5.625   6.412  1.00  0.00     0.049 A 
ATOM     54  H   UNL     1       9.675   4.013   5.136  1.00  0.00     0.167 HD
ATOM     55  C   UNL     1      10.333   3.625   7.869  1.00  0.00     0.074 A 
ATOM     56  C   UNL     1      10.592   2.974   9.136  1.00  0.00     0.031 C 
ATOM     57  C   UNL     1      10.404   4.966   7.672  1.00  0.00     0.037 A 
BRANCH  44  58
ATOM     58  C   UNL     1       9.002   6.742   1.908  1.00  0.00     0.058 A 
ATOM     59  C   UNL     1       7.734   7.097   1.418  1.00  0.00     0.135 A 
ATOM     60  C   UNL     1      10.100   7.513   1.490  1.00  0.00     0.135 A 
ATOM     61  F   UNL     1       6.650   6.387   1.769  1.00  0.00    -0.206 F 
ATOM     62  C   UNL     1       7.566   8.155   0.529  1.00  0.00     0.059 A 
ATOM     63  C   UNL     1       9.950   8.596   0.628  1.00  0.00     0.059 A 
ATOM     64  F   UNL     1      11.336   7.221   1.925  1.00  0.00    -0.206 F 
ATOM     65  C   UNL     1       8.680   8.901   0.143  1.00  0.00     0.060 A 
BRANCH  65  66
ATOM     66  S   UNL     1       8.440  10.281  -0.997  1.00  0.00     0.124 S 
ATOM     67  O   UNL     1       8.112   9.583  -2.236  1.00  0.00    -0.237 OA
ATOM     68  O   UNL     1       7.342  11.012  -0.372  1.00  0.00    -0.237 OA
ATOM     69  O   UNL     1       9.730  10.963  -0.985  1.00  0.00    -0.744 OA
ENDBRANCH  65  66
ENDBRANCH  44  58
BRANCH  45  70
ATOM     70  C   UNL     1      10.030  -1.074   8.072  1.00  0.00     0.058 A 
ATOM     71  C   UNL     1       9.232  -1.264   9.211  1.00  0.00     0.135 A 
ATOM     72  C   UNL     1      11.046  -2.013   7.829  1.00  0.00     0.135 A 
ATOM     73  F   UNL     1       8.252  -0.392   9.496  1.00  0.00    -0.206 F 
ATOM     74  C   UNL     1       9.452  -2.321  10.090  1.00  0.00     0.059 A 
ATOM     75  C   UNL     1      11.262  -3.098   8.672  1.00  0.00     0.059 A 
ATOM     76  F   UNL     1      11.833  -1.888   6.748  1.00  0.00    -0.206 F 
ATOM     77  C   UNL     1      10.470  -3.234   9.810  1.00  0.00     0.060 A 
BRANCH  77  78
ATOM     78  S   UNL     1      10.732  -4.616  10.942  1.00  0.00     0.124 S 
ATOM     79  O   UNL     1      11.301  -3.942  12.103  1.00  0.00    -0.237 OA
ATOM     80  O   UNL     1       9.379  -5.138  11.105  1.00  0.00    -0.237 OA
ATOM     81  O   UNL     1      11.647  -5.484  10.206  1.00  0.00    -0.744 OA
ENDBRANCH  77  78
ENDBRANCH  45  70
BRANCH  57  82
ATOM     82  C   UNL     1      10.717   5.823   8.872  1.00  0.00     0.058 A 
ATOM     83  C   UNL     1      11.972   5.801   9.502  1.00  0.00     0.135 A 
ATOM     84  C   UNL     1       9.739   6.682   9.401  1.00  0.00     0.135 A 
ATOM     85  F   UNL     1      12.946   5.000   9.041  1.00  0.00    -0.206 F 
ATOM     86  C   UNL     1      12.227   6.553  10.645  1.00  0.00     0.059 A 
ATOM     87  C   UNL     1       9.984   7.473  10.519  1.00  0.00     0.059 A 
ATOM     88  F   UNL     1       8.526   6.760   8.831  1.00  0.00    -0.206 F 
ATOM     89  C   UNL     1      11.223   7.382  11.150  1.00  0.00     0.060 A 
BRANCH  89  90
ATOM     90  S   UNL     1      11.558   8.337  12.644  1.00  0.00     0.124 S 
ATOM     91  O   UNL     1      11.544   7.296  13.667  1.00  0.00    -0.237 OA
ATOM     92  O   UNL     1      12.862   8.924  12.354  1.00  0.00    -0.237 OA
ATOM     93  O   UNL     1      10.448   9.284  12.699  1.00  0.00    -0.744 OA
ENDBRANCH  89  90
ENDBRANCH  57  82
ENDBRANCH  31  32
ENDBRANCH  24  26
ENDBRANCH  23  24
ENDBRANCH  22  23
ENDBRANCH   1  22
TORSDOF 18
