REMARK SMILES O=C(OCCOC(=O)c1cc(NC(=S)NC(=O)c2ccccc2F)ccc1Cl)c1ccc(-c2c3nc(c(-c4c(F)cc(S(=O)(=O)[O-])cc4F)c4ccc([nH]4)c(-c4c(F)cc(S(=O)(=O)[O-])cc4F)c4nc(c(-c5c(F)cc(S(=O)(=O)[O-])cc5F)c5ccc2[nH]5)C=C4)C=C3)cc1
REMARK SMILES IDX 5 1 4 2 3 3 2 4 1 5 29 6 30 7 94 8 31 9 93 10 32 11 33 12
REMARK SMILES IDX 34 13 87 14 35 15 92 16 86 17 88 18 36 19 91 20 85 21 84 22
REMARK SMILES IDX 37 24 71 25 50 26 70 27 51 28 54 29 69 30 89 31 52 32 53 33
REMARK SMILES IDX 68 35 90 36 55 37 38 38 39 39 48 40 40 41 41 42 47 43 49 44
REMARK SMILES IDX 42 45 43 46 44 47 45 48 46 49 72 50 73 51 82 52 74 53 75 54
REMARK SMILES IDX 81 55 83 56 76 57 77 58 78 59 79 60 80 61 56 62 57 63 66 64
REMARK SMILES IDX 58 65 59 66 65 67 67 68 60 69 61 70 62 71 63 72 64 73 6 74
REMARK SMILES IDX 7 75 8 76 9 77 10 78 27 79 11 80 26 81 28 82 25 83 12 84
REMARK SMILES IDX 13 86 14 87 15 88 16 89 17 91 18 92 19 93 23 94 20 95 22 96
REMARK SMILES IDX 24 97 21 98
REMARK H PARENT 88 23 54 34 12 85 15 90
REMARK Flexibility Score: inf
ROOT
ATOM      1  C   UNL     1       2.767   0.949   1.506  1.00  0.00     0.275 C 
ENDROOT
BRANCH   1   2
ATOM      2  C   UNL     1       4.278   1.066   1.284  1.00  0.00     0.275 C 
BRANCH   2   3
ATOM      3  O   UNL     1       4.612   1.446  -0.070  1.00  0.00    -0.458 OA
BRANCH   3   4
ATOM      4  C   UNL     1       4.247   0.634  -1.090  1.00  0.00     0.338 C 
ATOM      5  O   UNL     1       3.580   1.026  -2.038  1.00  0.00    -0.246 OA
BRANCH   4   6
ATOM      6  C   UNL     1       4.801  -0.740  -1.044  1.00  0.00     0.060 A 
ATOM      7  C   UNL     1       6.084  -1.009  -0.549  1.00  0.00     0.016 A 
ATOM      8  C   UNL     1       4.033  -1.774  -1.579  1.00  0.00     0.016 A 
ATOM      9  C   UNL     1       6.577  -2.319  -0.555  1.00  0.00     0.010 A 
ATOM     10  C   UNL     1       4.522  -3.081  -1.572  1.00  0.00     0.010 A 
ATOM     11  C   UNL     1       5.795  -3.367  -1.059  1.00  0.00    -0.014 A 
BRANCH  11  12
ATOM     12  C   UNL     1       6.286  -4.766  -1.085  1.00  0.00     0.031 A 
ATOM     13  C   UNL     1       6.692  -5.398  -2.383  1.00  0.00     0.074 A 
ATOM     14  C   UNL     1       6.282  -5.504   0.041  1.00  0.00     0.049 A 
ATOM     15  N   UNL     1       7.157  -6.601  -2.598  1.00  0.00    -0.248 NA
ATOM     16  C   UNL     1       6.553  -4.576  -3.595  1.00  0.00     0.031 C 
ATOM     17  C   UNL     1       5.861  -5.029   1.355  1.00  0.00     0.029 A 
ATOM     18  N   UNL     1       6.607  -6.819   0.253  1.00  0.00    -0.354 N 
ATOM     19  C   UNL     1       7.413  -6.666  -3.960  1.00  0.00     0.074 A 
ATOM     20  C   UNL     1       6.969  -5.413  -4.535  1.00  0.00     0.031 C 
ATOM     21  C   UNL     1       5.891  -6.050   2.227  1.00  0.00     0.029 A 
ATOM     22  C   UNL     1       6.369  -7.245   1.537  1.00  0.00     0.049 A 
ATOM     23  H   UNL     1       6.975  -7.403  -0.449  1.00  0.00     0.167 HD
ATOM     24  C   UNL     1       8.012  -7.657  -4.662  1.00  0.00     0.037 A 
ATOM     25  C   UNL     1       6.529  -8.459   2.098  1.00  0.00     0.037 A 
ATOM     26  C   UNL     1       8.453  -8.901  -4.097  1.00  0.00     0.049 A 
ATOM     27  C   UNL     1       7.151  -9.567   1.298  1.00  0.00     0.074 A 
ATOM     28  C   UNL     1       9.145  -9.932  -4.708  1.00  0.00     0.029 A 
ATOM     29  N   UNL     1       8.233  -9.288  -2.785  1.00  0.00    -0.354 N 
ATOM     30  N   UNL     1       7.510  -9.565   0.037  1.00  0.00    -0.248 NA
ATOM     31  C   UNL     1       7.431 -10.826   2.002  1.00  0.00     0.031 C 
ATOM     32  C   UNL     1       9.335 -10.950  -3.763  1.00  0.00     0.029 A 
ATOM     33  C   UNL     1       8.769 -10.544  -2.565  1.00  0.00     0.049 A 
ATOM     34  H   UNL     1       7.764  -8.748  -2.108  1.00  0.00     0.167 HD
ATOM     35  C   UNL     1       8.119 -10.793  -0.185  1.00  0.00     0.074 A 
ATOM     36  C   UNL     1       8.042 -11.532   1.059  1.00  0.00     0.031 C 
ATOM     37  C   UNL     1       8.715 -11.252  -1.311  1.00  0.00     0.037 A 
BRANCH  24  38
ATOM     38  C   UNL     1       8.276  -7.381  -6.110  1.00  0.00     0.058 A 
ATOM     39  C   UNL     1       7.457  -7.910  -7.115  1.00  0.00     0.135 A 
ATOM     40  C   UNL     1       9.338  -6.545  -6.490  1.00  0.00     0.135 A 
ATOM     41  F   UNL     1       6.422  -8.704  -6.798  1.00  0.00    -0.206 F 
ATOM     42  C   UNL     1       7.669  -7.602  -8.455  1.00  0.00     0.059 A 
ATOM     43  C   UNL     1       9.561  -6.214  -7.821  1.00  0.00     0.059 A 
ATOM     44  F   UNL     1      10.133  -5.997  -5.557  1.00  0.00    -0.206 F 
ATOM     45  C   UNL     1       8.721  -6.748  -8.798  1.00  0.00     0.060 A 
BRANCH  45  46
ATOM     46  S   UNL     1       8.928  -6.250 -10.522  1.00  0.00     0.124 S 
ATOM     47  O   UNL     1       9.724  -7.349 -11.055  1.00  0.00    -0.237 OA
ATOM     48  O   UNL     1       7.550  -6.172 -10.998  1.00  0.00    -0.237 OA
ATOM     49  O   UNL     1       9.613  -4.965 -10.413  1.00  0.00    -0.744 OA
ENDBRANCH  45  46
ENDBRANCH  24  38
BRANCH  25  50
ATOM     50  C   UNL     1       6.134  -8.671   3.510  1.00  0.00     0.058 A 
ATOM     51  C   UNL     1       4.789  -8.869   3.854  1.00  0.00     0.135 A 
ATOM     52  C   UNL     1       7.086  -8.661   4.539  1.00  0.00     0.135 A 
ATOM     53  F   UNL     1       3.842  -8.864   2.903  1.00  0.00    -0.206 F 
ATOM     54  C   UNL     1       4.401  -9.058   5.174  1.00  0.00     0.059 A 
ATOM     55  C   UNL     1       6.722  -8.854   5.868  1.00  0.00     0.059 A 
ATOM     56  F   UNL     1       8.382  -8.472   4.250  1.00  0.00    -0.206 F 
ATOM     57  C   UNL     1       5.375  -9.045   6.175  1.00  0.00     0.060 A 
BRANCH  57  58
ATOM     58  S   UNL     1       4.846  -9.292   7.883  1.00  0.00     0.124 S 
ATOM     59  O   UNL     1       4.136  -8.045   8.148  1.00  0.00    -0.237 OA
ATOM     60  O   UNL     1       4.014 -10.486   7.774  1.00  0.00    -0.237 OA
ATOM     61  O   UNL     1       6.103  -9.468   8.603  1.00  0.00    -0.744 OA
ENDBRANCH  57  58
ENDBRANCH  25  50
BRANCH  37  62
ATOM     62  C   UNL     1       9.406 -12.579  -1.237  1.00  0.00     0.058 A 
ATOM     63  C   UNL     1      10.797 -12.636  -1.061  1.00  0.00     0.135 A 
ATOM     64  C   UNL     1       8.710 -13.783  -1.410  1.00  0.00     0.135 A 
ATOM     65  F   UNL     1      11.502 -11.508  -0.883  1.00  0.00    -0.206 F 
ATOM     66  C   UNL     1      11.481 -13.845  -1.079  1.00  0.00     0.059 A 
ATOM     67  C   UNL     1       9.374 -15.007  -1.423  1.00  0.00     0.059 A 
ATOM     68  F   UNL     1       7.377 -13.776  -1.564  1.00  0.00    -0.206 F 
ATOM     69  C   UNL     1      10.762 -15.025  -1.275  1.00  0.00     0.060 A 
BRANCH  69  70
ATOM     70  S   UNL     1      11.654 -16.595  -1.304  1.00  0.00     0.124 S 
ATOM     71  O   UNL     1      12.134 -16.637  -2.681  1.00  0.00    -0.237 OA
ATOM     72  O   UNL     1      12.678 -16.399  -0.281  1.00  0.00    -0.237 OA
ATOM     73  O   UNL     1      10.621 -17.570  -0.965  1.00  0.00    -0.744 OA
ENDBRANCH  69  70
ENDBRANCH  37  62
ENDBRANCH  11  12
ENDBRANCH   4   6
ENDBRANCH   3   4
ENDBRANCH   2   3
ENDBRANCH   1   2
BRANCH   1  74
ATOM     74  O   UNL     1       2.362  -0.420   1.295  1.00  0.00    -0.458 OA
BRANCH  74  75
ATOM     75  C   UNL     1       1.684  -1.014   2.333  1.00  0.00     0.339 C 
ATOM     76  O   UNL     1       1.362  -0.452   3.370  1.00  0.00    -0.246 OA
BRANCH  75  77
ATOM     77  C   UNL     1       1.548  -2.759   1.984  1.00  0.00     0.080 A 
ATOM     78  C   UNL     1      -0.152  -3.752   1.365  1.00  0.00     0.043 A 
ATOM     79  C   UNL     1       2.818  -2.845   2.141  1.00  0.00     0.055 A 
ATOM     80  C   UNL     1      -0.911  -4.715   0.915  1.00  0.00     0.041 A 
ATOM     81  C   UNL     1       2.056  -3.844   1.929  1.00  0.00     0.023 A 
ATOM     82  Cl  UNL     1       3.898  -2.571   3.410  1.00  0.00    -0.083 Cl
ATOM     83  C   UNL     1       0.307  -4.705   1.317  1.00  0.00     0.028 A 
BRANCH  80  84
ATOM     84  N   UNL     1      -1.508  -4.565  -0.354  1.00  0.00    -0.332 N 
ATOM     85  H   UNL     1      -2.039  -5.361  -0.587  1.00  0.00     0.169 HD
BRANCH  84  86
ATOM     86  C   UNL     1      -1.564  -3.641  -1.347  1.00  0.00     0.177 C 
ATOM     87  S   UNL     1      -2.394  -4.087  -2.739  1.00  0.00    -0.040 S 
BRANCH  86  88
ATOM     88  N   UNL     1      -1.116  -2.343  -1.294  1.00  0.00    -0.299 N 
ATOM     89  C   UNL     1      -0.442  -1.506  -0.407  1.00  0.00     0.260 C 
ATOM     90  H   UNL     1      -1.335  -1.865  -2.126  1.00  0.00     0.172 HD
ATOM     91  O   UNL     1      -0.588  -0.292  -0.377  1.00  0.00    -0.269 OA
BRANCH  89  92
ATOM     92  C   UNL     1       0.399  -2.174   0.576  1.00  0.00     0.075 A 
ATOM     93  C   UNL     1      -0.199  -2.288   2.492  1.00  0.00     0.017 A 
ATOM     94  C   UNL     1       1.454  -3.681  -0.125  1.00  0.00     0.135 A 
ATOM     95  C   UNL     1       0.370  -3.936   3.408  1.00  0.00     0.001 A 
ATOM     96  C   UNL     1       1.996  -5.338   0.792  1.00  0.00     0.040 A 
ATOM     97  F   UNL     1       1.613  -3.700  -1.463  1.00  0.00    -0.206 F 
ATOM     98  C   UNL     1       1.391  -5.456   2.696  1.00  0.00     0.003 A 
ENDBRANCH  89  92
ENDBRANCH  86  88
ENDBRANCH  84  86
ENDBRANCH  80  84
ENDBRANCH  75  77
ENDBRANCH  74  75
ENDBRANCH   1  74
TORSDOF 18
