REMARK SMILES O=C(OCCOC(=O)c1ccc(-c2c3nc(c(-c4c(F)cc(S(=O)(=O)[O-])cc4F)c4ccc([nH]4)c(-c4c(F)cc(S(=O)(=O)[O-])cc4F)c4nc(c(-c5c(F)cc(S(=O)(=O)[O-])cc5F)c5ccc2[nH]5)C=C4)C=C3)cc1)c1ccc(NC(=O)[C@@H]2CC=CC[C@@H]2C(=O)Nc2ccc(Br)cc2)cc1
REMARK SMILES IDX 4 1 3 2 2 3 1 4 75 5 76 6 99 7 77 8 98 9 78 10 79 11 80 12
REMARK SMILES IDX 81 14 82 15 83 16 87 17 84 18 86 19 85 20 88 21 89 22 90 23
REMARK SMILES IDX 91 25 92 26 97 27 93 28 96 29 94 30 95 31 5 32 6 33 7 34
REMARK SMILES IDX 8 35 9 36 10 37 74 38 11 39 73 40 12 41 13 42 14 43 67 44
REMARK SMILES IDX 15 45 72 46 66 47 68 48 16 49 71 50 65 51 64 52 17 54 51 55
REMARK SMILES IDX 30 56 50 57 31 58 34 59 49 60 69 61 32 62 33 63 48 65 70 66
REMARK SMILES IDX 35 67 18 68 19 69 28 70 20 71 21 72 27 73 29 74 22 75 23 76
REMARK SMILES IDX 24 77 25 78 26 79 52 80 53 81 62 82 54 83 55 84 61 85 63 86
REMARK SMILES IDX 56 87 57 88 58 89 59 90 60 91 36 92 37 93 46 94 38 95 39 96
REMARK SMILES IDX 45 97 47 98 40 99 41 100 42 101 43 102 44 103
REMARK H PARENT 79 13 90 24 68 53 34 64
REMARK Flexibility Score: inf
ROOT
ATOM      1  C   UNL     1       5.332  -5.968  -7.195  1.00  0.00     0.275 C 
ENDROOT
BRANCH   1   2
ATOM      2  O   UNL     1       4.496  -4.883  -7.647  1.00  0.00    -0.458 OA
BRANCH   2   3
ATOM      3  C   UNL     1       3.667  -4.045  -6.975  1.00  0.00     0.338 C 
ATOM      4  O   UNL     1       2.905  -3.329  -7.624  1.00  0.00    -0.246 OA
BRANCH   3   5
ATOM      5  C   UNL     1       3.725  -3.829  -5.495  1.00  0.00     0.060 A 
ATOM      6  C   UNL     1       4.175  -4.748  -4.560  1.00  0.00     0.018 A 
ATOM      7  C   UNL     1       3.292  -2.589  -4.997  1.00  0.00     0.018 A 
ATOM      8  C   UNL     1       4.431  -4.361  -3.239  1.00  0.00     0.027 A 
ATOM      9  C   UNL     1       3.518  -2.226  -3.659  1.00  0.00     0.027 A 
ATOM     10  C   UNL     1       4.252  -3.052  -2.815  1.00  0.00     0.041 A 
BRANCH  10  11
ATOM     11  N   UNL     1       4.829  -2.459  -1.665  1.00  0.00    -0.326 N 
ATOM     12  C   UNL     1       5.972  -2.758  -0.948  1.00  0.00     0.228 C 
ATOM     13  H   UNL     1       4.322  -1.692  -1.311  1.00  0.00     0.169 HD
ATOM     14  O   UNL     1       6.407  -1.921  -0.157  1.00  0.00    -0.274 OA
BRANCH  12  15
ATOM     15  C   UNL     1       6.701  -4.063  -1.177  1.00  0.00     0.095 C 
ATOM     16  C   UNL     1       6.101  -5.187  -0.330  1.00  0.00     0.041 C 
ATOM     17  C   UNL     1       8.240  -4.050  -1.145  1.00  0.00     0.095 C 
ATOM     18  C   UNL     1       6.716  -6.504  -0.709  1.00  0.00    -0.030 C 
ATOM     19  C   UNL     1       8.704  -5.394  -1.781  1.00  0.00     0.041 C 
ATOM     20  C   UNL     1       7.870  -6.593  -1.390  1.00  0.00    -0.030 C 
BRANCH  17  21
ATOM     21  C   UNL     1       8.920  -3.871   0.216  1.00  0.00     0.228 C 
ATOM     22  O   UNL     1       8.312  -3.971   1.282  1.00  0.00    -0.274 OA
ATOM     23  N   UNL     1      10.292  -3.755   0.279  1.00  0.00    -0.326 N 
ATOM     24  H   UNL     1      10.665  -3.802   1.189  1.00  0.00     0.169 HD
BRANCH  23  25
ATOM     25  C   UNL     1      11.247  -3.582  -0.735  1.00  0.00     0.041 A 
ATOM     26  C   UNL     1      12.449  -4.289  -0.619  1.00  0.00     0.027 A 
ATOM     27  C   UNL     1      11.055  -2.744  -1.835  1.00  0.00     0.027 A 
ATOM     28  C   UNL     1      13.395  -4.248  -1.648  1.00  0.00     0.018 A 
ATOM     29  C   UNL     1      12.004  -2.690  -2.861  1.00  0.00     0.018 A 
ATOM     30  C   UNL     1      13.159  -3.462  -2.773  1.00  0.00     0.018 A 
ATOM     31  Br  UNL     1      14.414  -3.440  -4.186  1.00  0.00    -0.051 Br
ENDBRANCH  23  25
ENDBRANCH  17  21
ENDBRANCH  12  15
ENDBRANCH  10  11
ENDBRANCH   3   5
ENDBRANCH   2   3
ENDBRANCH   1   2
BRANCH   1  32
ATOM     32  C   UNL     1       6.761  -5.576  -6.805  1.00  0.00     0.275 C 
BRANCH  32  33
ATOM     33  O   UNL     1       6.829  -4.361  -6.050  1.00  0.00    -0.458 OA
BRANCH  33  34
ATOM     34  C   UNL     1       7.027  -3.245  -6.808  1.00  0.00     0.338 C 
ATOM     35  O   UNL     1       7.218  -3.210  -8.004  1.00  0.00    -0.246 OA
BRANCH  34  36
ATOM     36  C   UNL     1       6.853  -2.037  -5.969  1.00  0.00     0.060 A 
ATOM     37  C   UNL     1       6.138  -0.962  -6.508  1.00  0.00     0.016 A 
ATOM     38  C   UNL     1       7.393  -1.946  -4.684  1.00  0.00     0.016 A 
ATOM     39  C   UNL     1       5.967   0.213  -5.769  1.00  0.00     0.010 A 
ATOM     40  C   UNL     1       7.215  -0.772  -3.943  1.00  0.00     0.010 A 
ATOM     41  C   UNL     1       6.515   0.325  -4.484  1.00  0.00    -0.014 A 
BRANCH  41  42
ATOM     42  C   UNL     1       6.463   1.608  -3.730  1.00  0.00     0.031 A 
ATOM     43  C   UNL     1       7.704   2.444  -3.616  1.00  0.00     0.074 A 
ATOM     44  C   UNL     1       5.344   2.021  -3.105  1.00  0.00     0.049 A 
ATOM     45  N   UNL     1       7.898   3.543  -2.935  1.00  0.00    -0.248 NA
ATOM     46  C   UNL     1       8.872   1.989  -4.384  1.00  0.00     0.031 C 
ATOM     47  C   UNL     1       4.046   1.371  -3.198  1.00  0.00     0.029 A 
ATOM     48  N   UNL     1       5.129   3.064  -2.237  1.00  0.00    -0.354 N 
ATOM     49  C   UNL     1       9.207   3.919  -3.196  1.00  0.00     0.074 A 
ATOM     50  C   UNL     1       9.774   2.903  -4.059  1.00  0.00     0.031 C 
ATOM     51  C   UNL     1       3.194   1.950  -2.336  1.00  0.00     0.029 A 
ATOM     52  C   UNL     1       3.883   3.044  -1.654  1.00  0.00     0.049 A 
ATOM     53  H   UNL     1       5.801   3.758  -2.050  1.00  0.00     0.167 HD
ATOM     54  C   UNL     1       9.871   5.022  -2.774  1.00  0.00     0.037 A 
ATOM     55  C   UNL     1       3.352   3.812  -0.681  1.00  0.00     0.037 A 
ATOM     56  C   UNL     1       9.315   6.028  -1.908  1.00  0.00     0.049 A 
ATOM     57  C   UNL     1       4.135   4.978  -0.142  1.00  0.00     0.074 A 
ATOM     58  C   UNL     1       9.904   7.200  -1.468  1.00  0.00     0.029 A 
ATOM     59  N   UNL     1       8.056   5.973  -1.328  1.00  0.00    -0.354 N 
ATOM     60  N   UNL     1       5.348   5.367  -0.456  1.00  0.00    -0.248 NA
ATOM     61  C   UNL     1       3.470   5.832   0.853  1.00  0.00     0.031 C 
ATOM     62  C   UNL     1       9.027   7.823  -0.573  1.00  0.00     0.029 A 
ATOM     63  C   UNL     1       7.865   7.071  -0.504  1.00  0.00     0.049 A 
ATOM     64  H   UNL     1       7.396   5.258  -1.479  1.00  0.00     0.167 HD
ATOM     65  C   UNL     1       5.574   6.533   0.268  1.00  0.00     0.074 A 
ATOM     66  C   UNL     1       4.378   6.782   1.044  1.00  0.00     0.031 C 
ATOM     67  C   UNL     1       6.671   7.331   0.266  1.00  0.00     0.037 A 
BRANCH  54  68
ATOM     68  C   UNL     1      11.294   5.168  -3.227  1.00  0.00     0.058 A 
ATOM     69  C   UNL     1      11.620   5.445  -4.565  1.00  0.00     0.135 A 
ATOM     70  C   UNL     1      12.347   5.003  -2.314  1.00  0.00     0.135 A 
ATOM     71  F   UNL     1      10.650   5.597  -5.481  1.00  0.00    -0.206 F 
ATOM     72  C   UNL     1      12.942   5.496  -4.993  1.00  0.00     0.059 A 
ATOM     73  C   UNL     1      13.676   5.080  -2.714  1.00  0.00     0.059 A 
ATOM     74  F   UNL     1      12.089   4.741  -1.024  1.00  0.00    -0.206 F 
ATOM     75  C   UNL     1      13.962   5.299  -4.061  1.00  0.00     0.060 A 
BRANCH  75  76
ATOM     76  S   UNL     1      15.671   5.304  -4.640  1.00  0.00     0.124 S 
ATOM     77  O   UNL     1      15.751   4.011  -5.312  1.00  0.00    -0.237 OA
ATOM     78  O   UNL     1      15.704   6.474  -5.511  1.00  0.00    -0.237 OA
ATOM     79  O   UNL     1      16.446   5.421  -3.409  1.00  0.00    -0.744 OA
ENDBRANCH  75  76
ENDBRANCH  54  68
BRANCH  55  80
ATOM     80  C   UNL     1       1.990   3.503  -0.171  1.00  0.00     0.058 A 
ATOM     81  C   UNL     1       0.887   4.300  -0.507  1.00  0.00     0.135 A 
ATOM     82  C   UNL     1       1.763   2.376   0.635  1.00  0.00     0.135 A 
ATOM     83  F   UNL     1       1.055   5.391  -1.268  1.00  0.00    -0.206 F 
ATOM     84  C   UNL     1      -0.396   3.991  -0.064  1.00  0.00     0.059 A 
ATOM     85  C   UNL     1       0.488   2.037   1.077  1.00  0.00     0.059 A 
ATOM     86  F   UNL     1       2.785   1.574   0.971  1.00  0.00    -0.206 F 
ATOM     87  C   UNL     1      -0.586   2.851   0.721  1.00  0.00     0.060 A 
BRANCH  87  88
ATOM     88  S   UNL     1      -2.268   2.415   1.216  1.00  0.00     0.124 S 
ATOM     89  O   UNL     1      -2.569   3.454   2.193  1.00  0.00    -0.237 OA
ATOM     90  O   UNL     1      -2.988   2.501  -0.051  1.00  0.00    -0.237 OA
ATOM     91  O   UNL     1      -2.121   1.065   1.754  1.00  0.00    -0.744 OA
ENDBRANCH  87  88
ENDBRANCH  55  80
BRANCH  67  92
ATOM     92  C   UNL     1       6.638   8.589   1.093  1.00  0.00     0.058 A 
ATOM     93  C   UNL     1       6.739   8.563   2.492  1.00  0.00     0.135 A 
ATOM     94  C   UNL     1       6.606   9.845   0.463  1.00  0.00     0.135 A 
ATOM     95  F   UNL     1       6.763   7.392   3.146  1.00  0.00    -0.206 F 
ATOM     96  C   UNL     1       6.811   9.737   3.238  1.00  0.00     0.059 A 
ATOM     97  C   UNL     1       6.702  11.031   1.187  1.00  0.00     0.059 A 
ATOM     98  F   UNL     1       6.515   9.930  -0.874  1.00  0.00    -0.206 F 
ATOM     99  C   UNL     1       6.802  10.967   2.575  1.00  0.00     0.060 A 
BRANCH  99 100
ATOM    100  S   UNL     1       6.975  12.479   3.548  1.00  0.00     0.124 S 
ATOM    101  O   UNL     1       5.666  12.570   4.188  1.00  0.00    -0.237 OA
ATOM    102  O   UNL     1       8.091  12.157   4.431  1.00  0.00    -0.237 OA
ATOM    103  O   UNL     1       7.254  13.501   2.543  1.00  0.00    -0.744 OA
ENDBRANCH  99 100
ENDBRANCH  67  92
ENDBRANCH  41  42
ENDBRANCH  34  36
ENDBRANCH  33  34
ENDBRANCH  32  33
ENDBRANCH   1  32
TORSDOF 18
