REMARK SMILES C[C@H](C(=O)OCCOC(=O)c1ccc(-c2c3nc(c(-c4c(F)cc(S(=O)(=O)[O-])cc4F)c4ccc([nH]4)c(-c4c(F)cc(S(=O)(=O)[O-])cc4F)c4nc(c(-c5c(F)cc(S(=O)(=O)[O-])cc5F)c5ccc2[nH]5)C=C4)C=C3)cc1)[C@@H](C)C(=O)[C@H]1CC[C@H](C)CC1
REMARK SMILES IDX 6 1 5 2 3 3 4 4 2 5 1 6 77 7 78 8 79 9 80 10 81 11 85 12
REMARK SMILES IDX 84 13 83 14 86 15 82 16 87 17 7 18 8 19 9 20 10 21 11 22
REMARK SMILES IDX 12 23 76 24 13 25 75 26 14 27 15 28 16 29 69 30 17 31 74 32
REMARK SMILES IDX 68 33 70 34 18 35 73 36 67 37 66 38 19 40 53 41 32 42 52 43
REMARK SMILES IDX 33 44 36 45 51 46 71 47 34 48 35 49 50 51 72 52 37 53 20 54
REMARK SMILES IDX 21 55 30 56 22 57 23 58 29 59 31 60 24 61 25 62 26 63 27 64
REMARK SMILES IDX 28 65 54 66 55 67 64 68 56 69 57 70 63 71 65 72 58 73 59 74
REMARK SMILES IDX 60 75 61 76 62 77 38 78 39 79 48 80 40 81 41 82 47 83 49 84
REMARK SMILES IDX 42 85 43 86 44 87 45 88 46 89
REMARK H PARENT 70 39 36 50
REMARK Flexibility Score: inf
ROOT
ATOM      1  C   UNL     1      -4.616   0.306   5.622  1.00  0.00     0.274 C 
ENDROOT
BRANCH   1   2
ATOM      2  O   UNL     1      -4.566   0.406   4.181  1.00  0.00    -0.462 OA
BRANCH   2   3
ATOM      3  C   UNL     1      -3.499   1.057   3.649  1.00  0.00     0.309 C 
ATOM      4  O   UNL     1      -2.571   1.520   4.303  1.00  0.00    -0.252 OA
BRANCH   3   5
ATOM      5  C   UNL     1      -3.595   1.260   2.149  1.00  0.00     0.106 C 
ATOM      6  C   UNL     1      -4.378   0.148   1.455  1.00  0.00     0.021 C 
BRANCH   5   7
ATOM      7  C   UNL     1      -3.980   2.720   1.799  1.00  0.00     0.067 C 
ATOM      8  C   UNL     1      -3.989   2.955   0.283  1.00  0.00     0.017 C 
BRANCH   7   9
ATOM      9  C   UNL     1      -5.326   3.191   2.368  1.00  0.00     0.139 C 
ATOM     10  O   UNL     1      -6.381   2.693   1.962  1.00  0.00    -0.299 OA
BRANCH   9  11
ATOM     11  C   UNL     1      -5.373   4.262   3.478  1.00  0.00     0.056 C 
ATOM     12  C   UNL     1      -3.969   6.714   6.869  1.00  0.00     0.007 C 
ATOM     13  C   UNL     1      -4.043   5.785   5.662  1.00  0.00    -0.014 C 
ATOM     14  C   UNL     1      -4.557   6.493   4.401  1.00  0.00     0.004 C 
ATOM     15  C   UNL     1      -4.940   4.588   5.979  1.00  0.00     0.004 C 
ATOM     16  C   UNL     1      -4.582   5.545   3.190  1.00  0.00     0.012 C 
ATOM     17  C   UNL     1      -4.962   3.633   4.802  1.00  0.00     0.012 C 
ENDBRANCH   9  11
ENDBRANCH   7   9
ENDBRANCH   5   7
ENDBRANCH   3   5
ENDBRANCH   2   3
ENDBRANCH   1   2
BRANCH   1  18
ATOM     18  C   UNL     1      -4.009  -0.988   6.166  1.00  0.00     0.275 C 
BRANCH  18  19
ATOM     19  O   UNL     1      -2.575  -0.965   6.091  1.00  0.00    -0.458 OA
BRANCH  19  20
ATOM     20  C   UNL     1      -2.068  -1.417   4.919  1.00  0.00     0.338 C 
ATOM     21  O   UNL     1      -2.689  -1.933   4.005  1.00  0.00    -0.246 OA
BRANCH  20  22
ATOM     22  C   UNL     1      -0.653  -1.025   4.808  1.00  0.00     0.060 A 
ATOM     23  C   UNL     1      -0.249  -0.411   3.616  1.00  0.00     0.016 A 
ATOM     24  C   UNL     1       0.269  -1.290   5.821  1.00  0.00     0.016 A 
ATOM     25  C   UNL     1       1.082  -0.071   3.420  1.00  0.00     0.010 A 
ATOM     26  C   UNL     1       1.613  -0.975   5.613  1.00  0.00     0.010 A 
ATOM     27  C   UNL     1       2.023  -0.389   4.402  1.00  0.00    -0.014 A 
BRANCH  27  28
ATOM     28  C   UNL     1       3.458  -0.272   4.080  1.00  0.00     0.031 A 
ATOM     29  C   UNL     1       4.184  -1.505   3.627  1.00  0.00     0.074 A 
ATOM     30  C   UNL     1       4.080   0.917   4.152  1.00  0.00     0.049 A 
ATOM     31  N   UNL     1       5.454  -1.674   3.377  1.00  0.00    -0.248 NA
ATOM     32  C   UNL     1       3.363  -2.713   3.428  1.00  0.00     0.031 C 
ATOM     33  C   UNL     1       3.442   2.184   4.509  1.00  0.00     0.029 A 
ATOM     34  N   UNL     1       5.391   1.248   3.935  1.00  0.00    -0.354 N 
ATOM     35  C   UNL     1       5.591  -3.009   3.016  1.00  0.00     0.074 A 
ATOM     36  C   UNL     1       4.277  -3.609   3.087  1.00  0.00     0.031 C 
ATOM     37  C   UNL     1       4.370   3.155   4.504  1.00  0.00     0.029 A 
ATOM     38  C   UNL     1       5.671   2.570   4.184  1.00  0.00     0.049 A 
ATOM     39  H   UNL     1       6.068   0.602   3.630  1.00  0.00     0.167 HD
ATOM     40  C   UNL     1       6.716  -3.670   2.659  1.00  0.00     0.037 A 
ATOM     41  C   UNL     1       6.851   3.218   4.186  1.00  0.00     0.037 A 
ATOM     42  C   UNL     1       8.012  -3.051   2.590  1.00  0.00     0.049 A 
ATOM     43  C   UNL     1       8.101   2.446   3.850  1.00  0.00     0.074 A 
ATOM     44  C   UNL     1       9.223  -3.622   2.244  1.00  0.00     0.029 A 
ATOM     45  N   UNL     1       8.264  -1.716   2.876  1.00  0.00    -0.354 N 
ATOM     46  N   UNL     1       8.226   1.179   3.527  1.00  0.00    -0.248 NA
ATOM     47  C   UNL     1       9.369   3.186   3.884  1.00  0.00     0.031 C 
ATOM     48  C   UNL     1      10.214  -2.640   2.360  1.00  0.00     0.029 A 
ATOM     49  C   UNL     1       9.614  -1.447   2.732  1.00  0.00     0.049 A 
ATOM     50  H   UNL     1       7.582  -1.057   3.142  1.00  0.00     0.167 HD
ATOM     51  C   UNL     1       9.582   0.976   3.297  1.00  0.00     0.074 A 
ATOM     52  C   UNL     1      10.234   2.253   3.509  1.00  0.00     0.031 C 
ATOM     53  C   UNL     1      10.231  -0.161   2.943  1.00  0.00     0.037 A 
BRANCH  40  54
ATOM     54  C   UNL     1       6.594  -5.138   2.363  1.00  0.00     0.058 A 
ATOM     55  C   UNL     1       5.980  -5.612   1.194  1.00  0.00     0.135 A 
ATOM     56  C   UNL     1       7.109  -6.085   3.263  1.00  0.00     0.135 A 
ATOM     57  F   UNL     1       5.448  -4.750   0.312  1.00  0.00    -0.206 F 
ATOM     58  C   UNL     1       5.860  -6.975   0.937  1.00  0.00     0.059 A 
ATOM     59  C   UNL     1       7.022  -7.452   3.015  1.00  0.00     0.059 A 
ATOM     60  F   UNL     1       7.698  -5.686   4.401  1.00  0.00    -0.206 F 
ATOM     61  C   UNL     1       6.383  -7.887   1.856  1.00  0.00     0.060 A 
BRANCH  61  62
ATOM     62  S   UNL     1       6.221  -9.652   1.510  1.00  0.00     0.124 S 
ATOM     63  O   UNL     1       4.804  -9.873   1.778  1.00  0.00    -0.237 OA
ATOM     64  O   UNL     1       6.621  -9.734   0.109  1.00  0.00    -0.237 OA
ATOM     65  O   UNL     1       7.143 -10.270   2.459  1.00  0.00    -0.744 OA
ENDBRANCH  61  62
ENDBRANCH  40  54
BRANCH  41  66
ATOM     66  C   UNL     1       6.909   4.660   4.542  1.00  0.00     0.058 A 
ATOM     67  C   UNL     1       7.219   5.633   3.581  1.00  0.00     0.135 A 
ATOM     68  C   UNL     1       6.645   5.096   5.851  1.00  0.00     0.135 A 
ATOM     69  F   UNL     1       7.489   5.267   2.319  1.00  0.00    -0.206 F 
ATOM     70  C   UNL     1       7.274   6.986   3.905  1.00  0.00     0.059 A 
ATOM     71  C   UNL     1       6.670   6.444   6.194  1.00  0.00     0.059 A 
ATOM     72  F   UNL     1       6.334   4.206   6.806  1.00  0.00    -0.206 F 
ATOM     73  C   UNL     1       6.995   7.382   5.215  1.00  0.00     0.060 A 
BRANCH  73  74
ATOM     74  S   UNL     1       7.019   9.143   5.614  1.00  0.00     0.124 S 
ATOM     75  O   UNL     1       8.450   9.422   5.629  1.00  0.00    -0.237 OA
ATOM     76  O   UNL     1       6.267   9.720   4.503  1.00  0.00    -0.237 OA
ATOM     77  O   UNL     1       6.349   9.202   6.910  1.00  0.00    -0.744 OA
ENDBRANCH  73  74
ENDBRANCH  41  66
BRANCH  53  78
ATOM     78  C   UNL     1      11.715  -0.066   2.727  1.00  0.00     0.058 A 
ATOM     79  C   UNL     1      12.610   0.041   3.801  1.00  0.00     0.135 A 
ATOM     80  C   UNL     1      12.248  -0.142   1.430  1.00  0.00     0.135 A 
ATOM     81  F   UNL     1      12.150   0.123   5.060  1.00  0.00    -0.206 F 
ATOM     82  C   UNL     1      13.985   0.091   3.596  1.00  0.00     0.059 A 
ATOM     83  C   UNL     1      13.619  -0.120   1.203  1.00  0.00     0.059 A 
ATOM     84  F   UNL     1      11.432  -0.258   0.369  1.00  0.00    -0.206 F 
ATOM     85  C   UNL     1      14.480   0.009   2.293  1.00  0.00     0.060 A 
BRANCH  85  86
ATOM     86  S   UNL     1      16.267   0.039   2.041  1.00  0.00     0.124 S 
ATOM     87  O   UNL     1      16.568   1.451   2.248  1.00  0.00    -0.237 OA
ATOM     88  O   UNL     1      16.745  -0.871   3.077  1.00  0.00    -0.237 OA
ATOM     89  O   UNL     1      16.424  -0.443   0.672  1.00  0.00    -0.744 OA
ENDBRANCH  85  86
ENDBRANCH  53  78
ENDBRANCH  27  28
ENDBRANCH  20  22
ENDBRANCH  19  20
ENDBRANCH  18  19
ENDBRANCH   1  18
TORSDOF 17
