REMARK SMILES Cc1cc(C)c2c(c1)C=C(C(=O)OCCOC(=O)c1ccc(-c3c4nc(c(-c5c(F)cc(S(=O)(=O)[O-])cc5F)c5ccc([nH]5)c(-c5c(F)cc(S(=O)(=O)[O-])cc5F)c5nc(c(-c6c(F)cc(S(=O)(=O)[O-])cc6F)c6ccc3[nH]6)C=C5)C=C4)cc1)[C@@H](C(F)(F)F)O2
REMARK SMILES IDX 15 1 14 2 13 3 11 4 12 5 10 6 1 7 2 8 3 9 8 10 4 11 7 12
REMARK SMILES IDX 5 13 6 14 9 15 90 16 85 17 86 18 87 19 88 20 89 21 16 22
REMARK SMILES IDX 17 23 18 24 19 25 20 26 84 27 21 28 83 29 22 30 23 31 24 32
REMARK SMILES IDX 77 33 25 34 82 35 76 36 78 37 26 38 81 39 75 40 74 41 27 43
REMARK SMILES IDX 61 44 40 45 60 46 41 47 44 48 59 49 79 50 42 51 43 52 58 54
REMARK SMILES IDX 80 55 45 56 28 57 29 58 38 59 30 60 31 61 37 62 39 63 32 64
REMARK SMILES IDX 33 65 34 66 35 67 36 68 62 69 63 70 72 71 64 72 65 73 71 74
REMARK SMILES IDX 73 75 66 76 67 77 68 78 69 79 70 80 46 81 47 82 56 83 48 84
REMARK SMILES IDX 49 85 55 86 57 87 50 88 51 89 52 90 53 91 54 92
REMARK H PARENT 78 42 44 53
REMARK Flexibility Score: inf
ROOT
ATOM      1  C   UNL     1       3.180   9.682   0.199  1.00  0.00     0.275 C 
ENDROOT
BRANCH   1   2
ATOM      2  C   UNL     1       1.653   9.593   0.262  1.00  0.00     0.275 C 
BRANCH   2   3
ATOM      3  O   UNL     1       1.209   8.367   0.884  1.00  0.00    -0.459 OA
BRANCH   3   4
ATOM      4  C   UNL     1       0.773   7.411   0.030  1.00  0.00     0.338 C 
ATOM      5  O   UNL     1       0.709   7.505  -1.187  1.00  0.00    -0.246 OA
BRANCH   4   6
ATOM      6  C   UNL     1       0.397   6.183   0.757  1.00  0.00     0.087 C 
ATOM      7  C   UNL     1       0.772   0.071   0.202  1.00  0.00     0.044 C 
ATOM      8  C   UNL     1       0.342   1.361   0.837  1.00  0.00    -0.050 A 
ATOM      9  C   UNL     1      -0.542   1.393   1.921  1.00  0.00     0.010 A 
ATOM     10  C   UNL     1       0.803   2.568   0.314  1.00  0.00     0.015 A 
ATOM     11  C   UNL     1      -0.951   2.614   2.492  1.00  0.00    -0.008 A 
ATOM     12  C   UNL     1       0.387   3.787   0.863  1.00  0.00     0.018 A 
ATOM     13  C   UNL     1      -1.903   2.613   3.652  1.00  0.00     0.048 C 
ATOM     14  C   UNL     1      -0.472   3.819   1.958  1.00  0.00     0.130 A 
ATOM     15  C   UNL     1       0.823   5.022   0.253  1.00  0.00     0.027 C 
ATOM     16  O   UNL     1      -0.871   4.988   2.553  1.00  0.00    -0.475 OA
ATOM     17  C   UNL     1      -0.547   6.261   1.919  1.00  0.00     0.316 C 
BRANCH  17  18
ATOM     18  C   UNL     1      -1.861   6.949   1.513  1.00  0.00     0.430 C 
ATOM     19  F   UNL     1      -2.726   7.017   2.554  1.00  0.00    -0.167 F 
ATOM     20  F   UNL     1      -1.653   8.227   1.108  1.00  0.00    -0.167 F 
ATOM     21  F   UNL     1      -2.491   6.306   0.505  1.00  0.00    -0.167 F 
ENDBRANCH  17  18
ENDBRANCH   4   6
ENDBRANCH   3   4
ENDBRANCH   2   3
ENDBRANCH   1   2
BRANCH   1  22
ATOM     22  O   UNL     1       3.723   8.688  -0.688  1.00  0.00    -0.458 OA
BRANCH  22  23
ATOM     23  C   UNL     1       4.244   7.606  -0.067  1.00  0.00     0.338 C 
ATOM     24  O   UNL     1       4.306   7.407   1.135  1.00  0.00    -0.246 OA
BRANCH  23  25
ATOM     25  C   UNL     1       4.664   6.593  -1.044  1.00  0.00     0.060 A 
ATOM     26  C   UNL     1       3.676   5.817  -1.632  1.00  0.00     0.016 A 
ATOM     27  C   UNL     1       6.002   6.241  -1.184  1.00  0.00     0.016 A 
ATOM     28  C   UNL     1       3.998   4.585  -2.188  1.00  0.00     0.010 A 
ATOM     29  C   UNL     1       6.335   5.086  -1.904  1.00  0.00     0.010 A 
ATOM     30  C   UNL     1       5.335   4.210  -2.368  1.00  0.00    -0.014 A 
BRANCH  30  31
ATOM     31  C   UNL     1       5.683   2.921  -3.037  1.00  0.00     0.031 A 
ATOM     32  C   UNL     1       6.633   1.948  -2.379  1.00  0.00     0.074 A 
ATOM     33  C   UNL     1       5.149   2.614  -4.240  1.00  0.00     0.049 A 
ATOM     34  N   UNL     1       7.245   0.912  -2.894  1.00  0.00    -0.248 NA
ATOM     35  C   UNL     1       6.949   2.177  -0.959  1.00  0.00     0.031 C 
ATOM     36  C   UNL     1       4.167   3.423  -4.968  1.00  0.00     0.029 A 
ATOM     37  N   UNL     1       5.356   1.538  -5.069  1.00  0.00    -0.354 N 
ATOM     38  C   UNL     1       8.056   0.401  -1.885  1.00  0.00     0.074 A 
ATOM     39  C   UNL     1       7.864   1.245  -0.726  1.00  0.00     0.031 C 
ATOM     40  C   UNL     1       3.823   2.797  -6.101  1.00  0.00     0.029 A 
ATOM     41  C   UNL     1       4.653   1.612  -6.250  1.00  0.00     0.049 A 
ATOM     42  H   UNL     1       5.949   0.786  -4.840  1.00  0.00     0.167 HD
ATOM     43  C   UNL     1       8.885  -0.671  -1.929  1.00  0.00     0.037 A 
ATOM     44  C   UNL     1       4.711   0.859  -7.365  1.00  0.00     0.037 A 
ATOM     45  C   UNL     1       9.030  -1.526  -3.082  1.00  0.00     0.049 A 
ATOM     46  C   UNL     1       5.686  -0.280  -7.416  1.00  0.00     0.074 A 
ATOM     47  C   UNL     1       9.851  -2.630  -3.238  1.00  0.00     0.029 A 
ATOM     48  N   UNL     1       8.323  -1.387  -4.269  1.00  0.00    -0.354 N 
ATOM     49  N   UNL     1       6.518  -0.691  -6.490  1.00  0.00    -0.248 NA
ATOM     50  C   UNL     1       5.745  -1.045  -8.667  1.00  0.00     0.031 C 
ATOM     51  C   UNL     1       9.674  -3.130  -4.532  1.00  0.00     0.029 A 
ATOM     52  C   UNL     1       8.696  -2.379  -5.162  1.00  0.00     0.049 A 
ATOM     53  H   UNL     1       7.655  -0.687  -4.449  1.00  0.00     0.167 HD
ATOM     54  C   UNL     1       7.179  -1.784  -7.035  1.00  0.00     0.074 A 
ATOM     55  C   UNL     1       6.642  -1.974  -8.368  1.00  0.00     0.031 C 
ATOM     56  C   UNL     1       8.142  -2.562  -6.481  1.00  0.00     0.037 A 
BRANCH  43  57
ATOM     57  C   UNL     1       9.727  -0.977  -0.717  1.00  0.00     0.058 A 
ATOM     58  C   UNL     1       9.176  -1.504   0.461  1.00  0.00     0.135 A 
ATOM     59  C   UNL     1      11.123  -0.815  -0.766  1.00  0.00     0.135 A 
ATOM     60  F   UNL     1       7.848  -1.665   0.574  1.00  0.00    -0.206 F 
ATOM     61  C   UNL     1       9.976  -1.852   1.548  1.00  0.00     0.059 A 
ATOM     62  C   UNL     1      11.944  -1.183   0.297  1.00  0.00     0.059 A 
ATOM     63  F   UNL     1      11.706  -0.314  -1.866  1.00  0.00    -0.206 F 
ATOM     64  C   UNL     1      11.360  -1.695   1.453  1.00  0.00     0.060 A 
BRANCH  64  65
ATOM     65  S   UNL     1      12.383  -2.185   2.859  1.00  0.00     0.124 S 
ATOM     66  O   UNL     1      12.014  -1.181   3.853  1.00  0.00    -0.237 OA
ATOM     67  O   UNL     1      11.915  -3.541   3.124  1.00  0.00    -0.237 OA
ATOM     68  O   UNL     1      13.745  -2.082   2.344  1.00  0.00    -0.744 OA
ENDBRANCH  64  65
ENDBRANCH  43  57
BRANCH  44  69
ATOM     69  C   UNL     1       3.848   1.194  -8.531  1.00  0.00     0.058 A 
ATOM     70  C   UNL     1       2.806   0.343  -8.925  1.00  0.00     0.135 A 
ATOM     71  C   UNL     1       4.023   2.388  -9.252  1.00  0.00     0.135 A 
ATOM     72  F   UNL     1       2.604  -0.814  -8.275  1.00  0.00    -0.206 F 
ATOM     73  C   UNL     1       1.971   0.658  -9.992  1.00  0.00     0.059 A 
ATOM     74  C   UNL     1       3.179   2.742 -10.300  1.00  0.00     0.059 A 
ATOM     75  F   UNL     1       4.996   3.246  -8.909  1.00  0.00    -0.206 F 
ATOM     76  C   UNL     1       2.161   1.865 -10.668  1.00  0.00     0.060 A 
BRANCH  76  77
ATOM     77  S   UNL     1       1.036   2.287 -12.016  1.00  0.00     0.124 S 
ATOM     78  O   UNL     1       1.429   1.325 -13.039  1.00  0.00    -0.237 OA
ATOM     79  O   UNL     1      -0.270   2.069 -11.401  1.00  0.00    -0.237 OA
ATOM     80  O   UNL     1       1.361   3.681 -12.302  1.00  0.00    -0.744 OA
ENDBRANCH  76  77
ENDBRANCH  44  69
BRANCH  56  81
ATOM     81  C   UNL     1       8.632  -3.729  -7.291  1.00  0.00     0.058 A 
ATOM     82  C   UNL     1       9.439  -3.561  -8.426  1.00  0.00     0.135 A 
ATOM     83  C   UNL     1       8.309  -5.040  -6.902  1.00  0.00     0.135 A 
ATOM     84  F   UNL     1       9.770  -2.329  -8.844  1.00  0.00    -0.206 F 
ATOM     85  C   UNL     1       9.881  -4.651  -9.168  1.00  0.00     0.059 A 
ATOM     86  C   UNL     1       8.767  -6.145  -7.610  1.00  0.00     0.059 A 
ATOM     87  F   UNL     1       7.548  -5.255  -5.817  1.00  0.00    -0.206 F 
ATOM     88  C   UNL     1       9.539  -5.939  -8.751  1.00  0.00     0.060 A 
BRANCH  88  89
ATOM     89  S   UNL     1      10.129  -7.344  -9.719  1.00  0.00     0.124 S 
ATOM     90  O   UNL     1       9.321  -7.227 -10.928  1.00  0.00    -0.237 OA
ATOM     91  O   UNL     1      11.548  -7.041  -9.873  1.00  0.00    -0.237 OA
ATOM     92  O   UNL     1       9.826  -8.493  -8.871  1.00  0.00    -0.744 OA
ENDBRANCH  88  89
ENDBRANCH  56  81
ENDBRANCH  30  31
ENDBRANCH  23  25
ENDBRANCH  22  23
ENDBRANCH   1  22
TORSDOF 15
