REMARK SMILES CN1CC(=O)N(CC(=O)N2CCCC[C@H]2C(=O)OCCOC(=O)c2ccc(-c3c4nc(c(-c5c(F)cc(S(=O)(=O)[O-])cc5F)c5ccc([nH]5)c(-c5c(F)cc(S(=O)(=O)[O-])cc5F)c5nc(c(-c6c(F)cc(S(=O)(=O)[O-])cc6F)c6ccc3[nH]6)C=C5)C=C4)cc2)C1=O
REMARK SMILES IDX 19 1 18 2 16 3 17 4 15 5 10 6 11 7 12 8 14 9 13 10 8 11 9 12
REMARK SMILES IDX 7 13 6 14 1 15 2 16 3 17 90 18 4 19 91 20 5 21 20 22 21 23
REMARK SMILES IDX 22 24 23 25 24 26 25 27 89 28 26 29 88 30 27 31 28 32 29 33
REMARK SMILES IDX 82 34 30 35 87 36 81 37 83 38 31 39 86 40 80 41 79 42 32 44
REMARK SMILES IDX 66 45 45 46 65 47 46 48 49 49 64 50 84 51 47 52 48 53 63 55
REMARK SMILES IDX 85 56 50 57 33 58 34 59 43 60 35 61 36 62 42 63 44 64 37 65
REMARK SMILES IDX 38 66 39 67 40 68 41 69 67 70 68 71 77 72 69 73 70 74 76 75
REMARK SMILES IDX 78 76 71 77 72 78 73 79 74 80 75 81 51 82 52 83 61 84 53 85
REMARK SMILES IDX 54 86 60 87 62 88 55 89 56 90 57 91 58 92 59 93
REMARK H PARENT 83 43 49 54
REMARK Flexibility Score: inf
ROOT
ATOM      1  C   UNL     1      -2.076   3.888  -0.672  1.00  0.00     0.274 C 
ENDROOT
BRANCH   1   2
ATOM      2  O   UNL     1      -2.629   2.623  -0.254  1.00  0.00    -0.461 OA
BRANCH   2   3
ATOM      3  C   UNL     1      -2.721   2.449   1.094  1.00  0.00     0.328 C 
ATOM      4  O   UNL     1      -2.416   3.302   1.920  1.00  0.00    -0.250 OA
BRANCH   3   5
ATOM      5  C   UNL     1      -3.082   1.001   1.483  1.00  0.00     0.195 C 
ATOM      6  N   UNL     1      -3.592   0.949   2.873  1.00  0.00    -0.327 N 
ATOM      7  C   UNL     1      -5.032   1.172   3.037  1.00  0.00     0.120 C 
ATOM      8  C   UNL     1      -5.890   0.337   2.105  1.00  0.00     0.022 C 
ATOM      9  C   UNL     1      -3.990   0.252   0.494  1.00  0.00     0.037 C 
ATOM     10  C   UNL     1      -5.471   0.559   0.661  1.00  0.00     0.005 C 
BRANCH   6  11
ATOM     11  C   UNL     1      -2.820   1.024   4.037  1.00  0.00     0.243 C 
ATOM     12  O   UNL     1      -3.378   1.151   5.137  1.00  0.00    -0.273 OA
BRANCH  11  13
ATOM     13  C   UNL     1      -1.284   1.167   4.031  1.00  0.00     0.230 C 
BRANCH  13  14
ATOM     14  N   UNL     1      -0.510   0.383   3.099  1.00  0.00    -0.253 N 
ATOM     15  C   UNL     1       1.512  -0.071   0.143  1.00  0.00     0.149 C 
ATOM     16  N   UNL     1       0.770  -0.177   1.374  1.00  0.00    -0.318 N 
ATOM     17  C   UNL     1       0.535  -1.431   2.043  1.00  0.00     0.221 C 
ATOM     18  C   UNL     1       0.203   0.886   2.050  1.00  0.00     0.327 C 
ATOM     19  C   UNL     1      -0.326  -0.967   3.206  1.00  0.00     0.250 C 
ATOM     20  O   UNL     1       0.299   2.054   1.712  1.00  0.00    -0.248 OA
ATOM     21  O   UNL     1      -0.778  -1.704   4.069  1.00  0.00    -0.272 OA
ENDBRANCH  13  14
ENDBRANCH  11  13
ENDBRANCH   6  11
ENDBRANCH   3   5
ENDBRANCH   2   3
ENDBRANCH   1   2
BRANCH   1  22
ATOM     22  C   UNL     1      -3.170   4.901  -1.005  1.00  0.00     0.275 C 
BRANCH  22  23
ATOM     23  O   UNL     1      -3.944   5.205   0.168  1.00  0.00    -0.458 OA
BRANCH  23  24
ATOM     24  C   UNL     1      -5.234   4.800   0.141  1.00  0.00     0.338 C 
ATOM     25  O   UNL     1      -5.812   4.276  -0.798  1.00  0.00    -0.246 OA
BRANCH  24  26
ATOM     26  C   UNL     1      -5.890   5.028   1.446  1.00  0.00     0.060 A 
ATOM     27  C   UNL     1      -5.232   4.747   2.641  1.00  0.00     0.016 A 
ATOM     28  C   UNL     1      -7.243   5.366   1.470  1.00  0.00     0.016 A 
ATOM     29  C   UNL     1      -5.955   4.656   3.832  1.00  0.00     0.010 A 
ATOM     30  C   UNL     1      -7.930   5.409   2.688  1.00  0.00     0.010 A 
ATOM     31  C   UNL     1      -7.309   5.011   3.886  1.00  0.00    -0.014 A 
BRANCH  31  32
ATOM     32  C   UNL     1      -8.094   4.969   5.157  1.00  0.00     0.031 A 
ATOM     33  C   UNL     1      -9.444   4.293   5.186  1.00  0.00     0.074 A 
ATOM     34  C   UNL     1      -7.645   5.577   6.276  1.00  0.00     0.049 A 
ATOM     35  N   UNL     1     -10.442   4.468   6.014  1.00  0.00    -0.248 NA
ATOM     36  C   UNL     1      -9.716   3.306   4.126  1.00  0.00     0.031 C 
ATOM     37  C   UNL     1      -6.334   6.208   6.443  1.00  0.00     0.029 A 
ATOM     38  N   UNL     1      -8.263   5.787   7.488  1.00  0.00    -0.354 N 
ATOM     39  C   UNL     1     -11.486   3.686   5.528  1.00  0.00     0.074 A 
ATOM     40  C   UNL     1     -10.992   3.012   4.346  1.00  0.00     0.031 C 
ATOM     41  C   UNL     1      -6.238   6.716   7.679  1.00  0.00     0.029 A 
ATOM     42  C   UNL     1      -7.523   6.568   8.347  1.00  0.00     0.049 A 
ATOM     43  H   UNL     1      -9.145   5.416   7.717  1.00  0.00     0.167 HD
ATOM     44  C   UNL     1     -12.742   3.563   6.020  1.00  0.00     0.037 A 
ATOM     45  C   UNL     1      -7.856   7.182   9.498  1.00  0.00     0.037 A 
ATOM     46  C   UNL     1     -13.188   4.177   7.246  1.00  0.00     0.049 A 
ATOM     47  C   UNL     1      -9.258   7.059  10.015  1.00  0.00     0.074 A 
ATOM     48  C   UNL     1     -14.436   4.106   7.841  1.00  0.00     0.029 A 
ATOM     49  N   UNL     1     -12.393   4.950   8.079  1.00  0.00    -0.354 N 
ATOM     50  N   UNL     1     -10.272   6.413   9.492  1.00  0.00    -0.248 NA
ATOM     51  C   UNL     1      -9.574   7.770  11.262  1.00  0.00     0.031 C 
ATOM     52  C   UNL     1     -14.404   4.859   9.018  1.00  0.00     0.029 A 
ATOM     53  C   UNL     1     -13.124   5.364   9.179  1.00  0.00     0.049 A 
ATOM     54  H   UNL     1     -11.448   5.172   7.912  1.00  0.00     0.167 HD
ATOM     55  C   UNL     1     -11.339   6.622  10.356  1.00  0.00     0.074 A 
ATOM     56  C   UNL     1     -10.849   7.451  11.437  1.00  0.00     0.031 C 
ATOM     57  C   UNL     1     -12.611   6.167  10.259  1.00  0.00     0.037 A 
BRANCH  44  58
ATOM     58  C   UNL     1     -13.751   2.773   5.230  1.00  0.00     0.058 A 
ATOM     59  C   UNL     1     -13.743   1.372   5.188  1.00  0.00     0.135 A 
ATOM     60  C   UNL     1     -14.803   3.441   4.577  1.00  0.00     0.135 A 
ATOM     61  F   UNL     1     -12.756   0.683   5.780  1.00  0.00    -0.206 F 
ATOM     62  C   UNL     1     -14.738   0.659   4.521  1.00  0.00     0.059 A 
ATOM     63  C   UNL     1     -15.820   2.749   3.925  1.00  0.00     0.059 A 
ATOM     64  F   UNL     1     -14.861   4.782   4.586  1.00  0.00    -0.206 F 
ATOM     65  C   UNL     1     -15.775   1.357   3.897  1.00  0.00     0.060 A 
BRANCH  65  66
ATOM     66  S   UNL     1     -17.078   0.419   3.067  1.00  0.00     0.124 S 
ATOM     67  O   UNL     1     -16.389  -0.032   1.862  1.00  0.00    -0.237 OA
ATOM     68  O   UNL     1     -17.389  -0.619   4.044  1.00  0.00    -0.237 OA
ATOM     69  O   UNL     1     -18.128   1.410   2.854  1.00  0.00    -0.744 OA
ENDBRANCH  65  66
ENDBRANCH  44  58
BRANCH  45  70
ATOM     70  C   UNL     1      -6.855   8.044  10.184  1.00  0.00     0.058 A 
ATOM     71  C   UNL     1      -6.281   7.661  11.403  1.00  0.00     0.135 A 
ATOM     72  C   UNL     1      -6.423   9.250   9.606  1.00  0.00     0.135 A 
ATOM     73  F   UNL     1      -6.671   6.525  12.001  1.00  0.00    -0.206 F 
ATOM     74  C   UNL     1      -5.314   8.442  12.028  1.00  0.00     0.059 A 
ATOM     75  C   UNL     1      -5.436  10.031  10.196  1.00  0.00     0.059 A 
ATOM     76  F   UNL     1      -6.931   9.655   8.432  1.00  0.00    -0.206 F 
ATOM     77  C   UNL     1      -4.894   9.624  11.413  1.00  0.00     0.060 A 
BRANCH  77  78
ATOM     78  S   UNL     1      -3.592  10.601  12.195  1.00  0.00     0.124 S 
ATOM     79  O   UNL     1      -4.333  11.284  13.249  1.00  0.00    -0.237 OA
ATOM     80  O   UNL     1      -2.653   9.575  12.636  1.00  0.00    -0.237 OA
ATOM     81  O   UNL     1      -3.113  11.450  11.108  1.00  0.00    -0.744 OA
ENDBRANCH  77  78
ENDBRANCH  45  70
BRANCH  57  82
ATOM     82  C   UNL     1     -13.552   6.499  11.380  1.00  0.00     0.058 A 
ATOM     83  C   UNL     1     -14.145   7.764  11.494  1.00  0.00     0.135 A 
ATOM     84  C   UNL     1     -13.919   5.510  12.306  1.00  0.00     0.135 A 
ATOM     85  F   UNL     1     -13.817   8.745  10.638  1.00  0.00    -0.206 F 
ATOM     86  C   UNL     1     -15.072   8.040  12.494  1.00  0.00     0.059 A 
ATOM     87  C   UNL     1     -14.858   5.758  13.301  1.00  0.00     0.059 A 
ATOM     88  F   UNL     1     -13.380   4.282  12.233  1.00  0.00    -0.206 F 
ATOM     89  C   UNL     1     -15.426   7.028  13.389  1.00  0.00     0.060 A 
BRANCH  89  90
ATOM     90  S   UNL     1     -16.677   7.378  14.643  1.00  0.00     0.124 S 
ATOM     91  O   UNL     1     -15.922   8.187  15.594  1.00  0.00    -0.237 OA
ATOM     92  O   UNL     1     -17.698   8.087  13.877  1.00  0.00    -0.237 OA
ATOM     93  O   UNL     1     -17.065   6.052  15.115  1.00  0.00    -0.744 OA
ENDBRANCH  89  90
ENDBRANCH  57  82
ENDBRANCH  31  32
ENDBRANCH  24  26
ENDBRANCH  23  24
ENDBRANCH  22  23
ENDBRANCH   1  22
TORSDOF 17
