REMARK SMILES O=C(COC[C@@H]1CCCCO1)OCCOC(=O)c1ccc(-c2c3nc(c(-c4c(F)cc(S(=O)(=O)[O-])cc4F)c4ccc([nH]4)c(-c4c(F)cc(S(=O)(=O)[O-])cc4F)c4nc(c(-c5c(F)cc(S(=O)(=O)[O-])cc5F)c5ccc2[nH]5)C=C4)C=C3)cc1
REMARK SMILES IDX 13 1 12 2 2 3 1 4 3 5 4 6 5 7 6 8 7 9 11 10 8 11 10 12 9 13
REMARK SMILES IDX 14 14 15 15 16 16 17 17 18 18 19 19 83 20 20 21 82 22 21 23
REMARK SMILES IDX 22 24 23 25 76 26 24 27 81 28 75 29 77 30 25 31 80 32 74 33
REMARK SMILES IDX 73 34 26 36 60 37 39 38 59 39 40 40 43 41 58 42 78 43 41 44
REMARK SMILES IDX 42 45 57 47 79 48 44 49 27 50 28 51 37 52 29 53 30 54 36 55
REMARK SMILES IDX 38 56 31 57 32 58 33 59 34 60 35 61 61 62 62 63 71 64 63 65
REMARK SMILES IDX 64 66 70 67 72 68 65 69 66 70 67 71 68 72 69 73 45 74 46 75
REMARK SMILES IDX 55 76 47 77 48 78 54 79 56 80 49 81 50 82 51 83 52 84 53 85
REMARK H PARENT 77 35 43 46
REMARK Flexibility Score: inf
ROOT
ATOM      1  C   UNL     1       4.705  -0.765  -1.278  1.00  0.00     0.274 C 
ENDROOT
BRANCH   1   2
ATOM      2  O   UNL     1       3.451  -1.213  -0.735  1.00  0.00    -0.460 OA
BRANCH   2   3
ATOM      3  C   UNL     1       3.023  -0.950   0.525  1.00  0.00     0.332 C 
ATOM      4  O   UNL     1       2.031  -1.534   0.957  1.00  0.00    -0.250 OA
BRANCH   3   5
ATOM      5  C   UNL     1       3.725   0.162   1.324  1.00  0.00     0.282 C 
BRANCH   5   6
ATOM      6  O   UNL     1       4.104  -0.003   2.681  1.00  0.00    -0.367 OA
BRANCH   6   7
ATOM      7  C   UNL     1       3.073  -0.327   3.610  1.00  0.00     0.193 C 
BRANCH   7   8
ATOM      8  C   UNL     1       2.294   0.848   4.237  1.00  0.00     0.144 C 
ATOM      9  C   UNL     1       1.881   1.982   3.308  1.00  0.00     0.034 C 
ATOM     10  O   UNL     1       2.932   1.359   5.418  1.00  0.00    -0.376 OA
ATOM     11  C   UNL     1       2.999   2.996   3.064  1.00  0.00     0.005 C 
ATOM     12  C   UNL     1       4.016   2.256   5.191  1.00  0.00     0.160 C 
ATOM     13  C   UNL     1       3.576   3.465   4.385  1.00  0.00     0.029 C 
ENDBRANCH   7   8
ENDBRANCH   6   7
ENDBRANCH   5   6
ENDBRANCH   3   5
ENDBRANCH   2   3
ENDBRANCH   1   2
BRANCH   1  14
ATOM     14  C   UNL     1       4.551   0.499  -2.128  1.00  0.00     0.275 C 
BRANCH  14  15
ATOM     15  O   UNL     1       3.961   1.601  -1.407  1.00  0.00    -0.458 OA
BRANCH  15  16
ATOM     16  C   UNL     1       2.645   1.836  -1.679  1.00  0.00     0.338 C 
ATOM     17  O   UNL     1       1.937   1.157  -2.397  1.00  0.00    -0.246 OA
BRANCH  16  18
ATOM     18  C   UNL     1       2.132   3.008  -0.917  1.00  0.00     0.060 A 
ATOM     19  C   UNL     1       0.788   3.000  -0.522  1.00  0.00     0.016 A 
ATOM     20  C   UNL     1       2.923   4.125  -0.628  1.00  0.00     0.016 A 
ATOM     21  C   UNL     1       0.234   4.095   0.158  1.00  0.00     0.010 A 
ATOM     22  C   UNL     1       2.366   5.222   0.053  1.00  0.00     0.010 A 
ATOM     23  C   UNL     1       1.014   5.222   0.451  1.00  0.00    -0.014 A 
BRANCH  23  24
ATOM     24  C   UNL     1       0.422   6.410   1.139  1.00  0.00     0.031 A 
ATOM     25  C   UNL     1       0.087   7.642   0.356  1.00  0.00     0.074 A 
ATOM     26  C   UNL     1       0.185   6.413   2.467  1.00  0.00     0.049 A 
ATOM     27  N   UNL     1      -0.466   8.750   0.778  1.00  0.00    -0.248 NA
ATOM     28  C   UNL     1       0.373   7.617  -1.086  1.00  0.00     0.031 C 
ATOM     29  C   UNL     1       0.378   5.271   3.342  1.00  0.00     0.029 A 
ATOM     30  N   UNL     1      -0.237   7.401   3.324  1.00  0.00    -0.354 N 
ATOM     31  C   UNL     1      -0.670   9.522  -0.354  1.00  0.00     0.074 A 
ATOM     32  C   UNL     1      -0.088   8.800  -1.468  1.00  0.00     0.031 C 
ATOM     33  C   UNL     1       0.209   5.637   4.622  1.00  0.00     0.029 A 
ATOM     34  C   UNL     1      -0.177   7.040   4.653  1.00  0.00     0.049 A 
ATOM     35  H   UNL     1      -0.552   8.282   3.018  1.00  0.00     0.167 HD
ATOM     36  C   UNL     1      -1.337  10.695  -0.462  1.00  0.00     0.037 A 
ATOM     37  C   UNL     1      -0.418   7.747   5.773  1.00  0.00     0.037 A 
ATOM     38  C   UNL     1      -1.887  11.431   0.646  1.00  0.00     0.049 A 
ATOM     39  C   UNL     1      -0.998   9.126   5.645  1.00  0.00     0.074 A 
ATOM     40  C   UNL     1      -2.598  12.619   0.622  1.00  0.00     0.029 A 
ATOM     41  N   UNL     1      -1.771  11.066   1.980  1.00  0.00    -0.354 N 
ATOM     42  N   UNL     1      -1.276   9.798   4.554  1.00  0.00    -0.248 NA
ATOM     43  C   UNL     1      -1.358   9.819   6.889  1.00  0.00     0.031 C 
ATOM     44  C   UNL     1      -2.872  12.995   1.942  1.00  0.00     0.029 A 
ATOM     45  C   UNL     1      -2.369  12.021   2.788  1.00  0.00     0.049 A 
ATOM     46  H   UNL     1      -1.330  10.248   2.305  1.00  0.00     0.167 HD
ATOM     47  C   UNL     1      -1.906  10.961   4.978  1.00  0.00     0.074 A 
ATOM     48  C   UNL     1      -1.953  10.909   6.425  1.00  0.00     0.031 C 
ATOM     49  C   UNL     1      -2.421  11.967   4.229  1.00  0.00     0.037 A 
BRANCH  36  50
ATOM     50  C   UNL     1      -1.541  11.229  -1.848  1.00  0.00     0.058 A 
ATOM     51  C   UNL     1      -2.462  10.628  -2.722  1.00  0.00     0.135 A 
ATOM     52  C   UNL     1      -0.843  12.358  -2.300  1.00  0.00     0.135 A 
ATOM     53  F   UNL     1      -3.142   9.534  -2.341  1.00  0.00    -0.206 F 
ATOM     54  C   UNL     1      -2.669  11.116  -4.005  1.00  0.00     0.059 A 
ATOM     55  C   UNL     1      -1.049  12.876  -3.575  1.00  0.00     0.059 A 
ATOM     56  F   UNL     1       0.052  12.962  -1.504  1.00  0.00    -0.206 F 
ATOM     57  C   UNL     1      -1.956  12.240  -4.423  1.00  0.00     0.060 A 
BRANCH  57  58
ATOM     58  S   UNL     1      -2.239  12.863  -6.093  1.00  0.00     0.124 S 
ATOM     59  O   UNL     1      -1.571  11.846  -6.899  1.00  0.00    -0.237 OA
ATOM     60  O   UNL     1      -3.696  12.882  -6.177  1.00  0.00    -0.237 OA
ATOM     61  O   UNL     1      -1.598  14.174  -6.080  1.00  0.00    -0.744 OA
ENDBRANCH  57  58
ENDBRANCH  36  50
BRANCH  37  62
ATOM     62  C   UNL     1      -0.150   7.162   7.115  1.00  0.00     0.058 A 
ATOM     63  C   UNL     1      -1.193   6.785   7.973  1.00  0.00     0.135 A 
ATOM     64  C   UNL     1       1.165   7.023   7.585  1.00  0.00     0.135 A 
ATOM     65  F   UNL     1      -2.467   6.900   7.568  1.00  0.00    -0.206 F 
ATOM     66  C   UNL     1      -0.946   6.337   9.267  1.00  0.00     0.059 A 
ATOM     67  C   UNL     1       1.439   6.559   8.869  1.00  0.00     0.059 A 
ATOM     68  F   UNL     1       2.200   7.354   6.797  1.00  0.00    -0.206 F 
ATOM     69  C   UNL     1       0.374   6.239   9.711  1.00  0.00     0.060 A 
BRANCH  69  70
ATOM     70  S   UNL     1       0.680   5.689  11.405  1.00  0.00     0.124 S 
ATOM     71  O   UNL     1       0.242   6.849  12.173  1.00  0.00    -0.237 OA
ATOM     72  O   UNL     1      -0.166   4.504  11.500  1.00  0.00    -0.237 OA
ATOM     73  O   UNL     1       2.117   5.431  11.420  1.00  0.00    -0.744 OA
ENDBRANCH  69  70
ENDBRANCH  37  62
BRANCH  49  74
ATOM     74  C   UNL     1      -3.125  13.074   4.961  1.00  0.00     0.058 A 
ATOM     75  C   UNL     1      -2.425  14.016   5.731  1.00  0.00     0.135 A 
ATOM     76  C   UNL     1      -4.522  13.200   4.883  1.00  0.00     0.135 A 
ATOM     77  F   UNL     1      -1.090  13.934   5.847  1.00  0.00    -0.206 F 
ATOM     78  C   UNL     1      -3.086  15.024   6.425  1.00  0.00     0.059 A 
ATOM     79  C   UNL     1      -5.202  14.218   5.545  1.00  0.00     0.059 A 
ATOM     80  F   UNL     1      -5.241  12.331   4.155  1.00  0.00    -0.206 F 
ATOM     81  C   UNL     1      -4.476  15.115   6.328  1.00  0.00     0.060 A 
BRANCH  81  82
ATOM     82  S   UNL     1      -5.324  16.438   7.217  1.00  0.00     0.124 S 
ATOM     83  O   UNL     1      -5.319  15.923   8.582  1.00  0.00    -0.237 OA
ATOM     84  O   UNL     1      -4.459  17.588   6.970  1.00  0.00    -0.237 OA
ATOM     85  O   UNL     1      -6.631  16.495   6.571  1.00  0.00    -0.744 OA
ENDBRANCH  81  82
ENDBRANCH  49  74
ENDBRANCH  23  24
ENDBRANCH  16  18
ENDBRANCH  15  16
ENDBRANCH  14  15
ENDBRANCH   1  14
TORSDOF 17
