REMARK SMILES COc1ccccc1/C=C/C(=O)Nc1cccc(C(=O)Nc2ccccc2C(=O)OCCOC(=O)c2ccc(-c3c4nc(c(-c5c(F)cc(S(=O)(=O)[O-])cc5F)c5ccc([nH]5)c(-c5c(F)cc(S(=O)(=O)[O-])cc5F)c5nc(c(-c6c(F)cc(S(=O)(=O)[O-])cc6F)c6ccc3[nH]6)C=C5)C=C4)cc2)c1
REMARK SMILES IDX 30 1 28 2 29 3 27 4 22 5 23 6 24 7 26 8 25 9 21 10 19 11
REMARK SMILES IDX 20 12 18 14 14 15 15 16 102 17 16 18 17 19 13 20 11 21 12 22
REMARK SMILES IDX 10 24 9 25 8 26 3 27 4 28 5 29 7 30 6 31 2 32 1 33 31 34
REMARK SMILES IDX 32 35 33 36 34 37 35 38 36 39 37 40 101 41 38 42 100 43
REMARK SMILES IDX 39 44 40 45 41 46 94 47 42 48 99 49 93 50 95 51 43 52 98 53
REMARK SMILES IDX 92 54 91 55 44 57 78 58 57 59 77 60 58 61 61 62 76 63 96 64
REMARK SMILES IDX 59 65 60 66 75 68 97 69 62 70 45 71 46 72 55 73 47 74 48 75
REMARK SMILES IDX 54 76 56 77 49 78 50 79 51 80 52 81 53 82 79 83 80 84 89 85
REMARK SMILES IDX 81 86 82 87 88 88 90 89 83 90 84 91 85 92 86 93 87 94 63 95
REMARK SMILES IDX 64 96 73 97 65 98 66 99 72 100 74 101 67 102 68 103 69 104
REMARK SMILES IDX 70 105 71 106
REMARK H PARENT 21 13 13 23 95 56 61 67
REMARK Flexibility Score: inf
ROOT
ATOM      1  O   UNL     1       2.784   3.888  -1.429  1.00  0.00    -0.458 OA
ENDROOT
BRANCH   1   2
ATOM      2  C   UNL     1       3.573   2.909  -0.936  1.00  0.00     0.340 C 
ATOM      3  O   UNL     1       4.047   1.998  -1.600  1.00  0.00    -0.246 OA
BRANCH   2   4
ATOM      4  C   UNL     1       3.738   2.939   0.526  1.00  0.00     0.083 A 
ATOM      5  C   UNL     1       2.648   2.819   1.400  1.00  0.00     0.056 A 
ATOM      6  C   UNL     1       2.899   2.801   2.784  1.00  0.00     0.027 A 
ATOM      7  C   UNL     1       4.206   2.752   3.282  1.00  0.00     0.002 A 
ATOM      8  C   UNL     1       5.048   2.915   1.039  1.00  0.00     0.018 A 
ATOM      9  C   UNL     1       5.283   2.790   2.407  1.00  0.00     0.001 A 
BRANCH   5  10
ATOM     10  N   UNL     1       1.302   2.642   1.014  1.00  0.00    -0.321 N 
ATOM     11  C   UNL     1       0.712   1.990  -0.059  1.00  0.00     0.255 C 
ATOM     12  O   UNL     1      -0.447   2.290  -0.360  1.00  0.00    -0.269 OA
ATOM     13  H   UNL     1       0.655   3.063   1.626  1.00  0.00     0.170 HD
BRANCH  11  14
ATOM     14  C   UNL     1       1.362   0.848  -0.787  1.00  0.00     0.042 A 
ATOM     15  C   UNL     1       3.100  -0.878  -0.944  1.00  0.00     0.042 A 
ATOM     16  C   UNL     1       2.620  -1.226  -2.205  1.00  0.00     0.026 A 
ATOM     17  C   UNL     1       2.446   0.143  -0.254  1.00  0.00     0.040 A 
ATOM     18  C   UNL     1       1.484  -0.595  -2.728  1.00  0.00     0.003 A 
ATOM     19  C   UNL     1       0.852   0.433  -2.019  1.00  0.00     0.014 A 
BRANCH  15  20
ATOM     20  N   UNL     1       4.268  -1.509  -0.461  1.00  0.00    -0.322 N 
ATOM     21  C   UNL     1       4.874  -1.493   0.770  1.00  0.00     0.248 C 
ATOM     22  O   UNL     1       6.053  -1.819   0.889  1.00  0.00    -0.270 OA
ATOM     23  H   UNL     1       4.734  -2.060  -1.131  1.00  0.00     0.170 HD
BRANCH  21  24
ATOM     24  C   UNL     1       4.124  -1.078   1.982  1.00  0.00     0.072 C 
ATOM     25  C   UNL     1       2.893  -1.551   2.239  1.00  0.00     0.017 C 
BRANCH  25  26
ATOM     26  C   UNL     1       2.004  -0.972   3.259  1.00  0.00     0.017 A 
ATOM     27  C   UNL     1       0.711  -0.509   2.943  1.00  0.00     0.126 A 
ATOM     28  C   UNL     1      -0.081   0.119   3.909  1.00  0.00     0.047 A 
ATOM     29  C   UNL     1       0.389   0.267   5.209  1.00  0.00     0.004 A 
ATOM     30  C   UNL     1       2.460  -0.816   4.575  1.00  0.00     0.012 A 
ATOM     31  C   UNL     1       1.659  -0.199   5.541  1.00  0.00     0.001 A 
BRANCH  27  32
ATOM     32  O   UNL     1       0.230  -0.417   1.666  1.00  0.00    -0.496 OA
ATOM     33  C   UNL     1      -0.284  -1.629   1.131  1.00  0.00     0.278 C 
ENDBRANCH  27  32
ENDBRANCH  25  26
ENDBRANCH  21  24
ENDBRANCH  15  20
ENDBRANCH  11  14
ENDBRANCH   5  10
ENDBRANCH   2   4
ENDBRANCH   1   2
BRANCH   1  34
ATOM     34  C   UNL     1       2.413   3.673  -2.807  1.00  0.00     0.275 C 
BRANCH  34  35
ATOM     35  C   UNL     1       3.398   4.264  -3.820  1.00  0.00     0.275 C 
BRANCH  35  36
ATOM     36  O   UNL     1       4.661   3.570  -3.844  1.00  0.00    -0.458 OA
BRANCH  36  37
ATOM     37  C   UNL     1       5.591   4.083  -3.004  1.00  0.00     0.338 C 
ATOM     38  O   UNL     1       5.476   5.072  -2.300  1.00  0.00    -0.246 OA
BRANCH  37  39
ATOM     39  C   UNL     1       6.810   3.261  -2.976  1.00  0.00     0.060 A 
ATOM     40  C   UNL     1       6.935   2.264  -2.008  1.00  0.00     0.016 A 
ATOM     41  C   UNL     1       7.922   3.662  -3.707  1.00  0.00     0.016 A 
ATOM     42  C   UNL     1       8.174   1.764  -1.659  1.00  0.00     0.010 A 
ATOM     43  C   UNL     1       9.160   3.076  -3.433  1.00  0.00     0.010 A 
ATOM     44  C   UNL     1       9.299   2.161  -2.372  1.00  0.00    -0.014 A 
BRANCH  44  45
ATOM     45  C   UNL     1      10.630   1.685  -1.944  1.00  0.00     0.031 A 
ATOM     46  C   UNL     1      11.656   2.697  -1.528  1.00  0.00     0.074 A 
ATOM     47  C   UNL     1      10.896   0.366  -1.910  1.00  0.00     0.049 A 
ATOM     48  N   UNL     1      12.945   2.556  -1.391  1.00  0.00    -0.248 NA
ATOM     49  C   UNL     1      11.165   4.059  -1.254  1.00  0.00     0.031 C 
ATOM     50  C   UNL     1       9.933  -0.706  -2.182  1.00  0.00     0.029 A 
ATOM     51  N   UNL     1      12.063  -0.299  -1.642  1.00  0.00    -0.354 N 
ATOM     52  C   UNL     1      13.430   3.822  -1.090  1.00  0.00     0.074 A 
ATOM     53  C   UNL     1      12.297   4.720  -1.060  1.00  0.00     0.031 C 
ATOM     54  C   UNL     1      10.547  -1.891  -2.065  1.00  0.00     0.029 A 
ATOM     55  C   UNL     1      11.963  -1.658  -1.822  1.00  0.00     0.049 A 
ATOM     56  H   UNL     1      12.889   0.150  -1.351  1.00  0.00     0.167 HD
ATOM     57  C   UNL     1      14.715   4.188  -0.875  1.00  0.00     0.037 A 
ATOM     58  C   UNL     1      12.921  -2.601  -1.865  1.00  0.00     0.037 A 
ATOM     59  C   UNL     1      15.806   3.248  -0.870  1.00  0.00     0.049 A 
ATOM     60  C   UNL     1      14.346  -2.166  -1.684  1.00  0.00     0.074 A 
ATOM     61  C   UNL     1      17.151   3.486  -0.659  1.00  0.00     0.029 A 
ATOM     62  N   UNL     1      15.668   1.880  -1.074  1.00  0.00    -0.354 N 
ATOM     63  N   UNL     1      14.818  -0.958  -1.476  1.00  0.00    -0.248 NA
ATOM     64  C   UNL     1      15.371  -3.212  -1.757  1.00  0.00     0.031 C 
ATOM     65  C   UNL     1      17.831   2.271  -0.786  1.00  0.00     0.029 A 
ATOM     66  C   UNL     1      16.905   1.264  -1.014  1.00  0.00     0.049 A 
ATOM     67  H   UNL     1      14.814   1.417  -1.238  1.00  0.00     0.167 HD
ATOM     68  C   UNL     1      16.195  -1.100  -1.369  1.00  0.00     0.074 A 
ATOM     69  C   UNL     1      16.475  -2.515  -1.523  1.00  0.00     0.031 C 
ATOM     70  C   UNL     1      17.143  -0.152  -1.163  1.00  0.00     0.037 A 
BRANCH  57  71
ATOM     71  C   UNL     1      15.009   5.652  -0.693  1.00  0.00     0.058 A 
ATOM     72  C   UNL     1      14.611   6.366   0.448  1.00  0.00     0.135 A 
ATOM     73  C   UNL     1      15.717   6.354  -1.685  1.00  0.00     0.135 A 
ATOM     74  F   UNL     1      13.911   5.756   1.418  1.00  0.00    -0.206 F 
ATOM     75  C   UNL     1      14.881   7.725   0.588  1.00  0.00     0.059 A 
ATOM     76  C   UNL     1      16.024   7.705  -1.552  1.00  0.00     0.059 A 
ATOM     77  F   UNL     1      16.115   5.726  -2.803  1.00  0.00    -0.206 F 
ATOM     78  C   UNL     1      15.589   8.386  -0.417  1.00  0.00     0.060 A 
BRANCH  78  79
ATOM     79  S   UNL     1      15.938  10.146  -0.216  1.00  0.00     0.124 S 
ATOM     80  O   UNL     1      14.615  10.730  -0.409  1.00  0.00    -0.237 OA
ATOM     81  O   UNL     1      16.464  10.205   1.144  1.00  0.00    -0.237 OA
ATOM     82  O   UNL     1      16.906  10.425  -1.272  1.00  0.00    -0.744 OA
ENDBRANCH  78  79
ENDBRANCH  57  71
BRANCH  58  83
ATOM     83  C   UNL     1      12.559  -4.016  -2.149  1.00  0.00     0.058 A 
ATOM     84  C   UNL     1      12.699  -5.009  -1.170  1.00  0.00     0.135 A 
ATOM     85  C   UNL     1      12.029  -4.398  -3.394  1.00  0.00     0.135 A 
ATOM     86  F   UNL     1      13.206  -4.697   0.033  1.00  0.00    -0.206 F 
ATOM     87  C   UNL     1      12.340  -6.330  -1.416  1.00  0.00     0.059 A 
ATOM     88  C   UNL     1      11.633  -5.706  -3.653  1.00  0.00     0.059 A 
ATOM     89  F   UNL     1      11.858  -3.485  -4.363  1.00  0.00    -0.206 F 
ATOM     90  C   UNL     1      11.803  -6.668  -2.660  1.00  0.00     0.060 A 
BRANCH  90  91
ATOM     91  S   UNL     1      11.299  -8.377  -2.951  1.00  0.00     0.124 S 
ATOM     92  O   UNL     1      12.589  -9.051  -3.049  1.00  0.00    -0.237 OA
ATOM     93  O   UNL     1      10.513  -8.674  -1.758  1.00  0.00    -0.237 OA
ATOM     94  O   UNL     1      10.534  -8.296  -4.192  1.00  0.00    -0.744 OA
ENDBRANCH  90  91
ENDBRANCH  58  83
BRANCH  70  95
ATOM     95  C   UNL     1      18.562  -0.627  -1.043  1.00  0.00     0.058 A 
ATOM     96  C   UNL     1      19.287  -1.080  -2.155  1.00  0.00     0.135 A 
ATOM     97  C   UNL     1      19.216  -0.582   0.198  1.00  0.00     0.135 A 
ATOM     98  F   UNL     1      18.702  -1.152  -3.361  1.00  0.00    -0.206 F 
ATOM     99  C   UNL     1      20.608  -1.495  -2.036  1.00  0.00     0.059 A 
ATOM    100  C   UNL     1      20.546  -0.961   0.334  1.00  0.00     0.059 A 
ATOM    101  F   UNL     1      18.567  -0.147   1.290  1.00  0.00    -0.206 F 
ATOM    102  C   UNL     1      21.230  -1.428  -0.787  1.00  0.00     0.060 A 
BRANCH 102 103
ATOM    103  S   UNL     1      22.956  -1.935  -0.653  1.00  0.00     0.124 S 
ATOM    104  O   UNL     1      22.846  -3.385  -0.776  1.00  0.00    -0.237 OA
ATOM    105  O   UNL     1      23.570  -1.247  -1.785  1.00  0.00    -0.237 OA
ATOM    106  O   UNL     1      23.354  -1.444   0.663  1.00  0.00    -0.744 OA
ENDBRANCH 102 103
ENDBRANCH  70  95
ENDBRANCH  44  45
ENDBRANCH  37  39
ENDBRANCH  36  37
ENDBRANCH  35  36
ENDBRANCH  34  35
ENDBRANCH   1  34
TORSDOF 20
