REMARK SMILES CS(=O)(=O)NCCCCCC(=O)OCCOC(=O)c1ccc(-c2c3nc(c(-c4c(F)cc(S(=O)(=O)[O-])cc4F)c4ccc([nH]4)c(-c4c(F)cc(S(=O)(=O)[O-])cc4F)c4nc(c(-c5c(F)cc(S(=O)(=O)[O-])cc5F)c5ccc2[nH]5)C=C4)C=C3)cc1
REMARK SMILES IDX 13 1 11 2 12 3 10 4 9 5 8 6 7 7 6 8 5 9 2 11 1 12 3 13 4 14
REMARK SMILES IDX 14 15 15 16 16 17 17 18 18 19 19 20 20 21 84 22 21 23 83 24
REMARK SMILES IDX 22 25 23 26 24 27 77 28 25 29 82 30 76 31 78 32 26 33 81 34
REMARK SMILES IDX 75 35 74 36 27 38 61 39 40 40 60 41 41 42 44 43 59 44 79 45
REMARK SMILES IDX 42 46 43 47 58 49 80 50 45 51 28 52 29 53 38 54 30 55 31 56
REMARK SMILES IDX 37 57 39 58 32 59 33 60 34 61 35 62 36 63 62 64 63 65 72 66
REMARK SMILES IDX 64 67 65 68 71 69 73 70 66 71 67 72 68 73 69 74 70 75 46 76
REMARK SMILES IDX 47 77 56 78 48 79 49 80 55 81 57 82 50 83 51 84 52 85 53 86
REMARK SMILES IDX 54 87
REMARK H PARENT 5 10 78 37 44 48
REMARK Flexibility Score: inf
ROOT
ATOM      1  O   UNL     1       4.837   2.018  -5.318  1.00  0.00    -0.462 OA
ENDROOT
BRANCH   1   2
ATOM      2  C   UNL     1       5.546   2.913  -4.590  1.00  0.00     0.305 C 
ATOM      3  O   UNL     1       6.731   3.169  -4.757  1.00  0.00    -0.252 OA
BRANCH   2   4
ATOM      4  C   UNL     1       4.727   3.548  -3.484  1.00  0.00     0.123 C 
BRANCH   4   5
ATOM      5  C   UNL     1       3.219   3.667  -3.733  1.00  0.00     0.012 C 
BRANCH   5   6
ATOM      6  C   UNL     1       2.420   2.357  -3.693  1.00  0.00     0.002 C 
BRANCH   6   7
ATOM      7  C   UNL     1       2.752   1.442  -2.515  1.00  0.00     0.016 C 
BRANCH   7   8
ATOM      8  C   UNL     1       2.305   1.995  -1.169  1.00  0.00     0.098 C 
BRANCH   8   9
ATOM      9  N   UNL     1       0.846   2.060  -1.010  1.00  0.00    -0.215 NA
ATOM     10  H   UNL     1       0.675   2.547  -0.130  1.00  0.00     0.140 HD
BRANCH   9  11
ATOM     11  S   UNL     1      -0.106   0.680  -0.974  1.00  0.00     0.208 S 
ATOM     12  C   UNL     1       0.601  -0.251   0.369  1.00  0.00     0.176 C 
ATOM     13  O   UNL     1       0.090  -0.057  -2.200  1.00  0.00    -0.213 OA
ATOM     14  O   UNL     1      -1.429   1.115  -0.582  1.00  0.00    -0.213 OA
ENDBRANCH   9  11
ENDBRANCH   8   9
ENDBRANCH   7   8
ENDBRANCH   6   7
ENDBRANCH   5   6
ENDBRANCH   4   5
ENDBRANCH   2   4
ENDBRANCH   1   2
BRANCH   1  15
ATOM     15  C   UNL     1       5.491   1.427  -6.455  1.00  0.00     0.274 C 
BRANCH  15  16
ATOM     16  C   UNL     1       5.001   2.080  -7.747  1.00  0.00     0.275 C 
BRANCH  16  17
ATOM     17  O   UNL     1       5.428   3.453  -7.811  1.00  0.00    -0.458 OA
BRANCH  17  18
ATOM     18  C   UNL     1       4.474   4.374  -7.540  1.00  0.00     0.338 C 
ATOM     19  O   UNL     1       3.292   4.179  -7.318  1.00  0.00    -0.246 OA
BRANCH  18  20
ATOM     20  C   UNL     1       5.106   5.696  -7.426  1.00  0.00     0.060 A 
ATOM     21  C   UNL     1       5.393   6.184  -6.151  1.00  0.00     0.016 A 
ATOM     22  C   UNL     1       5.338   6.480  -8.555  1.00  0.00     0.016 A 
ATOM     23  C   UNL     1       5.909   7.465  -5.990  1.00  0.00     0.010 A 
ATOM     24  C   UNL     1       5.876   7.761  -8.394  1.00  0.00     0.010 A 
ATOM     25  C   UNL     1       6.154   8.266  -7.110  1.00  0.00    -0.014 A 
BRANCH  25  26
ATOM     26  C   UNL     1       6.659   9.649  -6.930  1.00  0.00     0.031 A 
ATOM     27  C   UNL     1       5.760  10.814  -7.229  1.00  0.00     0.074 A 
ATOM     28  C   UNL     1       7.913   9.853  -6.483  1.00  0.00     0.049 A 
ATOM     29  N   UNL     1       6.040  12.091  -7.250  1.00  0.00    -0.248 NA
ATOM     30  C   UNL     1       4.358  10.500  -7.550  1.00  0.00     0.031 C 
ATOM     31  C   UNL     1       8.858   8.799  -6.109  1.00  0.00     0.029 A 
ATOM     32  N   UNL     1       8.609  11.015  -6.270  1.00  0.00    -0.354 N 
ATOM     33  C   UNL     1       4.862  12.732  -7.614  1.00  0.00     0.074 A 
ATOM     34  C   UNL     1       3.866  11.701  -7.817  1.00  0.00     0.031 C 
ATOM     35  C   UNL     1      10.010   9.364  -5.711  1.00  0.00     0.029 A 
ATOM     36  C   UNL     1       9.905  10.812  -5.857  1.00  0.00     0.049 A 
ATOM     37  H   UNL     1       8.219  11.910  -6.401  1.00  0.00     0.167 HD
ATOM     38  C   UNL     1       4.636  14.059  -7.764  1.00  0.00     0.037 A 
ATOM     39  C   UNL     1      10.904  11.692  -5.654  1.00  0.00     0.037 A 
ATOM     40  C   UNL     1       5.632  15.075  -7.539  1.00  0.00     0.049 A 
ATOM     41  C   UNL     1      10.645  13.156  -5.883  1.00  0.00     0.074 A 
ATOM     42  C   UNL     1       5.503  16.448  -7.655  1.00  0.00     0.029 A 
ATOM     43  N   UNL     1       6.941  14.828  -7.148  1.00  0.00    -0.354 N 
ATOM     44  N   UNL     1       9.533  13.748  -6.250  1.00  0.00    -0.248 NA
ATOM     45  C   UNL     1      11.776  14.072  -5.681  1.00  0.00     0.031 C 
ATOM     46  C   UNL     1       6.745  17.029  -7.373  1.00  0.00     0.029 A 
ATOM     47  C   UNL     1       7.635  16.021  -7.037  1.00  0.00     0.049 A 
ATOM     48  H   UNL     1       7.319  13.936  -6.976  1.00  0.00     0.167 HD
ATOM     49  C   UNL     1       9.825  15.106  -6.306  1.00  0.00     0.074 A 
ATOM     50  C   UNL     1      11.215  15.249  -5.920  1.00  0.00     0.031 C 
ATOM     51  C   UNL     1       9.018  16.142  -6.647  1.00  0.00     0.037 A 
BRANCH  38  52
ATOM     52  C   UNL     1       3.269  14.485  -8.222  1.00  0.00     0.058 A 
ATOM     53  C   UNL     1       2.150  14.424  -7.377  1.00  0.00     0.135 A 
ATOM     54  C   UNL     1       3.082  14.988  -9.520  1.00  0.00     0.135 A 
ATOM     55  F   UNL     1       2.269  13.935  -6.133  1.00  0.00    -0.206 F 
ATOM     56  C   UNL     1       0.889  14.822  -7.810  1.00  0.00     0.059 A 
ATOM     57  C   UNL     1       1.835  15.415  -9.967  1.00  0.00     0.059 A 
ATOM     58  F   UNL     1       4.117  15.065 -10.371  1.00  0.00    -0.206 F 
ATOM     59  C   UNL     1       0.741  15.314  -9.109  1.00  0.00     0.060 A 
BRANCH  59  60
ATOM     60  S   UNL     1      -0.901  15.827  -9.658  1.00  0.00     0.124 S 
ATOM     61  O   UNL     1      -1.561  14.538  -9.842  1.00  0.00    -0.237 OA
ATOM     62  O   UNL     1      -1.373  16.624  -8.530  1.00  0.00    -0.237 OA
ATOM     63  O   UNL     1      -0.633  16.575 -10.882  1.00  0.00    -0.744 OA
ENDBRANCH  59  60
ENDBRANCH  38  52
BRANCH  39  64
ATOM     64  C   UNL     1      12.249  11.208  -5.242  1.00  0.00     0.058 A 
ATOM     65  C   UNL     1      12.752  11.472  -3.960  1.00  0.00     0.135 A 
ATOM     66  C   UNL     1      13.053  10.463  -6.119  1.00  0.00     0.135 A 
ATOM     67  F   UNL     1      12.026  12.189  -3.089  1.00  0.00    -0.206 F 
ATOM     68  C   UNL     1      14.009  11.025  -3.565  1.00  0.00     0.059 A 
ATOM     69  C   UNL     1      14.302   9.982  -5.738  1.00  0.00     0.059 A 
ATOM     70  F   UNL     1      12.614  10.175  -7.354  1.00  0.00    -0.206 F 
ATOM     71  C   UNL     1      14.775  10.278  -4.461  1.00  0.00     0.060 A 
BRANCH  71  72
ATOM     72  S   UNL     1      16.384   9.659  -3.922  1.00  0.00     0.124 S 
ATOM     73  O   UNL     1      17.192  10.872  -3.959  1.00  0.00    -0.237 OA
ATOM     74  O   UNL     1      16.083   9.132  -2.595  1.00  0.00    -0.237 OA
ATOM     75  O   UNL     1      16.710   8.652  -4.928  1.00  0.00    -0.744 OA
ENDBRANCH  71  72
ENDBRANCH  39  64
BRANCH  51  76
ATOM     76  C   UNL     1       9.610  17.522  -6.589  1.00  0.00     0.058 A 
ATOM     77  C   UNL     1      10.518  17.975  -7.559  1.00  0.00     0.135 A 
ATOM     78  C   UNL     1       9.227  18.417  -5.578  1.00  0.00     0.135 A 
ATOM     79  F   UNL     1      10.921  17.154  -8.542  1.00  0.00    -0.206 F 
ATOM     80  C   UNL     1      11.043  19.262  -7.516  1.00  0.00     0.059 A 
ATOM     81  C   UNL     1       9.721  19.717  -5.529  1.00  0.00     0.059 A 
ATOM     82  F   UNL     1       8.355  18.036  -4.631  1.00  0.00    -0.206 F 
ATOM     83  C   UNL     1      10.637  20.126  -6.497  1.00  0.00     0.060 A 
BRANCH  83  84
ATOM     84  S   UNL     1      11.300  21.805  -6.470  1.00  0.00     0.124 S 
ATOM     85  O   UNL     1      12.655  21.578  -5.976  1.00  0.00    -0.237 OA
ATOM     86  O   UNL     1      11.194  22.207  -7.869  1.00  0.00    -0.237 OA
ATOM     87  O   UNL     1      10.407  22.508  -5.553  1.00  0.00    -0.744 OA
ENDBRANCH  83  84
ENDBRANCH  51  76
ENDBRANCH  25  26
ENDBRANCH  18  20
ENDBRANCH  17  18
ENDBRANCH  16  17
ENDBRANCH  15  16
ENDBRANCH   1  15
TORSDOF 20
