REMARK SMILES O=C(OCCOC(=O)c1ccc(C[NH2+]Cc2cc(F)ccc2F)nc1)c1ccc(-c2c3nc(c(-c4c(F)cc(S(=O)(=O)[O-])cc4F)c4ccc([nH]4)c(-c4c(F)cc(S(=O)(=O)[O-])cc4F)c4nc(c(-c5c(F)cc(S(=O)(=O)[O-])cc5F)c5ccc2[nH]5)C=C4)C=C3)cc1
REMARK SMILES IDX 5 1 4 2 3 3 2 4 1 5 26 6 27 7 91 8 28 9 90 10 29 11 30 12
REMARK SMILES IDX 31 13 84 14 32 15 89 16 83 17 85 18 33 19 88 20 82 21 81 22
REMARK SMILES IDX 34 24 68 25 47 26 67 27 48 28 51 29 66 30 86 31 49 32 50 33
REMARK SMILES IDX 65 35 87 36 52 37 35 38 36 39 45 40 37 41 38 42 44 43 46 44
REMARK SMILES IDX 39 45 40 46 41 47 42 48 43 49 69 50 70 51 79 52 71 53 72 54
REMARK SMILES IDX 78 55 80 56 73 57 74 58 75 59 76 60 77 61 53 62 54 63 63 64
REMARK SMILES IDX 55 65 56 66 62 67 64 68 57 69 58 70 59 71 60 72 61 73 6 74
REMARK SMILES IDX 7 75 8 76 9 77 10 78 25 79 11 80 24 81 12 82 13 83 14 84
REMARK SMILES IDX 15 87 16 88 17 89 22 90 18 91 21 92 23 93 19 94 20 95
REMARK H PARENT 85 23 51 34 14 85 14 86
REMARK Flexibility Score: inf
ROOT
ATOM      1  C   UNL     1       3.842  -2.248  -0.701  1.00  0.00     0.275 C 
ENDROOT
BRANCH   1   2
ATOM      2  C   UNL     1       4.165  -1.514   0.604  1.00  0.00     0.275 C 
BRANCH   2   3
ATOM      3  O   UNL     1       3.137  -0.613   1.043  1.00  0.00    -0.458 OA
BRANCH   3   4
ATOM      4  C   UNL     1       3.015   0.719   0.827  1.00  0.00     0.338 C 
ATOM      5  O   UNL     1       2.250   1.362   1.543  1.00  0.00    -0.246 OA
BRANCH   4   6
ATOM      6  C   UNL     1       3.633   1.420  -0.342  1.00  0.00     0.060 A 
ATOM      7  C   UNL     1       4.878   1.141  -0.915  1.00  0.00     0.016 A 
ATOM      8  C   UNL     1       2.886   2.480  -0.884  1.00  0.00     0.016 A 
ATOM      9  C   UNL     1       5.338   1.847  -2.034  1.00  0.00     0.010 A 
ATOM     10  C   UNL     1       3.339   3.187  -2.000  1.00  0.00     0.010 A 
ATOM     11  C   UNL     1       4.573   2.875  -2.580  1.00  0.00    -0.014 A 
BRANCH  11  12
ATOM     12  C   UNL     1       5.128   3.758  -3.630  1.00  0.00     0.031 A 
ATOM     13  C   UNL     1       5.592   5.122  -3.220  1.00  0.00     0.074 A 
ATOM     14  C   UNL     1       5.211   3.363  -4.913  1.00  0.00     0.049 A 
ATOM     15  N   UNL     1       6.012   6.109  -3.961  1.00  0.00    -0.248 NA
ATOM     16  C   UNL     1       5.604   5.396  -1.773  1.00  0.00     0.031 C 
ATOM     17  C   UNL     1       4.910   2.021  -5.402  1.00  0.00     0.029 A 
ATOM     18  N   UNL     1       5.532   4.064  -6.048  1.00  0.00    -0.354 N 
ATOM     19  C   UNL     1       6.371   7.110  -3.069  1.00  0.00     0.074 A 
ATOM     20  C   UNL     1       6.046   6.642  -1.741  1.00  0.00     0.031 C 
ATOM     21  C   UNL     1       4.956   2.021  -6.744  1.00  0.00     0.029 A 
ATOM     22  C   UNL     1       5.282   3.366  -7.207  1.00  0.00     0.049 A 
ATOM     23  H   UNL     1       5.905   4.975  -6.034  1.00  0.00     0.167 HD
ATOM     24  C   UNL     1       6.960   8.299  -3.335  1.00  0.00     0.037 A 
ATOM     25  C   UNL     1       5.272   3.782  -8.491  1.00  0.00     0.037 A 
ATOM     26  C   UNL     1       7.242   8.757  -4.665  1.00  0.00     0.049 A 
ATOM     27  C   UNL     1       5.715   5.194  -8.782  1.00  0.00     0.074 A 
ATOM     28  C   UNL     1       7.840   9.936  -5.066  1.00  0.00     0.029 A 
ATOM     29  N   UNL     1       6.917   8.054  -5.818  1.00  0.00    -0.354 N 
ATOM     30  N   UNL     1       6.105   6.118  -7.934  1.00  0.00    -0.248 NA
ATOM     31  C   UNL     1       5.752   5.621 -10.187  1.00  0.00     0.031 C 
ATOM     32  C   UNL     1       7.834   9.965  -6.466  1.00  0.00     0.029 A 
ATOM     33  C   UNL     1       7.276   8.784  -6.935  1.00  0.00     0.049 A 
ATOM     34  H   UNL     1       6.492   7.166  -5.837  1.00  0.00     0.167 HD
ATOM     35  C   UNL     1       6.516   7.200  -8.704  1.00  0.00     0.074 A 
ATOM     36  C   UNL     1       6.280   6.835 -10.087  1.00  0.00     0.031 C 
ATOM     37  C   UNL     1       7.072   8.370  -8.304  1.00  0.00     0.037 A 
BRANCH  24  38
ATOM     38  C   UNL     1       7.299   9.156  -2.151  1.00  0.00     0.058 A 
ATOM     39  C   UNL     1       8.314   8.787  -1.251  1.00  0.00     0.135 A 
ATOM     40  C   UNL     1       6.548  10.304  -1.860  1.00  0.00     0.135 A 
ATOM     41  F   UNL     1       9.047   7.684  -1.472  1.00  0.00    -0.206 F 
ATOM     42  C   UNL     1       8.528   9.489  -0.070  1.00  0.00     0.059 A 
ATOM     43  C   UNL     1       6.763  11.037  -0.696  1.00  0.00     0.059 A 
ATOM     44  F   UNL     1       5.567  10.698  -2.686  1.00  0.00    -0.206 F 
ATOM     45  C   UNL     1       7.733  10.602   0.207  1.00  0.00     0.060 A 
BRANCH  45  46
ATOM     46  S   UNL     1       7.961  11.455   1.782  1.00  0.00     0.124 S 
ATOM     47  O   UNL     1       7.308  10.533   2.706  1.00  0.00    -0.237 OA
ATOM     48  O   UNL     1       9.415  11.533   1.889  1.00  0.00    -0.237 OA
ATOM     49  O   UNL     1       7.281  12.729   1.579  1.00  0.00    -0.744 OA
ENDBRANCH  45  46
ENDBRANCH  24  38
BRANCH  25  50
ATOM     50  C   UNL     1       4.803   2.861  -9.565  1.00  0.00     0.058 A 
ATOM     51  C   UNL     1       5.653   2.394 -10.576  1.00  0.00     0.135 A 
ATOM     52  C   UNL     1       3.473   2.402  -9.579  1.00  0.00     0.135 A 
ATOM     53  F   UNL     1       6.934   2.788 -10.610  1.00  0.00    -0.206 F 
ATOM     54  C   UNL     1       5.202   1.526 -11.570  1.00  0.00     0.059 A 
ATOM     55  C   UNL     1       3.001   1.523 -10.550  1.00  0.00     0.059 A 
ATOM     56  F   UNL     1       2.627   2.780  -8.607  1.00  0.00    -0.206 F 
ATOM     57  C   UNL     1       3.874   1.092 -11.544  1.00  0.00     0.060 A 
BRANCH  57  58
ATOM     58  S   UNL     1       3.317  -0.060 -12.820  1.00  0.00     0.124 S 
ATOM     59  O   UNL     1       3.582   0.694 -14.040  1.00  0.00    -0.237 OA
ATOM     60  O   UNL     1       4.184  -1.209 -12.577  1.00  0.00    -0.237 OA
ATOM     61  O   UNL     1       1.908  -0.264 -12.501  1.00  0.00    -0.744 OA
ENDBRANCH  57  58
ENDBRANCH  25  50
BRANCH  37  62
ATOM     62  C   UNL     1       7.575   9.307  -9.364  1.00  0.00     0.058 A 
ATOM     63  C   UNL     1       6.716  10.150 -10.080  1.00  0.00     0.135 A 
ATOM     64  C   UNL     1       8.960   9.454  -9.554  1.00  0.00     0.135 A 
ATOM     65  F   UNL     1       5.386  10.037  -9.941  1.00  0.00    -0.206 F 
ATOM     66  C   UNL     1       7.215  11.123 -10.941  1.00  0.00     0.059 A 
ATOM     67  C   UNL     1       9.480  10.433 -10.391  1.00  0.00     0.059 A 
ATOM     68  F   UNL     1       9.821   8.671  -8.883  1.00  0.00    -0.206 F 
ATOM     69  C   UNL     1       8.598  11.267 -11.077  1.00  0.00     0.060 A 
BRANCH  69  70
ATOM     70  S   UNL     1       9.235  12.603 -12.110  1.00  0.00     0.124 S 
ATOM     71  O   UNL     1       8.991  12.081 -13.450  1.00  0.00    -0.237 OA
ATOM     72  O   UNL     1       8.403  13.733 -11.707  1.00  0.00    -0.237 OA
ATOM     73  O   UNL     1      10.638  12.696 -11.717  1.00  0.00    -0.744 OA
ENDBRANCH  69  70
ENDBRANCH  37  62
ENDBRANCH  11  12
ENDBRANCH   4   6
ENDBRANCH   3   4
ENDBRANCH   2   3
ENDBRANCH   1   2
BRANCH   1  74
ATOM     74  O   UNL     1       3.325  -1.391  -1.727  1.00  0.00    -0.458 OA
BRANCH  74  75
ATOM     75  C   UNL     1       1.963  -1.360  -1.826  1.00  0.00     0.339 C 
ATOM     76  O   UNL     1       1.172  -2.001  -1.171  1.00  0.00    -0.246 OA
BRANCH  75  77
ATOM     77  C   UNL     1       1.576  -0.301  -2.774  1.00  0.00     0.078 A 
ATOM     78  C   UNL     1       2.144  -0.166  -4.033  1.00  0.00     0.019 A 
ATOM     79  C   UNL     1       0.641   0.634  -2.367  1.00  0.00     0.127 A 
ATOM     80  C   UNL     1       1.799   0.940  -4.813  1.00  0.00     0.031 A 
ATOM     81  N   UNL     1       0.326   1.743  -3.086  1.00  0.00    -0.254 NA
ATOM     82  C   UNL     1       0.938   1.905  -4.290  1.00  0.00     0.094 A 
BRANCH  82  83
ATOM     83  C   UNL     1       0.762   3.233  -5.019  1.00  0.00     0.318 C 
BRANCH  83  84
ATOM     84  N   UNL     1      -0.635   3.517  -5.359  1.00  0.00    -0.337 N 
ATOM     85  H   UNL     1      -1.170   3.615  -4.495  1.00  0.00     0.346 HD
ATOM     86  H   UNL     1      -0.983   2.743  -5.925  1.00  0.00     0.346 HD
BRANCH  84  87
ATOM     87  C   UNL     1      -0.775   4.746  -6.143  1.00  0.00     0.300 C 
BRANCH  87  88
ATOM     88  C   UNL     1      -0.297   4.664  -7.573  1.00  0.00     0.045 A 
ATOM     89  C   UNL     1      -0.548   3.549  -8.385  1.00  0.00     0.051 A 
ATOM     90  C   UNL     1       0.352   5.764  -8.153  1.00  0.00     0.132 A 
ATOM     91  C   UNL     1      -0.126   3.538  -9.712  1.00  0.00     0.123 A 
ATOM     92  C   UNL     1       0.779   5.748  -9.482  1.00  0.00     0.043 A 
ATOM     93  F   UNL     1       0.558   6.873  -7.430  1.00  0.00    -0.206 F 
ATOM     94  F   UNL     1      -0.368   2.457 -10.463  1.00  0.00    -0.207 F 
ATOM     95  C   UNL     1       0.541   4.624 -10.268  1.00  0.00     0.042 A 
ENDBRANCH  87  88
ENDBRANCH  84  87
ENDBRANCH  83  84
ENDBRANCH  82  83
ENDBRANCH  75  77
ENDBRANCH  74  75
ENDBRANCH   1  74
TORSDOF 18
