REMARK SMILES COC(=O)c1ccc([C@H]([NH3+])CC(=O)OCCOC(=O)c2ccc(-c3c4nc(c(-c5c(F)cc(S(=O)(=O)[O-])cc5F)c5ccc([nH]5)c(-c5c(F)cc(S(=O)(=O)[O-])cc5F)c5nc(c(-c6c(F)cc(S(=O)(=O)[O-])cc6F)c6ccc3[nH]6)C=C5)C=C4)cc2)cc1
REMARK SMILES IDX 15 1 14 2 12 3 13 4 11 5 9 6 8 7 5 8 6 9 87 10 7 11 86 12
REMARK SMILES IDX 3 13 4 14 2 15 1 16 10 17 16 21 17 22 18 23 19 24 20 25
REMARK SMILES IDX 21 26 85 27 22 28 84 29 23 30 24 31 25 32 78 33 26 34 83 35
REMARK SMILES IDX 77 36 79 37 27 38 82 39 76 40 75 41 28 43 62 44 41 45 61 46
REMARK SMILES IDX 42 47 45 48 60 49 80 50 43 51 44 52 59 54 81 55 46 56 29 57
REMARK SMILES IDX 30 58 39 59 31 60 32 61 38 62 40 63 33 64 34 65 35 66 36 67
REMARK SMILES IDX 37 68 63 69 64 70 73 71 65 72 66 73 72 74 74 75 67 76 68 77
REMARK SMILES IDX 69 78 70 79 71 80 47 81 48 82 57 83 49 84 50 85 56 86 58 87
REMARK SMILES IDX 51 88 52 89 53 90 54 91 55 92
REMARK H PARENT 10 18 10 19 10 20 79 42 45 53
REMARK Flexibility Score: inf
ROOT
ATOM      1  C   UNL     1      -0.159   1.375   6.730  1.00  0.00     0.274 C 
ENDROOT
BRANCH   1   2
ATOM      2  O   UNL     1      -0.074  -0.062   6.671  1.00  0.00    -0.462 OA
BRANCH   2   3
ATOM      3  C   UNL     1       0.169  -0.698   7.849  1.00  0.00     0.312 C 
ATOM      4  O   UNL     1       0.333  -0.135   8.924  1.00  0.00    -0.252 OA
BRANCH   3   5
ATOM      5  C   UNL     1       0.303  -2.188   7.673  1.00  0.00     0.192 C 
BRANCH   5   6
ATOM      6  C   UNL     1      -0.933  -2.882   7.081  1.00  0.00     0.223 C 
BRANCH   6   7
ATOM      7  C   UNL     1      -0.802  -4.386   7.280  1.00  0.00     0.010 A 
ATOM      8  C   UNL     1      -0.471  -7.141   7.771  1.00  0.00     0.060 A 
ATOM      9  C   UNL     1       0.246  -6.514   6.746  1.00  0.00     0.016 A 
ATOM     10  C   UNL     1      -1.364  -6.393   8.546  1.00  0.00     0.016 A 
ATOM     11  C   UNL     1       0.079  -5.151   6.500  1.00  0.00     0.011 A 
ATOM     12  C   UNL     1      -1.526  -5.026   8.302  1.00  0.00     0.011 A 
BRANCH   8  13
ATOM     13  C   UNL     1      -0.226  -8.587   8.006  1.00  0.00     0.337 C 
ATOM     14  O   UNL     1       0.751  -9.181   7.574  1.00  0.00    -0.246 OA
BRANCH  13  15
ATOM     15  O   UNL     1      -1.240  -9.134   8.718  1.00  0.00    -0.465 OA
ATOM     16  C   UNL     1      -1.097 -10.535   8.954  1.00  0.00     0.282 C 
ENDBRANCH  13  15
ENDBRANCH   8  13
ENDBRANCH   6   7
BRANCH   6  17
ATOM     17  N   UNL     1      -1.161  -2.572   5.664  1.00  0.00    -0.351 N 
ATOM     18  H   UNL     1      -0.374  -2.910   5.110  1.00  0.00     0.345 HD
ATOM     19  H   UNL     1      -1.251  -1.563   5.546  1.00  0.00     0.345 HD
ATOM     20  H   UNL     1      -2.018  -3.028   5.350  1.00  0.00     0.345 HD
ENDBRANCH   6  17
ENDBRANCH   5   6
ENDBRANCH   3   5
ENDBRANCH   2   3
ENDBRANCH   1   2
BRANCH   1  21
ATOM     21  C   UNL     1      -1.605   1.869   6.839  1.00  0.00     0.275 C 
BRANCH  21  22
ATOM     22  O   UNL     1      -2.174   1.593   8.131  1.00  0.00    -0.458 OA
BRANCH  22  23
ATOM     23  C   UNL     1      -2.826   0.410   8.225  1.00  0.00     0.338 C 
ATOM     24  O   UNL     1      -3.002  -0.396   7.326  1.00  0.00    -0.246 OA
BRANCH  23  25
ATOM     25  C   UNL     1      -3.193   0.146   9.627  1.00  0.00     0.060 A 
ATOM     26  C   UNL     1      -2.656  -0.983  10.252  1.00  0.00     0.016 A 
ATOM     27  C   UNL     1      -4.118   0.952  10.294  1.00  0.00     0.016 A 
ATOM     28  C   UNL     1      -3.056  -1.326  11.541  1.00  0.00     0.010 A 
ATOM     29  C   UNL     1      -4.512   0.611  11.593  1.00  0.00     0.010 A 
ATOM     30  C   UNL     1      -3.997  -0.539  12.217  1.00  0.00    -0.014 A 
BRANCH  30  31
ATOM     31  C   UNL     1      -4.471  -0.955  13.561  1.00  0.00     0.031 A 
ATOM     32  C   UNL     1      -5.844  -1.545  13.721  1.00  0.00     0.074 A 
ATOM     33  C   UNL     1      -3.660  -0.825  14.628  1.00  0.00     0.049 A 
ATOM     34  N   UNL     1      -6.457  -1.929  14.811  1.00  0.00    -0.248 NA
ATOM     35  C   UNL     1      -6.633  -1.724  12.492  1.00  0.00     0.031 C 
ATOM     36  C   UNL     1      -2.298  -0.292  14.592  1.00  0.00     0.029 A 
ATOM     37  N   UNL     1      -3.866  -1.130  15.949  1.00  0.00    -0.354 N 
ATOM     38  C   UNL     1      -7.707  -2.381  14.406  1.00  0.00     0.074 A 
ATOM     39  C   UNL     1      -7.773  -2.204  12.971  1.00  0.00     0.031 C 
ATOM     40  C   UNL     1      -1.790  -0.307  15.836  1.00  0.00     0.029 A 
ATOM     41  C   UNL     1      -2.801  -0.816  16.759  1.00  0.00     0.049 A 
ATOM     42  H   UNL     1      -4.698  -1.536  16.286  1.00  0.00     0.167 HD
ATOM     43  C   UNL     1      -8.705  -2.899  15.162  1.00  0.00     0.037 A 
ATOM     44  C   UNL     1      -2.663  -0.910  18.096  1.00  0.00     0.037 A 
ATOM     45  C   UNL     1      -8.628  -3.085  16.588  1.00  0.00     0.049 A 
ATOM     46  C   UNL     1      -3.797  -1.462  18.916  1.00  0.00     0.074 A 
ATOM     47  C   UNL     1      -9.582  -3.615  17.440  1.00  0.00     0.029 A 
ATOM     48  N   UNL     1      -7.536  -2.747  17.374  1.00  0.00    -0.354 N 
ATOM     49  N   UNL     1      -4.971  -1.890  18.517  1.00  0.00    -0.248 NA
ATOM     50  C   UNL     1      -3.586  -1.548  20.368  1.00  0.00     0.031 C 
ATOM     51  C   UNL     1      -9.080  -3.566  18.746  1.00  0.00     0.029 A 
ATOM     52  C   UNL     1      -7.797  -3.045  18.702  1.00  0.00     0.049 A 
ATOM     53  H   UNL     1      -6.699  -2.354  17.038  1.00  0.00     0.167 HD
ATOM     54  C   UNL     1      -5.631  -2.316  19.666  1.00  0.00     0.074 A 
ATOM     55  C   UNL     1      -4.720  -2.106  20.772  1.00  0.00     0.031 C 
ATOM     56  C   UNL     1      -6.877  -2.834  19.792  1.00  0.00     0.037 A 
BRANCH  43  57
ATOM     57  C   UNL     1      -9.978  -3.283  14.461  1.00  0.00     0.058 A 
ATOM     58  C   UNL     1     -10.060  -4.424  13.648  1.00  0.00     0.135 A 
ATOM     59  C   UNL     1     -11.142  -2.516  14.633  1.00  0.00     0.135 A 
ATOM     60  F   UNL     1      -8.972  -5.182  13.436  1.00  0.00    -0.206 F 
ATOM     61  C   UNL     1     -11.244  -4.778  13.009  1.00  0.00     0.059 A 
ATOM     62  C   UNL     1     -12.344  -2.865  14.023  1.00  0.00     0.059 A 
ATOM     63  F   UNL     1     -11.119  -1.415  15.400  1.00  0.00    -0.206 F 
ATOM     64  C   UNL     1     -12.381  -3.990  13.201  1.00  0.00     0.060 A 
BRANCH  64  65
ATOM     65  S   UNL     1     -13.912  -4.461  12.368  1.00  0.00     0.124 S 
ATOM     66  O   UNL     1     -13.630  -4.057  10.994  1.00  0.00    -0.237 OA
ATOM     67  O   UNL     1     -13.969  -5.900  12.605  1.00  0.00    -0.237 OA
ATOM     68  O   UNL     1     -14.930  -3.675  13.057  1.00  0.00    -0.744 OA
ENDBRANCH  64  65
ENDBRANCH  43  57
BRANCH  44  69
ATOM     69  C   UNL     1      -1.403  -0.460  18.743  1.00  0.00     0.058 A 
ATOM     70  C   UNL     1      -0.506  -1.381  19.303  1.00  0.00     0.135 A 
ATOM     71  C   UNL     1      -1.069   0.902  18.809  1.00  0.00     0.135 A 
ATOM     72  F   UNL     1      -0.786  -2.693  19.273  1.00  0.00    -0.206 F 
ATOM     73  C   UNL     1       0.672  -0.969  19.918  1.00  0.00     0.059 A 
ATOM     74  C   UNL     1       0.114   1.337  19.396  1.00  0.00     0.059 A 
ATOM     75  F   UNL     1      -1.889   1.821  18.277  1.00  0.00    -0.206 F 
ATOM     76  C   UNL     1       0.974   0.394  19.958  1.00  0.00     0.060 A 
BRANCH  76  77
ATOM     77  S   UNL     1       2.528   0.919  20.714  1.00  0.00     0.124 S 
ATOM     78  O   UNL     1       2.221   0.789  22.134  1.00  0.00    -0.237 OA
ATOM     79  O   UNL     1       3.477  -0.050  20.174  1.00  0.00    -0.237 OA
ATOM     80  O   UNL     1       2.693   2.284  20.224  1.00  0.00    -0.744 OA
ENDBRANCH  76  77
ENDBRANCH  44  69
BRANCH  56  81
ATOM     81  C   UNL     1      -7.315  -3.244  21.171  1.00  0.00     0.058 A 
ATOM     82  C   UNL     1      -7.660  -2.297  22.147  1.00  0.00     0.135 A 
ATOM     83  C   UNL     1      -7.419  -4.603  21.508  1.00  0.00     0.135 A 
ATOM     84  F   UNL     1      -7.572  -0.985  21.877  1.00  0.00    -0.206 F 
ATOM     85  C   UNL     1      -8.065  -2.683  23.421  1.00  0.00     0.059 A 
ATOM     86  C   UNL     1      -7.845  -5.012  22.767  1.00  0.00     0.059 A 
ATOM     87  F   UNL     1      -7.112  -5.549  20.606  1.00  0.00    -0.206 F 
ATOM     88  C   UNL     1      -8.151  -4.044  23.723  1.00  0.00     0.060 A 
BRANCH  88  89
ATOM     89  S   UNL     1      -8.692  -4.536  25.374  1.00  0.00     0.124 S 
ATOM     90  O   UNL     1      -7.487  -4.298  26.161  1.00  0.00    -0.237 OA
ATOM     91  O   UNL     1      -9.804  -3.624  25.626  1.00  0.00    -0.237 OA
ATOM     92  O   UNL     1      -9.066  -5.937  25.203  1.00  0.00    -0.744 OA
ENDBRANCH  88  89
ENDBRANCH  56  81
ENDBRANCH  30  31
ENDBRANCH  23  25
ENDBRANCH  22  23
ENDBRANCH  21  22
ENDBRANCH   1  21
TORSDOF 19
