REMARK SMILES CC1(C)CCC[C@@]1(CC(=O)OCCOC(=O)c1ccc(-c2c3nc(c(-c4c(F)cc(S(=O)(=O)[O-])cc4F)c4ccc([nH]4)c(-c4c(F)cc(S(=O)(=O)[O-])cc4F)c4nc(c(-c5c(F)cc(S(=O)(=O)[O-])cc5F)c5ccc2[nH]5)C=C4)C=C3)cc1)[NH+]1CCCCC1
REMARK SMILES IDX 13 1 12 2 11 3 9 4 10 5 8 6 7 7 1 8 2 9 3 10 4 11 5 12 6 13
REMARK SMILES IDX 83 14 84 15 88 16 85 18 87 19 86 20 14 21 15 22 16 23 17 24
REMARK SMILES IDX 18 25 82 26 19 27 81 28 20 29 21 30 22 31 75 32 23 33 80 34
REMARK SMILES IDX 74 35 76 36 24 37 79 38 73 39 72 40 25 42 59 43 38 44 58 45
REMARK SMILES IDX 39 46 42 47 57 48 77 49 40 50 41 51 56 53 78 54 43 55 26 56
REMARK SMILES IDX 27 57 36 58 28 59 29 60 35 61 37 62 30 63 31 64 32 65 33 66
REMARK SMILES IDX 34 67 60 68 61 69 70 70 62 71 63 72 69 73 71 74 64 75 65 76
REMARK SMILES IDX 66 77 67 78 68 79 44 80 45 81 54 82 46 83 47 84 53 85 55 86
REMARK SMILES IDX 48 87 49 88 50 89 51 90 52 91
REMARK H PARENT 83 17 76 41 42 52
REMARK Flexibility Score: inf
ROOT
ATOM      1  C   UNL     1      -3.288   4.663  -1.906  1.00  0.00     0.275 C 
ENDROOT
BRANCH   1   2
ATOM      2  C   UNL     1      -2.435   3.563  -2.527  1.00  0.00     0.274 C 
BRANCH   2   3
ATOM      3  O   UNL     1      -1.716   2.898  -1.473  1.00  0.00    -0.462 OA
BRANCH   3   4
ATOM      4  C   UNL     1      -0.421   2.581  -1.736  1.00  0.00     0.312 C 
ATOM      5  O   UNL     1       0.136   2.741  -2.814  1.00  0.00    -0.252 OA
BRANCH   4   6
ATOM      6  C   UNL     1       0.285   2.075  -0.501  1.00  0.00     0.191 C 
BRANCH   6   7
ATOM      7  C   UNL     1      -0.266   0.768   0.178  1.00  0.00     0.113 C 
ATOM      8  C   UNL     1       2.055  -0.416   0.622  1.00  0.00     0.018 C 
ATOM      9  C   UNL     1       0.749  -0.426  -0.189  1.00  0.00     0.020 C 
ATOM     10  C   UNL     1       1.168  -0.434  -1.697  1.00  0.00     0.018 C 
ATOM     11  C   UNL     1      -0.069  -1.715   0.017  1.00  0.00     0.013 C 
ATOM     12  C   UNL     1      -1.503  -1.345  -0.338  1.00  0.00     0.007 C 
ATOM     13  C   UNL     1      -1.567   0.183  -0.444  1.00  0.00     0.070 C 
BRANCH   7  14
ATOM     14  N   UNL     1      -0.470   1.083   1.634  1.00  0.00    -0.329 N 
ATOM     15  C   UNL     1      -0.596   0.072   2.680  1.00  0.00     0.262 C 
ATOM     16  C   UNL     1      -1.265   2.279   1.988  1.00  0.00     0.262 C 
ATOM     17  H   UNL     1       0.531   1.274   1.658  1.00  0.00     0.348 HD
ATOM     18  C   UNL     1      -2.033  -0.275   3.075  1.00  0.00     0.062 C 
ATOM     19  C   UNL     1      -2.706   2.038   2.444  1.00  0.00     0.062 C 
ATOM     20  C   UNL     1      -2.798   0.963   3.511  1.00  0.00     0.012 C 
ENDBRANCH   7  14
ENDBRANCH   6   7
ENDBRANCH   4   6
ENDBRANCH   3   4
ENDBRANCH   2   3
ENDBRANCH   1   2
BRANCH   1  21
ATOM     21  O   UNL     1      -2.442   5.464  -1.062  1.00  0.00    -0.458 OA
BRANCH  21  22
ATOM     22  C   UNL     1      -2.783   5.484   0.248  1.00  0.00     0.338 C 
ATOM     23  O   UNL     1      -3.812   5.063   0.749  1.00  0.00    -0.246 OA
BRANCH  22  24
ATOM     24  C   UNL     1      -1.695   6.091   1.039  1.00  0.00     0.060 A 
ATOM     25  C   UNL     1      -0.364   5.718   0.833  1.00  0.00     0.016 A 
ATOM     26  C   UNL     1      -2.024   6.974   2.067  1.00  0.00     0.016 A 
ATOM     27  C   UNL     1       0.632   6.185   1.693  1.00  0.00     0.010 A 
ATOM     28  C   UNL     1      -1.014   7.513   2.865  1.00  0.00     0.010 A 
ATOM     29  C   UNL     1       0.324   7.114   2.698  1.00  0.00    -0.014 A 
BRANCH  29  30
ATOM     30  C   UNL     1       1.385   7.716   3.551  1.00  0.00     0.031 A 
ATOM     31  C   UNL     1       1.336   7.573   5.049  1.00  0.00     0.074 A 
ATOM     32  C   UNL     1       2.357   8.456   2.981  1.00  0.00     0.049 A 
ATOM     33  N   UNL     1       2.019   8.214   5.963  1.00  0.00    -0.248 NA
ATOM     34  C   UNL     1       0.383   6.591   5.592  1.00  0.00     0.031 C 
ATOM     35  C   UNL     1       2.529   8.670   1.542  1.00  0.00     0.029 A 
ATOM     36  N   UNL     1       3.375   9.185   3.546  1.00  0.00    -0.354 N 
ATOM     37  C   UNL     1       1.550   7.751   7.187  1.00  0.00     0.074 A 
ATOM     38  C   UNL     1       0.523   6.771   6.899  1.00  0.00     0.031 C 
ATOM     39  C   UNL     1       3.590   9.463   1.336  1.00  0.00     0.029 A 
ATOM     40  C   UNL     1       4.128   9.877   2.627  1.00  0.00     0.049 A 
ATOM     41  H   UNL     1       3.549   9.210   4.514  1.00  0.00     0.167 HD
ATOM     42  C   UNL     1       1.940   8.113   8.433  1.00  0.00     0.037 A 
ATOM     43  C   UNL     1       5.109  10.783   2.796  1.00  0.00     0.037 A 
ATOM     44  C   UNL     1       2.989   9.061   8.712  1.00  0.00     0.049 A 
ATOM     45  C   UNL     1       5.516  11.176   4.185  1.00  0.00     0.074 A 
ATOM     46  C   UNL     1       3.467   9.480   9.943  1.00  0.00     0.029 A 
ATOM     47  N   UNL     1       3.734   9.726   7.750  1.00  0.00    -0.354 N 
ATOM     48  N   UNL     1       5.032  10.762   5.331  1.00  0.00    -0.248 NA
ATOM     49  C   UNL     1       6.590  12.171   4.306  1.00  0.00     0.031 C 
ATOM     50  C   UNL     1       4.485  10.416   9.724  1.00  0.00     0.029 A 
ATOM     51  C   UNL     1       4.662  10.555   8.357  1.00  0.00     0.049 A 
ATOM     52  H   UNL     1       3.620   9.623   6.777  1.00  0.00     0.167 HD
ATOM     53  C   UNL     1       5.744  11.444   6.310  1.00  0.00     0.074 A 
ATOM     54  C   UNL     1       6.706  12.281   5.622  1.00  0.00     0.031 C 
ATOM     55  C   UNL     1       5.608  11.386   7.657  1.00  0.00     0.037 A 
BRANCH  42  56
ATOM     56  C   UNL     1       1.218   7.500   9.600  1.00  0.00     0.058 A 
ATOM     57  C   UNL     1       1.466   6.182  10.011  1.00  0.00     0.135 A 
ATOM     58  C   UNL     1       0.313   8.263  10.356  1.00  0.00     0.135 A 
ATOM     59  F   UNL     1       2.312   5.405   9.316  1.00  0.00    -0.206 F 
ATOM     60  C   UNL     1       0.832   5.636  11.124  1.00  0.00     0.059 A 
ATOM     61  C   UNL     1      -0.319   7.744  11.482  1.00  0.00     0.059 A 
ATOM     62  F   UNL     1       0.039   9.529  10.005  1.00  0.00    -0.206 F 
ATOM     63  C   UNL     1      -0.059   6.425  11.853  1.00  0.00     0.060 A 
BRANCH  63  64
ATOM     64  S   UNL     1      -0.860   5.713  13.307  1.00  0.00     0.124 S 
ATOM     65  O   UNL     1      -1.879   4.867  12.692  1.00  0.00    -0.237 OA
ATOM     66  O   UNL     1       0.238   5.008  13.959  1.00  0.00    -0.237 OA
ATOM     67  O   UNL     1      -1.363   6.881  14.024  1.00  0.00    -0.744 OA
ENDBRANCH  63  64
ENDBRANCH  42  56
BRANCH  43  68
ATOM     68  C   UNL     1       5.742  11.409   1.607  1.00  0.00     0.058 A 
ATOM     69  C   UNL     1       7.042  11.060   1.217  1.00  0.00     0.135 A 
ATOM     70  C   UNL     1       5.045  12.337   0.818  1.00  0.00     0.135 A 
ATOM     71  F   UNL     1       7.749  10.183   1.947  1.00  0.00    -0.206 F 
ATOM     72  C   UNL     1       7.633  11.611   0.085  1.00  0.00     0.059 A 
ATOM     73  C   UNL     1       5.606  12.884  -0.330  1.00  0.00     0.059 A 
ATOM     74  F   UNL     1       3.791  12.689   1.143  1.00  0.00    -0.206 F 
ATOM     75  C   UNL     1       6.905  12.520  -0.684  1.00  0.00     0.060 A 
BRANCH  75  76
ATOM     76  S   UNL     1       7.645  13.180  -2.194  1.00  0.00     0.124 S 
ATOM     77  O   UNL     1       8.493  14.241  -1.664  1.00  0.00    -0.237 OA
ATOM     78  O   UNL     1       8.341  12.016  -2.735  1.00  0.00    -0.237 OA
ATOM     79  O   UNL     1       6.487  13.620  -2.966  1.00  0.00    -0.744 OA
ENDBRANCH  75  76
ENDBRANCH  43  68
BRANCH  55  80
ATOM     80  C   UNL     1       6.535  12.241   8.470  1.00  0.00     0.058 A 
ATOM     81  C   UNL     1       6.329  13.623   8.599  1.00  0.00     0.135 A 
ATOM     82  C   UNL     1       7.628  11.670   9.140  1.00  0.00     0.135 A 
ATOM     83  F   UNL     1       5.302  14.214   7.969  1.00  0.00    -0.206 F 
ATOM     84  C   UNL     1       7.191  14.416   9.348  1.00  0.00     0.059 A 
ATOM     85  C   UNL     1       8.492  12.442   9.909  1.00  0.00     0.059 A 
ATOM     86  F   UNL     1       7.862  10.352   9.051  1.00  0.00    -0.206 F 
ATOM     87  C   UNL     1       8.274  13.817   9.995  1.00  0.00     0.060 A 
BRANCH  87  88
ATOM     88  S   UNL     1       9.381  14.851  10.977  1.00  0.00     0.124 S 
ATOM     89  O   UNL     1      10.213  15.454   9.941  1.00  0.00    -0.237 OA
ATOM     90  O   UNL     1       8.456  15.755  11.653  1.00  0.00    -0.237 OA
ATOM     91  O   UNL     1      10.056  13.891  11.846  1.00  0.00    -0.744 OA
ENDBRANCH  87  88
ENDBRANCH  55  80
ENDBRANCH  29  30
ENDBRANCH  22  24
ENDBRANCH  21  22
ENDBRANCH   1  21
TORSDOF 16
