REMARK SMILES C[NH+]1CCC(C(=O)N2C[C@@H](C(=O)OCCOC(=O)c3ccc(-c4c5nc(c(-c6c(F)cc(S(=O)(=O)[O-])cc6F)c6ccc([nH]6)c(-c6c(F)cc(S(=O)(=O)[O-])cc6F)c6nc(c(-c7c(F)cc(S(=O)(=O)[O-])cc7F)c7ccc4[nH]7)C=C6)C=C5)cc3)[C@H](c3ccc4c(c3)OCO4)C2)CC1
REMARK SMILES IDX 15 1 14 2 13 3 11 4 12 5 10 6 8 7 9 8 95 9 85 10 6 11 7 12
REMARK SMILES IDX 5 13 1 14 2 15 3 16 97 17 4 19 96 20 86 21 87 22 91 23 88 24
REMARK SMILES IDX 90 25 89 26 92 27 94 28 93 29 16 30 17 31 18 32 19 33 20 34
REMARK SMILES IDX 84 35 21 36 83 37 22 38 23 39 24 40 77 41 25 42 82 43 76 44
REMARK SMILES IDX 78 45 26 46 81 47 75 48 74 49 27 51 61 52 40 53 60 54 41 55
REMARK SMILES IDX 44 56 59 57 79 58 42 59 43 60 58 62 80 63 45 64 28 65 29 66
REMARK SMILES IDX 38 67 30 68 31 69 37 70 39 71 32 72 33 73 34 74 35 75 36 76
REMARK SMILES IDX 62 77 63 78 72 79 64 80 65 81 71 82 73 83 66 84 67 85 68 86
REMARK SMILES IDX 69 87 70 88 46 89 47 90 56 91 48 92 49 93 55 94 57 95 50 96
REMARK SMILES IDX 51 97 52 98 53 99 54 100
REMARK H PARENT 2 18 78 50 44 61
REMARK Flexibility Score: inf
ROOT
ATOM      1  C   UNL     1       1.617  -2.621   7.152  1.00  0.00     0.275 C 
ENDROOT
BRANCH   1   2
ATOM      2  C   UNL     1       2.564  -1.425   7.173  1.00  0.00     0.274 C 
BRANCH   2   3
ATOM      3  O   UNL     1       2.413  -0.625   5.984  1.00  0.00    -0.462 OA
BRANCH   3   4
ATOM      4  C   UNL     1       3.426  -0.683   5.078  1.00  0.00     0.311 C 
ATOM      5  O   UNL     1       4.395  -1.426   5.152  1.00  0.00    -0.252 OA
BRANCH   4   6
ATOM      6  C   UNL     1       3.234   0.349   3.995  1.00  0.00     0.128 C 
ATOM      7  N   UNL     1       3.457   0.654   1.684  1.00  0.00    -0.341 N 
ATOM      8  C   UNL     1       2.911  -0.259   2.657  1.00  0.00     0.135 C 
ATOM      9  C   UNL     1       4.579   1.395   2.250  1.00  0.00     0.128 C 
ATOM     10  C   UNL     1       4.524   1.177   3.775  1.00  0.00     0.055 C 
BRANCH   7  11
ATOM     11  C   UNL     1       3.229   0.641   0.324  1.00  0.00     0.226 C 
ATOM     12  O   UNL     1       4.079   1.091  -0.452  1.00  0.00    -0.275 OA
BRANCH  11  13
ATOM     13  C   UNL     1       1.836   0.297  -0.217  1.00  0.00     0.090 C 
ATOM     14  C   UNL     1      -2.430  -0.236  -0.297  1.00  0.00     0.332 C 
ATOM     15  N   UNL     1      -1.029  -0.103   0.106  1.00  0.00    -0.337 N 
ATOM     16  C   UNL     1      -0.517   1.209  -0.296  1.00  0.00     0.262 C 
ATOM     17  C   UNL     1      -0.212  -1.179  -0.482  1.00  0.00     0.262 C 
ATOM     18  H   UNL     1      -0.972  -0.183   1.121  1.00  0.00     0.347 HD
ATOM     19  C   UNL     1       0.884   1.400   0.259  1.00  0.00     0.075 C 
ATOM     20  C   UNL     1       1.249  -1.103  -0.004  1.00  0.00     0.075 C 
ENDBRANCH  11  13
ENDBRANCH   7  11
BRANCH  10  21
ATOM     21  C   UNL     1       4.403   2.359   4.729  1.00  0.00    -0.038 A 
ATOM     22  C   UNL     1       3.812   3.586   4.355  1.00  0.00     0.008 A 
ATOM     23  C   UNL     1       4.615   2.087   6.099  1.00  0.00     0.054 A 
ATOM     24  C   UNL     1       3.345   4.481   5.325  1.00  0.00     0.051 A 
ATOM     25  C   UNL     1       4.075   2.948   7.024  1.00  0.00     0.166 A 
ATOM     26  C   UNL     1       3.444   4.107   6.648  1.00  0.00     0.165 A 
ATOM     27  O   UNL     1       3.996   2.721   8.363  1.00  0.00    -0.454 OA
ATOM     28  O   UNL     1       2.894   4.758   7.709  1.00  0.00    -0.454 OA
ATOM     29  C   UNL     1       3.081   3.767   8.743  1.00  0.00     0.468 C 
ENDBRANCH  10  21
ENDBRANCH   4   6
ENDBRANCH   3   4
ENDBRANCH   2   3
ENDBRANCH   1   2
BRANCH   1  30
ATOM     30  O   UNL     1       2.010  -3.535   6.114  1.00  0.00    -0.458 OA
BRANCH  30  31
ATOM     31  C   UNL     1       1.194  -3.576   5.039  1.00  0.00     0.338 C 
ATOM     32  O   UNL     1       0.139  -2.980   4.881  1.00  0.00    -0.246 OA
BRANCH  31  33
ATOM     33  C   UNL     1       1.811  -4.386   3.982  1.00  0.00     0.060 A 
ATOM     34  C   UNL     1       2.848  -3.822   3.248  1.00  0.00     0.016 A 
ATOM     35  C   UNL     1       1.274  -5.613   3.606  1.00  0.00     0.016 A 
ATOM     36  C   UNL     1       3.275  -4.410   2.063  1.00  0.00     0.010 A 
ATOM     37  C   UNL     1       1.786  -6.263   2.476  1.00  0.00     0.010 A 
ATOM     38  C   UNL     1       2.760  -5.648   1.664  1.00  0.00    -0.014 A 
BRANCH  38  39
ATOM     39  C   UNL     1       3.196  -6.266   0.380  1.00  0.00     0.031 A 
ATOM     40  C   UNL     1       2.172  -6.610  -0.672  1.00  0.00     0.074 A 
ATOM     41  C   UNL     1       4.502  -6.508   0.138  1.00  0.00     0.049 A 
ATOM     42  N   UNL     1       2.307  -7.338  -1.750  1.00  0.00    -0.248 NA
ATOM     43  C   UNL     1       0.811  -6.082  -0.476  1.00  0.00     0.031 C 
ATOM     44  C   UNL     1       5.611  -6.183   1.039  1.00  0.00     0.029 A 
ATOM     45  N   UNL     1       5.121  -7.081  -0.946  1.00  0.00    -0.354 N 
ATOM     46  C   UNL     1       1.038  -7.427  -2.312  1.00  0.00     0.074 A 
ATOM     47  C   UNL     1       0.148  -6.660  -1.469  1.00  0.00     0.031 C 
ATOM     48  C   UNL     1       6.771  -6.524   0.456  1.00  0.00     0.029 A 
ATOM     49  C   UNL     1       6.488  -7.175  -0.817  1.00  0.00     0.049 A 
ATOM     50  H   UNL     1       4.632  -7.395  -1.741  1.00  0.00     0.167 HD
ATOM     51  C   UNL     1       0.653  -8.097  -3.424  1.00  0.00     0.037 A 
ATOM     52  C   UNL     1       7.408  -7.761  -1.607  1.00  0.00     0.037 A 
ATOM     53  C   UNL     1       1.559  -8.780  -4.310  1.00  0.00     0.049 A 
ATOM     54  C   UNL     1       6.958  -8.478  -2.850  1.00  0.00     0.074 A 
ATOM     55  C   UNL     1       1.269  -9.462  -5.480  1.00  0.00     0.029 A 
ATOM     56  N   UNL     1       2.934  -8.843  -4.142  1.00  0.00    -0.354 N 
ATOM     57  N   UNL     1       5.744  -8.613  -3.328  1.00  0.00    -0.248 NA
ATOM     58  C   UNL     1       7.998  -9.144  -3.646  1.00  0.00     0.031 C 
ATOM     59  C   UNL     1       2.467  -9.955  -6.009  1.00  0.00     0.029 A 
ATOM     60  C   UNL     1       3.505  -9.554  -5.184  1.00  0.00     0.049 A 
ATOM     61  H   UNL     1       3.430  -8.443  -3.392  1.00  0.00     0.167 HD
ATOM     62  C   UNL     1       5.877  -9.369  -4.486  1.00  0.00     0.074 A 
ATOM     63  C   UNL     1       7.288  -9.648  -4.647  1.00  0.00     0.031 C 
ATOM     64  C   UNL     1       4.914  -9.803  -5.336  1.00  0.00     0.037 A 
BRANCH  51  65
ATOM     65  C   UNL     1      -0.815  -8.162  -3.735  1.00  0.00     0.058 A 
ATOM     66  C   UNL     1      -1.511  -7.078  -4.289  1.00  0.00     0.135 A 
ATOM     67  C   UNL     1      -1.519  -9.361  -3.531  1.00  0.00     0.135 A 
ATOM     68  F   UNL     1      -0.890  -5.905  -4.484  1.00  0.00    -0.206 F 
ATOM     69  C   UNL     1      -2.859  -7.176  -4.620  1.00  0.00     0.059 A 
ATOM     70  C   UNL     1      -2.861  -9.488  -3.873  1.00  0.00     0.059 A 
ATOM     71  F   UNL     1      -0.899 -10.426  -2.999  1.00  0.00    -0.206 F 
ATOM     72  C   UNL     1      -3.526  -8.386  -4.410  1.00  0.00     0.060 A 
BRANCH  72  73
ATOM     73  S   UNL     1      -5.268  -8.511  -4.870  1.00  0.00     0.124 S 
ATOM     74  O   UNL     1      -5.909  -7.792  -3.773  1.00  0.00    -0.237 OA
ATOM     75  O   UNL     1      -5.299  -7.844  -6.168  1.00  0.00    -0.237 OA
ATOM     76  O   UNL     1      -5.508  -9.950  -4.902  1.00  0.00    -0.744 OA
ENDBRANCH  72  73
ENDBRANCH  51  65
BRANCH  52  77
ATOM     77  C   UNL     1       8.845  -7.747  -1.222  1.00  0.00     0.058 A 
ATOM     78  C   UNL     1       9.783  -7.006  -1.955  1.00  0.00     0.135 A 
ATOM     79  C   UNL     1       9.309  -8.485  -0.122  1.00  0.00     0.135 A 
ATOM     80  F   UNL     1       9.389  -6.294  -3.022  1.00  0.00    -0.206 F 
ATOM     81  C   UNL     1      11.135  -7.012  -1.624  1.00  0.00     0.059 A 
ATOM     82  C   UNL     1      10.650  -8.485   0.245  1.00  0.00     0.059 A 
ATOM     83  F   UNL     1       8.449  -9.200   0.620  1.00  0.00    -0.206 F 
ATOM     84  C   UNL     1      11.559  -7.758  -0.523  1.00  0.00     0.060 A 
BRANCH  84  85
ATOM     85  S   UNL     1      13.308  -7.743  -0.073  1.00  0.00     0.124 S 
ATOM     86  O   UNL     1      13.856  -8.722  -1.004  1.00  0.00    -0.237 OA
ATOM     87  O   UNL     1      13.683  -6.353  -0.314  1.00  0.00    -0.237 OA
ATOM     88  O   UNL     1      13.291  -8.144   1.331  1.00  0.00    -0.744 OA
ENDBRANCH  84  85
ENDBRANCH  52  77
BRANCH  64  89
ATOM     89  C   UNL     1       5.362 -10.586  -6.534  1.00  0.00     0.058 A 
ATOM     90  C   UNL     1       5.738 -11.934  -6.430  1.00  0.00     0.135 A 
ATOM     91  C   UNL     1       5.376  -9.992  -7.805  1.00  0.00     0.135 A 
ATOM     92  F   UNL     1       5.747 -12.542  -5.234  1.00  0.00    -0.206 F 
ATOM     93  C   UNL     1       6.133 -12.662  -7.547  1.00  0.00     0.059 A 
ATOM     94  C   UNL     1       5.749 -10.707  -8.938  1.00  0.00     0.059 A 
ATOM     95  F   UNL     1       5.016  -8.708  -7.955  1.00  0.00    -0.206 F 
ATOM     96  C   UNL     1       6.138 -12.040  -8.796  1.00  0.00     0.060 A 
BRANCH  96  97
ATOM     97  S   UNL     1       6.623 -13.000 -10.246  1.00  0.00     0.124 S 
ATOM     98  O   UNL     1       8.078 -12.990 -10.131  1.00  0.00    -0.237 OA
ATOM     99  O   UNL     1       5.977 -14.286 -10.005  1.00  0.00    -0.237 OA
ATOM    100  O   UNL     1       6.075 -12.230 -11.359  1.00  0.00    -0.744 OA
ENDBRANCH  96  97
ENDBRANCH  64  89
ENDBRANCH  38  39
ENDBRANCH  31  33
ENDBRANCH  30  31
ENDBRANCH   1  30
TORSDOF 17
