REMARK SMILES CCC(=O)Nc1ccc(-c2ccc(C(=O)OCCOC(=O)c3ccc(-c4c5nc(c(-c6c(F)cc(S(=O)(=O)[O-])cc6F)c6ccc([nH]6)c(-c6c(F)cc(S(=O)(=O)[O-])cc6F)c6nc(c(-c7c(F)cc(S(=O)(=O)[O-])cc7F)c7ccc4[nH]7)C=C6)C=C5)cc3)cc2)nc1
REMARK SMILES IDX 17 1 16 2 14 3 15 4 13 5 10 6 11 7 89 8 12 9 88 10 9 11 6 12
REMARK SMILES IDX 7 13 91 14 8 15 90 16 5 17 3 18 4 19 2 21 1 22 18 23 19 24
REMARK SMILES IDX 20 25 21 26 22 27 23 28 87 29 24 30 86 31 25 32 26 33 27 34
REMARK SMILES IDX 80 35 28 36 85 37 79 38 81 39 29 40 84 41 78 42 77 43 30 45
REMARK SMILES IDX 64 46 43 47 63 48 44 49 47 50 62 51 82 52 45 53 46 54 61 56
REMARK SMILES IDX 83 57 48 58 31 59 32 60 41 61 33 62 34 63 40 64 42 65 35 66
REMARK SMILES IDX 36 67 37 68 38 69 39 70 65 71 66 72 75 73 67 74 68 75 74 76
REMARK SMILES IDX 76 77 69 78 70 79 71 80 72 81 73 82 49 83 50 84 59 85 51 86
REMARK SMILES IDX 52 87 58 88 60 89 53 90 54 91 55 92 56 93 57 94
REMARK H PARENT 5 20 81 44 47 55
REMARK Flexibility Score: inf
ROOT
ATOM      1  C   UNL     1      10.105   3.524  -5.493  1.00  0.00     0.275 C 
ENDROOT
BRANCH   1   2
ATOM      2  O   UNL     1       9.347   2.856  -4.466  1.00  0.00    -0.458 OA
BRANCH   2   3
ATOM      3  C   UNL     1       8.204   2.255  -4.882  1.00  0.00     0.338 C 
ATOM      4  O   UNL     1       7.749   2.272  -6.010  1.00  0.00    -0.246 OA
BRANCH   3   5
ATOM      5  C   UNL     1       7.570   1.503  -3.773  1.00  0.00     0.060 A 
ATOM      6  C   UNL     1       6.150   0.117  -1.770  1.00  0.00     0.000 A 
ATOM      7  C   UNL     1       6.186  -0.364  -3.085  1.00  0.00     0.011 A 
ATOM      8  C   UNL     1       6.885   1.278  -1.465  1.00  0.00     0.011 A 
ATOM      9  C   UNL     1       6.856   0.341  -4.080  1.00  0.00     0.016 A 
ATOM     10  C   UNL     1       7.602   1.962  -2.455  1.00  0.00     0.016 A 
BRANCH   6  11
ATOM     11  C   UNL     1       5.238  -0.510  -0.809  1.00  0.00     0.070 A 
ATOM     12  C   UNL     1       3.252  -1.801   0.591  1.00  0.00     0.059 A 
ATOM     13  C   UNL     1       3.248  -0.414   0.519  1.00  0.00     0.030 A 
ATOM     14  C   UNL     1       4.333  -2.470   0.035  1.00  0.00     0.137 A 
ATOM     15  C   UNL     1       4.245   0.243  -0.192  1.00  0.00     0.031 A 
ATOM     16  N   UNL     1       5.307  -1.858  -0.683  1.00  0.00    -0.254 NA
BRANCH  12  17
ATOM     17  N   UNL     1       2.240  -2.494   1.266  1.00  0.00    -0.325 N 
ATOM     18  C   UNL     1       0.892  -2.242   1.242  1.00  0.00     0.224 C 
ATOM     19  O   UNL     1       0.182  -2.638   2.168  1.00  0.00    -0.275 OA
ATOM     20  H   UNL     1       2.531  -3.251   1.824  1.00  0.00     0.169 HD
BRANCH  18  21
ATOM     21  C   UNL     1       0.278  -1.632  -0.013  1.00  0.00     0.097 C 
ATOM     22  C   UNL     1       0.054  -0.134   0.021  1.00  0.00     0.014 C 
ENDBRANCH  18  21
ENDBRANCH  12  17
ENDBRANCH   6  11
ENDBRANCH   3   5
ENDBRANCH   2   3
ENDBRANCH   1   2
BRANCH   1  23
ATOM     23  C   UNL     1      11.263   2.657  -5.988  1.00  0.00     0.275 C 
BRANCH  23  24
ATOM     24  O   UNL     1      10.783   1.535  -6.752  1.00  0.00    -0.458 OA
BRANCH  24  25
ATOM     25  C   UNL     1      10.759   0.359  -6.086  1.00  0.00     0.338 C 
ATOM     26  O   UNL     1      11.111   0.150  -4.937  1.00  0.00    -0.246 OA
BRANCH  25  27
ATOM     27  C   UNL     1      10.191  -0.690  -6.943  1.00  0.00     0.060 A 
ATOM     28  C   UNL     1       8.806  -0.822  -7.006  1.00  0.00     0.016 A 
ATOM     29  C   UNL     1      11.014  -1.636  -7.544  1.00  0.00     0.016 A 
ATOM     30  C   UNL     1       8.233  -1.958  -7.570  1.00  0.00     0.010 A 
ATOM     31  C   UNL     1      10.434  -2.724  -8.205  1.00  0.00     0.010 A 
ATOM     32  C   UNL     1       9.039  -2.921  -8.189  1.00  0.00    -0.014 A 
BRANCH  32  33
ATOM     33  C   UNL     1       8.452  -4.155  -8.783  1.00  0.00     0.031 A 
ATOM     34  C   UNL     1       8.926  -5.504  -8.308  1.00  0.00     0.074 A 
ATOM     35  C   UNL     1       7.517  -4.083  -9.752  1.00  0.00     0.049 A 
ATOM     36  N   UNL     1       8.780  -6.678  -8.864  1.00  0.00    -0.248 NA
ATOM     37  C   UNL     1       9.682  -5.526  -7.046  1.00  0.00     0.031 C 
ATOM     38  C   UNL     1       6.900  -2.853 -10.252  1.00  0.00     0.029 A 
ATOM     39  N   UNL     1       6.928  -5.073 -10.500  1.00  0.00    -0.354 N 
ATOM     40  C   UNL     1       9.484  -7.569  -8.059  1.00  0.00     0.074 A 
ATOM     41  C   UNL     1      10.053  -6.797  -6.975  1.00  0.00     0.031 C 
ATOM     42  C   UNL     1       6.006  -3.162 -11.203  1.00  0.00     0.029 A 
ATOM     43  C   UNL     1       6.061  -4.597 -11.456  1.00  0.00     0.049 A 
ATOM     44  H   UNL     1       7.109  -6.031 -10.365  1.00  0.00     0.167 HD
ATOM     45  C   UNL     1       9.646  -8.905  -8.220  1.00  0.00     0.037 A 
ATOM     46  C   UNL     1       5.427  -5.229 -12.462  1.00  0.00     0.037 A 
ATOM     47  C   UNL     1       9.030  -9.664  -9.278  1.00  0.00     0.049 A 
ATOM     48  C   UNL     1       5.663  -6.699 -12.663  1.00  0.00     0.074 A 
ATOM     49  C   UNL     1       9.133 -11.018  -9.543  1.00  0.00     0.029 A 
ATOM     50  N   UNL     1       8.177  -9.133 -10.236  1.00  0.00    -0.354 N 
ATOM     51  N   UNL     1       6.407  -7.517 -11.957  1.00  0.00    -0.248 NA
ATOM     52  C   UNL     1       4.996  -7.330 -13.810  1.00  0.00     0.031 C 
ATOM     53  C   UNL     1       8.367 -11.300 -10.680  1.00  0.00     0.029 A 
ATOM     54  C   UNL     1       7.750 -10.130 -11.096  1.00  0.00     0.049 A 
ATOM     55  H   UNL     1       7.914  -8.186 -10.296  1.00  0.00     0.167 HD
ATOM     56  C   UNL     1       6.276  -8.764 -12.556  1.00  0.00     0.074 A 
ATOM     57  C   UNL     1       5.383  -8.593 -13.685  1.00  0.00     0.031 C 
ATOM     58  C   UNL     1       6.841  -9.943 -12.200  1.00  0.00     0.037 A 
BRANCH  45  59
ATOM     59  C   UNL     1      10.562  -9.616  -7.260  1.00  0.00     0.058 A 
ATOM     60  C   UNL     1      10.217  -9.832  -5.916  1.00  0.00     0.135 A 
ATOM     61  C   UNL     1      11.813 -10.086  -7.695  1.00  0.00     0.135 A 
ATOM     62  F   UNL     1       9.041  -9.393  -5.441  1.00  0.00    -0.206 F 
ATOM     63  C   UNL     1      11.097 -10.447  -5.029  1.00  0.00     0.059 A 
ATOM     64  C   UNL     1      12.696 -10.729  -6.833  1.00  0.00     0.059 A 
ATOM     65  F   UNL     1      12.194  -9.912  -8.971  1.00  0.00    -0.206 F 
ATOM     66  C   UNL     1      12.339 -10.883  -5.495  1.00  0.00     0.060 A 
BRANCH  66  67
ATOM     67  S   UNL     1      13.486 -11.646  -4.328  1.00  0.00     0.124 S 
ATOM     68  O   UNL     1      13.977 -10.479  -3.600  1.00  0.00    -0.237 OA
ATOM     69  O   UNL     1      12.618 -12.543  -3.572  1.00  0.00    -0.237 OA
ATOM     70  O   UNL     1      14.462 -12.303  -5.191  1.00  0.00    -0.744 OA
ENDBRANCH  66  67
ENDBRANCH  45  59
BRANCH  46  71
ATOM     71  C   UNL     1       4.539  -4.458 -13.373  1.00  0.00     0.058 A 
ATOM     72  C   UNL     1       3.148  -4.628 -13.331  1.00  0.00     0.135 A 
ATOM     73  C   UNL     1       5.055  -3.503 -14.264  1.00  0.00     0.135 A 
ATOM     74  F   UNL     1       2.608  -5.537 -12.506  1.00  0.00    -0.206 F 
ATOM     75  C   UNL     1       2.298  -3.874 -14.134  1.00  0.00     0.059 A 
ATOM     76  C   UNL     1       4.224  -2.718 -15.058  1.00  0.00     0.059 A 
ATOM     77  F   UNL     1       6.379  -3.294 -14.335  1.00  0.00    -0.206 F 
ATOM     78  C   UNL     1       2.845  -2.915 -14.988  1.00  0.00     0.060 A 
BRANCH  78  79
ATOM     79  S   UNL     1       1.728  -1.886 -15.966  1.00  0.00     0.124 S 
ATOM     80  O   UNL     1       1.283  -2.825 -16.988  1.00  0.00    -0.237 OA
ATOM     81  O   UNL     1       0.727  -1.495 -14.978  1.00  0.00    -0.237 OA
ATOM     82  O   UNL     1       2.591  -0.804 -16.433  1.00  0.00    -0.744 OA
ENDBRANCH  78  79
ENDBRANCH  46  71
BRANCH  58  83
ATOM     83  C   UNL     1       6.466 -11.160 -12.995  1.00  0.00     0.058 A 
ATOM     84  C   UNL     1       7.010 -11.412 -14.263  1.00  0.00     0.135 A 
ATOM     85  C   UNL     1       5.613 -12.127 -12.439  1.00  0.00     0.135 A 
ATOM     86  F   UNL     1       7.821 -10.512 -14.842  1.00  0.00    -0.206 F 
ATOM     87  C   UNL     1       6.720 -12.584 -14.955  1.00  0.00     0.059 A 
ATOM     88  C   UNL     1       5.327 -13.315 -13.103  1.00  0.00     0.059 A 
ATOM     89  F   UNL     1       5.072 -11.933 -11.226  1.00  0.00    -0.206 F 
ATOM     90  C   UNL     1       5.883 -13.533 -14.362  1.00  0.00     0.060 A 
BRANCH  90  91
ATOM     91  S   UNL     1       5.572 -15.081 -15.238  1.00  0.00     0.124 S 
ATOM     92  O   UNL     1       4.644 -14.649 -16.279  1.00  0.00    -0.237 OA
ATOM     93  O   UNL     1       6.906 -15.457 -15.694  1.00  0.00    -0.237 OA
ATOM     94  O   UNL     1       5.002 -15.945 -14.208  1.00  0.00    -0.744 OA
ENDBRANCH  90  91
ENDBRANCH  58  83
ENDBRANCH  32  33
ENDBRANCH  25  27
ENDBRANCH  24  25
ENDBRANCH  23  24
ENDBRANCH   1  23
TORSDOF 17
