REMARK SMILES O=C(Cc1ccccc1Nc1c(Cl)cccc1C(F)(F)F)OCCOC(=O)c1ccc(-c2c3nc(c(-c4c(F)cc(S(=O)(=O)[O-])cc4F)c4ccc([nH]4)c(-c4c(F)cc(S(=O)(=O)[O-])cc4F)c4nc(c(-c5c(F)cc(S(=O)(=O)[O-])cc5F)c5ccc2[nH]5)C=C4)C=C3)cc1
REMARK SMILES IDX 23 1 22 2 2 3 1 4 3 5 4 6 5 7 9 8 6 9 8 10 7 11 10 12 11 14
REMARK SMILES IDX 12 15 17 16 13 17 14 18 16 19 15 20 18 21 19 22 20 23 21 24
REMARK SMILES IDX 24 25 25 26 26 27 27 28 28 29 29 30 93 31 30 32 92 33 31 34
REMARK SMILES IDX 32 35 33 36 86 37 34 38 91 39 85 40 87 41 35 42 90 43 84 44
REMARK SMILES IDX 83 45 36 47 70 48 49 49 69 50 50 51 53 52 68 53 88 54 51 55
REMARK SMILES IDX 52 56 67 58 89 59 54 60 37 61 38 62 47 63 39 64 40 65 46 66
REMARK SMILES IDX 48 67 41 68 42 69 43 70 44 71 45 72 71 73 72 74 81 75 73 76
REMARK SMILES IDX 74 77 80 78 82 79 75 80 76 81 77 82 78 83 79 84 55 85 56 86
REMARK SMILES IDX 65 87 57 88 58 89 64 90 66 91 59 92 60 93 61 94 62 95 63 96
REMARK H PARENT 10 13 87 46 53 57
REMARK Flexibility Score: inf
ROOT
ATOM      1  C   UNL     1       4.289  -1.516  -0.107  1.00  0.00     0.274 C 
ENDROOT
BRANCH   1   2
ATOM      2  O   UNL     1       3.012  -1.077   0.392  1.00  0.00    -0.462 OA
BRANCH   2   3
ATOM      3  C   UNL     1       2.692   0.217   0.646  1.00  0.00     0.310 C 
ATOM      4  O   UNL     1       1.692   0.479   1.312  1.00  0.00    -0.252 OA
BRANCH   3   5
ATOM      5  C   UNL     1       3.548   1.311   0.042  1.00  0.00     0.160 C 
BRANCH   5   6
ATOM      6  C   UNL     1       4.165   2.225   1.072  1.00  0.00    -0.013 A 
ATOM      7  C   UNL     1       5.150   1.696   1.932  1.00  0.00     0.006 A 
ATOM      8  C   UNL     1       3.842   3.591   1.155  1.00  0.00     0.042 A 
ATOM      9  C   UNL     1       5.808   2.500   2.860  1.00  0.00     0.000 A 
ATOM     10  C   UNL     1       4.482   4.366   2.140  1.00  0.00     0.026 A 
ATOM     11  C   UNL     1       5.465   3.837   2.971  1.00  0.00     0.002 A 
BRANCH   8  12
ATOM     12  N   UNL     1       2.981   4.201   0.214  1.00  0.00    -0.354 N 
ATOM     13  H   UNL     1       2.406   3.598  -0.310  1.00  0.00     0.167 HD
BRANCH  12  14
ATOM     14  C   UNL     1       2.854   5.586  -0.056  1.00  0.00     0.070 A 
ATOM     15  C   UNL     1       1.575   6.180   0.012  1.00  0.00     0.065 A 
ATOM     16  C   UNL     1       3.979   6.422  -0.219  1.00  0.00     0.080 A 
ATOM     17  Cl  UNL     1       0.150   5.196   0.032  1.00  0.00    -0.082 Cl
ATOM     18  C   UNL     1       1.428   7.562   0.087  1.00  0.00     0.023 A 
ATOM     19  C   UNL     1       3.823   7.811  -0.058  1.00  0.00     0.015 A 
ATOM     20  C   UNL     1       2.559   8.369   0.125  1.00  0.00     0.002 A 
BRANCH  16  21
ATOM     21  C   UNL     1       5.334   5.904  -0.653  1.00  0.00     0.418 C 
ATOM     22  F   UNL     1       5.877   6.678  -1.641  1.00  0.00    -0.166 F 
ATOM     23  F   UNL     1       6.260   5.903   0.346  1.00  0.00    -0.166 F 
ATOM     24  F   UNL     1       5.337   4.644  -1.179  1.00  0.00    -0.166 F 
ENDBRANCH  16  21
ENDBRANCH  12  14
ENDBRANCH   8  12
ENDBRANCH   5   6
ENDBRANCH   3   5
ENDBRANCH   2   3
ENDBRANCH   1   2
BRANCH   1  25
ATOM     25  C   UNL     1       4.269  -1.807  -1.609  1.00  0.00     0.275 C 
BRANCH  25  26
ATOM     26  O   UNL     1       3.895  -0.653  -2.383  1.00  0.00    -0.458 OA
BRANCH  26  27
ATOM     27  C   UNL     1       2.576  -0.571  -2.707  1.00  0.00     0.338 C 
ATOM     28  O   UNL     1       1.716  -1.382  -2.431  1.00  0.00    -0.246 OA
BRANCH  27  29
ATOM     29  C   UNL     1       2.294   0.742  -3.339  1.00  0.00     0.060 A 
ATOM     30  C   UNL     1       1.118   1.412  -2.978  1.00  0.00     0.016 A 
ATOM     31  C   UNL     1       3.159   1.311  -4.278  1.00  0.00     0.016 A 
ATOM     32  C   UNL     1       0.808   2.650  -3.554  1.00  0.00     0.010 A 
ATOM     33  C   UNL     1       2.836   2.540  -4.869  1.00  0.00     0.010 A 
ATOM     34  C   UNL     1       1.655   3.216  -4.519  1.00  0.00    -0.014 A 
BRANCH  34  35
ATOM     35  C   UNL     1       1.289   4.494  -5.185  1.00  0.00     0.031 A 
ATOM     36  C   UNL     1       0.488   4.487  -6.452  1.00  0.00     0.074 A 
ATOM     37  C   UNL     1       1.733   5.673  -4.709  1.00  0.00     0.049 A 
ATOM     38  N   UNL     1       0.097   5.502  -7.179  1.00  0.00    -0.248 NA
ATOM     39  C   UNL     1       0.130   3.172  -7.002  1.00  0.00     0.031 C 
ATOM     40  C   UNL     1       2.649   5.819  -3.587  1.00  0.00     0.029 A 
ATOM     41  N   UNL     1       1.497   6.965  -5.122  1.00  0.00    -0.354 N 
ATOM     42  C   UNL     1      -0.494   4.954  -8.306  1.00  0.00     0.074 A 
ATOM     43  C   UNL     1      -0.444   3.514  -8.149  1.00  0.00     0.031 C 
ATOM     44  C   UNL     1       2.873   7.128  -3.388  1.00  0.00     0.029 A 
ATOM     45  C   UNL     1       2.099   7.916  -4.332  1.00  0.00     0.049 A 
ATOM     46  H   UNL     1       0.950   7.187  -5.910  1.00  0.00     0.167 HD
ATOM     47  C   UNL     1      -0.996   5.593  -9.389  1.00  0.00     0.037 A 
ATOM     48  C   UNL     1       2.037   9.263  -4.349  1.00  0.00     0.037 A 
ATOM     49  C   UNL     1      -1.056   7.024  -9.552  1.00  0.00     0.049 A 
ATOM     50  C   UNL     1       1.302   9.947  -5.465  1.00  0.00     0.074 A 
ATOM     51  C   UNL     1      -1.610   7.743 -10.599  1.00  0.00     0.029 A 
ATOM     52  N   UNL     1      -0.538   7.954  -8.665  1.00  0.00    -0.354 N 
ATOM     53  N   UNL     1       0.661   9.410  -6.472  1.00  0.00    -0.248 NA
ATOM     54  C   UNL     1       1.326  11.419  -5.478  1.00  0.00     0.031 C 
ATOM     55  C   UNL     1      -1.388   9.104 -10.368  1.00  0.00     0.029 A 
ATOM     56  C   UNL     1      -0.738   9.236  -9.154  1.00  0.00     0.049 A 
ATOM     57  H   UNL     1      -0.095   7.736  -7.813  1.00  0.00     0.167 HD
ATOM     58  C   UNL     1       0.261  10.475  -7.268  1.00  0.00     0.074 A 
ATOM     59  C   UNL     1       0.645  11.689  -6.582  1.00  0.00     0.031 C 
ATOM     60  C   UNL     1      -0.325  10.442  -8.487  1.00  0.00     0.037 A 
BRANCH  47  61
ATOM     61  C   UNL     1      -1.490   4.750 -10.526  1.00  0.00     0.058 A 
ATOM     62  C   UNL     1      -2.719   4.078 -10.467  1.00  0.00     0.135 A 
ATOM     63  C   UNL     1      -0.755   4.686 -11.721  1.00  0.00     0.135 A 
ATOM     64  F   UNL     1      -3.446   4.094  -9.339  1.00  0.00    -0.206 F 
ATOM     65  C   UNL     1      -3.205   3.369 -11.560  1.00  0.00     0.059 A 
ATOM     66  C   UNL     1      -1.233   4.002 -12.832  1.00  0.00     0.059 A 
ATOM     67  F   UNL     1       0.430   5.308 -11.820  1.00  0.00    -0.206 F 
ATOM     68  C   UNL     1      -2.458   3.344 -12.740  1.00  0.00     0.060 A 
BRANCH  68  69
ATOM     69  S   UNL     1      -3.128   2.461 -14.164  1.00  0.00     0.124 S 
ATOM     70  O   UNL     1      -2.950   1.071 -13.755  1.00  0.00    -0.237 OA
ATOM     71  O   UNL     1      -4.507   2.938 -14.205  1.00  0.00    -0.237 OA
ATOM     72  O   UNL     1      -2.283   2.904 -15.268  1.00  0.00    -0.744 OA
ENDBRANCH  68  69
ENDBRANCH  47  61
BRANCH  48  73
ATOM     73  C   UNL     1       2.665  10.087  -3.279  1.00  0.00     0.058 A 
ATOM     74  C   UNL     1       1.858  10.828  -2.398  1.00  0.00     0.135 A 
ATOM     75  C   UNL     1       4.054  10.194  -3.133  1.00  0.00     0.135 A 
ATOM     76  F   UNL     1       0.521  10.762  -2.496  1.00  0.00    -0.206 F 
ATOM     77  C   UNL     1       2.403  11.653  -1.421  1.00  0.00     0.059 A 
ATOM     78  C   UNL     1       4.624  10.981  -2.136  1.00  0.00     0.059 A 
ATOM     79  F   UNL     1       4.872   9.507  -3.945  1.00  0.00    -0.206 F 
ATOM     80  C   UNL     1       3.790  11.712  -1.289  1.00  0.00     0.060 A 
BRANCH  80  81
ATOM     81  S   UNL     1       4.497  12.644   0.087  1.00  0.00     0.124 S 
ATOM     82  O   UNL     1       4.570  13.987  -0.473  1.00  0.00    -0.237 OA
ATOM     83  O   UNL     1       3.506  12.438   1.140  1.00  0.00    -0.237 OA
ATOM     84  O   UNL     1       5.773  11.971   0.309  1.00  0.00    -0.744 OA
ENDBRANCH  80  81
ENDBRANCH  48  73
BRANCH  60  85
ATOM     85  C   UNL     1      -0.523  11.756  -9.184  1.00  0.00     0.058 A 
ATOM     86  C   UNL     1       0.569  12.455  -9.726  1.00  0.00     0.135 A 
ATOM     87  C   UNL     1      -1.801  12.309  -9.343  1.00  0.00     0.135 A 
ATOM     88  F   UNL     1       1.815  11.975  -9.587  1.00  0.00    -0.206 F 
ATOM     89  C   UNL     1       0.401  13.666 -10.387  1.00  0.00     0.059 A 
ATOM     90  C   UNL     1      -1.995  13.508 -10.022  1.00  0.00     0.059 A 
ATOM     91  F   UNL     1      -2.877  11.681  -8.843  1.00  0.00    -0.206 F 
ATOM     92  C   UNL     1      -0.886  14.184 -10.533  1.00  0.00     0.060 A 
BRANCH  92  93
ATOM     93  S   UNL     1      -1.094  15.738 -11.428  1.00  0.00     0.124 S 
ATOM     94  O   UNL     1      -0.586  16.705 -10.460  1.00  0.00    -0.237 OA
ATOM     95  O   UNL     1      -0.265  15.530 -12.611  1.00  0.00    -0.237 OA
ATOM     96  O   UNL     1      -2.531  15.795 -11.678  1.00  0.00    -0.744 OA
ENDBRANCH  92  93
ENDBRANCH  60  85
ENDBRANCH  34  35
ENDBRANCH  27  29
ENDBRANCH  26  27
ENDBRANCH  25  26
ENDBRANCH   1  25
TORSDOF 18
