REMARK SMILES Cc1n[nH]c(CCC(=O)OCCOC(=O)c2ccc(-c3c4nc(c(-c5c(F)cc(S(=O)(=O)[O-])cc5F)c5ccc([nH]5)c(-c5c(F)cc(S(=O)(=O)[O-])cc5F)c5nc(c(-c6c(F)cc(S(=O)(=O)[O-])cc6F)c6ccc3[nH]6)C=C5)C=C4)cc2)c1C
REMARK SMILES IDX 12 1 11 2 10 3 8 4 9 5 7 6 6 7 5 8 1 9 2 10 3 11 82 12 4 13
REMARK SMILES IDX 83 14 13 16 14 17 15 18 16 19 17 20 81 21 18 22 80 23 19 24
REMARK SMILES IDX 20 25 21 26 74 27 22 28 79 29 73 30 75 31 23 32 78 33 72 34
REMARK SMILES IDX 71 35 24 37 58 38 37 39 57 40 38 41 41 42 56 43 76 44 39 45
REMARK SMILES IDX 40 46 55 48 77 49 42 50 25 51 26 52 35 53 27 54 28 55 34 56
REMARK SMILES IDX 36 57 29 58 30 59 31 60 32 61 33 62 59 63 60 64 69 65 61 66
REMARK SMILES IDX 62 67 68 68 70 69 63 70 64 71 65 72 66 73 67 74 43 75 44 76
REMARK SMILES IDX 53 77 45 78 46 79 52 80 54 81 47 82 48 83 49 84 50 85 51 86
REMARK H PARENT 4 15 75 36 41 47
REMARK Flexibility Score: inf
ROOT
ATOM      1  C   UNL     1       3.929   2.981  -1.956  1.00  0.00     0.275 C 
ENDROOT
BRANCH   1   2
ATOM      2  C   UNL     1       4.239   2.554  -0.521  1.00  0.00     0.274 C 
BRANCH   2   3
ATOM      3  O   UNL     1       3.206   2.931   0.409  1.00  0.00    -0.462 OA
BRANCH   3   4
ATOM      4  C   UNL     1       3.398   4.079   1.108  1.00  0.00     0.306 C 
ATOM      5  O   UNL     1       4.455   4.708   1.116  1.00  0.00    -0.252 OA
BRANCH   4   6
ATOM      6  C   UNL     1       2.211   4.494   1.967  1.00  0.00     0.129 C 
BRANCH   6   7
ATOM      7  C   UNL     1       0.772   4.286   1.466  1.00  0.00     0.067 C 
BRANCH   7   8
ATOM      8  C   UNL     1       0.377   2.851   1.422  1.00  0.00     0.039 A 
ATOM      9  C   UNL     1       0.337  -0.658   0.454  1.00  0.00     0.069 C 
ATOM     10  C   UNL     1       0.185   0.690   1.051  1.00  0.00     0.062 A 
ATOM     11  N   UNL     1       0.051   0.828   2.376  1.00  0.00    -0.181 NA
ATOM     12  C   UNL     1       0.251   1.944   0.386  1.00  0.00    -0.007 A 
ATOM     13  N   UNL     1       0.089   2.154   2.559  1.00  0.00    -0.282 N 
ATOM     14  C   UNL     1       0.297   2.188  -1.077  1.00  0.00     0.048 C 
ATOM     15  H   UNL     1      -0.074   2.583   3.430  1.00  0.00     0.190 HD
ENDBRANCH   7   8
ENDBRANCH   6   7
ENDBRANCH   4   6
ENDBRANCH   3   4
ENDBRANCH   2   3
ENDBRANCH   1   2
BRANCH   1  16
ATOM     16  O   UNL     1       4.113   4.376  -2.224  1.00  0.00    -0.458 OA
BRANCH  16  17
ATOM     17  C   UNL     1       3.057   5.143  -1.884  1.00  0.00     0.338 C 
ATOM     18  O   UNL     1       2.270   4.962  -0.977  1.00  0.00    -0.246 OA
BRANCH  17  19
ATOM     19  C   UNL     1       2.718   6.118  -2.905  1.00  0.00     0.060 A 
ATOM     20  C   UNL     1       1.740   7.063  -2.557  1.00  0.00     0.016 A 
ATOM     21  C   UNL     1       3.126   5.907  -4.223  1.00  0.00     0.016 A 
ATOM     22  C   UNL     1       1.107   7.763  -3.554  1.00  0.00     0.010 A 
ATOM     23  C   UNL     1       2.489   6.606  -5.219  1.00  0.00     0.010 A 
ATOM     24  C   UNL     1       1.470   7.501  -4.875  1.00  0.00    -0.014 A 
BRANCH  24  25
ATOM     25  C   UNL     1       0.882   8.333  -5.901  1.00  0.00     0.031 A 
ATOM     26  C   UNL     1       1.407   9.727  -5.905  1.00  0.00     0.074 A 
ATOM     27  C   UNL     1       0.124   7.801  -6.874  1.00  0.00     0.049 A 
ATOM     28  N   UNL     1       0.757  10.842  -5.846  1.00  0.00    -0.248 NA
ATOM     29  C   UNL     1       2.874   9.887  -5.831  1.00  0.00     0.031 C 
ATOM     30  C   UNL     1      -0.149   6.383  -7.125  1.00  0.00     0.029 A 
ATOM     31  N   UNL     1      -0.419   8.414  -7.952  1.00  0.00    -0.354 N 
ATOM     32  C   UNL     1       1.723  11.842  -5.930  1.00  0.00     0.074 A 
ATOM     33  C   UNL     1       3.000  11.208  -5.740  1.00  0.00     0.031 C 
ATOM     34  C   UNL     1      -0.563   6.242  -8.403  1.00  0.00     0.029 A 
ATOM     35  C   UNL     1      -0.670   7.558  -9.012  1.00  0.00     0.049 A 
ATOM     36  H   UNL     1      -0.616   9.378  -7.980  1.00  0.00     0.167 HD
ATOM     37  C   UNL     1       1.443  13.093  -6.382  1.00  0.00     0.037 A 
ATOM     38  C   UNL     1      -0.800   7.927 -10.311  1.00  0.00     0.037 A 
ATOM     39  C   UNL     1       0.038  13.385  -6.330  1.00  0.00     0.049 A 
ATOM     40  C   UNL     1      -1.079   9.395 -10.326  1.00  0.00     0.074 A 
ATOM     41  C   UNL     1      -0.897  13.392  -5.312  1.00  0.00     0.029 A 
ATOM     42  N   UNL     1      -0.684  13.339  -7.499  1.00  0.00    -0.354 N 
ATOM     43  N   UNL     1      -2.163   9.942  -9.842  1.00  0.00    -0.248 NA
ATOM     44  C   UNL     1       0.058  10.299 -10.462  1.00  0.00     0.031 C 
ATOM     45  C   UNL     1      -2.074  12.838  -5.892  1.00  0.00     0.029 A 
ATOM     46  C   UNL     1      -1.802  12.583  -7.237  1.00  0.00     0.049 A 
ATOM     47  H   UNL     1      -0.448  13.764  -8.355  1.00  0.00     0.167 HD
ATOM     48  C   UNL     1      -1.740  11.123  -9.243  1.00  0.00     0.074 A 
ATOM     49  C   UNL     1      -0.379  11.329  -9.732  1.00  0.00     0.031 C 
ATOM     50  C   UNL     1      -2.412  11.679  -8.190  1.00  0.00     0.037 A 
BRANCH  37  51
ATOM     51  C   UNL     1       2.435  13.910  -7.163  1.00  0.00     0.058 A 
ATOM     52  C   UNL     1       2.256  15.295  -7.314  1.00  0.00     0.135 A 
ATOM     53  C   UNL     1       3.437  13.325  -7.973  1.00  0.00     0.135 A 
ATOM     54  F   UNL     1       1.302  15.938  -6.622  1.00  0.00    -0.206 F 
ATOM     55  C   UNL     1       3.005  16.044  -8.224  1.00  0.00     0.059 A 
ATOM     56  C   UNL     1       4.236  14.059  -8.837  1.00  0.00     0.059 A 
ATOM     57  F   UNL     1       3.618  11.998  -8.029  1.00  0.00    -0.206 F 
ATOM     58  C   UNL     1       3.987  15.413  -8.985  1.00  0.00     0.060 A 
BRANCH  58  59
ATOM     59  S   UNL     1       4.897  16.353 -10.223  1.00  0.00     0.124 S 
ATOM     60  O   UNL     1       3.884  16.521 -11.258  1.00  0.00    -0.237 OA
ATOM     61  O   UNL     1       5.265  17.556  -9.485  1.00  0.00    -0.237 OA
ATOM     62  O   UNL     1       6.009  15.470 -10.562  1.00  0.00    -0.744 OA
ENDBRANCH  58  59
ENDBRANCH  37  51
BRANCH  38  63
ATOM     63  C   UNL     1      -0.306   7.173 -11.498  1.00  0.00     0.058 A 
ATOM     64  C   UNL     1      -0.683   7.539 -12.801  1.00  0.00     0.135 A 
ATOM     65  C   UNL     1       0.733   6.220 -11.404  1.00  0.00     0.135 A 
ATOM     66  F   UNL     1      -1.635   8.465 -12.990  1.00  0.00    -0.206 F 
ATOM     67  C   UNL     1      -0.053   7.015 -13.937  1.00  0.00     0.059 A 
ATOM     68  C   UNL     1       1.357   5.666 -12.519  1.00  0.00     0.059 A 
ATOM     69  F   UNL     1       1.248   5.856 -10.221  1.00  0.00    -0.206 F 
ATOM     70  C   UNL     1       0.976   6.086 -13.784  1.00  0.00     0.060 A 
BRANCH  70  71
ATOM     71  S   UNL     1       1.899   5.521 -15.232  1.00  0.00     0.124 S 
ATOM     72  O   UNL     1       0.905   4.708 -15.925  1.00  0.00    -0.237 OA
ATOM     73  O   UNL     1       2.260   6.779 -15.876  1.00  0.00    -0.237 OA
ATOM     74  O   UNL     1       3.017   4.779 -14.653  1.00  0.00    -0.744 OA
ENDBRANCH  70  71
ENDBRANCH  38  63
BRANCH  50  75
ATOM     75  C   UNL     1      -3.768  11.130  -7.817  1.00  0.00     0.058 A 
ATOM     76  C   UNL     1      -3.991   9.808  -7.393  1.00  0.00     0.135 A 
ATOM     77  C   UNL     1      -4.846  12.022  -7.699  1.00  0.00     0.135 A 
ATOM     78  F   UNL     1      -2.993   8.918  -7.355  1.00  0.00    -0.206 F 
ATOM     79  C   UNL     1      -5.232   9.380  -6.919  1.00  0.00     0.059 A 
ATOM     80  C   UNL     1      -6.084  11.627  -7.196  1.00  0.00     0.059 A 
ATOM     81  F   UNL     1      -4.684  13.317  -8.018  1.00  0.00    -0.206 F 
ATOM     82  C   UNL     1      -6.273  10.299  -6.819  1.00  0.00     0.060 A 
BRANCH  82  83
ATOM     83  S   UNL     1      -7.846   9.763  -6.112  1.00  0.00     0.124 S 
ATOM     84  O   UNL     1      -8.400   8.944  -7.185  1.00  0.00    -0.237 OA
ATOM     85  O   UNL     1      -7.428   9.040  -4.915  1.00  0.00    -0.237 OA
ATOM     86  O   UNL     1      -8.550  11.018  -5.857  1.00  0.00    -0.744 OA
ENDBRANCH  82  83
ENDBRANCH  50  75
ENDBRANCH  24  25
ENDBRANCH  17  19
ENDBRANCH  16  17
ENDBRANCH   1  16
TORSDOF 16
