REMARK SMILES C[C@H](NC(=O)CCn1ccccc1=O)C(=O)OCCOC(=O)c1ccc(-c2c3nc(c(-c4c(F)cc(S(=O)(=O)[O-])cc4F)c4ccc([nH]4)c(-c4c(F)cc(S(=O)(=O)[O-])cc4F)c4nc(c(-c5c(F)cc(S(=O)(=O)[O-])cc5F)c5ccc2[nH]5)C=C4)C=C3)cc1
REMARK SMILES IDX 18 1 17 2 15 3 16 4 2 5 1 6 3 7 4 8 5 10 6 11 7 12 8 13 9 14
REMARK SMILES IDX 13 15 10 16 12 17 14 18 11 19 19 20 20 21 21 22 22 23 23 24
REMARK SMILES IDX 24 25 88 26 25 27 87 28 26 29 27 30 28 31 81 32 29 33 86 34
REMARK SMILES IDX 80 35 82 36 30 37 85 38 79 39 78 40 31 42 65 43 44 44 64 45
REMARK SMILES IDX 45 46 48 47 63 48 83 49 46 50 47 51 62 53 84 54 49 55 32 56
REMARK SMILES IDX 33 57 42 58 34 59 35 60 41 61 43 62 36 63 37 64 38 65 39 66
REMARK SMILES IDX 40 67 66 68 67 69 76 70 68 71 69 72 75 73 77 74 70 75 71 76
REMARK SMILES IDX 72 77 73 78 74 79 50 80 51 81 60 82 52 83 53 84 59 85 61 86
REMARK SMILES IDX 54 87 55 88 56 89 57 90 58 91
REMARK H PARENT 3 9 82 41 48 52
REMARK Flexibility Score: inf
ROOT
ATOM      1  C   UNL     1      -3.017   0.059  -0.857  1.00  0.00     0.274 C 
ENDROOT
BRANCH   1   2
ATOM      2  O   UNL     1      -1.692   0.555  -1.090  1.00  0.00    -0.461 OA
BRANCH   2   3
ATOM      3  C   UNL     1      -0.636  -0.311  -1.047  1.00  0.00     0.328 C 
ATOM      4  O   UNL     1      -0.714  -1.524  -0.945  1.00  0.00    -0.250 OA
BRANCH   3   5
ATOM      5  C   UNL     1       0.645   0.525  -1.162  1.00  0.00     0.189 C 
ATOM      6  C   UNL     1       0.943   0.935  -2.596  1.00  0.00     0.043 C 
BRANCH   5   7
ATOM      7  N   UNL     1       1.843   0.039  -0.499  1.00  0.00    -0.343 N 
ATOM      8  C   UNL     1       2.606   0.711   0.415  1.00  0.00     0.222 C 
ATOM      9  H   UNL     1       2.137  -0.871  -0.732  1.00  0.00     0.164 HD
ATOM     10  O   UNL     1       3.750   0.309   0.632  1.00  0.00    -0.275 OA
BRANCH   8  11
ATOM     11  C   UNL     1       1.993   1.830   1.243  1.00  0.00     0.122 C 
BRANCH  11  12
ATOM     12  C   UNL     1       1.944   3.253   0.670  1.00  0.00     0.135 C 
BRANCH  12  13
ATOM     13  N   UNL     1       0.725   3.720  -0.028  1.00  0.00    -0.315 N 
ATOM     14  C   UNL     1      -0.551   3.362   0.392  1.00  0.00     0.089 A 
ATOM     15  C   UNL     1       0.893   4.647  -1.067  1.00  0.00     0.250 A 
ATOM     16  C   UNL     1      -1.652   3.745  -0.266  1.00  0.00     0.018 A 
ATOM     17  C   UNL     1      -0.345   5.081  -1.775  1.00  0.00     0.072 A 
ATOM     18  O   UNL     1       1.976   5.087  -1.442  1.00  0.00    -0.269 OA
ATOM     19  C   UNL     1      -1.543   4.616  -1.402  1.00  0.00     0.007 A 
ENDBRANCH  12  13
ENDBRANCH  11  12
ENDBRANCH   8  11
ENDBRANCH   5   7
ENDBRANCH   3   5
ENDBRANCH   2   3
ENDBRANCH   1   2
BRANCH   1  20
ATOM     20  C   UNL     1      -3.235  -0.393   0.587  1.00  0.00     0.275 C 
BRANCH  20  21
ATOM     21  O   UNL     1      -2.730   0.581   1.521  1.00  0.00    -0.458 OA
BRANCH  21  22
ATOM     22  C   UNL     1      -2.829   0.172   2.814  1.00  0.00     0.338 C 
ATOM     23  O   UNL     1      -3.310  -0.885   3.205  1.00  0.00    -0.246 OA
BRANCH  22  24
ATOM     24  C   UNL     1      -2.322   1.218   3.721  1.00  0.00     0.060 A 
ATOM     25  C   UNL     1      -3.133   1.710   4.739  1.00  0.00     0.016 A 
ATOM     26  C   UNL     1      -1.002   1.657   3.615  1.00  0.00     0.016 A 
ATOM     27  C   UNL     1      -2.631   2.687   5.607  1.00  0.00     0.010 A 
ATOM     28  C   UNL     1      -0.500   2.645   4.466  1.00  0.00     0.010 A 
ATOM     29  C   UNL     1      -1.314   3.169   5.474  1.00  0.00    -0.014 A 
BRANCH  29  30
ATOM     30  C   UNL     1      -0.758   4.072   6.512  1.00  0.00     0.031 A 
ATOM     31  C   UNL     1      -0.582   5.542   6.283  1.00  0.00     0.074 A 
ATOM     32  C   UNL     1      -0.413   3.527   7.695  1.00  0.00     0.049 A 
ATOM     33  N   UNL     1      -0.388   6.489   7.165  1.00  0.00    -0.248 NA
ATOM     34  C   UNL     1      -0.597   6.010   4.890  1.00  0.00     0.031 C 
ATOM     35  C   UNL     1      -0.415   2.091   7.982  1.00  0.00     0.029 A 
ATOM     36  N   UNL     1      -0.024   4.106   8.875  1.00  0.00    -0.354 N 
ATOM     37  C   UNL     1      -0.301   7.672   6.443  1.00  0.00     0.074 A 
ATOM     38  C   UNL     1      -0.384   7.312   5.042  1.00  0.00     0.031 C 
ATOM     39  C   UNL     1      -0.103   1.903   9.273  1.00  0.00     0.029 A 
ATOM     40  C   UNL     1       0.103   3.203   9.905  1.00  0.00     0.049 A 
ATOM     41  H   UNL     1       0.147   5.070   8.975  1.00  0.00     0.167 HD
ATOM     42  C   UNL     1      -0.194   8.939   6.916  1.00  0.00     0.037 A 
ATOM     43  C   UNL     1       0.303   3.403  11.222  1.00  0.00     0.037 A 
ATOM     44  C   UNL     1      -0.084   9.259   8.319  1.00  0.00     0.049 A 
ATOM     45  C   UNL     1       0.367   4.812  11.739  1.00  0.00     0.074 A 
ATOM     46  C   UNL     1      -0.058  10.504   8.923  1.00  0.00     0.029 A 
ATOM     47  N   UNL     1       0.042   8.321   9.336  1.00  0.00    -0.354 N 
ATOM     48  N   UNL     1       0.265   5.937  11.070  1.00  0.00    -0.248 NA
ATOM     49  C   UNL     1       0.548   4.984  13.186  1.00  0.00     0.031 C 
ATOM     50  C   UNL     1       0.131  10.319  10.298  1.00  0.00     0.029 A 
ATOM     51  C   UNL     1       0.177   8.958  10.558  1.00  0.00     0.049 A 
ATOM     52  H   UNL     1       0.037   7.345   9.207  1.00  0.00     0.167 HD
ATOM     53  C   UNL     1       0.362   6.951  12.015  1.00  0.00     0.074 A 
ATOM     54  C   UNL     1       0.507   6.305  13.305  1.00  0.00     0.031 C 
ATOM     55  C   UNL     1       0.336   8.295  11.831  1.00  0.00     0.037 A 
BRANCH  42  56
ATOM     56  C   UNL     1      -0.234  10.073   5.924  1.00  0.00     0.058 A 
ATOM     57  C   UNL     1      -1.411  10.377   5.220  1.00  0.00     0.135 A 
ATOM     58  C   UNL     1       0.877  10.909   5.720  1.00  0.00     0.135 A 
ATOM     59  F   UNL     1      -2.506   9.615   5.372  1.00  0.00    -0.206 F 
ATOM     60  C   UNL     1      -1.478  11.446   4.332  1.00  0.00     0.059 A 
ATOM     61  C   UNL     1       0.825  12.001   4.854  1.00  0.00     0.059 A 
ATOM     62  F   UNL     1       2.027  10.675   6.371  1.00  0.00    -0.206 F 
ATOM     63  C   UNL     1      -0.354  12.254   4.155  1.00  0.00     0.060 A 
BRANCH  63  64
ATOM     64  S   UNL     1      -0.469  13.638   3.001  1.00  0.00     0.124 S 
ATOM     65  O   UNL     1      -0.550  12.944   1.720  1.00  0.00    -0.237 OA
ATOM     66  O   UNL     1      -1.692  14.304   3.437  1.00  0.00    -0.237 OA
ATOM     67  O   UNL     1       0.765  14.382   3.235  1.00  0.00    -0.744 OA
ENDBRANCH  63  64
ENDBRANCH  42  56
BRANCH  43  68
ATOM     68  C   UNL     1       0.336   2.231  12.134  1.00  0.00     0.058 A 
ATOM     69  C   UNL     1      -0.754   1.941  12.967  1.00  0.00     0.135 A 
ATOM     70  C   UNL     1       1.412   1.329  12.126  1.00  0.00     0.135 A 
ATOM     71  F   UNL     1      -1.808   2.771  13.006  1.00  0.00    -0.206 F 
ATOM     72  C   UNL     1      -0.783   0.797  13.758  1.00  0.00     0.059 A 
ATOM     73  C   UNL     1       1.398   0.168  12.893  1.00  0.00     0.059 A 
ATOM     74  F   UNL     1       2.467   1.550  11.327  1.00  0.00    -0.206 F 
ATOM     75  C   UNL     1       0.294  -0.089  13.707  1.00  0.00     0.060 A 
BRANCH  75  76
ATOM     76  S   UNL     1       0.204  -1.611  14.676  1.00  0.00     0.124 S 
ATOM     77  O   UNL     1       0.326  -1.101  16.037  1.00  0.00    -0.237 OA
ATOM     78  O   UNL     1      -1.108  -2.131  14.304  1.00  0.00    -0.237 OA
ATOM     79  O   UNL     1       1.340  -2.388  14.189  1.00  0.00    -0.744 OA
ENDBRANCH  75  76
ENDBRANCH  43  68
BRANCH  55  80
ATOM     80  C   UNL     1       0.491   9.164  13.047  1.00  0.00     0.058 A 
ATOM     81  C   UNL     1       1.738   9.322  13.671  1.00  0.00     0.135 A 
ATOM     82  C   UNL     1      -0.589   9.918  13.533  1.00  0.00     0.135 A 
ATOM     83  F   UNL     1       2.799   8.617  13.250  1.00  0.00    -0.206 F 
ATOM     84  C   UNL     1       1.909  10.198  14.738  1.00  0.00     0.059 A 
ATOM     85  C   UNL     1      -0.435  10.817  14.584  1.00  0.00     0.059 A 
ATOM     86  F   UNL     1      -1.801   9.806  12.966  1.00  0.00    -0.206 F 
ATOM     87  C   UNL     1       0.818  10.949  15.181  1.00  0.00     0.060 A 
BRANCH  87  88
ATOM     88  S   UNL     1       1.076  12.133  16.518  1.00  0.00     0.124 S 
ATOM     89  O   UNL     1       1.273  11.248  17.662  1.00  0.00    -0.237 OA
ATOM     90  O   UNL     1       2.260  12.858  16.067  1.00  0.00    -0.237 OA
ATOM     91  O   UNL     1      -0.160  12.909  16.531  1.00  0.00    -0.744 OA
ENDBRANCH  87  88
ENDBRANCH  55  80
ENDBRANCH  29  30
ENDBRANCH  22  24
ENDBRANCH  21  22
ENDBRANCH  20  21
ENDBRANCH   1  20
TORSDOF 18
