REMARK SMILES C[C@H](C(=O)OCCOC(=O)c1ccc(-c2c3nc(c(-c4c(F)cc(S(=O)(=O)[O-])cc4F)c4ccc([nH]4)c(-c4c(F)cc(S(=O)(=O)[O-])cc4F)c4nc(c(-c5c(F)cc(S(=O)(=O)[O-])cc5F)c5ccc2[nH]5)C=C4)C=C3)cc1)[C@@H](C)Sc1ccc2c(c1)OCCCO2
REMARK SMILES IDX 5 1 3 2 4 3 2 4 1 5 77 6 78 7 79 8 80 9 81 10 85 11 82 12
REMARK SMILES IDX 84 13 83 14 86 15 87 16 88 17 90 19 89 20 6 22 7 23 8 24
REMARK SMILES IDX 9 25 10 26 11 27 12 28 76 29 13 30 75 31 14 32 15 33 16 34
REMARK SMILES IDX 69 35 17 36 74 37 68 38 70 39 18 40 73 41 67 42 66 43 19 45
REMARK SMILES IDX 53 46 32 47 52 48 33 49 36 50 51 51 71 52 34 53 35 54 50 56
REMARK SMILES IDX 72 57 37 58 20 59 21 60 30 61 22 62 23 63 29 64 31 65 24 66
REMARK SMILES IDX 25 67 26 68 27 69 28 70 54 71 55 72 64 73 56 74 57 75 63 76
REMARK SMILES IDX 65 77 58 78 59 79 60 80 61 81 62 82 38 83 39 84 48 85 40 86
REMARK SMILES IDX 41 87 47 88 49 89 42 90 43 91 44 92 45 93 46 94
REMARK H PARENT 70 44 36 55
REMARK Flexibility Score: 90.00
ROOT
ATOM      1  O   UNL     1       0.561  -0.825  -0.757  1.00  0.00    -0.462 OA
ENDROOT
BRANCH   1   2
ATOM      2  C   UNL     1       0.411  -0.066   0.360  1.00  0.00     0.309 C 
ATOM      3  O   UNL     1       0.890  -0.334   1.457  1.00  0.00    -0.252 OA
BRANCH   2   4
ATOM      4  C   UNL     1      -0.460   1.156   0.149  1.00  0.00     0.109 C 
ATOM      5  C   UNL     1      -0.281   1.778  -1.238  1.00  0.00     0.021 C 
BRANCH   4   6
ATOM      6  C   UNL     1      -1.930   0.850   0.509  1.00  0.00     0.062 C 
ATOM      7  C   UNL     1      -2.169  -0.215   1.583  1.00  0.00     0.020 C 
BRANCH   6   8
ATOM      8  S   UNL     1      -3.002   2.310   0.928  1.00  0.00    -0.122 SA
BRANCH   8   9
ATOM      9  C   UNL     1      -2.065   3.357   2.036  1.00  0.00     0.011 A 
ATOM     10  C   UNL     1      -0.979   2.957   2.823  1.00  0.00     0.019 A 
ATOM     11  C   UNL     1      -2.440   4.708   2.058  1.00  0.00     0.065 A 
ATOM     12  C   UNL     1      -0.151   3.906   3.430  1.00  0.00     0.051 A 
ATOM     13  C   UNL     1      -1.627   5.652   2.677  1.00  0.00     0.162 A 
ATOM     14  C   UNL     1      -0.440   5.255   3.281  1.00  0.00     0.161 A 
BRANCH  13  15
ATOM     15  O   UNL     1      -2.031   6.958   2.699  1.00  0.00    -0.490 OA
BRANCH  15  16
ATOM     16  C   UNL     1      -1.294   7.742   1.761  1.00  0.00     0.233 C 
BRANCH  16  17
ATOM     17  C   UNL     1       0.115   8.100   2.225  1.00  0.00     0.083 CG0
ATOM     18  G   UNL     1       0.981   6.887   2.542  1.00  0.00     0.000 G0
ENDBRANCH  16  17
ENDBRANCH  15  16
ENDBRANCH  13  15
BRANCH  14  19
ATOM     19  O   UNL     1       0.496   6.165   3.688  1.00  0.00    -0.490 OA
BRANCH  19  20
ATOM     20  C   UNL     1       0.981   6.887   2.542  1.00  0.00     0.233 CG0
ATOM     21  G   UNL     1       0.115   8.100   2.225  1.00  0.00     0.000 G0
ENDBRANCH  19  20
ENDBRANCH  14  19
ENDBRANCH   8   9
ENDBRANCH   6   8
ENDBRANCH   4   6
ENDBRANCH   2   4
ENDBRANCH   1   2
BRANCH   1  22
ATOM     22  C   UNL     1       1.472  -1.934  -0.614  1.00  0.00     0.274 C 
BRANCH  22  23
ATOM     23  C   UNL     1       2.855  -1.564  -1.147  1.00  0.00     0.275 C 
BRANCH  23  24
ATOM     24  O   UNL     1       3.297  -0.345  -0.528  1.00  0.00    -0.458 OA
BRANCH  24  25
ATOM     25  C   UNL     1       3.827   0.580  -1.363  1.00  0.00     0.338 C 
ATOM     26  O   UNL     1       4.075   0.432  -2.548  1.00  0.00    -0.246 OA
BRANCH  25  27
ATOM     27  C   UNL     1       4.063   1.850  -0.639  1.00  0.00     0.060 A 
ATOM     28  C   UNL     1       3.199   2.287   0.369  1.00  0.00     0.016 A 
ATOM     29  C   UNL     1       5.123   2.664  -1.039  1.00  0.00     0.016 A 
ATOM     30  C   UNL     1       3.347   3.559   0.922  1.00  0.00     0.010 A 
ATOM     31  C   UNL     1       5.325   3.900  -0.416  1.00  0.00     0.010 A 
ATOM     32  C   UNL     1       4.424   4.375   0.553  1.00  0.00    -0.014 A 
BRANCH  32  33
ATOM     33  C   UNL     1       4.613   5.724   1.153  1.00  0.00     0.031 A 
ATOM     34  C   UNL     1       4.666   6.942   0.267  1.00  0.00     0.074 A 
ATOM     35  C   UNL     1       4.761   5.868   2.485  1.00  0.00     0.049 A 
ATOM     36  N   UNL     1       5.040   8.161   0.557  1.00  0.00    -0.248 NA
ATOM     37  C   UNL     1       4.253   6.761  -1.134  1.00  0.00     0.031 C 
ATOM     38  C   UNL     1       4.681   4.788   3.471  1.00  0.00     0.029 A 
ATOM     39  N   UNL     1       5.010   6.987   3.242  1.00  0.00    -0.354 N 
ATOM     40  C   UNL     1       4.984   8.872  -0.636  1.00  0.00     0.074 A 
ATOM     41  C   UNL     1       4.517   7.953  -1.652  1.00  0.00     0.031 C 
ATOM     42  C   UNL     1       4.843   5.300   4.701  1.00  0.00     0.029 A 
ATOM     43  C   UNL     1       5.133   6.725   4.587  1.00  0.00     0.049 A 
ATOM     44  H   UNL     1       5.092   7.890   2.859  1.00  0.00     0.167 HD
ATOM     45  C   UNL     1       5.303  10.169  -0.864  1.00  0.00     0.037 A 
ATOM     46  C   UNL     1       5.490   7.524   5.611  1.00  0.00     0.037 A 
ATOM     47  C   UNL     1       5.712  11.094   0.162  1.00  0.00     0.049 A 
ATOM     48  C   UNL     1       5.850   8.956   5.334  1.00  0.00     0.074 A 
ATOM     49  C   UNL     1       6.032  12.435   0.034  1.00  0.00     0.029 A 
ATOM     50  N   UNL     1       5.844  10.780   1.506  1.00  0.00    -0.354 N 
ATOM     51  N   UNL     1       5.852   9.598   4.190  1.00  0.00    -0.248 NA
ATOM     52  C   UNL     1       6.281   9.766   6.482  1.00  0.00     0.031 C 
ATOM     53  C   UNL     1       6.382  12.925   1.298  1.00  0.00     0.029 A 
ATOM     54  C   UNL     1       6.245  11.898   2.217  1.00  0.00     0.049 A 
ATOM     55  H   UNL     1       5.676   9.892   1.897  1.00  0.00     0.167 HD
ATOM     56  C   UNL     1       6.278  10.888   4.482  1.00  0.00     0.074 A 
ATOM     57  C   UNL     1       6.507  10.941   5.911  1.00  0.00     0.031 C 
ATOM     58  C   UNL     1       6.468  11.934   3.640  1.00  0.00     0.037 A 
BRANCH  45  59
ATOM     59  C   UNL     1       5.259  10.662  -2.284  1.00  0.00     0.058 A 
ATOM     60  C   UNL     1       4.049  10.918  -2.946  1.00  0.00     0.135 A 
ATOM     61  C   UNL     1       6.454  10.918  -2.977  1.00  0.00     0.135 A 
ATOM     62  F   UNL     1       2.879  10.672  -2.335  1.00  0.00    -0.206 F 
ATOM     63  C   UNL     1       4.025  11.390  -4.255  1.00  0.00     0.059 A 
ATOM     64  C   UNL     1       6.453  11.411  -4.278  1.00  0.00     0.059 A 
ATOM     65  F   UNL     1       7.638  10.688  -2.389  1.00  0.00    -0.206 F 
ATOM     66  C   UNL     1       5.232  11.631  -4.914  1.00  0.00     0.060 A 
BRANCH  66  67
ATOM     67  S   UNL     1       5.188  12.247  -6.611  1.00  0.00     0.124 S 
ATOM     68  O   UNL     1       4.840  11.037  -7.349  1.00  0.00    -0.237 OA
ATOM     69  O   UNL     1       4.148  13.270  -6.547  1.00  0.00    -0.237 OA
ATOM     70  O   UNL     1       6.542  12.748  -6.826  1.00  0.00    -0.744 OA
ENDBRANCH  66  67
ENDBRANCH  45  59
BRANCH  46  71
ATOM     71  C   UNL     1       5.572   6.969   6.987  1.00  0.00     0.058 A 
ATOM     72  C   UNL     1       4.637   7.328   7.968  1.00  0.00     0.135 A 
ATOM     73  C   UNL     1       6.572   6.049   7.341  1.00  0.00     0.135 A 
ATOM     74  F   UNL     1       3.673   8.217   7.681  1.00  0.00    -0.206 F 
ATOM     75  C   UNL     1       4.688   6.796   9.252  1.00  0.00     0.059 A 
ATOM     76  C   UNL     1       6.630   5.485   8.611  1.00  0.00     0.059 A 
ATOM     77  F   UNL     1       7.485   5.666   6.435  1.00  0.00    -0.206 F 
ATOM     78  C   UNL     1       5.687   5.871   9.563  1.00  0.00     0.060 A 
BRANCH  78  79
ATOM     79  S   UNL     1       5.713   5.132  11.211  1.00  0.00     0.124 S 
ATOM     80  O   UNL     1       6.313   6.201  12.001  1.00  0.00    -0.237 OA
ATOM     81  O   UNL     1       4.298   4.872  11.458  1.00  0.00    -0.237 OA
ATOM     82  O   UNL     1       6.537   3.941  11.028  1.00  0.00    -0.744 OA
ENDBRANCH  78  79
ENDBRANCH  46  71
BRANCH  58  83
ATOM     83  C   UNL     1       6.920  13.230   4.248  1.00  0.00     0.058 A 
ATOM     84  C   UNL     1       8.248  13.425   4.656  1.00  0.00     0.135 A 
ATOM     85  C   UNL     1       6.022  14.300   4.391  1.00  0.00     0.135 A 
ATOM     86  F   UNL     1       9.142  12.429   4.547  1.00  0.00    -0.206 F 
ATOM     87  C   UNL     1       8.667  14.633   5.204  1.00  0.00     0.059 A 
ATOM     88  C   UNL     1       6.425  15.522   4.918  1.00  0.00     0.059 A 
ATOM     89  F   UNL     1       4.743  14.164   4.007  1.00  0.00    -0.206 F 
ATOM     90  C   UNL     1       7.747  15.675   5.333  1.00  0.00     0.060 A 
BRANCH  90  91
ATOM     91  S   UNL     1       8.306  17.248   6.021  1.00  0.00     0.124 S 
ATOM     92  O   UNL     1       8.355  16.944   7.447  1.00  0.00    -0.237 OA
ATOM     93  O   UNL     1       9.598  17.436   5.368  1.00  0.00    -0.237 OA
ATOM     94  O   UNL     1       7.264  18.185   5.612  1.00  0.00    -0.744 OA
ENDBRANCH  90  91
ENDBRANCH  58  83
ENDBRANCH  32  33
ENDBRANCH  25  27
ENDBRANCH  24  25
ENDBRANCH  23  24
ENDBRANCH  22  23
ENDBRANCH   1  22
TORSDOF 17
