REMARK SMILES C[NH2+]CCCC(=O)NC[C@@H]1CC[C@H](C(=O)OCCOC(=O)c2ccc(-c3c4nc(c(-c5c(F)cc(S(=O)(=O)[O-])cc5F)c5ccc([nH]5)c(-c5c(F)cc(S(=O)(=O)[O-])cc5F)c5nc(c(-c6c(F)cc(S(=O)(=O)[O-])cc6F)c6ccc3[nH]6)C=C5)C=C4)cc2)O1
REMARK SMILES IDX 16 1 14 2 15 3 13 4 10 5 11 6 88 7 12 8 9 9 8 10 6 11 7 12
REMARK SMILES IDX 5 14 4 15 3 16 2 17 1 18 17 21 18 22 19 23 20 24 21 25 22 26
REMARK SMILES IDX 23 27 87 28 24 29 86 30 25 31 26 32 27 33 80 34 28 35 85 36
REMARK SMILES IDX 79 37 81 38 29 39 84 40 78 41 77 42 30 44 64 45 43 46 63 47
REMARK SMILES IDX 44 48 47 49 62 50 82 51 45 52 46 53 61 55 83 56 48 57 31 58
REMARK SMILES IDX 32 59 41 60 33 61 34 62 40 63 42 64 35 65 36 66 37 67 38 68
REMARK SMILES IDX 39 69 65 70 66 71 75 72 67 73 68 74 74 75 76 76 69 77 70 78
REMARK SMILES IDX 71 79 72 80 73 81 49 82 50 83 59 84 51 85 52 86 58 87 60 88
REMARK SMILES IDX 53 89 54 90 55 91 56 92 57 93
REMARK H PARENT 8 13 2 19 2 20 81 43 47 54
REMARK Flexibility Score: inf
ROOT
ATOM      1  O   UNL     1       1.691   5.436   1.661  1.00  0.00    -0.460 OA
ENDROOT
BRANCH   1   2
ATOM      2  C   UNL     1       0.621   5.707   2.458  1.00  0.00     0.335 C 
ATOM      3  O   UNL     1       0.693   6.284   3.537  1.00  0.00    -0.249 OA
BRANCH   2   4
ATOM      4  C   UNL     1      -0.704   5.195   1.858  1.00  0.00     0.228 C 
ATOM      5  C   UNL     1      -1.054   2.903   2.044  1.00  0.00     0.138 C 
ATOM      6  C   UNL     1      -0.256   3.167   0.776  1.00  0.00     0.037 C 
ATOM      7  O   UNL     1      -1.272   4.173   2.684  1.00  0.00    -0.361 OA
ATOM      8  C   UNL     1      -0.605   4.600   0.467  1.00  0.00     0.047 C 
BRANCH   5   9
ATOM      9  C   UNL     1      -0.363   1.979   3.053  1.00  0.00     0.147 C 
BRANCH   9  10
ATOM     10  N   UNL     1      -1.360   1.251   3.826  1.00  0.00    -0.353 N 
ATOM     11  C   UNL     1      -1.680  -0.069   3.807  1.00  0.00     0.220 C 
ATOM     12  O   UNL     1      -2.695  -0.449   4.393  1.00  0.00    -0.275 OA
ATOM     13  H   UNL     1      -1.879   1.799   4.458  1.00  0.00     0.163 HD
BRANCH  11  14
ATOM     14  C   UNL     1      -0.781  -1.060   3.097  1.00  0.00     0.106 C 
BRANCH  14  15
ATOM     15  C   UNL     1      -1.277  -1.455   1.704  1.00  0.00     0.071 C 
BRANCH  15  16
ATOM     16  C   UNL     1      -1.005  -0.449   0.583  1.00  0.00     0.260 C 
BRANCH  16  17
ATOM     17  N   UNL     1       0.414  -0.153   0.368  1.00  0.00    -0.349 N 
ATOM     18  C   UNL     1       0.984  -0.908  -0.736  1.00  0.00     0.330 C 
ATOM     19  H   UNL     1       0.513   0.842   0.169  1.00  0.00     0.346 HD
ATOM     20  H   UNL     1       0.915  -0.421   1.215  1.00  0.00     0.346 HD
ENDBRANCH  16  17
ENDBRANCH  15  16
ENDBRANCH  14  15
ENDBRANCH  11  14
ENDBRANCH   9  10
ENDBRANCH   5   9
ENDBRANCH   2   4
ENDBRANCH   1   2
BRANCH   1  21
ATOM     21  C   UNL     1       2.969   5.948   2.081  1.00  0.00     0.274 C 
BRANCH  21  22
ATOM     22  C   UNL     1       3.434   7.049   1.129  1.00  0.00     0.275 C 
BRANCH  22  23
ATOM     23  O   UNL     1       2.524   8.164   1.161  1.00  0.00    -0.458 OA
BRANCH  23  24
ATOM     24  C   UNL     1       1.631   8.206   0.144  1.00  0.00     0.338 C 
ATOM     25  O   UNL     1       1.550   7.449  -0.805  1.00  0.00    -0.246 OA
BRANCH  24  26
ATOM     26  C   UNL     1       0.634   9.249   0.418  1.00  0.00     0.060 A 
ATOM     27  C   UNL     1      -0.552   8.865   1.041  1.00  0.00     0.016 A 
ATOM     28  C   UNL     1       0.806  10.556  -0.029  1.00  0.00     0.016 A 
ATOM     29  C   UNL     1      -1.596   9.768   1.190  1.00  0.00     0.010 A 
ATOM     30  C   UNL     1      -0.230  11.480   0.160  1.00  0.00     0.010 A 
ATOM     31  C   UNL     1      -1.444  11.087   0.753  1.00  0.00    -0.014 A 
BRANCH  31  32
ATOM     32  C   UNL     1      -2.580  12.033   0.876  1.00  0.00     0.031 A 
ATOM     33  C   UNL     1      -3.260  12.545  -0.361  1.00  0.00     0.074 A 
ATOM     34  C   UNL     1      -3.021  12.401   2.095  1.00  0.00     0.049 A 
ATOM     35  N   UNL     1      -4.161  13.485  -0.479  1.00  0.00    -0.248 NA
ATOM     36  C   UNL     1      -2.870  11.921  -1.636  1.00  0.00     0.031 C 
ATOM     37  C   UNL     1      -2.486  11.920   3.371  1.00  0.00     0.029 A 
ATOM     38  N   UNL     1      -4.024  13.263   2.459  1.00  0.00    -0.354 N 
ATOM     39  C   UNL     1      -4.412  13.600  -1.841  1.00  0.00     0.074 A 
ATOM     40  C   UNL     1      -3.572  12.630  -2.510  1.00  0.00     0.031 C 
ATOM     41  C   UNL     1      -3.175  12.482   4.376  1.00  0.00     0.029 A 
ATOM     42  C   UNL     1      -4.153  13.411   3.820  1.00  0.00     0.049 A 
ATOM     43  H   UNL     1      -4.596  13.730   1.809  1.00  0.00     0.167 HD
ATOM     44  C   UNL     1      -5.261  14.445  -2.472  1.00  0.00     0.037 A 
ATOM     45  C   UNL     1      -4.941  14.234   4.538  1.00  0.00     0.037 A 
ATOM     46  C   UNL     1      -6.122  15.378  -1.793  1.00  0.00     0.049 A 
ATOM     47  C   UNL     1      -5.859  15.179   3.816  1.00  0.00     0.074 A 
ATOM     48  C   UNL     1      -7.013  16.285  -2.338  1.00  0.00     0.029 A 
ATOM     49  N   UNL     1      -6.210  15.510  -0.414  1.00  0.00    -0.354 N 
ATOM     50  N   UNL     1      -6.035  15.328   2.524  1.00  0.00    -0.248 NA
ATOM     51  C   UNL     1      -6.669  16.082   4.644  1.00  0.00     0.031 C 
ATOM     52  C   UNL     1      -7.625  16.982  -1.289  1.00  0.00     0.029 A 
ATOM     53  C   UNL     1      -7.137  16.486  -0.090  1.00  0.00     0.049 A 
ATOM     54  H   UNL     1      -5.691  14.986   0.238  1.00  0.00     0.167 HD
ATOM     55  C   UNL     1      -6.980  16.336   2.384  1.00  0.00     0.074 A 
ATOM     56  C   UNL     1      -7.351  16.750   3.723  1.00  0.00     0.031 C 
ATOM     57  C   UNL     1      -7.491  16.877   1.251  1.00  0.00     0.037 A 
BRANCH  44  58
ATOM     58  C   UNL     1      -5.268  14.425  -3.973  1.00  0.00     0.058 A 
ATOM     59  C   UNL     1      -5.888  13.398  -4.699  1.00  0.00     0.135 A 
ATOM     60  C   UNL     1      -4.654  15.462  -4.695  1.00  0.00     0.135 A 
ATOM     61  F   UNL     1      -6.471  12.373  -4.057  1.00  0.00    -0.206 F 
ATOM     62  C   UNL     1      -5.880  13.386  -6.091  1.00  0.00     0.059 A 
ATOM     63  C   UNL     1      -4.650  15.480  -6.086  1.00  0.00     0.059 A 
ATOM     64  F   UNL     1      -4.042  16.465  -4.047  1.00  0.00    -0.206 F 
ATOM     65  C   UNL     1      -5.252  14.429  -6.776  1.00  0.00     0.060 A 
BRANCH  65  66
ATOM     66  S   UNL     1      -5.238  14.401  -8.581  1.00  0.00     0.124 S 
ATOM     67  O   UNL     1      -4.191  13.419  -8.847  1.00  0.00    -0.237 OA
ATOM     68  O   UNL     1      -6.598  13.979  -8.902  1.00  0.00    -0.237 OA
ATOM     69  O   UNL     1      -4.912  15.778  -8.938  1.00  0.00    -0.744 OA
ENDBRANCH  65  66
ENDBRANCH  44  58
BRANCH  45  70
ATOM     70  C   UNL     1      -4.861  14.226   6.021  1.00  0.00     0.058 A 
ATOM     71  C   UNL     1      -5.899  13.695   6.800  1.00  0.00     0.135 A 
ATOM     72  C   UNL     1      -3.731  14.727   6.688  1.00  0.00     0.135 A 
ATOM     73  F   UNL     1      -7.003  13.214   6.208  1.00  0.00    -0.206 F 
ATOM     74  C   UNL     1      -5.824  13.665   8.189  1.00  0.00     0.059 A 
ATOM     75  C   UNL     1      -3.623  14.687   8.073  1.00  0.00     0.059 A 
ATOM     76  F   UNL     1      -2.707  15.235   5.986  1.00  0.00    -0.206 F 
ATOM     77  C   UNL     1      -4.679  14.161   8.817  1.00  0.00     0.060 A 
BRANCH  77  78
ATOM     78  S   UNL     1      -4.556  14.065  10.616  1.00  0.00     0.124 S 
ATOM     79  O   UNL     1      -5.366  15.206  11.026  1.00  0.00    -0.237 OA
ATOM     80  O   UNL     1      -5.120  12.748  10.898  1.00  0.00    -0.237 OA
ATOM     81  O   UNL     1      -3.122  14.187  10.858  1.00  0.00    -0.744 OA
ENDBRANCH  77  78
ENDBRANCH  45  70
BRANCH  57  82
ATOM     82  C   UNL     1      -8.517  17.959   1.413  1.00  0.00     0.058 A 
ATOM     83  C   UNL     1      -8.150  19.270   1.748  1.00  0.00     0.135 A 
ATOM     84  C   UNL     1      -9.876  17.689   1.191  1.00  0.00     0.135 A 
ATOM     85  F   UNL     1      -6.862  19.573   1.977  1.00  0.00    -0.206 F 
ATOM     86  C   UNL     1      -9.099  20.278   1.873  1.00  0.00     0.059 A 
ATOM     87  C   UNL     1     -10.841  18.686   1.293  1.00  0.00     0.059 A 
ATOM     88  F   UNL     1     -10.275  16.450   0.861  1.00  0.00    -0.206 F 
ATOM     89  C   UNL     1     -10.443  19.975   1.645  1.00  0.00     0.060 A 
BRANCH  89  90
ATOM     90  S   UNL     1     -11.667  21.296   1.776  1.00  0.00     0.124 S 
ATOM     91  O   UNL     1     -11.838  21.394   3.222  1.00  0.00    -0.237 OA
ATOM     92  O   UNL     1     -10.989  22.421   1.140  1.00  0.00    -0.237 OA
ATOM     93  O   UNL     1     -12.813  20.768   1.041  1.00  0.00    -0.744 OA
ENDBRANCH  89  90
ENDBRANCH  57  82
ENDBRANCH  31  32
ENDBRANCH  24  26
ENDBRANCH  23  24
ENDBRANCH  22  23
ENDBRANCH  21  22
ENDBRANCH   1  21
TORSDOF 20
