REMARK SMILES CSc1ccc(Cl)c(C(=O)N[C@@H](CO)C(=O)OCCOC(=O)c2ccc(-c3c4nc(c(-c5c(F)cc(S(=O)(=O)[O-])cc5F)c5ccc([nH]5)c(-c5c(F)cc(S(=O)(=O)[O-])cc5F)c5nc(c(-c6c(F)cc(S(=O)(=O)[O-])cc6F)c6ccc3[nH]6)C=C5)C=C4)cc2)c1
REMARK SMILES IDX 18 1 17 2 15 3 16 4 12 5 11 6 9 7 10 8 8 10 3 11 4 12 89 13
REMARK SMILES IDX 5 14 6 15 7 16 2 17 1 18 13 19 14 20 19 22 20 23 21 24 22 25
REMARK SMILES IDX 23 26 24 27 88 28 25 29 87 30 26 31 27 32 28 33 81 34 29 35
REMARK SMILES IDX 86 36 80 37 82 38 30 39 85 40 79 41 78 42 31 44 65 45 44 46
REMARK SMILES IDX 64 47 45 48 48 49 63 50 83 51 46 52 47 53 62 55 84 56 49 57
REMARK SMILES IDX 32 58 33 59 42 60 34 61 35 62 41 63 43 64 36 65 37 66 38 67
REMARK SMILES IDX 39 68 40 69 66 70 67 71 76 72 68 73 69 74 75 75 77 76 70 77
REMARK SMILES IDX 71 78 72 79 73 80 74 81 50 82 51 83 60 84 52 85 53 86 59 87
REMARK SMILES IDX 61 88 54 89 55 90 56 91 57 92 58 93
REMARK H PARENT 11 9 14 21 82 43 48 54
REMARK Flexibility Score: inf
ROOT
ATOM      1  C   UNL     1       0.392   5.278   9.645  1.00  0.00     0.274 C 
ENDROOT
BRANCH   1   2
ATOM      2  O   UNL     1       1.191   5.211   8.448  1.00  0.00    -0.460 OA
BRANCH   2   3
ATOM      3  C   UNL     1       2.045   4.155   8.375  1.00  0.00     0.331 C 
ATOM      4  O   UNL     1       2.208   3.325   9.265  1.00  0.00    -0.250 OA
BRANCH   3   5
ATOM      5  C   UNL     1       2.875   4.134   7.088  1.00  0.00     0.218 C 
BRANCH   5   6
ATOM      6  N   UNL     1       2.371   4.911   5.950  1.00  0.00    -0.337 N 
ATOM      7  C   UNL     1       2.276   4.650   4.605  1.00  0.00     0.253 C 
ATOM      8  O   UNL     1       2.079   5.612   3.861  1.00  0.00    -0.269 OA
ATOM      9  H   UNL     1       2.032   5.801   6.202  1.00  0.00     0.164 HD
BRANCH   7  10
ATOM     10  C   UNL     1       2.250   3.284   4.005  1.00  0.00     0.059 A 
ATOM     11  C   UNL     1       1.060   1.864   2.375  1.00  0.00     0.008 A 
ATOM     12  C   UNL     1       1.884   0.797   2.718  1.00  0.00     0.016 A 
ATOM     13  C   UNL     1       1.217   3.080   3.061  1.00  0.00     0.030 A 
ATOM     14  C   UNL     1       2.941   0.993   3.608  1.00  0.00     0.022 A 
ATOM     15  C   UNL     1       3.167   2.248   4.193  1.00  0.00     0.053 A 
ATOM     16  Cl  UNL     1       4.694   2.433   4.969  1.00  0.00    -0.083 Cl
BRANCH  11  17
ATOM     17  S   UNL     1      -0.165   1.782   1.079  1.00  0.00    -0.130 SA
ATOM     18  C   UNL     1       0.471   0.450   0.011  1.00  0.00     0.091 C 
ENDBRANCH  11  17
ENDBRANCH   7  10
ENDBRANCH   5   6
BRANCH   5  19
ATOM     19  C   UNL     1       4.270   4.658   7.478  1.00  0.00     0.193 C 
BRANCH  19  20
ATOM     20  O   UNL     1       4.234   6.060   7.776  1.00  0.00    -0.394 OA
ATOM     21  H   UNL     1       3.939   6.549   6.992  1.00  0.00     0.210 HD
ENDBRANCH  19  20
ENDBRANCH   5  19
ENDBRANCH   3   5
ENDBRANCH   2   3
ENDBRANCH   1   2
BRANCH   1  22
ATOM     22  C   UNL     1      -1.068   4.930   9.355  1.00  0.00     0.275 C 
BRANCH  22  23
ATOM     23  O   UNL     1      -1.197   3.619   8.779  1.00  0.00    -0.458 OA
BRANCH  23  24
ATOM     24  C   UNL     1      -1.169   3.599   7.426  1.00  0.00     0.338 C 
ATOM     25  O   UNL     1      -1.048   4.551   6.670  1.00  0.00    -0.246 OA
BRANCH  24  26
ATOM     26  C   UNL     1      -1.232   2.216   6.949  1.00  0.00     0.060 A 
ATOM     27  C   UNL     1      -0.050   1.581   6.566  1.00  0.00     0.016 A 
ATOM     28  C   UNL     1      -2.468   1.603   6.750  1.00  0.00     0.016 A 
ATOM     29  C   UNL     1      -0.101   0.343   5.931  1.00  0.00     0.010 A 
ATOM     30  C   UNL     1      -2.513   0.345   6.144  1.00  0.00     0.010 A 
ATOM     31  C   UNL     1      -1.334  -0.282   5.701  1.00  0.00    -0.014 A 
BRANCH  31  32
ATOM     32  C   UNL     1      -1.413  -1.553   4.936  1.00  0.00     0.031 A 
ATOM     33  C   UNL     1      -2.122  -1.575   3.608  1.00  0.00     0.074 A 
ATOM     34  C   UNL     1      -0.864  -2.684   5.420  1.00  0.00     0.049 A 
ATOM     35  N   UNL     1      -2.494  -2.598   2.884  1.00  0.00    -0.248 NA
ATOM     36  C   UNL     1      -2.455  -0.269   3.017  1.00  0.00     0.031 C 
ATOM     37  C   UNL     1      -0.090  -2.790   6.657  1.00  0.00     0.029 A 
ATOM     38  N   UNL     1      -0.888  -3.967   4.931  1.00  0.00    -0.354 N 
ATOM     39  C   UNL     1      -3.143  -2.063   1.777  1.00  0.00     0.074 A 
ATOM     40  C   UNL     1      -3.102  -0.624   1.915  1.00  0.00     0.031 C 
ATOM     41  C   UNL     1       0.287  -4.067   6.830  1.00  0.00     0.029 A 
ATOM     42  C   UNL     1      -0.281  -4.881   5.760  1.00  0.00     0.049 A 
ATOM     43  H   UNL     1      -1.301  -4.209   4.071  1.00  0.00     0.167 HD
ATOM     44  C   UNL     1      -3.727  -2.716   0.745  1.00  0.00     0.037 A 
ATOM     45  C   UNL     1      -0.233  -6.226   5.695  1.00  0.00     0.037 A 
ATOM     46  C   UNL     1      -3.750  -4.148   0.606  1.00  0.00     0.049 A 
ATOM     47  C   UNL     1      -0.940  -6.935   4.571  1.00  0.00     0.074 A 
ATOM     48  C   UNL     1      -4.356  -4.910  -0.379  1.00  0.00     0.029 A 
ATOM     49  N   UNL     1      -3.129  -5.035   1.472  1.00  0.00    -0.354 N 
ATOM     50  N   UNL     1      -1.617  -6.422   3.571  1.00  0.00    -0.248 NA
ATOM     51  C   UNL     1      -0.895  -8.404   4.576  1.00  0.00     0.031 C 
ATOM     52  C   UNL     1      -4.115  -6.258  -0.099  1.00  0.00     0.029 A 
ATOM     53  C   UNL     1      -3.329  -6.334   1.040  1.00  0.00     0.049 A 
ATOM     54  H   UNL     1      -2.621  -4.778   2.275  1.00  0.00     0.167 HD
ATOM     55  C   UNL     1      -2.056  -7.505   2.817  1.00  0.00     0.074 A 
ATOM     56  C   UNL     1      -1.565  -8.699   3.470  1.00  0.00     0.031 C 
ATOM     57  C   UNL     1      -2.802  -7.508   1.685  1.00  0.00     0.037 A 
BRANCH  44  58
ATOM     58  C   UNL     1      -4.421  -1.894  -0.303  1.00  0.00     0.058 A 
ATOM     59  C   UNL     1      -3.705  -1.191  -1.283  1.00  0.00     0.135 A 
ATOM     60  C   UNL     1      -5.824  -1.862  -0.363  1.00  0.00     0.135 A 
ATOM     61  F   UNL     1      -2.362  -1.174  -1.258  1.00  0.00    -0.206 F 
ATOM     62  C   UNL     1      -4.357  -0.478  -2.285  1.00  0.00     0.059 A 
ATOM     63  C   UNL     1      -6.497  -1.174  -1.368  1.00  0.00     0.059 A 
ATOM     64  F   UNL     1      -6.554  -2.516   0.554  1.00  0.00    -0.206 F 
ATOM     65  C   UNL     1      -5.754  -0.479  -2.321  1.00  0.00     0.060 A 
BRANCH  65  66
ATOM     66  S   UNL     1      -6.588   0.417  -3.649  1.00  0.00     0.124 S 
ATOM     67  O   UNL     1      -6.432   1.800  -3.210  1.00  0.00    -0.237 OA
ATOM     68  O   UNL     1      -5.811   0.033  -4.823  1.00  0.00    -0.237 OA
ATOM     69  O   UNL     1      -7.951  -0.105  -3.606  1.00  0.00    -0.744 OA
ENDBRANCH  65  66
ENDBRANCH  44  58
BRANCH  45  70
ATOM     70  C   UNL     1       0.469  -7.000   6.752  1.00  0.00     0.058 A 
ATOM     71  C   UNL     1       1.658  -7.689   6.471  1.00  0.00     0.135 A 
ATOM     72  C   UNL     1      -0.039  -7.076   8.058  1.00  0.00     0.135 A 
ATOM     73  F   UNL     1       2.177  -7.653   5.234  1.00  0.00    -0.206 F 
ATOM     74  C   UNL     1       2.309  -8.443   7.442  1.00  0.00     0.059 A 
ATOM     75  C   UNL     1       0.607  -7.801   9.052  1.00  0.00     0.059 A 
ATOM     76  F   UNL     1      -1.167  -6.424   8.380  1.00  0.00    -0.206 F 
ATOM     77  C   UNL     1       1.774  -8.494   8.730  1.00  0.00     0.060 A 
BRANCH  77  78
ATOM     78  S   UNL     1       2.638  -9.447   9.997  1.00  0.00     0.124 S 
ATOM     79  O   UNL     1       2.224 -10.806   9.672  1.00  0.00    -0.237 OA
ATOM     80  O   UNL     1       4.036  -9.123   9.730  1.00  0.00    -0.237 OA
ATOM     81  O   UNL     1       2.105  -8.902  11.243  1.00  0.00    -0.744 OA
ENDBRANCH  77  78
ENDBRANCH  45  70
BRANCH  57  82
ATOM     82  C   UNL     1      -3.080  -8.834   1.039  1.00  0.00     0.058 A 
ATOM     83  C   UNL     1      -4.060  -9.705   1.535  1.00  0.00     0.135 A 
ATOM     84  C   UNL     1      -2.409  -9.196  -0.140  1.00  0.00     0.135 A 
ATOM     85  F   UNL     1      -4.723  -9.405   2.663  1.00  0.00    -0.206 F 
ATOM     86  C   UNL     1      -4.364 -10.897   0.885  1.00  0.00     0.059 A 
ATOM     87  C   UNL     1      -2.709 -10.373  -0.816  1.00  0.00     0.059 A 
ATOM     88  F   UNL     1      -1.467  -8.390  -0.656  1.00  0.00    -0.206 F 
ATOM     89  C   UNL     1      -3.686 -11.220  -0.293  1.00  0.00     0.060 A 
BRANCH  89  90
ATOM     90  S   UNL     1      -4.129 -12.739  -1.162  1.00  0.00     0.124 S 
ATOM     91  O   UNL     1      -3.473 -13.750  -0.339  1.00  0.00    -0.237 OA
ATOM     92  O   UNL     1      -5.588 -12.722  -1.102  1.00  0.00    -0.237 OA
ATOM     93  O   UNL     1      -3.561 -12.546  -2.493  1.00  0.00    -0.744 OA
ENDBRANCH  89  90
ENDBRANCH  57  82
ENDBRANCH  31  32
ENDBRANCH  24  26
ENDBRANCH  23  24
ENDBRANCH  22  23
ENDBRANCH   1  22
TORSDOF 19
