REMARK SMILES O=C(C[C@H]1C[C@H]2CC[C@@H](C1)N2C(=O)NCCC1CC1)OCCOC(=O)c1ccc(-c2c3nc(c(-c4c(F)cc(S(=O)(=O)[O-])cc4F)c4ccc([nH]4)c(-c4c(F)cc(S(=O)(=O)[O-])cc4F)c4nc(c(-c5c(F)cc(S(=O)(=O)[O-])cc5F)c5ccc2[nH]5)C=C4)C=C3)cc1
REMARK SMILES IDX 21 1 20 2 2 3 1 4 3 5 4 6 5 7 10 8 6 9 9 10 7 11 11 12 8 13
REMARK SMILES IDX 12 14 13 15 14 16 15 18 16 19 17 20 18 21 19 22 22 23 23 24
REMARK SMILES IDX 24 25 25 26 26 27 27 28 91 29 28 30 90 31 29 32 30 33 31 34
REMARK SMILES IDX 84 35 32 36 89 37 83 38 85 39 33 40 88 41 82 42 81 43 34 45
REMARK SMILES IDX 68 46 47 47 67 48 48 49 51 50 66 51 86 52 49 53 50 54 65 56
REMARK SMILES IDX 87 57 52 58 35 59 36 60 45 61 37 62 38 63 44 64 46 65 39 66
REMARK SMILES IDX 40 67 41 68 42 69 43 70 69 71 70 72 79 73 71 74 72 75 78 76
REMARK SMILES IDX 80 77 73 78 74 79 75 80 76 81 77 82 53 83 54 84 63 85 55 86
REMARK SMILES IDX 56 87 62 88 64 89 57 90 58 91 59 92 60 93 61 94
REMARK H PARENT 14 17 85 44 51 55
REMARK Flexibility Score: inf
ROOT
ATOM      1  C   UNL     1       4.207   1.440  -2.077  1.00  0.00     0.274 C 
ENDROOT
BRANCH   1   2
ATOM      2  O   UNL     1       2.899   0.334  -2.128  1.00  0.00    -0.462 OA
BRANCH   2   3
ATOM      3  C   UNL     1       2.043  -0.522  -1.416  1.00  0.00     0.306 C 
ATOM      4  O   UNL     1       0.879  -0.599  -1.839  1.00  0.00    -0.252 OA
BRANCH   3   5
ATOM      5  C   UNL     1       2.339  -1.430  -0.021  1.00  0.00     0.126 C 
BRANCH   5   6
ATOM      6  C   UNL     1       3.728  -1.985   0.590  1.00  0.00     0.004 C 
ATOM      7  C   UNL     1       4.441  -1.764  -0.670  1.00  0.00     0.029 C 
ATOM      8  C   UNL     1       4.803  -1.417   1.910  1.00  0.00     0.029 C 
ATOM      9  C   UNL     1       4.593  -0.243  -0.655  1.00  0.00     0.087 C 
ATOM     10  C   UNL     1       5.660   0.208   1.819  1.00  0.00     0.087 C 
ATOM     11  C   UNL     1       3.340   1.418  -0.052  1.00  0.00     0.027 C 
ATOM     12  N   UNL     1       6.083  -0.216   0.408  1.00  0.00    -0.319 N 
ATOM     13  C   UNL     1       4.618   1.913   1.574  1.00  0.00     0.027 C 
BRANCH  12  14
ATOM     14  C   UNL     1       7.329  -0.415  -0.103  1.00  0.00     0.317 C 
ATOM     15  O   UNL     1       7.487  -0.606  -1.313  1.00  0.00    -0.249 OA
ATOM     16  N   UNL     1       8.448  -0.259   0.620  1.00  0.00    -0.338 N 
ATOM     17  H   UNL     1       9.212   0.008   0.059  1.00  0.00     0.165 HD
BRANCH  16  18
ATOM     18  C   UNL     1       8.825  -0.383   2.021  1.00  0.00     0.118 C 
BRANCH  18  19
ATOM     19  C   UNL     1       9.255  -1.809   2.352  1.00  0.00     0.025 C 
BRANCH  19  20
ATOM     20  C   UNL     1      10.738  -2.016   2.221  1.00  0.00    -0.009 C 
ATOM     21  C   UNL     1      11.265  -2.949   1.162  1.00  0.00     0.004 C 
ATOM     22  C   UNL     1      11.558  -1.481   1.069  1.00  0.00     0.004 C 
ENDBRANCH  19  20
ENDBRANCH  18  19
ENDBRANCH  16  18
ENDBRANCH  12  14
ENDBRANCH   5   6
ENDBRANCH   3   5
ENDBRANCH   2   3
ENDBRANCH   1   2
BRANCH   1  23
ATOM     23  C   UNL     1       5.082   1.569  -0.371  1.00  0.00     0.275 C 
BRANCH  23  24
ATOM     24  O   UNL     1       4.049   0.372   0.984  1.00  0.00    -0.458 OA
BRANCH  24  25
ATOM     25  C   UNL     1       2.804   0.638   2.041  1.00  0.00     0.338 C 
ATOM     26  O   UNL     1       2.135   1.687   2.051  1.00  0.00    -0.246 OA
BRANCH  25  27
ATOM     27  C   UNL     1       2.403  -0.245   3.130  1.00  0.00     0.060 A 
ATOM     28  C   UNL     1       1.081  -0.711   3.092  1.00  0.00     0.016 A 
ATOM     29  C   UNL     1       3.135  -0.277   4.320  1.00  0.00     0.016 A 
ATOM     30  C   UNL     1       0.539  -1.334   4.193  1.00  0.00     0.010 A 
ATOM     31  C   UNL     1       2.610  -0.944   5.417  1.00  0.00     0.010 A 
ATOM     32  C   UNL     1       1.309  -1.462   5.351  1.00  0.00    -0.014 A 
BRANCH  32  33
ATOM     33  C   UNL     1       0.674  -2.059   6.529  1.00  0.00     0.031 A 
ATOM     34  C   UNL     1       0.248  -1.172   7.652  1.00  0.00     0.074 A 
ATOM     35  C   UNL     1       0.432  -3.380   6.516  1.00  0.00     0.049 A 
ATOM     36  N   UNL     1      -0.376  -1.490   8.751  1.00  0.00    -0.248 NA
ATOM     37  C   UNL     1       0.570   0.260   7.528  1.00  0.00     0.031 C 
ATOM     38  C   UNL     1       0.790  -4.290   5.424  1.00  0.00     0.029 A 
ATOM     39  N   UNL     1      -0.187  -4.178   7.432  1.00  0.00    -0.354 N 
ATOM     40  C   UNL     1      -0.512  -0.304   9.457  1.00  0.00     0.074 A 
ATOM     41  C   UNL     1       0.132   0.734   8.684  1.00  0.00     0.031 C 
ATOM     42  C   UNL     1       0.358  -5.523   5.726  1.00  0.00     0.029 A 
ATOM     43  C   UNL     1      -0.259  -5.494   7.047  1.00  0.00     0.049 A 
ATOM     44  H   UNL     1      -0.547  -3.844   8.286  1.00  0.00     0.167 HD
ATOM     45  C   UNL     1      -1.132  -0.112  10.643  1.00  0.00     0.037 A 
ATOM     46  C   UNL     1      -0.761  -6.552   7.706  1.00  0.00     0.037 A 
ATOM     47  C   UNL     1      -1.757  -1.177  11.384  1.00  0.00     0.049 A 
ATOM     48  C   UNL     1      -1.384  -6.315   9.053  1.00  0.00     0.074 A 
ATOM     49  C   UNL     1      -2.433  -1.104  12.587  1.00  0.00     0.029 A 
ATOM     50  N   UNL     1      -1.766  -2.512  10.999  1.00  0.00    -0.354 N 
ATOM     51  N   UNL     1      -1.537  -5.186   9.706  1.00  0.00    -0.248 NA
ATOM     52  C   UNL     1      -1.912  -7.492   9.749  1.00  0.00     0.031 C 
ATOM     53  C   UNL     1      -2.769  -2.405  12.973  1.00  0.00     0.029 A 
ATOM     54  C   UNL     1      -2.397  -3.279  11.963  1.00  0.00     0.049 A 
ATOM     55  H   UNL     1      -1.380  -2.862  10.163  1.00  0.00     0.167 HD
ATOM     56  C   UNL     1      -2.220  -5.511  10.872  1.00  0.00     0.074 A 
ATOM     57  C   UNL     1      -2.457  -6.941  10.823  1.00  0.00     0.031 C 
ATOM     58  C   UNL     1      -2.620  -4.704  11.888  1.00  0.00     0.037 A 
BRANCH  45  59
ATOM     59  C   UNL     1      -1.110   1.272  11.228  1.00  0.00     0.058 A 
ATOM     60  C   UNL     1      -1.785   2.353  10.636  1.00  0.00     0.135 A 
ATOM     61  C   UNL     1      -0.407   1.517  12.419  1.00  0.00     0.135 A 
ATOM     62  F   UNL     1      -2.453   2.186   9.483  1.00  0.00    -0.206 F 
ATOM     63  C   UNL     1      -1.741   3.629  11.189  1.00  0.00     0.059 A 
ATOM     64  C   UNL     1      -0.383   2.775  13.011  1.00  0.00     0.059 A 
ATOM     65  F   UNL     1       0.268   0.525  13.022  1.00  0.00    -0.206 F 
ATOM     66  C   UNL     1      -1.042   3.828  12.381  1.00  0.00     0.060 A 
BRANCH  66  67
ATOM     67  S   UNL     1      -1.011   5.484  13.095  1.00  0.00     0.124 S 
ATOM     68  O   UNL     1      -0.205   6.209  12.117  1.00  0.00    -0.237 OA
ATOM     69  O   UNL     1      -2.428   5.830  13.132  1.00  0.00    -0.237 OA
ATOM     70  O   UNL     1      -0.382   5.282  14.397  1.00  0.00    -0.744 OA
ENDBRANCH  66  67
ENDBRANCH  45  59
BRANCH  46  71
ATOM     71  C   UNL     1      -0.701  -7.907   7.099  1.00  0.00     0.058 A 
ATOM     72  C   UNL     1      -1.869  -8.592   6.737  1.00  0.00     0.135 A 
ATOM     73  C   UNL     1       0.530  -8.542   6.864  1.00  0.00     0.135 A 
ATOM     74  F   UNL     1      -3.069  -8.027   6.939  1.00  0.00    -0.206 F 
ATOM     75  C   UNL     1      -1.823  -9.870   6.191  1.00  0.00     0.059 A 
ATOM     76  C   UNL     1       0.603  -9.804   6.285  1.00  0.00     0.059 A 
ATOM     77  F   UNL     1       1.679  -7.922   7.173  1.00  0.00    -0.206 F 
ATOM     78  C   UNL     1      -0.581 -10.466   5.965  1.00  0.00     0.060 A 
BRANCH  78  79
ATOM     79  S   UNL     1      -0.535 -12.109   5.222  1.00  0.00     0.124 S 
ATOM     80  O   UNL     1      -1.105 -12.929   6.286  1.00  0.00    -0.237 OA
ATOM     81  O   UNL     1      -1.368 -11.928   4.038  1.00  0.00    -0.237 OA
ATOM     82  O   UNL     1       0.885 -12.319   4.957  1.00  0.00    -0.744 OA
ENDBRANCH  78  79
ENDBRANCH  46  71
BRANCH  58  83
ATOM     83  C   UNL     1      -3.412  -5.343  12.998  1.00  0.00     0.058 A 
ATOM     84  C   UNL     1      -2.850  -6.281  13.878  1.00  0.00     0.135 A 
ATOM     85  C   UNL     1      -4.757  -4.985  13.195  1.00  0.00     0.135 A 
ATOM     86  F   UNL     1      -1.570  -6.662  13.736  1.00  0.00    -0.206 F 
ATOM     87  C   UNL     1      -3.606  -6.880  14.879  1.00  0.00     0.059 A 
ATOM     88  C   UNL     1      -5.517  -5.534  14.220  1.00  0.00     0.059 A 
ATOM     89  F   UNL     1      -5.343  -4.081  12.393  1.00  0.00    -0.206 F 
ATOM     90  C   UNL     1      -4.939  -6.497  15.044  1.00  0.00     0.060 A 
BRANCH  90  91
ATOM     91  S   UNL     1      -5.904  -7.274  16.354  1.00  0.00     0.124 S 
ATOM     92  O   UNL     1      -6.043  -8.636  15.849  1.00  0.00    -0.237 OA
ATOM     93  O   UNL     1      -5.033  -7.113  17.515  1.00  0.00    -0.237 OA
ATOM     94  O   UNL     1      -7.133  -6.487  16.385  1.00  0.00    -0.744 OA
ENDBRANCH  90  91
ENDBRANCH  58  83
ENDBRANCH  32  33
ENDBRANCH  25  27
ENDBRANCH  24  25
ENDBRANCH  23  24
ENDBRANCH   1  23
TORSDOF 19
