REMARK SMILES O=C(OCCOC(=O)[C@H](Cc1cccc(Cl)c1)Cc1ccccn1)c1ccc(-c2c3nc(c(-c4c(F)cc(S(=O)(=O)[O-])cc4F)c4ccc([nH]4)c(-c4c(F)cc(S(=O)(=O)[O-])cc4F)c4nc(c(-c5c(F)cc(S(=O)(=O)[O-])cc5F)c5ccc2[nH]5)C=C4)C=C3)cc1
REMARK SMILES IDX 4 1 3 2 2 3 1 4 25 5 26 6 90 7 27 8 89 9 28 10 29 11 30 12
REMARK SMILES IDX 83 13 31 14 88 15 82 16 84 17 32 18 87 19 81 20 80 21 33 23
REMARK SMILES IDX 67 24 46 25 66 26 47 27 50 28 65 29 85 30 48 31 49 32 64 34
REMARK SMILES IDX 86 35 51 36 34 37 35 38 44 39 36 40 37 41 43 42 45 43 38 44
REMARK SMILES IDX 39 45 40 46 41 47 42 48 68 49 69 50 78 51 70 52 71 53 77 54
REMARK SMILES IDX 79 55 72 56 73 57 74 58 75 59 76 60 52 61 53 62 62 63 54 64
REMARK SMILES IDX 55 65 61 66 63 67 56 68 57 69 58 70 59 71 60 72 5 73 6 74
REMARK SMILES IDX 7 75 8 76 9 77 18 78 19 79 20 80 24 81 21 82 23 83 22 84
REMARK SMILES IDX 10 85 11 86 12 87 17 88 13 89 15 90 14 91 16 92
REMARK H PARENT 84 22 50 33
REMARK Flexibility Score: inf
ROOT
ATOM      1  C   UNL     1       3.378   2.162   4.733  1.00  0.00     0.275 C 
ENDROOT
BRANCH   1   2
ATOM      2  O   UNL     1       2.720   1.014   4.168  1.00  0.00    -0.458 OA
BRANCH   2   3
ATOM      3  C   UNL     1       1.488   0.969   3.600  1.00  0.00     0.338 C 
ATOM      4  O   UNL     1       0.890  -0.102   3.526  1.00  0.00    -0.246 OA
BRANCH   3   5
ATOM      5  C   UNL     1       0.923   2.143   2.875  1.00  0.00     0.060 A 
ATOM      6  C   UNL     1       0.854   3.438   3.392  1.00  0.00     0.016 A 
ATOM      7  C   UNL     1       0.377   1.898   1.603  1.00  0.00     0.016 A 
ATOM      8  C   UNL     1       0.330   4.483   2.627  1.00  0.00     0.010 A 
ATOM      9  C   UNL     1      -0.154   2.941   0.833  1.00  0.00     0.010 A 
ATOM     10  C   UNL     1      -0.190   4.240   1.351  1.00  0.00    -0.014 A 
BRANCH  10  11
ATOM     11  C   UNL     1      -0.974   5.315   0.701  1.00  0.00     0.031 A 
ATOM     12  C   UNL     1      -2.467   5.291   0.874  1.00  0.00     0.074 A 
ATOM     13  C   UNL     1      -0.372   6.347   0.083  1.00  0.00     0.049 A 
ATOM     14  N   UNL     1      -3.347   6.208   0.578  1.00  0.00    -0.248 NA
ATOM     15  C   UNL     1      -3.039   4.082   1.491  1.00  0.00     0.031 C 
ATOM     16  C   UNL     1       1.069   6.497  -0.103  1.00  0.00     0.029 A 
ATOM     17  N   UNL     1      -0.899   7.477  -0.491  1.00  0.00    -0.354 N 
ATOM     18  C   UNL     1      -4.567   5.708   1.015  1.00  0.00     0.074 A 
ATOM     19  C   UNL     1      -4.327   4.379   1.529  1.00  0.00     0.031 C 
ATOM     20  C   UNL     1       1.313   7.641  -0.766  1.00  0.00     0.029 A 
ATOM     21  C   UNL     1       0.047   8.315  -1.034  1.00  0.00     0.049 A 
ATOM     22  H   UNL     1      -1.864   7.669  -0.512  1.00  0.00     0.167 HD
ATOM     23  C   UNL     1      -5.775   6.316   1.021  1.00  0.00     0.037 A 
ATOM     24  C   UNL     1      -0.098   9.499  -1.660  1.00  0.00     0.037 A 
ATOM     25  C   UNL     1      -6.013   7.622   0.475  1.00  0.00     0.049 A 
ATOM     26  C   UNL     1      -1.471  10.114  -1.738  1.00  0.00     0.074 A 
ATOM     27  C   UNL     1      -7.199   8.328   0.410  1.00  0.00     0.029 A 
ATOM     28  N   UNL     1      -5.039   8.412  -0.119  1.00  0.00    -0.354 N 
ATOM     29  N   UNL     1      -2.608   9.651  -1.273  1.00  0.00    -0.248 NA
ATOM     30  C   UNL     1      -1.578  11.424  -2.394  1.00  0.00     0.031 C 
ATOM     31  C   UNL     1      -6.950   9.531  -0.263  1.00  0.00     0.029 A 
ATOM     32  C   UNL     1      -5.600   9.592  -0.574  1.00  0.00     0.049 A 
ATOM     33  H   UNL     1      -4.088   8.169  -0.204  1.00  0.00     0.167 HD
ATOM     34  C   UNL     1      -3.557  10.633  -1.538  1.00  0.00     0.074 A 
ATOM     35  C   UNL     1      -2.861  11.710  -2.213  1.00  0.00     0.031 C 
ATOM     36  C   UNL     1      -4.879  10.651  -1.235  1.00  0.00     0.037 A 
BRANCH  23  37
ATOM     37  C   UNL     1      -6.914   5.545   1.623  1.00  0.00     0.058 A 
ATOM     38  C   UNL     1      -7.006   5.342   3.011  1.00  0.00     0.135 A 
ATOM     39  C   UNL     1      -7.895   4.964   0.807  1.00  0.00     0.135 A 
ATOM     40  F   UNL     1      -6.075   5.853   3.833  1.00  0.00    -0.206 F 
ATOM     41  C   UNL     1      -8.012   4.558   3.564  1.00  0.00     0.059 A 
ATOM     42  C   UNL     1      -8.923   4.194   1.342  1.00  0.00     0.059 A 
ATOM     43  F   UNL     1      -7.844   5.119  -0.525  1.00  0.00    -0.206 F 
ATOM     44  C   UNL     1      -8.961   3.980   2.720  1.00  0.00     0.060 A 
BRANCH  44  45
ATOM     45  S   UNL     1     -10.241   2.935   3.446  1.00  0.00     0.124 S 
ATOM     46  O   UNL     1      -9.486   1.724   3.754  1.00  0.00    -0.237 OA
ATOM     47  O   UNL     1     -10.673   3.722   4.597  1.00  0.00    -0.237 OA
ATOM     48  O   UNL     1     -11.223   2.807   2.374  1.00  0.00    -0.744 OA
ENDBRANCH  44  45
ENDBRANCH  23  37
BRANCH  24  49
ATOM     49  C   UNL     1       1.085  10.198  -2.231  1.00  0.00     0.058 A 
ATOM     50  C   UNL     1       1.607  11.357  -1.639  1.00  0.00     0.135 A 
ATOM     51  C   UNL     1       1.708   9.723  -3.396  1.00  0.00     0.135 A 
ATOM     52  F   UNL     1       1.042  11.856  -0.529  1.00  0.00    -0.206 F 
ATOM     53  C   UNL     1       2.693  12.032  -2.189  1.00  0.00     0.059 A 
ATOM     54  C   UNL     1       2.805  10.371  -3.956  1.00  0.00     0.059 A 
ATOM     55  F   UNL     1       1.253   8.613  -3.999  1.00  0.00    -0.206 F 
ATOM     56  C   UNL     1       3.284  11.532  -3.351  1.00  0.00     0.060 A 
BRANCH  56  57
ATOM     57  S   UNL     1       4.710  12.397  -4.047  1.00  0.00     0.124 S 
ATOM     58  O   UNL     1       4.079  13.562  -4.656  1.00  0.00    -0.237 OA
ATOM     59  O   UNL     1       5.522  12.657  -2.862  1.00  0.00    -0.237 OA
ATOM     60  O   UNL     1       5.269  11.421  -4.979  1.00  0.00    -0.744 OA
ENDBRANCH  56  57
ENDBRANCH  24  49
BRANCH  36  61
ATOM     61  C   UNL     1      -5.647  11.892  -1.586  1.00  0.00     0.058 A 
ATOM     62  C   UNL     1      -6.008  12.190  -2.909  1.00  0.00     0.135 A 
ATOM     63  C   UNL     1      -6.072  12.767  -0.573  1.00  0.00     0.135 A 
ATOM     64  F   UNL     1      -5.623  11.386  -3.912  1.00  0.00    -0.206 F 
ATOM     65  C   UNL     1      -6.744  13.328  -3.218  1.00  0.00     0.059 A 
ATOM     66  C   UNL     1      -6.829  13.898  -0.857  1.00  0.00     0.059 A 
ATOM     67  F   UNL     1      -5.761  12.518   0.709  1.00  0.00    -0.206 F 
ATOM     68  C   UNL     1      -7.149  14.177  -2.185  1.00  0.00     0.060 A 
BRANCH  68  69
ATOM     69  S   UNL     1      -8.129  15.637  -2.593  1.00  0.00     0.124 S 
ATOM     70  O   UNL     1      -7.105  16.542  -3.104  1.00  0.00    -0.237 OA
ATOM     71  O   UNL     1      -9.069  15.119  -3.582  1.00  0.00    -0.237 OA
ATOM     72  O   UNL     1      -8.721  16.015  -1.313  1.00  0.00    -0.744 OA
ENDBRANCH  68  69
ENDBRANCH  36  61
ENDBRANCH  10  11
ENDBRANCH   3   5
ENDBRANCH   2   3
ENDBRANCH   1   2
BRANCH   1  73
ATOM     73  C   UNL     1       4.324   2.881   3.772  1.00  0.00     0.274 C 
BRANCH  73  74
ATOM     74  O   UNL     1       3.793   2.978   2.443  1.00  0.00    -0.462 OA
BRANCH  74  75
ATOM     75  C   UNL     1       4.328   2.125   1.521  1.00  0.00     0.309 C 
ATOM     76  O   UNL     1       5.231   1.331   1.755  1.00  0.00    -0.252 OA
BRANCH  75  77
ATOM     77  C   UNL     1       3.643   2.293   0.172  1.00  0.00     0.109 C 
BRANCH  77  78
ATOM     78  C   UNL     1       4.091   3.631  -0.439  1.00  0.00     0.071 C 
BRANCH  78  79
ATOM     79  C   UNL     1       3.358   4.142  -1.660  1.00  0.00     0.041 A 
ATOM     80  C   UNL     1       2.173   3.593  -2.143  1.00  0.00     0.024 A 
ATOM     81  N   UNL     1       3.913   5.232  -2.240  1.00  0.00    -0.261 NA
ATOM     82  C   UNL     1       1.577   4.129  -3.283  1.00  0.00     0.003 A 
ATOM     83  C   UNL     1       3.288   5.769  -3.315  1.00  0.00     0.111 A 
ATOM     84  C   UNL     1       2.141   5.245  -3.880  1.00  0.00     0.020 A 
ENDBRANCH  78  79
ENDBRANCH  77  78
BRANCH  77  85
ATOM     85  C   UNL     1       3.930   1.079  -0.740  1.00  0.00     0.051 C 
BRANCH  85  86
ATOM     86  C   UNL     1       2.886  -0.015  -0.609  1.00  0.00    -0.046 A 
ATOM     87  C   UNL     1       2.966  -0.971   0.412  1.00  0.00     0.004 A 
ATOM     88  C   UNL     1       1.803  -0.078  -1.502  1.00  0.00     0.024 A 
ATOM     89  C   UNL     1       1.988  -1.963   0.538  1.00  0.00     0.002 A 
ATOM     90  C   UNL     1       0.819  -1.057  -1.359  1.00  0.00     0.041 A 
ATOM     91  C   UNL     1       0.909  -2.004  -0.345  1.00  0.00     0.020 A 
ATOM     92  Cl  UNL     1      -0.521  -1.080  -2.439  1.00  0.00    -0.084 Cl
ENDBRANCH  85  86
ENDBRANCH  77  85
ENDBRANCH  75  77
ENDBRANCH  74  75
ENDBRANCH  73  74
ENDBRANCH   1  73
TORSDOF 18
