REMARK SMILES O=C(C[N@@H+](Cc1c(F)cccc1Cl)C1CC1)OCCOC(=O)c1ccc(-c2c3nc(c(-c4c(F)cc(S(=O)(=O)[O-])cc4F)c4ccc([nH]4)c(-c4c(F)cc(S(=O)(=O)[O-])cc4F)c4nc(c(-c5c(F)cc(S(=O)(=O)[O-])cc5F)c5ccc2[nH]5)C=C4)C=C3)cc1
REMARK SMILES IDX 18 1 17 2 2 3 1 4 3 5 4 6 5 8 6 9 7 10 12 11 8 12 9 13 11 14
REMARK SMILES IDX 13 15 10 16 14 17 15 18 16 19 19 20 20 21 21 22 22 23 23 24
REMARK SMILES IDX 24 25 88 26 25 27 87 28 26 29 27 30 28 31 81 32 29 33 86 34
REMARK SMILES IDX 80 35 82 36 30 37 85 38 79 39 78 40 31 42 65 43 44 44 64 45
REMARK SMILES IDX 45 46 48 47 63 48 83 49 46 50 47 51 62 53 84 54 49 55 32 56
REMARK SMILES IDX 33 57 42 58 34 59 35 60 41 61 43 62 36 63 37 64 38 65 39 66
REMARK SMILES IDX 40 67 66 68 67 69 76 70 68 71 69 72 75 73 77 74 70 75 71 76
REMARK SMILES IDX 72 77 73 78 74 79 50 80 51 81 60 82 52 83 53 84 59 85 61 86
REMARK SMILES IDX 54 87 55 88 56 89 57 90 58 91
REMARK H PARENT 4 7 82 41 48 52
REMARK Flexibility Score: inf
ROOT
ATOM      1  C   UNL     1       4.588   0.854  -0.377  1.00  0.00     0.274 C 
ENDROOT
BRANCH   1   2
ATOM      2  O   UNL     1       3.286   0.415  -0.817  1.00  0.00    -0.458 OA
BRANCH   2   3
ATOM      3  C   UNL     1       2.569  -0.585  -0.243  1.00  0.00     0.361 C 
ATOM      4  O   UNL     1       1.419  -0.803  -0.626  1.00  0.00    -0.245 OA
BRANCH   3   5
ATOM      5  C   UNL     1       3.211  -1.419   0.865  1.00  0.00     0.387 C 
BRANCH   5   6
ATOM      6  N   UNL     1       3.873  -2.628   0.338  1.00  0.00    -0.319 N 
ATOM      7  H   UNL     1       4.462  -2.356  -0.449  1.00  0.00     0.349 HD
BRANCH   6   8
ATOM      8  C   UNL     1       4.879  -3.197   1.263  1.00  0.00     0.304 C 
BRANCH   8   9
ATOM      9  C   UNL     1       4.417  -3.798   2.574  1.00  0.00     0.061 A 
ATOM     10  C   UNL     1       4.056  -2.948   3.628  1.00  0.00     0.133 A 
ATOM     11  C   UNL     1       4.412  -5.174   2.857  1.00  0.00     0.052 A 
ATOM     12  F   UNL     1       4.203  -1.625   3.489  1.00  0.00    -0.206 F 
ATOM     13  C   UNL     1       3.606  -3.423   4.858  1.00  0.00     0.040 A 
ATOM     14  C   UNL     1       3.933  -5.663   4.083  1.00  0.00     0.021 A 
ATOM     15  Cl  UNL     1       5.117  -6.350   1.806  1.00  0.00    -0.084 Cl
ATOM     16  C   UNL     1       3.513  -4.788   5.078  1.00  0.00     0.005 A 
ENDBRANCH   8   9
ENDBRANCH   6   8
BRANCH   6  17
ATOM     17  C   UNL     1       2.905  -3.561  -0.273  1.00  0.00     0.185 C 
ATOM     18  C   UNL     1       3.145  -3.892  -1.730  1.00  0.00     0.071 C 
ATOM     19  C   UNL     1       3.192  -4.969  -0.698  1.00  0.00     0.071 C 
ENDBRANCH   6  17
ENDBRANCH   5   6
ENDBRANCH   3   5
ENDBRANCH   2   3
ENDBRANCH   1   2
BRANCH   1  20
ATOM     20  C   UNL     1       4.478   2.014   0.618  1.00  0.00     0.275 C 
BRANCH  20  21
ATOM     21  O   UNL     1       3.880   1.573   1.850  1.00  0.00    -0.458 OA
BRANCH  21  22
ATOM     22  C   UNL     1       2.555   1.845   2.003  1.00  0.00     0.338 C 
ATOM     23  O   UNL     1       1.866   2.515   1.264  1.00  0.00    -0.246 OA
BRANCH  22  24
ATOM     24  C   UNL     1       2.024   1.044   3.136  1.00  0.00     0.060 A 
ATOM     25  C   UNL     1       0.730   0.517   3.035  1.00  0.00     0.016 A 
ATOM     26  C   UNL     1       2.791   0.785   4.275  1.00  0.00     0.016 A 
ATOM     27  C   UNL     1       0.193  -0.248   4.078  1.00  0.00     0.010 A 
ATOM     28  C   UNL     1       2.259   0.005   5.306  1.00  0.00     0.010 A 
ATOM     29  C   UNL     1       0.946  -0.497   5.233  1.00  0.00    -0.014 A 
BRANCH  29  30
ATOM     30  C   UNL     1       0.342  -1.150   6.428  1.00  0.00     0.031 A 
ATOM     31  C   UNL     1       0.082  -0.313   7.656  1.00  0.00     0.074 A 
ATOM     32  C   UNL     1       0.059  -2.467   6.463  1.00  0.00     0.049 A 
ATOM     33  N   UNL     1      -0.406  -0.672   8.816  1.00  0.00    -0.248 NA
ATOM     34  C   UNL     1       0.424   1.116   7.564  1.00  0.00     0.031 C 
ATOM     35  C   UNL     1       0.239  -3.413   5.363  1.00  0.00     0.029 A 
ATOM     36  N   UNL     1      -0.406  -3.248   7.497  1.00  0.00    -0.354 N 
ATOM     37  C   UNL     1      -0.467   0.492   9.573  1.00  0.00     0.074 A 
ATOM     38  C   UNL     1       0.136   1.543   8.783  1.00  0.00     0.031 C 
ATOM     39  C   UNL     1      -0.042  -4.654   5.800  1.00  0.00     0.029 A 
ATOM     40  C   UNL     1      -0.434  -4.592   7.207  1.00  0.00     0.049 A 
ATOM     41  H   UNL     1      -0.692  -2.879   8.363  1.00  0.00     0.167 HD
ATOM     42  C   UNL     1      -1.029   0.691  10.790  1.00  0.00     0.037 A 
ATOM     43  C   UNL     1      -0.730  -5.652   7.986  1.00  0.00     0.037 A 
ATOM     44  C   UNL     1      -1.639  -0.340  11.583  1.00  0.00     0.049 A 
ATOM     45  C   UNL     1      -1.227  -5.435   9.393  1.00  0.00     0.074 A 
ATOM     46  C   UNL     1      -2.314  -0.218  12.785  1.00  0.00     0.029 A 
ATOM     47  N   UNL     1      -1.634  -1.688  11.262  1.00  0.00    -0.354 N 
ATOM     48  N   UNL     1      -1.394  -4.310  10.045  1.00  0.00    -0.248 NA
ATOM     49  C   UNL     1      -1.616  -6.632  10.155  1.00  0.00     0.031 C 
ATOM     50  C   UNL     1      -2.681  -1.499  13.213  1.00  0.00     0.029 A 
ATOM     51  C   UNL     1      -2.269  -2.413  12.257  1.00  0.00     0.049 A 
ATOM     52  H   UNL     1      -1.238  -2.073  10.448  1.00  0.00     0.167 HD
ATOM     53  C   UNL     1      -1.990  -4.658  11.255  1.00  0.00     0.074 A 
ATOM     54  C   UNL     1      -2.113  -6.099  11.264  1.00  0.00     0.031 C 
ATOM     55  C   UNL     1      -2.428  -3.846  12.250  1.00  0.00     0.037 A 
BRANCH  42  56
ATOM     56  C   UNL     1      -1.039   2.100  11.307  1.00  0.00     0.058 A 
ATOM     57  C   UNL     1      -1.854   3.082  10.719  1.00  0.00     0.135 A 
ATOM     58  C   UNL     1      -0.225   2.479  12.385  1.00  0.00     0.135 A 
ATOM     59  F   UNL     1      -2.639   2.772   9.675  1.00  0.00    -0.206 F 
ATOM     60  C   UNL     1      -1.826   4.402  11.149  1.00  0.00     0.059 A 
ATOM     61  C   UNL     1      -0.202   3.791  12.850  1.00  0.00     0.059 A 
ATOM     62  F   UNL     1       0.571   1.579  12.982  1.00  0.00    -0.206 F 
ATOM     63  C   UNL     1      -0.989   4.749  12.210  1.00  0.00     0.060 A 
BRANCH  63  64
ATOM     64  S   UNL     1      -0.936   6.474  12.736  1.00  0.00     0.124 S 
ATOM     65  O   UNL     1      -0.138   7.075  11.672  1.00  0.00    -0.237 OA
ATOM     66  O   UNL     1      -2.349   6.841  12.752  1.00  0.00    -0.237 OA
ATOM     67  O   UNL     1      -0.294   6.410  14.044  1.00  0.00    -0.744 OA
ENDBRANCH  63  64
ENDBRANCH  42  56
BRANCH  43  68
ATOM     68  C   UNL     1      -0.592  -7.033   7.454  1.00  0.00     0.058 A 
ATOM     69  C   UNL     1      -1.719  -7.803   7.130  1.00  0.00     0.135 A 
ATOM     70  C   UNL     1       0.672  -7.623   7.305  1.00  0.00     0.135 A 
ATOM     71  F   UNL     1      -2.947  -7.283   7.269  1.00  0.00    -0.206 F 
ATOM     72  C   UNL     1      -1.600  -9.121   6.702  1.00  0.00     0.059 A 
ATOM     73  C   UNL     1       0.817  -8.935   6.864  1.00  0.00     0.059 A 
ATOM     74  F   UNL     1       1.780  -6.922   7.591  1.00  0.00    -0.206 F 
ATOM     75  C   UNL     1      -0.327  -9.680   6.577  1.00  0.00     0.060 A 
BRANCH  75  76
ATOM     76  S   UNL     1      -0.186 -11.390   6.011  1.00  0.00     0.124 S 
ATOM     77  O   UNL     1      -0.714 -12.122   7.157  1.00  0.00    -0.237 OA
ATOM     78  O   UNL     1      -1.023 -11.383   4.816  1.00  0.00    -0.237 OA
ATOM     79  O   UNL     1       1.245 -11.545   5.768  1.00  0.00    -0.744 OA
ENDBRANCH  75  76
ENDBRANCH  43  68
BRANCH  55  80
ATOM     80  C   UNL     1      -3.181  -4.475  13.389  1.00  0.00     0.058 A 
ATOM     81  C   UNL     1      -2.546  -5.234  14.383  1.00  0.00     0.135 A 
ATOM     82  C   UNL     1      -4.567  -4.269  13.508  1.00  0.00     0.135 A 
ATOM     83  F   UNL     1      -1.226  -5.468  14.313  1.00  0.00    -0.206 F 
ATOM     84  C   UNL     1      -3.261  -5.786  15.443  1.00  0.00     0.059 A 
ATOM     85  C   UNL     1      -5.296  -4.789  14.572  1.00  0.00     0.059 A 
ATOM     86  F   UNL     1      -5.223  -3.541  12.590  1.00  0.00    -0.206 F 
ATOM     87  C   UNL     1      -4.636  -5.558  15.529  1.00  0.00     0.060 A 
BRANCH  87  88
ATOM     88  S   UNL     1      -5.551  -6.248  16.925  1.00  0.00     0.124 S 
ATOM     89  O   UNL     1      -5.676  -7.647  16.531  1.00  0.00    -0.237 OA
ATOM     90  O   UNL     1      -4.657  -5.983  18.049  1.00  0.00    -0.237 OA
ATOM     91  O   UNL     1      -6.793  -5.481  16.928  1.00  0.00    -0.744 OA
ENDBRANCH  87  88
ENDBRANCH  55  80
ENDBRANCH  29  30
ENDBRANCH  22  24
ENDBRANCH  21  22
ENDBRANCH  20  21
ENDBRANCH   1  20
TORSDOF 18
