REMARK SMILES C[C@@]1(C(=O)OCCOC(=O)c2ccc(-c3c4nc(c(-c5c(F)cc(S(=O)(=O)[O-])cc5F)c5ccc([nH]5)c(-c5c(F)cc(S(=O)(=O)[O-])cc5F)c5nc(c(-c6c(F)cc(S(=O)(=O)[O-])cc6F)c6ccc3[nH]6)C=C5)C=C4)cc2)CCCCCC[C@@H]1O
REMARK SMILES IDX 6 1 5 2 3 3 4 4 2 5 1 6 77 7 78 8 79 9 80 10 83 12 82 13
REMARK SMILES IDX 81 14 84 16 7 18 8 19 9 20 10 21 11 22 12 23 76 24 13 25
REMARK SMILES IDX 75 26 14 27 15 28 16 29 69 30 17 31 74 32 68 33 70 34 18 35
REMARK SMILES IDX 73 36 67 37 66 38 19 40 53 41 32 42 52 43 33 44 36 45 51 46
REMARK SMILES IDX 71 47 34 48 35 49 50 51 72 52 37 53 20 54 21 55 30 56 22 57
REMARK SMILES IDX 23 58 29 59 31 60 24 61 25 62 26 63 27 64 28 65 54 66 55 67
REMARK SMILES IDX 64 68 56 69 57 70 63 71 65 72 58 73 59 74 60 75 61 76 62 77
REMARK SMILES IDX 38 78 39 79 48 80 40 81 41 82 47 83 49 84 42 85 43 86 44 87
REMARK SMILES IDX 45 88 46 89
REMARK H PARENT 84 17 70 39 36 50
REMARK Flexibility Score: 90.00
ROOT
ATOM      1  C   UNL     1      -2.700   1.873  -1.212  1.00  0.00     0.274 C 
ENDROOT
BRANCH   1   2
ATOM      2  O   UNL     1      -1.568   1.007  -1.462  1.00  0.00    -0.462 OA
BRANCH   2   3
ATOM      3  C   UNL     1      -0.344   1.536  -1.212  1.00  0.00     0.314 C 
ATOM      4  O   UNL     1      -0.188   2.618  -0.654  1.00  0.00    -0.252 OA
BRANCH   3   5
ATOM      5  C   UNL     1       0.830   0.707  -1.767  1.00  0.00     0.091 C 
ATOM      6  C   UNL     1       1.732   0.406  -0.522  1.00  0.00     0.026 C 
BRANCH   5   7
ATOM      7  C   UNL     1       1.688   1.633  -2.673  1.00  0.00     0.021 C 
BRANCH   7   8
ATOM      8  C   UNL     1       1.217   2.033  -4.073  1.00  0.00     0.001 C 
BRANCH   8   9
ATOM      9  C   UNL     1      -0.258   2.366  -4.261  1.00  0.00     0.000 C 
BRANCH   9  10
ATOM     10  C   UNL     1      -1.077   1.280  -4.956  1.00  0.00     0.000 CG0
ATOM     11  G   UNL     1      -1.283  -0.066  -4.259  1.00  0.00     0.000 G0
ENDBRANCH   9  10
ENDBRANCH   8   9
ENDBRANCH   7   8
ENDBRANCH   5   7
BRANCH   5  12
ATOM     12  C   UNL     1       0.507  -0.667  -2.414  1.00  0.00     0.131 C 
BRANCH  12  13
ATOM     13  C   UNL     1      -0.023  -0.816  -3.849  1.00  0.00     0.033 C 
BRANCH  13  14
ATOM     14  C   UNL     1      -1.283  -0.066  -4.259  1.00  0.00     0.003 CG0
ATOM     15  G   UNL     1      -1.077   1.280  -4.956  1.00  0.00     0.000 G0
ENDBRANCH  13  14
ENDBRANCH  12  13
BRANCH  12  16
ATOM     16  O   UNL     1      -0.261  -1.491  -1.534  1.00  0.00    -0.392 OA
ATOM     17  H   UNL     1      -1.159  -1.132  -1.458  1.00  0.00     0.210 HD
ENDBRANCH  12  16
ENDBRANCH   5  12
ENDBRANCH   3   5
ENDBRANCH   2   3
ENDBRANCH   1   2
BRANCH   1  18
ATOM     18  C   UNL     1      -3.955   1.051  -0.907  1.00  0.00     0.275 C 
BRANCH  18  19
ATOM     19  O   UNL     1      -3.835   0.472   0.402  1.00  0.00    -0.458 OA
BRANCH  19  20
ATOM     20  C   UNL     1      -3.155  -0.699   0.420  1.00  0.00     0.338 C 
ATOM     21  O   UNL     1      -2.889  -1.406  -0.536  1.00  0.00    -0.246 OA
BRANCH  20  22
ATOM     22  C   UNL     1      -2.507  -0.810   1.734  1.00  0.00     0.060 A 
ATOM     23  C   UNL     1      -1.127  -0.616   1.762  1.00  0.00     0.016 A 
ATOM     24  C   UNL     1      -3.209  -1.093   2.903  1.00  0.00     0.016 A 
ATOM     25  C   UNL     1      -0.419  -0.736   2.950  1.00  0.00     0.010 A 
ATOM     26  C   UNL     1      -2.499  -1.206   4.104  1.00  0.00     0.010 A 
ATOM     27  C   UNL     1      -1.099  -1.045   4.131  1.00  0.00    -0.014 A 
BRANCH  27  28
ATOM     28  C   UNL     1      -0.330  -1.302   5.371  1.00  0.00     0.031 A 
ATOM     29  C   UNL     1      -0.224  -2.710   5.881  1.00  0.00     0.074 A 
ATOM     30  C   UNL     1       0.297  -0.296   6.009  1.00  0.00     0.049 A 
ATOM     31  N   UNL     1       0.249  -3.146   7.018  1.00  0.00    -0.248 NA
ATOM     32  C   UNL     1      -0.727  -3.769   4.990  1.00  0.00     0.031 C 
ATOM     33  C   UNL     1       0.334   1.097   5.563  1.00  0.00     0.029 A 
ATOM     34  N   UNL     1       1.026  -0.294   7.171  1.00  0.00    -0.354 N 
ATOM     35  C   UNL     1       0.058  -4.523   7.002  1.00  0.00     0.074 A 
ATOM     36  C   UNL     1      -0.570  -4.850   5.740  1.00  0.00     0.031 C 
ATOM     37  C   UNL     1       1.053   1.819   6.440  1.00  0.00     0.029 A 
ATOM     38  C   UNL     1       1.475   0.953   7.537  1.00  0.00     0.049 A 
ATOM     39  H   UNL     1       1.210  -1.108   7.694  1.00  0.00     0.167 HD
ATOM     40  C   UNL     1       0.374  -5.426   7.960  1.00  0.00     0.037 A 
ATOM     41  C   UNL     1       2.121   1.354   8.649  1.00  0.00     0.037 A 
ATOM     42  C   UNL     1       1.031  -5.088   9.194  1.00  0.00     0.049 A 
ATOM     43  C   UNL     1       2.439   0.337   9.712  1.00  0.00     0.074 A 
ATOM     44  C   UNL     1       1.378  -5.919  10.245  1.00  0.00     0.029 A 
ATOM     45  N   UNL     1       1.458  -3.812   9.535  1.00  0.00    -0.354 N 
ATOM     46  N   UNL     1       2.182  -0.951   9.723  1.00  0.00    -0.248 NA
ATOM     47  C   UNL     1       3.118   0.827  10.918  1.00  0.00     0.031 C 
ATOM     48  C   UNL     1       1.995  -5.140  11.231  1.00  0.00     0.029 A 
ATOM     49  C   UNL     1       2.064  -3.831  10.780  1.00  0.00     0.049 A 
ATOM     50  H   UNL     1       1.347  -3.011   8.973  1.00  0.00     0.167 HD
ATOM     51  C   UNL     1       2.675  -1.426  10.932  1.00  0.00     0.074 A 
ATOM     52  C   UNL     1       3.262  -0.291  11.617  1.00  0.00     0.031 C 
ATOM     53  C   UNL     1       2.642  -2.685  11.436  1.00  0.00     0.037 A 
BRANCH  40  54
ATOM     54  C   UNL     1      -0.035  -6.852   7.723  1.00  0.00     0.058 A 
ATOM     55  C   UNL     1       0.634  -7.676   6.805  1.00  0.00     0.135 A 
ATOM     56  C   UNL     1      -1.120  -7.401   8.426  1.00  0.00     0.135 A 
ATOM     57  F   UNL     1       1.663  -7.195   6.090  1.00  0.00    -0.206 F 
ATOM     58  C   UNL     1       0.224  -8.986   6.571  1.00  0.00     0.059 A 
ATOM     59  C   UNL     1      -1.533  -8.714   8.225  1.00  0.00     0.059 A 
ATOM     60  F   UNL     1      -1.798  -6.654   9.312  1.00  0.00    -0.206 F 
ATOM     61  C   UNL     1      -0.865  -9.494   7.282  1.00  0.00     0.060 A 
BRANCH  61  62
ATOM     62  S   UNL     1      -1.398 -11.190   6.963  1.00  0.00     0.124 S 
ATOM     63  O   UNL     1      -2.104 -11.038   5.695  1.00  0.00    -0.237 OA
ATOM     64  O   UNL     1      -0.131 -11.912   6.899  1.00  0.00    -0.237 OA
ATOM     65  O   UNL     1      -2.236 -11.504   8.116  1.00  0.00    -0.744 OA
ENDBRANCH  61  62
ENDBRANCH  40  54
BRANCH  41  66
ATOM     66  C   UNL     1       2.474   2.787   8.828  1.00  0.00     0.058 A 
ATOM     67  C   UNL     1       3.807   3.218   8.768  1.00  0.00     0.135 A 
ATOM     68  C   UNL     1       1.483   3.757   9.044  1.00  0.00     0.135 A 
ATOM     69  F   UNL     1       4.792   2.327   8.577  1.00  0.00    -0.206 F 
ATOM     70  C   UNL     1       4.147   4.559   8.921  1.00  0.00     0.059 A 
ATOM     71  C   UNL     1       1.796   5.107   9.176  1.00  0.00     0.059 A 
ATOM     72  F   UNL     1       0.191   3.398   9.101  1.00  0.00    -0.206 F 
ATOM     73  C   UNL     1       3.133   5.497   9.120  1.00  0.00     0.060 A 
BRANCH  73  74
ATOM     74  S   UNL     1       3.573   7.244   9.253  1.00  0.00     0.124 S 
ATOM     75  O   UNL     1       4.071   7.318  10.622  1.00  0.00    -0.237 OA
ATOM     76  O   UNL     1       4.574   7.393   8.201  1.00  0.00    -0.237 OA
ATOM     77  O   UNL     1       2.307   7.927   9.003  1.00  0.00    -0.744 OA
ENDBRANCH  73  74
ENDBRANCH  41  66
BRANCH  53  78
ATOM     78  C   UNL     1       3.278  -2.899  12.778  1.00  0.00     0.058 A 
ATOM     79  C   UNL     1       2.643  -2.495  13.963  1.00  0.00     0.135 A 
ATOM     80  C   UNL     1       4.519  -3.546  12.882  1.00  0.00     0.135 A 
ATOM     81  F   UNL     1       1.458  -1.867  13.914  1.00  0.00    -0.206 F 
ATOM     82  C   UNL     1       3.230  -2.704  15.206  1.00  0.00     0.059 A 
ATOM     83  C   UNL     1       5.114  -3.784  14.116  1.00  0.00     0.059 A 
ATOM     84  F   UNL     1       5.160  -3.961  11.777  1.00  0.00    -0.206 F 
ATOM     85  C   UNL     1       4.468  -3.346  15.272  1.00  0.00     0.060 A 
BRANCH  85  86
ATOM     86  S   UNL     1       5.214  -3.632  16.891  1.00  0.00     0.124 S 
ATOM     87  O   UNL     1       5.759  -2.314  17.199  1.00  0.00    -0.237 OA
ATOM     88  O   UNL     1       4.071  -4.050  17.697  1.00  0.00    -0.237 OA
ATOM     89  O   UNL     1       6.201  -4.675  16.628  1.00  0.00    -0.744 OA
ENDBRANCH  85  86
ENDBRANCH  53  78
ENDBRANCH  27  28
ENDBRANCH  20  22
ENDBRANCH  19  20
ENDBRANCH  18  19
ENDBRANCH   1  18
TORSDOF 15
