REMARK SMILES CC(C)C[C@H](NS(=O)(=O)N1C[C@@H](C)C[C@H](C)C1)C(=O)OCCOC(=O)c1ccc(-c2c3nc(c(-c4c(F)cc(S(=O)(=O)[O-])cc4F)c4ccc([nH]4)c(-c4c(F)cc(S(=O)(=O)[O-])cc4F)c4nc(c(-c5c(F)cc(S(=O)(=O)[O-])cc5F)c5ccc2[nH]5)C=C4)C=C3)cc1
REMARK SMILES IDX 21 1 20 2 18 3 19 4 5 5 4 6 2 7 1 8 3 9 6 10 7 12 8 13 9 14
REMARK SMILES IDX 10 15 11 16 17 17 12 18 15 19 13 20 14 21 16 22 22 23 23 24
REMARK SMILES IDX 24 25 25 26 26 27 27 28 91 29 28 30 90 31 29 32 30 33 31 34
REMARK SMILES IDX 84 35 32 36 89 37 83 38 85 39 33 40 88 41 82 42 81 43 34 45
REMARK SMILES IDX 68 46 47 47 67 48 48 49 51 50 66 51 86 52 49 53 50 54 65 56
REMARK SMILES IDX 87 57 52 58 35 59 36 60 45 61 37 62 38 63 44 64 46 65 39 66
REMARK SMILES IDX 40 67 41 68 42 69 43 70 69 71 70 72 79 73 71 74 72 75 78 76
REMARK SMILES IDX 80 77 73 78 74 79 75 80 76 81 77 82 53 83 54 84 63 85 55 86
REMARK SMILES IDX 56 87 62 88 64 89 57 90 58 91 59 92 60 93 61 94
REMARK H PARENT 6 11 85 44 51 55
REMARK Flexibility Score: inf
ROOT
ATOM      1  C   UNL     1      -5.851   0.990  -1.722  1.00  0.00     0.274 C 
ENDROOT
BRANCH   1   2
ATOM      2  O   UNL     1      -4.496   1.317  -2.106  1.00  0.00    -0.461 OA
BRANCH   2   3
ATOM      3  C   UNL     1      -3.766   1.858  -1.100  1.00  0.00     0.324 C 
ATOM      4  O   UNL     1      -4.229   2.064   0.021  1.00  0.00    -0.250 OA
BRANCH   3   5
ATOM      5  C   UNL     1      -2.312   2.147  -1.413  1.00  0.00     0.181 C 
BRANCH   5   6
ATOM      6  C   UNL     1      -2.014   3.622  -1.659  1.00  0.00     0.035 C 
BRANCH   6   7
ATOM      7  C   UNL     1      -2.886   4.822  -1.267  1.00  0.00    -0.015 C 
ATOM      8  C   UNL     1      -3.216   4.938   0.221  1.00  0.00     0.007 C 
ATOM      9  C   UNL     1      -2.064   6.077  -1.641  1.00  0.00     0.007 C 
ENDBRANCH   6   7
ENDBRANCH   5   6
BRANCH   5  10
ATOM     10  N   UNL     1      -1.605   1.230  -2.356  1.00  0.00    -0.188 NA
ATOM     11  H   UNL     1      -2.184   1.211  -3.195  1.00  0.00     0.143 HD
BRANCH  10  12
ATOM     12  S   UNL     1      -0.027   1.407  -2.915  1.00  0.00     0.280 S 
ATOM     13  O   UNL     1       0.273   0.139  -3.536  1.00  0.00    -0.195 OA
ATOM     14  O   UNL     1       0.084   2.636  -3.668  1.00  0.00    -0.195 OA
BRANCH  12  15
ATOM     15  N   UNL     1       0.903   1.543  -1.522  1.00  0.00    -0.188 NA
ATOM     16  C   UNL     1       1.238   2.886  -0.984  1.00  0.00     0.106 C 
ATOM     17  C   UNL     1       2.108   0.673  -1.357  1.00  0.00     0.106 C 
ATOM     18  C   UNL     1       1.273   2.773   0.550  1.00  0.00     0.001 C 
ATOM     19  C   UNL     1       2.333   0.482   0.161  1.00  0.00     0.001 C 
ATOM     20  C   UNL     1      -0.010   2.231   1.179  1.00  0.00     0.009 C 
ATOM     21  C   UNL     1       2.428   1.832   0.911  1.00  0.00     0.009 C 
ATOM     22  C   UNL     1       3.567  -0.353   0.479  1.00  0.00     0.009 C 
ENDBRANCH  12  15
ENDBRANCH  10  12
ENDBRANCH   5  10
ENDBRANCH   3   5
ENDBRANCH   2   3
ENDBRANCH   1   2
BRANCH   1  23
ATOM     23  C   UNL     1      -5.995  -0.428  -1.137  1.00  0.00     0.275 C 
BRANCH  23  24
ATOM     24  O   UNL     1      -5.458  -0.600   0.195  1.00  0.00    -0.458 OA
BRANCH  24  25
ATOM     25  C   UNL     1      -4.143  -0.926   0.254  1.00  0.00     0.338 C 
ATOM     26  O   UNL     1      -3.378  -1.009  -0.698  1.00  0.00    -0.246 OA
BRANCH  25  27
ATOM     27  C   UNL     1      -3.667  -1.079   1.650  1.00  0.00     0.060 A 
ATOM     28  C   UNL     1      -2.478  -0.430   1.988  1.00  0.00     0.016 A 
ATOM     29  C   UNL     1      -4.267  -1.933   2.575  1.00  0.00     0.016 A 
ATOM     30  C   UNL     1      -1.857  -0.658   3.217  1.00  0.00     0.010 A 
ATOM     31  C   UNL     1      -3.653  -2.147   3.825  1.00  0.00     0.010 A 
ATOM     32  C   UNL     1      -2.429  -1.530   4.153  1.00  0.00    -0.014 A 
BRANCH  32  33
ATOM     33  C   UNL     1      -1.721  -1.817   5.439  1.00  0.00     0.031 A 
ATOM     34  C   UNL     1      -1.162  -3.192   5.716  1.00  0.00     0.074 A 
ATOM     35  C   UNL     1      -1.540  -0.843   6.354  1.00  0.00     0.049 A 
ATOM     36  N   UNL     1      -0.585  -3.652   6.799  1.00  0.00    -0.248 NA
ATOM     37  C   UNL     1      -1.267  -4.180   4.631  1.00  0.00     0.031 C 
ATOM     38  C   UNL     1      -1.987   0.544   6.213  1.00  0.00     0.029 A 
ATOM     39  N   UNL     1      -0.936  -0.870   7.591  1.00  0.00    -0.354 N 
ATOM     40  C   UNL     1      -0.268  -4.981   6.533  1.00  0.00     0.074 A 
ATOM     41  C   UNL     1      -0.749  -5.262   5.196  1.00  0.00     0.031 C 
ATOM     42  C   UNL     1      -1.646   1.231   7.315  1.00  0.00     0.029 A 
ATOM     43  C   UNL     1      -1.004   0.328   8.267  1.00  0.00     0.049 A 
ATOM     44  H   UNL     1      -0.497  -1.671   7.958  1.00  0.00     0.167 HD
ATOM     45  C   UNL     1       0.375  -5.881   7.320  1.00  0.00     0.037 A 
ATOM     46  C   UNL     1      -0.626   0.659   9.519  1.00  0.00     0.037 A 
ATOM     47  C   UNL     1       0.862  -5.605   8.650  1.00  0.00     0.049 A 
ATOM     48  C   UNL     1       0.018  -0.379  10.402  1.00  0.00     0.074 A 
ATOM     49  C   UNL     1       1.520  -6.459   9.520  1.00  0.00     0.029 A 
ATOM     50  N   UNL     1       0.751  -4.386   9.303  1.00  0.00    -0.354 N 
ATOM     51  N   UNL     1       0.303  -1.631  10.135  1.00  0.00    -0.248 NA
ATOM     52  C   UNL     1       0.396   0.043  11.760  1.00  0.00     0.031 C 
ATOM     53  C   UNL     1       1.763  -5.773  10.715  1.00  0.00     0.029 A 
ATOM     54  C   UNL     1       1.312  -4.472  10.569  1.00  0.00     0.049 A 
ATOM     55  H   UNL     1       0.335  -3.579   8.924  1.00  0.00     0.167 HD
ATOM     56  C   UNL     1       0.918  -2.135  11.278  1.00  0.00     0.074 A 
ATOM     57  C   UNL     1       0.982  -1.048  12.231  1.00  0.00     0.031 C 
ATOM     58  C   UNL     1       1.387  -3.386  11.514  1.00  0.00     0.037 A 
BRANCH  45  59
ATOM     59  C   UNL     1       0.583  -7.269   6.770  1.00  0.00     0.058 A 
ATOM     60  C   UNL     1       1.494  -7.524   5.733  1.00  0.00     0.135 A 
ATOM     61  C   UNL     1      -0.097  -8.368   7.324  1.00  0.00     0.135 A 
ATOM     62  F   UNL     1       2.164  -6.512   5.158  1.00  0.00    -0.206 F 
ATOM     63  C   UNL     1       1.703  -8.811   5.246  1.00  0.00     0.059 A 
ATOM     64  C   UNL     1       0.119  -9.667   6.873  1.00  0.00     0.059 A 
ATOM     65  F   UNL     1      -0.976  -8.185   8.322  1.00  0.00    -0.206 F 
ATOM     66  C   UNL     1       1.011  -9.877   5.823  1.00  0.00     0.060 A 
BRANCH  66  67
ATOM     67  S   UNL     1       1.299 -11.540   5.181  1.00  0.00     0.124 S 
ATOM     68  O   UNL     1       0.649 -11.464   3.876  1.00  0.00    -0.237 OA
ATOM     69  O   UNL     1       2.756 -11.617   5.159  1.00  0.00    -0.237 OA
ATOM     70  O   UNL     1       0.642 -12.402   6.158  1.00  0.00    -0.744 OA
ENDBRANCH  66  67
ENDBRANCH  45  59
BRANCH  46  71
ATOM     71  C   UNL     1      -0.878   2.033  10.038  1.00  0.00     0.058 A 
ATOM     72  C   UNL     1       0.178   2.903  10.347  1.00  0.00     0.135 A 
ATOM     73  C   UNL     1      -2.186   2.492  10.265  1.00  0.00     0.135 A 
ATOM     74  F   UNL     1       1.448   2.509  10.162  1.00  0.00    -0.206 F 
ATOM     75  C   UNL     1      -0.049   4.165  10.887  1.00  0.00     0.059 A 
ATOM     76  C   UNL     1      -2.440   3.763  10.772  1.00  0.00     0.059 A 
ATOM     77  F   UNL     1      -3.235   1.706   9.979  1.00  0.00    -0.206 F 
ATOM     78  C   UNL     1      -1.363   4.587  11.095  1.00  0.00     0.060 A 
BRANCH  78  79
ATOM     79  S   UNL     1      -1.649   6.237  11.769  1.00  0.00     0.124 S 
ATOM     80  O   UNL     1      -1.243   6.062  13.158  1.00  0.00    -0.237 OA
ATOM     81  O   UNL     1      -0.770   7.061  10.944  1.00  0.00    -0.237 OA
ATOM     82  O   UNL     1      -3.078   6.446  11.549  1.00  0.00    -0.744 OA
ENDBRANCH  78  79
ENDBRANCH  46  71
BRANCH  58  83
ATOM     83  C   UNL     1       2.058  -3.639  12.840  1.00  0.00     0.058 A 
ATOM     84  C   UNL     1       1.339  -3.672  14.046  1.00  0.00     0.135 A 
ATOM     85  C   UNL     1       3.441  -3.880  12.901  1.00  0.00     0.135 A 
ATOM     86  F   UNL     1       0.016  -3.445  14.050  1.00  0.00    -0.206 F 
ATOM     87  C   UNL     1       1.971  -3.897  15.266  1.00  0.00     0.059 A 
ATOM     88  C   UNL     1       4.089  -4.139  14.106  1.00  0.00     0.059 A 
ATOM     89  F   UNL     1       4.179  -3.873  11.780  1.00  0.00    -0.206 F 
ATOM     90  C   UNL     1       3.347  -4.128  15.286  1.00  0.00     0.060 A 
BRANCH  90  91
ATOM     91  S   UNL     1       4.152  -4.431  16.874  1.00  0.00     0.124 S 
ATOM     92  O   UNL     1       4.135  -3.100  17.472  1.00  0.00    -0.237 OA
ATOM     93  O   UNL     1       3.268  -5.415  17.490  1.00  0.00    -0.237 OA
ATOM     94  O   UNL     1       5.471  -4.932  16.498  1.00  0.00    -0.744 OA
ENDBRANCH  90  91
ENDBRANCH  58  83
ENDBRANCH  32  33
ENDBRANCH  25  27
ENDBRANCH  24  25
ENDBRANCH  23  24
ENDBRANCH   1  23
TORSDOF 19
