REMARK SMILES Cc1cc(-n2cnc(C(=O)OCCOC(=O)c3ccc(-c4c5nc(c(-c6c(F)cc(S(=O)(=O)[O-])cc6F)c6ccc([nH]6)c(-c6c(F)cc(S(=O)(=O)[O-])cc6F)c6nc(c(-c7c(F)cc(S(=O)(=O)[O-])cc7F)c7ccc4[nH]7)C=C6)C=C5)cc3)c2)nc(Cl)n1
REMARK SMILES IDX 13 1 12 2 11 3 9 4 10 5 8 6 5 7 6 8 83 9 7 10 4 11 1 12 2 13
REMARK SMILES IDX 3 14 87 15 85 16 84 17 86 18 14 19 15 20 16 21 17 22 18 23
REMARK SMILES IDX 82 24 19 25 81 26 20 27 21 28 22 29 75 30 23 31 80 32 74 33
REMARK SMILES IDX 76 34 24 35 79 36 73 37 72 38 25 40 59 41 38 42 58 43 39 44
REMARK SMILES IDX 42 45 57 46 77 47 40 48 41 49 56 51 78 52 43 53 26 54 27 55
REMARK SMILES IDX 36 56 28 57 29 58 35 59 37 60 30 61 31 62 32 63 33 64 34 65
REMARK SMILES IDX 60 66 61 67 70 68 62 69 63 70 69 71 71 72 64 73 65 74 66 75
REMARK SMILES IDX 67 76 68 77 44 78 45 79 54 80 46 81 47 82 53 83 55 84 48 85
REMARK SMILES IDX 49 86 50 87 51 88 52 89
REMARK H PARENT 76 39 42 50
REMARK Flexibility Score: inf
ROOT
ATOM      1  C   UNL     1       2.430  -7.475   5.851  1.00  0.00     0.275 C 
ENDROOT
BRANCH   1   2
ATOM      2  C   UNL     1       2.246  -7.353   4.342  1.00  0.00     0.275 C 
BRANCH   2   3
ATOM      3  O   UNL     1       1.676  -6.088   3.967  1.00  0.00    -0.457 OA
BRANCH   3   4
ATOM      4  C   UNL     1       0.303  -6.011   4.014  1.00  0.00     0.358 C 
ATOM      5  O   UNL     1      -0.436  -6.982   4.077  1.00  0.00    -0.244 OA
BRANCH   4   6
ATOM      6  C   UNL     1      -0.159  -4.620   4.037  1.00  0.00     0.166 A 
ATOM      7  N   UNL     1      -0.248  -2.433   3.805  1.00  0.00    -0.289 N 
ATOM      8  C   UNL     1      -1.340  -2.877   4.506  1.00  0.00     0.206 A 
ATOM      9  C   UNL     1       0.558  -3.525   3.603  1.00  0.00     0.130 A 
ATOM     10  N   UNL     1      -1.365  -4.194   4.574  1.00  0.00    -0.229 NA
BRANCH   7  11
ATOM     11  C   UNL     1      -0.052  -1.139   3.272  1.00  0.00     0.143 A 
ATOM     12  C   UNL     1       1.198   0.326   0.075  1.00  0.00     0.067 C 
ATOM     13  C   UNL     1       0.655   0.190   1.466  1.00  0.00     0.044 A 
ATOM     14  C   UNL     1       0.606  -1.053   2.056  1.00  0.00     0.071 A 
ATOM     15  N   UNL     1       0.201   1.293   2.086  1.00  0.00    -0.223 NA
ATOM     16  C   UNL     1      -0.379   1.096   3.282  1.00  0.00     0.224 A 
ATOM     17  N   UNL     1      -0.592  -0.076   3.895  1.00  0.00    -0.200 NA
ATOM     18  Cl  UNL     1      -0.891   2.498   4.106  1.00  0.00    -0.041 Cl
ENDBRANCH   7  11
ENDBRANCH   4   6
ENDBRANCH   3   4
ENDBRANCH   2   3
ENDBRANCH   1   2
BRANCH   1  19
ATOM     19  O   UNL     1       1.177  -7.496   6.531  1.00  0.00    -0.458 OA
BRANCH  19  20
ATOM     20  C   UNL     1       0.763  -6.281   6.959  1.00  0.00     0.338 C 
ATOM     21  O   UNL     1       1.218  -5.197   6.625  1.00  0.00    -0.246 OA
BRANCH  20  22
ATOM     22  C   UNL     1      -0.172  -6.442   8.068  1.00  0.00     0.060 A 
ATOM     23  C   UNL     1      -0.912  -5.321   8.455  1.00  0.00     0.016 A 
ATOM     24  C   UNL     1      -0.020  -7.563   8.895  1.00  0.00     0.016 A 
ATOM     25  C   UNL     1      -1.350  -5.250   9.760  1.00  0.00     0.010 A 
ATOM     26  C   UNL     1      -0.428  -7.475  10.202  1.00  0.00     0.010 A 
ATOM     27  C   UNL     1      -1.025  -6.293  10.633  1.00  0.00    -0.014 A 
BRANCH  27  28
ATOM     28  C   UNL     1      -1.419  -6.174  12.019  1.00  0.00     0.031 A 
ATOM     29  C   UNL     1      -2.844  -6.505  12.228  1.00  0.00     0.074 A 
ATOM     30  C   UNL     1      -0.531  -5.923  12.999  1.00  0.00     0.049 A 
ATOM     31  N   UNL     1      -3.803  -5.694  12.519  1.00  0.00    -0.248 NA
ATOM     32  C   UNL     1      -3.292  -7.866  11.882  1.00  0.00     0.031 C 
ATOM     33  C   UNL     1       0.932  -5.912  12.891  1.00  0.00     0.029 A 
ATOM     34  N   UNL     1      -0.742  -5.737  14.331  1.00  0.00    -0.354 N 
ATOM     35  C   UNL     1      -4.931  -6.497  12.639  1.00  0.00     0.074 A 
ATOM     36  C   UNL     1      -4.614  -7.753  12.017  1.00  0.00     0.031 C 
ATOM     37  C   UNL     1       1.468  -5.965  14.132  1.00  0.00     0.029 A 
ATOM     38  C   UNL     1       0.399  -5.879  15.112  1.00  0.00     0.049 A 
ATOM     39  H   UNL     1      -1.625  -5.520  14.707  1.00  0.00     0.167 HD
ATOM     40  C   UNL     1      -5.917  -6.185  13.522  1.00  0.00     0.037 A 
ATOM     41  C   UNL     1       0.427  -5.998  16.464  1.00  0.00     0.037 A 
ATOM     42  C   UNL     1      -5.760  -4.847  14.025  1.00  0.00     0.049 A 
ATOM     43  C   UNL     1      -0.837  -5.406  16.977  1.00  0.00     0.074 A 
ATOM     44  C   UNL     1      -6.001  -3.574  13.561  1.00  0.00     0.029 A 
ATOM     45  N   UNL     1      -4.878  -4.749  15.069  1.00  0.00    -0.354 N 
ATOM     46  N   UNL     1      -1.150  -4.144  16.850  1.00  0.00    -0.248 NA
ATOM     47  C   UNL     1      -1.947  -6.286  17.335  1.00  0.00     0.031 C 
ATOM     48  C   UNL     1      -5.105  -2.718  14.267  1.00  0.00     0.029 A 
ATOM     49  C   UNL     1      -4.364  -3.483  15.167  1.00  0.00     0.049 A 
ATOM     50  H   UNL     1      -4.644  -5.492  15.671  1.00  0.00     0.167 HD
ATOM     51  C   UNL     1      -2.523  -4.140  16.697  1.00  0.00     0.074 A 
ATOM     52  C   UNL     1      -2.969  -5.442  17.174  1.00  0.00     0.031 C 
ATOM     53  C   UNL     1      -3.141  -3.222  15.900  1.00  0.00     0.037 A 
BRANCH  40  54
ATOM     54  C   UNL     1      -6.724  -7.213  14.271  1.00  0.00     0.058 A 
ATOM     55  C   UNL     1      -7.906  -6.827  14.930  1.00  0.00     0.135 A 
ATOM     56  C   UNL     1      -6.240  -8.503  14.586  1.00  0.00     0.135 A 
ATOM     57  F   UNL     1      -8.424  -5.603  14.741  1.00  0.00    -0.206 F 
ATOM     58  C   UNL     1      -8.557  -7.664  15.840  1.00  0.00     0.059 A 
ATOM     59  C   UNL     1      -6.902  -9.374  15.440  1.00  0.00     0.059 A 
ATOM     60  F   UNL     1      -5.049  -8.939  14.154  1.00  0.00    -0.206 F 
ATOM     61  C   UNL     1      -8.048  -8.937  16.084  1.00  0.00     0.060 A 
BRANCH  61  62
ATOM     62  S   UNL     1      -8.866 -10.007  17.280  1.00  0.00     0.124 S 
ATOM     63  O   UNL     1      -8.599  -9.310  18.532  1.00  0.00    -0.237 OA
ATOM     64  O   UNL     1     -10.248  -9.978  16.813  1.00  0.00    -0.237 OA
ATOM     65  O   UNL     1      -8.183 -11.286  17.110  1.00  0.00    -0.744 OA
ENDBRANCH  61  62
ENDBRANCH  40  54
BRANCH  41  66
ATOM     66  C   UNL     1       1.262  -6.925  17.281  1.00  0.00     0.058 A 
ATOM     67  C   UNL     1       1.236  -6.856  18.687  1.00  0.00     0.135 A 
ATOM     68  C   UNL     1       1.844  -8.085  16.731  1.00  0.00     0.135 A 
ATOM     69  F   UNL     1       0.706  -5.786  19.301  1.00  0.00    -0.206 F 
ATOM     70  C   UNL     1       1.665  -7.914  19.496  1.00  0.00     0.059 A 
ATOM     71  C   UNL     1       2.291  -9.146  17.517  1.00  0.00     0.059 A 
ATOM     72  F   UNL     1       1.908  -8.272  15.405  1.00  0.00    -0.206 F 
ATOM     73  C   UNL     1       2.159  -9.071  18.898  1.00  0.00     0.060 A 
BRANCH  73  74
ATOM     74  S   UNL     1       2.495 -10.524  19.920  1.00  0.00     0.124 S 
ATOM     75  O   UNL     1       3.652 -10.088  20.694  1.00  0.00    -0.237 OA
ATOM     76  O   UNL     1       1.248 -10.669  20.662  1.00  0.00    -0.237 OA
ATOM     77  O   UNL     1       2.760 -11.574  18.939  1.00  0.00    -0.744 OA
ENDBRANCH  73  74
ENDBRANCH  41  66
BRANCH  53  78
ATOM     78  C   UNL     1      -2.445  -1.916  15.660  1.00  0.00     0.058 A 
ATOM     79  C   UNL     1      -1.275  -1.748  14.902  1.00  0.00     0.135 A 
ATOM     80  C   UNL     1      -3.073  -0.757  16.143  1.00  0.00     0.135 A 
ATOM     81  F   UNL     1      -0.656  -2.800  14.347  1.00  0.00    -0.206 F 
ATOM     82  C   UNL     1      -0.743  -0.480  14.655  1.00  0.00     0.059 A 
ATOM     83  C   UNL     1      -2.580   0.515  15.883  1.00  0.00     0.059 A 
ATOM     84  F   UNL     1      -4.218  -0.855  16.841  1.00  0.00    -0.206 F 
ATOM     85  C   UNL     1      -1.408   0.646  15.144  1.00  0.00     0.060 A 
BRANCH  85  86
ATOM     86  S   UNL     1      -0.766   2.290  14.761  1.00  0.00     0.124 S 
ATOM     87  O   UNL     1       0.480   2.319  15.520  1.00  0.00    -0.237 OA
ATOM     88  O   UNL     1      -0.623   2.241  13.309  1.00  0.00    -0.237 OA
ATOM     89  O   UNL     1      -1.811   3.188  15.246  1.00  0.00    -0.744 OA
ENDBRANCH  85  86
ENDBRANCH  53  78
ENDBRANCH  27  28
ENDBRANCH  20  22
ENDBRANCH  19  20
ENDBRANCH   1  19
TORSDOF 15
