REMARK SMILES CC1(C)[C@H]2CC[C@]1(C)[C@H](NC(=O)CCC(=O)OCCOC(=O)c1ccc(-c3c4nc(c(-c5c(F)cc(S(=O)(=O)[O-])cc5F)c5ccc([nH]5)c(-c5c(F)cc(S(=O)(=O)[O-])cc5F)c5nc(c(-c6c(F)cc(S(=O)(=O)[O-])cc6F)c6ccc3[nH]6)C=C5)C=C4)cc1)C2
REMARK SMILES IDX 18 1 17 2 15 3 16 4 14 5 13 6 11 7 10 8 12 10 9 11 1 12 2 13
REMARK SMILES IDX 3 14 4 15 7 16 5 17 89 18 6 19 8 20 19 21 20 22 21 23 22 24
REMARK SMILES IDX 23 25 24 26 88 27 25 28 87 29 26 30 27 31 28 32 81 33 29 34
REMARK SMILES IDX 86 35 80 36 82 37 30 38 85 39 79 40 78 41 31 43 65 44 44 45
REMARK SMILES IDX 64 46 45 47 48 48 63 49 83 50 46 51 47 52 62 54 84 55 49 56
REMARK SMILES IDX 32 57 33 58 42 59 34 60 35 61 41 62 43 63 36 64 37 65 38 66
REMARK SMILES IDX 39 67 40 68 66 69 67 70 76 71 68 72 69 73 75 74 77 75 70 76
REMARK SMILES IDX 71 77 72 78 73 79 74 80 50 81 51 82 60 83 52 84 53 85 59 86
REMARK SMILES IDX 61 87 54 88 55 89 56 90 57 91 58 92
REMARK H PARENT 10 9 82 42 48 53
REMARK Flexibility Score: inf
ROOT
ATOM      1  C   UNL     1       0.215   0.512   3.637  1.00  0.00     0.274 C 
ENDROOT
BRANCH   1   2
ATOM      2  O   UNL     1      -1.095   0.167   3.029  1.00  0.00    -0.462 OA
BRANCH   2   3
ATOM      3  C   UNL     1      -1.955   1.172   2.641  1.00  0.00     0.306 C 
ATOM      4  O   UNL     1      -1.631   2.356   2.671  1.00  0.00    -0.252 OA
BRANCH   3   5
ATOM      5  C   UNL     1      -3.436   0.716   2.243  1.00  0.00     0.132 C 
BRANCH   5   6
ATOM      6  C   UNL     1      -3.959  -0.096   0.972  1.00  0.00     0.111 C 
BRANCH   6   7
ATOM      7  C   UNL     1      -3.807  -1.667   0.734  1.00  0.00     0.220 C 
ATOM      8  N   UNL     1      -2.754  -2.278   0.034  1.00  0.00    -0.353 N 
ATOM      9  H   UNL     1      -3.015  -3.039  -0.534  1.00  0.00     0.163 HD
ATOM     10  O   UNL     1      -4.748  -2.403   1.060  1.00  0.00    -0.275 OA
BRANCH   8  11
ATOM     11  C   UNL     1      -1.300  -1.947   0.021  1.00  0.00     0.088 C 
ATOM     12  C   UNL     1       0.736   0.259  -2.708  1.00  0.00     0.012 C 
ATOM     13  C   UNL     1       0.079  -0.167  -1.381  1.00  0.00    -0.025 C 
ATOM     14  C   UNL     1       0.887   0.665  -0.399  1.00  0.00     0.012 C 
ATOM     15  C   UNL     1      -1.334   0.206  -1.064  1.00  0.00    -0.003 C 
ATOM     16  C   UNL     1      -0.349  -1.746  -1.260  1.00  0.00    -0.007 C 
ATOM     17  C   UNL     1      -2.086  -0.505  -2.229  1.00  0.00     0.005 C 
ATOM     18  C   UNL     1      -1.278  -0.529   0.314  1.00  0.00     0.029 C 
ATOM     19  C   UNL     1      -1.307  -1.832  -2.444  1.00  0.00     0.010 C 
ATOM     20  C   UNL     1       0.877  -2.633  -1.210  1.00  0.00     0.014 C 
ENDBRANCH   8  11
ENDBRANCH   6   7
ENDBRANCH   5   6
ENDBRANCH   3   5
ENDBRANCH   2   3
ENDBRANCH   1   2
BRANCH   1  21
ATOM     21  C   UNL     1       1.540   0.137   2.871  1.00  0.00     0.275 C 
BRANCH  21  22
ATOM     22  O   UNL     1       2.149   1.293   2.213  1.00  0.00    -0.458 OA
BRANCH  22  23
ATOM     23  C   UNL     1       3.289   1.117   1.463  1.00  0.00     0.338 C 
ATOM     24  O   UNL     1       4.009   0.117   1.509  1.00  0.00    -0.246 OA
BRANCH  23  25
ATOM     25  C   UNL     1       3.391   2.170   0.371  1.00  0.00     0.060 A 
ATOM     26  C   UNL     1       2.394   3.140   0.292  1.00  0.00     0.016 A 
ATOM     27  C   UNL     1       4.246   2.035  -0.745  1.00  0.00     0.016 A 
ATOM     28  C   UNL     1       2.160   3.818  -0.912  1.00  0.00     0.010 A 
ATOM     29  C   UNL     1       4.118   2.887  -1.883  1.00  0.00     0.010 A 
ATOM     30  C   UNL     1       3.072   3.818  -1.978  1.00  0.00    -0.014 A 
BRANCH  30  31
ATOM     31  C   UNL     1       2.978   4.899  -3.035  1.00  0.00     0.031 A 
ATOM     32  C   UNL     1       3.122   4.648  -4.527  1.00  0.00     0.074 A 
ATOM     33  C   UNL     1       2.784   6.183  -2.635  1.00  0.00     0.049 A 
ATOM     34  N   UNL     1       3.413   5.500  -5.485  1.00  0.00    -0.248 NA
ATOM     35  C   UNL     1       2.874   3.283  -5.016  1.00  0.00     0.031 C 
ATOM     36  C   UNL     1       2.507   6.626  -1.262  1.00  0.00     0.029 A 
ATOM     37  N   UNL     1       2.809   7.369  -3.339  1.00  0.00    -0.354 N 
ATOM     38  C   UNL     1       3.433   4.775  -6.678  1.00  0.00     0.074 A 
ATOM     39  C   UNL     1       3.091   3.410  -6.324  1.00  0.00     0.031 C 
ATOM     40  C   UNL     1       2.356   7.950  -1.227  1.00  0.00     0.029 A 
ATOM     41  C   UNL     1       2.721   8.478  -2.523  1.00  0.00     0.049 A 
ATOM     42  H   UNL     1       2.881   7.419  -4.319  1.00  0.00     0.167 HD
ATOM     43  C   UNL     1       3.727   5.208  -7.935  1.00  0.00     0.037 A 
ATOM     44  C   UNL     1       3.025   9.775  -2.716  1.00  0.00     0.037 A 
ATOM     45  C   UNL     1       4.041   6.583  -8.269  1.00  0.00     0.049 A 
ATOM     46  C   UNL     1       3.525  10.207  -4.053  1.00  0.00     0.074 A 
ATOM     47  C   UNL     1       4.403   7.117  -9.497  1.00  0.00     0.029 A 
ATOM     48  N   UNL     1       4.020   7.645  -7.375  1.00  0.00    -0.354 N 
ATOM     49  N   UNL     1       3.685   9.490  -5.136  1.00  0.00    -0.248 NA
ATOM     50  C   UNL     1       3.905  11.617  -4.191  1.00  0.00     0.031 C 
ATOM     51  C   UNL     1       4.654   8.485  -9.332  1.00  0.00     0.029 A 
ATOM     52  C   UNL     1       4.386   8.820  -8.017  1.00  0.00     0.049 A 
ATOM     53  H   UNL     1       3.780   7.575  -6.423  1.00  0.00     0.167 HD
ATOM     54  C   UNL     1       4.152  10.371  -6.100  1.00  0.00     0.074 A 
ATOM     55  C   UNL     1       4.247  11.672  -5.470  1.00  0.00     0.031 C 
ATOM     56  C   UNL     1       4.465  10.118  -7.393  1.00  0.00     0.037 A 
BRANCH  43  57
ATOM     57  C   UNL     1       3.807   4.194  -9.059  1.00  0.00     0.058 A 
ATOM     58  C   UNL     1       2.671   3.603  -9.633  1.00  0.00     0.135 A 
ATOM     59  C   UNL     1       5.054   3.878  -9.633  1.00  0.00     0.135 A 
ATOM     60  F   UNL     1       1.451   3.867  -9.139  1.00  0.00    -0.206 F 
ATOM     61  C   UNL     1       2.768   2.717 -10.708  1.00  0.00     0.059 A 
ATOM     62  C   UNL     1       5.174   3.016 -10.723  1.00  0.00     0.059 A 
ATOM     63  F   UNL     1       6.178   4.426  -9.146  1.00  0.00    -0.206 F 
ATOM     64  C   UNL     1       4.025   2.425 -11.244  1.00  0.00     0.060 A 
BRANCH  64  65
ATOM     65  S   UNL     1       4.140   1.258 -12.620  1.00  0.00     0.124 S 
ATOM     66  O   UNL     1       3.821  -0.004 -11.959  1.00  0.00    -0.237 OA
ATOM     67  O   UNL     1       3.129   1.761 -13.544  1.00  0.00    -0.237 OA
ATOM     68  O   UNL     1       5.521   1.395 -13.072  1.00  0.00    -0.744 OA
ENDBRANCH  64  65
ENDBRANCH  43  57
BRANCH  44  69
ATOM     69  C   UNL     1       2.969  10.720  -1.565  1.00  0.00     0.058 A 
ATOM     70  C   UNL     1       2.017  11.745  -1.517  1.00  0.00     0.135 A 
ATOM     71  C   UNL     1       3.841  10.585  -0.468  1.00  0.00     0.135 A 
ATOM     72  F   UNL     1       1.168  11.919  -2.542  1.00  0.00    -0.206 F 
ATOM     73  C   UNL     1       1.933  12.608  -0.430  1.00  0.00     0.059 A 
ATOM     74  C   UNL     1       3.751  11.409   0.647  1.00  0.00     0.059 A 
ATOM     75  F   UNL     1       4.759   9.605  -0.452  1.00  0.00    -0.206 F 
ATOM     76  C   UNL     1       2.801  12.428   0.650  1.00  0.00     0.060 A 
BRANCH  76  77
ATOM     77  S   UNL     1       2.651  13.526   2.075  1.00  0.00     0.124 S 
ATOM     78  O   UNL     1       3.203  14.767   1.546  1.00  0.00    -0.237 OA
ATOM     79  O   UNL     1       1.212  13.518   2.318  1.00  0.00    -0.237 OA
ATOM     80  O   UNL     1       3.455  12.862   3.098  1.00  0.00    -0.744 OA
ENDBRANCH  76  77
ENDBRANCH  44  69
BRANCH  56  81
ATOM     81  C   UNL     1       4.872  11.292  -8.235  1.00  0.00     0.058 A 
ATOM     82  C   UNL     1       6.120  11.916  -8.086  1.00  0.00     0.135 A 
ATOM     83  C   UNL     1       4.002  11.787  -9.219  1.00  0.00     0.135 A 
ATOM     84  F   UNL     1       6.979  11.496  -7.144  1.00  0.00    -0.206 F 
ATOM     85  C   UNL     1       6.486  13.002  -8.876  1.00  0.00     0.059 A 
ATOM     86  C   UNL     1       4.358  12.853 -10.039  1.00  0.00     0.059 A 
ATOM     87  F   UNL     1       2.795  11.229  -9.397  1.00  0.00    -0.206 F 
ATOM     88  C   UNL     1       5.600  13.459  -9.853  1.00  0.00     0.060 A 
BRANCH  88  89
ATOM     89  S   UNL     1       6.107  14.836 -10.903  1.00  0.00     0.124 S 
ATOM     90  O   UNL     1       6.018  15.961  -9.978  1.00  0.00    -0.237 OA
ATOM     91  O   UNL     1       7.456  14.445 -11.299  1.00  0.00    -0.237 OA
ATOM     92  O   UNL     1       5.118  14.827 -11.977  1.00  0.00    -0.744 OA
ENDBRANCH  88  89
ENDBRANCH  56  81
ENDBRANCH  30  31
ENDBRANCH  23  25
ENDBRANCH  22  23
ENDBRANCH  21  22
ENDBRANCH   1  21
TORSDOF 17
