REMARK SMILES Cc1cccc(OCC(=O)Nc2cc(C(=O)OCCOC(=O)c3ccc(-c4c5nc(c(-c6c(F)cc(S(=O)(=O)[O-])cc6F)c6ccc([nH]6)c(-c6c(F)cc(S(=O)(=O)[O-])cc6F)c6nc(c(-c7c(F)cc(S(=O)(=O)[O-])cc7F)c7ccc4[nH]7)C=C6)C=C5)cc3)c(Cl)cc2Cl)c1
REMARK SMILES IDX 18 1 17 2 15 3 16 4 14 5 12 6 13 7 92 8 91 9 93 10 89 11
REMARK SMILES IDX 90 12 11 13 9 14 10 15 8 17 7 18 6 19 1 20 2 21 3 22 94 23
REMARK SMILES IDX 4 24 5 25 19 26 20 27 21 28 22 29 23 30 24 31 88 32 25 33
REMARK SMILES IDX 87 34 26 35 27 36 28 37 81 38 29 39 86 40 80 41 82 42 30 43
REMARK SMILES IDX 85 44 79 45 78 46 31 48 65 49 44 50 64 51 45 52 48 53 63 54
REMARK SMILES IDX 83 55 46 56 47 57 62 59 84 60 49 61 32 62 33 63 42 64 34 65
REMARK SMILES IDX 35 66 41 67 43 68 36 69 37 70 38 71 39 72 40 73 66 74 67 75
REMARK SMILES IDX 76 76 68 77 69 78 75 79 77 80 70 81 71 82 72 83 73 84 74 85
REMARK SMILES IDX 50 86 51 87 60 88 52 89 53 90 59 91 61 92 54 93 55 94 56 95
REMARK SMILES IDX 57 96 58 97
REMARK H PARENT 11 16 82 47 48 58
REMARK Flexibility Score: inf
ROOT
ATOM      1  C   UNL     1      -3.808  -1.338   1.050  1.00  0.00     0.275 C 
ENDROOT
BRANCH   1   2
ATOM      2  O   UNL     1      -3.731  -0.009   1.606  1.00  0.00    -0.458 OA
BRANCH   2   3
ATOM      3  C   UNL     1      -3.130   0.102   2.814  1.00  0.00     0.339 C 
ATOM      4  O   UNL     1      -2.656  -0.801   3.476  1.00  0.00    -0.246 OA
BRANCH   3   5
ATOM      5  C   UNL     1      -2.922   1.534   3.116  1.00  0.00     0.080 A 
ATOM      6  C   UNL     1      -1.426   3.441   2.850  1.00  0.00     0.061 A 
ATOM      7  C   UNL     1      -1.831   2.157   2.486  1.00  0.00     0.045 A 
ATOM      8  C   UNL     1      -2.146   4.109   3.855  1.00  0.00     0.066 A 
ATOM      9  C   UNL     1      -3.255   3.513   4.458  1.00  0.00     0.044 A 
ATOM     10  Cl  UNL     1      -1.654   5.671   4.415  1.00  0.00    -0.082 Cl
ATOM     11  C   UNL     1      -3.621   2.208   4.117  1.00  0.00     0.057 A 
ATOM     12  Cl  UNL     1      -4.857   1.477   5.060  1.00  0.00    -0.083 Cl
BRANCH   6  13
ATOM     13  N   UNL     1      -0.212   3.994   2.401  1.00  0.00    -0.322 N 
ATOM     14  C   UNL     1       0.499   3.839   1.246  1.00  0.00     0.262 C 
ATOM     15  O   UNL     1       1.707   4.105   1.270  1.00  0.00    -0.271 OA
ATOM     16  H   UNL     1       0.205   4.612   3.045  1.00  0.00     0.170 HD
BRANCH  14  17
ATOM     17  C   UNL     1      -0.219   3.567  -0.092  1.00  0.00     0.329 C 
BRANCH  17  18
ATOM     18  O   UNL     1      -0.831   2.339  -0.406  1.00  0.00    -0.484 OA
BRANCH  18  19
ATOM     19  C   UNL     1      -0.075   1.205  -0.442  1.00  0.00     0.120 A 
ATOM     20  C   UNL     1       3.412  -0.244  -0.007  1.00  0.00     0.044 C 
ATOM     21  C   UNL     1       1.928  -0.135  -0.201  1.00  0.00    -0.047 A 
ATOM     22  C   UNL     1       1.153  -1.299  -0.281  1.00  0.00     0.003 A 
ATOM     23  C   UNL     1       1.307   1.120  -0.296  1.00  0.00     0.049 A 
ATOM     24  C   UNL     1      -0.221  -1.215  -0.480  1.00  0.00     0.004 A 
ATOM     25  C   UNL     1      -0.828   0.035  -0.570  1.00  0.00     0.046 A 
ENDBRANCH  18  19
ENDBRANCH  17  18
ENDBRANCH  14  17
ENDBRANCH   6  13
ENDBRANCH   3   5
ENDBRANCH   2   3
ENDBRANCH   1   2
BRANCH   1  26
ATOM     26  C   UNL     1      -4.813  -2.283   1.738  1.00  0.00     0.275 C 
BRANCH  26  27
ATOM     27  O   UNL     1      -6.180  -1.903   1.518  1.00  0.00    -0.458 OA
BRANCH  27  28
ATOM     28  C   UNL     1      -6.530  -0.759   2.179  1.00  0.00     0.338 C 
ATOM     29  O   UNL     1      -6.371  -0.593   3.370  1.00  0.00    -0.246 OA
BRANCH  28  30
ATOM     30  C   UNL     1      -6.646   0.308   1.142  1.00  0.00     0.060 A 
ATOM     31  C   UNL     1      -6.440   1.649   1.500  1.00  0.00     0.016 A 
ATOM     32  C   UNL     1      -6.613  -0.076  -0.204  1.00  0.00     0.016 A 
ATOM     33  C   UNL     1      -6.115   2.586   0.514  1.00  0.00     0.010 A 
ATOM     34  C   UNL     1      -6.185   0.818  -1.157  1.00  0.00     0.010 A 
ATOM     35  C   UNL     1      -5.958   2.155  -0.809  1.00  0.00    -0.014 A 
BRANCH  35  36
ATOM     36  C   UNL     1      -5.932   3.052  -1.957  1.00  0.00     0.031 A 
ATOM     37  C   UNL     1      -4.748   3.753  -2.481  1.00  0.00     0.074 A 
ATOM     38  C   UNL     1      -7.129   3.159  -2.572  1.00  0.00     0.049 A 
ATOM     39  N   UNL     1      -4.813   4.904  -3.067  1.00  0.00    -0.248 NA
ATOM     40  C   UNL     1      -3.391   3.221  -2.413  1.00  0.00     0.031 C 
ATOM     41  C   UNL     1      -7.473   3.776  -3.838  1.00  0.00     0.029 A 
ATOM     42  N   UNL     1      -8.356   2.826  -2.016  1.00  0.00    -0.354 N 
ATOM     43  C   UNL     1      -3.607   5.119  -3.694  1.00  0.00     0.074 A 
ATOM     44  C   UNL     1      -2.720   4.100  -3.175  1.00  0.00     0.031 C 
ATOM     45  C   UNL     1      -8.799   4.012  -3.846  1.00  0.00     0.029 A 
ATOM     46  C   UNL     1      -9.320   3.677  -2.524  1.00  0.00     0.049 A 
ATOM     47  H   UNL     1      -8.514   2.102  -1.367  1.00  0.00     0.167 HD
ATOM     48  C   UNL     1      -3.520   6.015  -4.721  1.00  0.00     0.037 A 
ATOM     49  C   UNL     1      -9.947   4.540  -1.671  1.00  0.00     0.037 A 
ATOM     50  C   UNL     1      -4.828   6.580  -5.036  1.00  0.00     0.049 A 
ATOM     51  C   UNL     1      -9.637   5.975  -2.015  1.00  0.00     0.074 A 
ATOM     52  C   UNL     1      -5.782   6.194  -5.964  1.00  0.00     0.029 A 
ATOM     53  N   UNL     1      -5.469   7.437  -4.145  1.00  0.00    -0.354 N 
ATOM     54  N   UNL     1      -8.546   6.365  -2.616  1.00  0.00    -0.248 NA
ATOM     55  C   UNL     1     -10.565   7.071  -1.762  1.00  0.00     0.031 C 
ATOM     56  C   UNL     1      -7.022   6.751  -5.582  1.00  0.00     0.029 A 
ATOM     57  C   UNL     1      -6.819   7.506  -4.440  1.00  0.00     0.049 A 
ATOM     58  H   UNL     1      -5.027   7.922  -3.412  1.00  0.00     0.167 HD
ATOM     59  C   UNL     1      -8.653   7.696  -2.924  1.00  0.00     0.074 A 
ATOM     60  C   UNL     1      -9.922   8.100  -2.341  1.00  0.00     0.031 C 
ATOM     61  C   UNL     1      -7.729   8.352  -3.687  1.00  0.00     0.037 A 
BRANCH  48  62
ATOM     62  C   UNL     1      -2.322   6.090  -5.642  1.00  0.00     0.058 A 
ATOM     63  C   UNL     1      -2.473   6.176  -7.044  1.00  0.00     0.135 A 
ATOM     64  C   UNL     1      -0.990   6.055  -5.185  1.00  0.00     0.135 A 
ATOM     65  F   UNL     1      -3.679   6.259  -7.619  1.00  0.00    -0.206 F 
ATOM     66  C   UNL     1      -1.396   6.146  -7.929  1.00  0.00     0.059 A 
ATOM     67  C   UNL     1       0.109   6.000  -6.056  1.00  0.00     0.059 A 
ATOM     68  F   UNL     1      -0.721   6.067  -3.869  1.00  0.00    -0.206 F 
ATOM     69  C   UNL     1      -0.106   6.033  -7.430  1.00  0.00     0.060 A 
BRANCH  69  70
ATOM     70  S   UNL     1       1.254   5.890  -8.609  1.00  0.00     0.124 S 
ATOM     71  O   UNL     1       0.821   4.771  -9.442  1.00  0.00    -0.237 OA
ATOM     72  O   UNL     1       1.240   7.199  -9.252  1.00  0.00    -0.237 OA
ATOM     73  O   UNL     1       2.411   5.617  -7.761  1.00  0.00    -0.744 OA
ENDBRANCH  69  70
ENDBRANCH  48  62
BRANCH  49  74
ATOM     74  C   UNL     1     -10.185   4.000  -0.294  1.00  0.00     0.058 A 
ATOM     75  C   UNL     1     -10.912   2.795  -0.166  1.00  0.00     0.135 A 
ATOM     76  C   UNL     1      -9.512   4.456   0.849  1.00  0.00     0.135 A 
ATOM     77  F   UNL     1     -11.578   2.297  -1.221  1.00  0.00    -0.206 F 
ATOM     78  C   UNL     1     -10.890   2.029   0.996  1.00  0.00     0.059 A 
ATOM     79  C   UNL     1      -9.491   3.710   2.035  1.00  0.00     0.059 A 
ATOM     80  F   UNL     1      -8.800   5.591   0.810  1.00  0.00    -0.206 F 
ATOM     81  C   UNL     1     -10.154   2.482   2.085  1.00  0.00     0.060 A 
BRANCH  81  82
ATOM     82  S   UNL     1      -9.952   1.365   3.494  1.00  0.00     0.124 S 
ATOM     83  O   UNL     1     -11.265   1.445   4.126  1.00  0.00    -0.237 OA
ATOM     84  O   UNL     1      -9.647   0.101   2.826  1.00  0.00    -0.237 OA
ATOM     85  O   UNL     1      -8.853   1.971   4.235  1.00  0.00    -0.744 OA
ENDBRANCH  81  82
ENDBRANCH  49  74
BRANCH  61  86
ATOM     86  C   UNL     1      -7.702   9.835  -3.950  1.00  0.00     0.058 A 
ATOM     87  C   UNL     1      -8.129  10.796  -3.020  1.00  0.00     0.135 A 
ATOM     88  C   UNL     1      -7.095  10.345  -5.125  1.00  0.00     0.135 A 
ATOM     89  F   UNL     1      -8.623  10.437  -1.826  1.00  0.00    -0.206 F 
ATOM     90  C   UNL     1      -8.021  12.165  -3.262  1.00  0.00     0.059 A 
ATOM     91  C   UNL     1      -6.926  11.703  -5.361  1.00  0.00     0.059 A 
ATOM     92  F   UNL     1      -6.627   9.535  -6.087  1.00  0.00    -0.206 F 
ATOM     93  C   UNL     1      -7.414  12.610  -4.433  1.00  0.00     0.060 A 
BRANCH  93  94
ATOM     94  S   UNL     1      -7.189  14.372  -4.723  1.00  0.00     0.124 S 
ATOM     95  O   UNL     1      -8.376  14.690  -5.510  1.00  0.00    -0.237 OA
ATOM     96  O   UNL     1      -7.161  14.924  -3.372  1.00  0.00    -0.237 OA
ATOM     97  O   UNL     1      -5.919  14.427  -5.440  1.00  0.00    -0.744 OA
ENDBRANCH  93  94
ENDBRANCH  61  86
ENDBRANCH  35  36
ENDBRANCH  28  30
ENDBRANCH  27  28
ENDBRANCH  26  27
ENDBRANCH   1  26
TORSDOF 18
