REMARK SMILES Cc1ccc(-c2c(C(=O)OCCOC(=O)c3ccc(-c4c5nc(c(-c6c(F)cc(S(=O)(=O)[O-])cc6F)c6ccc([nH]6)c(-c6c(F)cc(S(=O)(=O)[O-])cc6F)c6nc(c(-c7c(F)cc(S(=O)(=O)[O-])cc7F)c7ccc4[nH]7)C=C6)C=C5)cc3)nnn2Cc2c(F)cccc2Cl)cc1
REMARK SMILES IDX 12 1 11 2 10 3 8 4 9 5 7 6 6 7 84 8 82 9 83 10 5 11 1 12
REMARK SMILES IDX 2 13 3 14 95 15 4 16 94 17 85 18 86 19 87 20 92 21 88 22
REMARK SMILES IDX 89 23 91 24 93 25 90 26 13 27 14 28 15 29 16 30 17 31 81 32
REMARK SMILES IDX 18 33 80 34 19 35 20 36 21 37 74 38 22 39 79 40 73 41 75 42
REMARK SMILES IDX 23 43 78 44 72 45 71 46 24 48 58 49 37 50 57 51 38 52 41 53
REMARK SMILES IDX 56 54 76 55 39 56 40 57 55 59 77 60 42 61 25 62 26 63 35 64
REMARK SMILES IDX 27 65 28 66 34 67 36 68 29 69 30 70 31 71 32 72 33 73 59 74
REMARK SMILES IDX 60 75 69 76 61 77 62 78 68 79 70 80 63 81 64 82 65 83 66 84
REMARK SMILES IDX 67 85 43 86 44 87 53 88 45 89 46 90 52 91 54 92 47 93 48 94
REMARK SMILES IDX 49 95 50 96 51 97
REMARK H PARENT 75 47 41 58
REMARK Flexibility Score: inf
ROOT
ATOM      1  C   UNL     1      -2.823   0.316   5.507  1.00  0.00     0.275 C 
ENDROOT
BRANCH   1   2
ATOM      2  C   UNL     1      -1.966   0.148   4.252  1.00  0.00     0.275 C 
BRANCH   2   3
ATOM      3  O   UNL     1      -2.510   0.880   3.151  1.00  0.00    -0.457 OA
BRANCH   3   4
ATOM      4  C   UNL     1      -2.488   0.176   1.985  1.00  0.00     0.361 C 
ATOM      5  O   UNL     1      -1.896  -0.890   1.861  1.00  0.00    -0.244 OA
BRANCH   4   6
ATOM      6  C   UNL     1      -3.131   0.822   0.862  1.00  0.00     0.198 A 
ATOM      7  C   UNL     1      -2.501   1.052  -0.350  1.00  0.00     0.104 A 
ATOM      8  N   UNL     1      -3.548   1.298  -1.197  1.00  0.00    -0.239 N 
ATOM      9  N   UNL     1      -4.453   1.147   0.759  1.00  0.00    -0.122 NA
ATOM     10  N   UNL     1      -4.693   1.474  -0.504  1.00  0.00    -0.066 NA
BRANCH   7  11
ATOM     11  C   UNL     1      -1.083   0.902  -0.616  1.00  0.00     0.002 A 
ATOM     12  C   UNL     1       3.126   0.235  -0.030  1.00  0.00     0.044 C 
ATOM     13  C   UNL     1       1.678   0.497  -0.314  1.00  0.00    -0.051 A 
ATOM     14  C   UNL     1       0.830  -0.585  -0.560  1.00  0.00     0.004 A 
ATOM     15  C   UNL     1       1.142   1.789  -0.261  1.00  0.00     0.004 A 
ATOM     16  C   UNL     1      -0.538  -0.381  -0.716  1.00  0.00     0.011 A 
ATOM     17  C   UNL     1      -0.233   1.992  -0.410  1.00  0.00     0.011 A 
ENDBRANCH   7  11
BRANCH   8  18
ATOM     18  C   UNL     1      -3.600   1.418  -2.646  1.00  0.00     0.187 C 
BRANCH  18  19
ATOM     19  C   UNL     1      -2.800   0.398  -3.414  1.00  0.00     0.028 A 
ATOM     20  C   UNL     1      -1.999   0.865  -4.464  1.00  0.00     0.129 A 
ATOM     21  C   UNL     1      -2.833  -0.989  -3.198  1.00  0.00     0.049 A 
ATOM     22  F   UNL     1      -2.009   2.170  -4.777  1.00  0.00    -0.207 F 
ATOM     23  C   UNL     1      -1.194   0.016  -5.218  1.00  0.00     0.040 A 
ATOM     24  C   UNL     1      -1.992  -1.845  -3.923  1.00  0.00     0.021 A 
ATOM     25  Cl  UNL     1      -3.903  -1.728  -2.063  1.00  0.00    -0.084 Cl
ATOM     26  C   UNL     1      -1.166  -1.342  -4.927  1.00  0.00     0.005 A 
ENDBRANCH  18  19
ENDBRANCH   8  18
ENDBRANCH   4   6
ENDBRANCH   3   4
ENDBRANCH   2   3
ENDBRANCH   1   2
BRANCH   1  27
ATOM     27  O   UNL     1      -4.277   0.342   5.397  1.00  0.00    -0.458 OA
BRANCH  27  28
ATOM     28  C   UNL     1      -4.962   0.095   4.241  1.00  0.00     0.338 C 
ATOM     29  O   UNL     1      -5.517   0.994   3.622  1.00  0.00    -0.246 OA
BRANCH  28  30
ATOM     30  C   UNL     1      -4.817  -1.299   3.738  1.00  0.00     0.060 A 
ATOM     31  C   UNL     1      -5.157  -1.665   2.420  1.00  0.00     0.016 A 
ATOM     32  C   UNL     1      -4.072  -2.160   4.524  1.00  0.00     0.016 A 
ATOM     33  C   UNL     1      -4.625  -2.834   1.863  1.00  0.00     0.010 A 
ATOM     34  C   UNL     1      -3.328  -3.111   3.895  1.00  0.00     0.010 A 
ATOM     35  C   UNL     1      -3.663  -3.523   2.601  1.00  0.00    -0.014 A 
BRANCH  35  36
ATOM     36  C   UNL     1      -3.053  -4.805   2.262  1.00  0.00     0.031 A 
ATOM     37  C   UNL     1      -2.116  -4.938   1.141  1.00  0.00     0.074 A 
ATOM     38  C   UNL     1      -3.314  -5.758   3.188  1.00  0.00     0.049 A 
ATOM     39  N   UNL     1      -1.985  -5.971   0.385  1.00  0.00    -0.248 NA
ATOM     40  C   UNL     1      -1.225  -3.853   0.753  1.00  0.00     0.031 C 
ATOM     41  C   UNL     1      -2.799  -7.091   3.419  1.00  0.00     0.029 A 
ATOM     42  N   UNL     1      -4.350  -5.654   4.131  1.00  0.00    -0.354 N 
ATOM     43  C   UNL     1      -0.771  -5.827  -0.271  1.00  0.00     0.074 A 
ATOM     44  C   UNL     1      -0.476  -4.423  -0.195  1.00  0.00     0.031 C 
ATOM     45  C   UNL     1      -3.731  -7.779   4.119  1.00  0.00     0.029 A 
ATOM     46  C   UNL     1      -4.902  -6.914   4.271  1.00  0.00     0.049 A 
ATOM     47  H   UNL     1      -4.630  -4.837   4.604  1.00  0.00     0.167 HD
ATOM     48  C   UNL     1      -0.022  -6.941  -0.540  1.00  0.00     0.037 A 
ATOM     49  C   UNL     1      -6.138  -7.068   3.711  1.00  0.00     0.037 A 
ATOM     50  C   UNL     1      -0.734  -8.113  -0.017  1.00  0.00     0.049 A 
ATOM     51  C   UNL     1      -6.013  -7.981   2.517  1.00  0.00     0.074 A 
ATOM     52  C   UNL     1      -0.578  -8.829   1.159  1.00  0.00     0.029 A 
ATOM     53  N   UNL     1      -2.003  -8.424  -0.499  1.00  0.00    -0.354 N 
ATOM     54  N   UNL     1      -4.966  -8.047   1.733  1.00  0.00    -0.248 NA
ATOM     55  C   UNL     1      -6.990  -9.027   2.256  1.00  0.00     0.031 C 
ATOM     56  C   UNL     1      -1.804  -9.497   1.429  1.00  0.00     0.029 A 
ATOM     57  C   UNL     1      -2.705  -9.180   0.424  1.00  0.00     0.049 A 
ATOM     58  H   UNL     1      -2.353  -8.145  -1.376  1.00  0.00     0.167 HD
ATOM     59  C   UNL     1      -5.057  -9.178   0.961  1.00  0.00     0.074 A 
ATOM     60  C   UNL     1      -6.348  -9.745   1.320  1.00  0.00     0.031 C 
ATOM     61  C   UNL     1      -4.062  -9.627   0.133  1.00  0.00     0.037 A 
BRANCH  48  62
ATOM     62  C   UNL     1       1.463  -6.968  -0.913  1.00  0.00     0.058 A 
ATOM     63  C   UNL     1       2.229  -8.145  -0.719  1.00  0.00     0.135 A 
ATOM     64  C   UNL     1       2.205  -5.894  -1.451  1.00  0.00     0.135 A 
ATOM     65  F   UNL     1       1.664  -9.287  -0.304  1.00  0.00    -0.206 F 
ATOM     66  C   UNL     1       3.608  -8.223  -0.953  1.00  0.00     0.059 A 
ATOM     67  C   UNL     1       3.593  -5.935  -1.661  1.00  0.00     0.059 A 
ATOM     68  F   UNL     1       1.616  -4.766  -1.864  1.00  0.00    -0.206 F 
ATOM     69  C   UNL     1       4.290  -7.105  -1.406  1.00  0.00     0.060 A 
BRANCH  69  70
ATOM     70  S   UNL     1       6.064  -7.225  -1.715  1.00  0.00     0.124 S 
ATOM     71  O   UNL     1       6.585  -7.551  -0.392  1.00  0.00    -0.237 OA
ATOM     72  O   UNL     1       6.131  -8.294  -2.707  1.00  0.00    -0.237 OA
ATOM     73  O   UNL     1       6.414  -5.896  -2.209  1.00  0.00    -0.744 OA
ENDBRANCH  69  70
ENDBRANCH  48  62
BRANCH  49  74
ATOM     74  C   UNL     1      -7.030  -5.853   3.875  1.00  0.00     0.058 A 
ATOM     75  C   UNL     1      -7.184  -5.322   5.183  1.00  0.00     0.135 A 
ATOM     76  C   UNL     1      -7.487  -5.037   2.829  1.00  0.00     0.135 A 
ATOM     77  F   UNL     1      -6.774  -6.034   6.248  1.00  0.00    -0.206 F 
ATOM     78  C   UNL     1      -7.650  -4.032   5.434  1.00  0.00     0.059 A 
ATOM     79  C   UNL     1      -7.987  -3.739   3.061  1.00  0.00     0.059 A 
ATOM     80  F   UNL     1      -7.398  -5.454   1.558  1.00  0.00    -0.206 F 
ATOM     81  C   UNL     1      -8.035  -3.235   4.364  1.00  0.00     0.060 A 
BRANCH  81  82
ATOM     82  S   UNL     1      -8.451  -1.503   4.706  1.00  0.00     0.124 S 
ATOM     83  O   UNL     1      -9.807  -1.618   5.233  1.00  0.00    -0.237 OA
ATOM     84  O   UNL     1      -7.429  -1.135   5.684  1.00  0.00    -0.237 OA
ATOM     85  O   UNL     1      -8.332  -0.872   3.398  1.00  0.00    -0.744 OA
ENDBRANCH  81  82
ENDBRANCH  49  74
BRANCH  61  86
ATOM     86  C   UNL     1      -4.245 -10.636  -0.982  1.00  0.00     0.058 A 
ATOM     87  C   UNL     1      -5.486 -10.945  -1.562  1.00  0.00     0.135 A 
ATOM     88  C   UNL     1      -3.119 -11.218  -1.624  1.00  0.00     0.135 A 
ATOM     89  F   UNL     1      -6.620 -10.349  -1.171  1.00  0.00    -0.206 F 
ATOM     90  C   UNL     1      -5.615 -11.844  -2.616  1.00  0.00     0.059 A 
ATOM     91  C   UNL     1      -3.221 -12.045  -2.736  1.00  0.00     0.059 A 
ATOM     92  F   UNL     1      -1.863 -10.990  -1.214  1.00  0.00    -0.206 F 
ATOM     93  C   UNL     1      -4.478 -12.387  -3.198  1.00  0.00     0.060 A 
BRANCH  93  94
ATOM     94  S   UNL     1      -4.654 -13.507  -4.590  1.00  0.00     0.124 S 
ATOM     95  O   UNL     1      -4.944 -14.765  -3.909  1.00  0.00    -0.237 OA
ATOM     96  O   UNL     1      -5.765 -12.918  -5.332  1.00  0.00    -0.237 OA
ATOM     97  O   UNL     1      -3.356 -13.430  -5.253  1.00  0.00    -0.744 OA
ENDBRANCH  93  94
ENDBRANCH  61  86
ENDBRANCH  35  36
ENDBRANCH  28  30
ENDBRANCH  27  28
ENDBRANCH   1  27
TORSDOF 17
