REMARK SMILES Cc1ccccc1NC(=O)CSc1nc(C(=O)OCCOC(=O)c2ccc(-c3c4nc(c(-c5c(F)cc(S(=O)(=O)[O-])cc5F)c5ccc([nH]5)c(-c5c(F)cc(S(=O)(=O)[O-])cc5F)c5nc(c(-c6c(F)cc(S(=O)(=O)[O-])cc6F)c6ccc3[nH]6)C=C5)C=C4)cc2)c2ccccc2n1
REMARK SMILES IDX 19 1 18 2 16 3 17 4 15 5 13 6 14 7 96 8 95 9 90 10 94 11
REMARK SMILES IDX 91 12 93 13 92 14 12 15 11 16 9 17 8 18 10 20 7 21 1 22 2 23
REMARK SMILES IDX 3 24 4 25 6 26 5 27 20 28 21 29 22 30 23 31 24 32 25 33
REMARK SMILES IDX 89 34 26 35 88 36 27 37 28 38 29 39 82 40 30 41 87 42 81 43
REMARK SMILES IDX 83 44 31 45 86 46 80 47 79 48 32 50 66 51 45 52 65 53 46 54
REMARK SMILES IDX 49 55 64 56 84 57 47 58 48 59 63 61 85 62 50 63 33 64 34 65
REMARK SMILES IDX 43 66 35 67 36 68 42 69 44 70 37 71 38 72 39 73 40 74 41 75
REMARK SMILES IDX 67 76 68 77 77 78 69 79 70 80 76 81 78 82 71 83 72 84 73 85
REMARK SMILES IDX 74 86 75 87 51 88 52 89 61 90 53 91 54 92 60 93 62 94 55 95
REMARK SMILES IDX 56 96 57 97 58 98 59 99
REMARK H PARENT 8 19 83 49 49 60
REMARK Flexibility Score: inf
ROOT
ATOM      1  C   UNL     1      -3.028   7.920  -6.803  1.00  0.00     0.275 C 
ENDROOT
BRANCH   1   2
ATOM      2  O   UNL     1      -2.115   6.895  -6.399  1.00  0.00    -0.457 OA
BRANCH   2   3
ATOM      3  C   UNL     1      -2.621   5.636  -6.483  1.00  0.00     0.357 C 
ATOM      4  O   UNL     1      -3.623   5.306  -7.074  1.00  0.00    -0.244 OA
BRANCH   3   5
ATOM      5  C   UNL     1      -1.707   4.711  -5.763  1.00  0.00     0.160 A 
ATOM      6  C   UNL     1      -1.461   3.265  -4.018  1.00  0.00     0.189 A 
ATOM      7  N   UNL     1      -2.180   4.229  -4.591  1.00  0.00    -0.215 NA
ATOM      8  N   UNL     1      -0.390   2.691  -4.587  1.00  0.00    -0.222 NA
ATOM      9  C   UNL     1       0.033   3.171  -5.766  1.00  0.00     0.076 A 
ATOM     10  C   UNL     1      -0.565   4.254  -6.409  1.00  0.00     0.034 A 
ATOM     11  C   UNL     1       1.075   2.530  -6.421  1.00  0.00     0.029 A 
ATOM     12  C   UNL     1      -0.042   4.747  -7.634  1.00  0.00     0.013 A 
ATOM     13  C   UNL     1       1.560   2.970  -7.659  1.00  0.00     0.002 A 
ATOM     14  C   UNL     1       1.021   4.103  -8.253  1.00  0.00     0.001 A 
BRANCH   6  15
ATOM     15  S   UNL     1      -2.156   2.435  -2.612  1.00  0.00    -0.076 SA
BRANCH  15  16
ATOM     16  C   UNL     1      -1.640   3.516  -1.241  1.00  0.00     0.178 C 
BRANCH  16  17
ATOM     17  C   UNL     1      -0.165   3.400  -0.917  1.00  0.00     0.234 C 
ATOM     18  N   UNL     1       0.430   2.279  -0.407  1.00  0.00    -0.325 N 
ATOM     19  H   UNL     1       1.390   2.403  -0.227  1.00  0.00     0.169 HD
ATOM     20  O   UNL     1       0.583   4.366  -1.121  1.00  0.00    -0.274 OA
BRANCH  18  21
ATOM     21  C   UNL     1      -0.025   0.985  -0.081  1.00  0.00     0.044 A 
ATOM     22  C   UNL     1       2.395   0.068  -0.171  1.00  0.00     0.046 C 
ATOM     23  C   UNL     1       0.902  -0.081  -0.027  1.00  0.00    -0.027 A 
ATOM     24  C   UNL     1       0.424  -1.403   0.103  1.00  0.00     0.005 A 
ATOM     25  C   UNL     1      -0.933  -1.671   0.251  1.00  0.00     0.000 A 
ATOM     26  C   UNL     1      -1.369   0.697   0.175  1.00  0.00     0.026 A 
ATOM     27  C   UNL     1      -1.826  -0.615   0.321  1.00  0.00     0.002 A 
ENDBRANCH  18  21
ENDBRANCH  16  17
ENDBRANCH  15  16
ENDBRANCH   6  15
ENDBRANCH   3   5
ENDBRANCH   2   3
ENDBRANCH   1   2
BRANCH   1  28
ATOM     28  C   UNL     1      -4.219   8.130  -5.842  1.00  0.00     0.275 C 
BRANCH  28  29
ATOM     29  O   UNL     1      -4.339   7.230  -4.704  1.00  0.00    -0.458 OA
BRANCH  29  30
ATOM     30  C   UNL     1      -3.511   7.009  -3.646  1.00  0.00     0.338 C 
ATOM     31  O   UNL     1      -3.727   6.117  -2.832  1.00  0.00    -0.246 OA
BRANCH  30  32
ATOM     32  C   UNL     1      -2.196   7.678  -3.622  1.00  0.00     0.060 A 
ATOM     33  C   UNL     1      -1.076   6.969  -3.157  1.00  0.00     0.016 A 
ATOM     34  C   UNL     1      -2.031   8.934  -4.177  1.00  0.00     0.016 A 
ATOM     35  C   UNL     1       0.198   7.481  -3.329  1.00  0.00     0.010 A 
ATOM     36  C   UNL     1      -0.787   9.310  -4.606  1.00  0.00     0.010 A 
ATOM     37  C   UNL     1       0.319   8.648  -4.080  1.00  0.00    -0.014 A 
BRANCH  37  38
ATOM     38  C   UNL     1       1.514   9.469  -4.026  1.00  0.00     0.031 A 
ATOM     39  C   UNL     1       2.737   8.955  -4.633  1.00  0.00     0.074 A 
ATOM     40  C   UNL     1       1.359  10.577  -3.266  1.00  0.00     0.049 A 
ATOM     41  N   UNL     1       3.837   8.723  -4.011  1.00  0.00    -0.248 NA
ATOM     42  C   UNL     1       2.763   8.547  -6.038  1.00  0.00     0.031 C 
ATOM     43  C   UNL     1       2.286  11.605  -2.855  1.00  0.00     0.029 A 
ATOM     44  N   UNL     1       0.217  10.836  -2.494  1.00  0.00    -0.354 N 
ATOM     45  C   UNL     1       4.789   8.575  -4.999  1.00  0.00     0.074 A 
ATOM     46  C   UNL     1       4.055   8.236  -6.197  1.00  0.00     0.031 C 
ATOM     47  C   UNL     1       1.825  12.137  -1.700  1.00  0.00     0.029 A 
ATOM     48  C   UNL     1       0.598  11.440  -1.313  1.00  0.00     0.049 A 
ATOM     49  H   UNL     1      -0.708  10.622  -2.754  1.00  0.00     0.167 HD
ATOM     50  C   UNL     1       6.037   9.099  -4.811  1.00  0.00     0.037 A 
ATOM     51  C   UNL     1       0.361  10.730  -0.171  1.00  0.00     0.037 A 
ATOM     52  C   UNL     1       6.064   9.835  -3.540  1.00  0.00     0.049 A 
ATOM     53  C   UNL     1       1.665  10.192   0.366  1.00  0.00     0.074 A 
ATOM     54  C   UNL     1       5.864  11.184  -3.284  1.00  0.00     0.029 A 
ATOM     55  N   UNL     1       5.845   9.177  -2.329  1.00  0.00    -0.354 N 
ATOM     56  N   UNL     1       2.724   9.963  -0.371  1.00  0.00    -0.248 NA
ATOM     57  C   UNL     1       1.924  10.023   1.790  1.00  0.00     0.031 C 
ATOM     58  C   UNL     1       5.433  11.323  -1.941  1.00  0.00     0.029 A 
ATOM     59  C   UNL     1       5.367  10.063  -1.373  1.00  0.00     0.049 A 
ATOM     60  H   UNL     1       6.007   8.219  -2.173  1.00  0.00     0.167 HD
ATOM     61  C   UNL     1       3.805   9.743   0.444  1.00  0.00     0.074 A 
ATOM     62  C   UNL     1       3.245   9.771   1.787  1.00  0.00     0.031 C 
ATOM     63  C   UNL     1       5.092   9.628  -0.011  1.00  0.00     0.037 A 
BRANCH  50  64
ATOM     64  C   UNL     1       6.988   9.329  -5.973  1.00  0.00     0.058 A 
ATOM     65  C   UNL     1       7.791  10.486  -6.060  1.00  0.00     0.135 A 
ATOM     66  C   UNL     1       7.116   8.440  -7.063  1.00  0.00     0.135 A 
ATOM     67  F   UNL     1       7.858  11.371  -5.058  1.00  0.00    -0.206 F 
ATOM     68  C   UNL     1       8.564  10.795  -7.181  1.00  0.00     0.059 A 
ATOM     69  C   UNL     1       7.854   8.745  -8.216  1.00  0.00     0.059 A 
ATOM     70  F   UNL     1       6.533   7.231  -7.035  1.00  0.00    -0.206 F 
ATOM     71  C   UNL     1       8.570   9.933  -8.269  1.00  0.00     0.060 A 
BRANCH  71  72
ATOM     72  S   UNL     1       9.544  10.381  -9.721  1.00  0.00     0.124 S 
ATOM     73  O   UNL     1       9.045  11.718 -10.028  1.00  0.00    -0.237 OA
ATOM     74  O   UNL     1      10.906  10.315  -9.203  1.00  0.00    -0.237 OA
ATOM     75  O   UNL     1       9.193   9.351 -10.695  1.00  0.00    -0.744 OA
ENDBRANCH  71  72
ENDBRANCH  50  64
BRANCH  51  76
ATOM     76  C   UNL     1      -1.037  10.167  -0.065  1.00  0.00     0.058 A 
ATOM     77  C   UNL     1      -2.099  11.089  -0.235  1.00  0.00     0.135 A 
ATOM     78  C   UNL     1      -1.413   8.813  -0.040  1.00  0.00     0.135 A 
ATOM     79  F   UNL     1      -1.846  12.409  -0.236  1.00  0.00    -0.206 F 
ATOM     80  C   UNL     1      -3.413  10.707  -0.489  1.00  0.00     0.059 A 
ATOM     81  C   UNL     1      -2.748   8.399  -0.275  1.00  0.00     0.059 A 
ATOM     82  F   UNL     1      -0.489   7.861   0.154  1.00  0.00    -0.206 F 
ATOM     83  C   UNL     1      -3.728   9.357  -0.546  1.00  0.00     0.060 A 
BRANCH  83  84
ATOM     84  S   UNL     1      -5.414   8.949  -1.078  1.00  0.00     0.124 S 
ATOM     85  O   UNL     1      -6.227   9.738  -0.157  1.00  0.00    -0.237 OA
ATOM     86  O   UNL     1      -5.392   9.430  -2.460  1.00  0.00    -0.237 OA
ATOM     87  O   UNL     1      -5.507   7.509  -0.895  1.00  0.00    -0.744 OA
ENDBRANCH  83  84
ENDBRANCH  51  76
BRANCH  63  88
ATOM     88  C   UNL     1       6.279   9.228   0.830  1.00  0.00     0.058 A 
ATOM     89  C   UNL     1       6.199   8.340   1.912  1.00  0.00     0.135 A 
ATOM     90  C   UNL     1       7.588   9.620   0.450  1.00  0.00     0.135 A 
ATOM     91  F   UNL     1       5.029   7.814   2.300  1.00  0.00    -0.206 F 
ATOM     92  C   UNL     1       7.330   7.918   2.611  1.00  0.00     0.059 A 
ATOM     93  C   UNL     1       8.731   9.155   1.086  1.00  0.00     0.059 A 
ATOM     94  F   UNL     1       7.809  10.461  -0.571  1.00  0.00    -0.206 F 
ATOM     95  C   UNL     1       8.591   8.325   2.186  1.00  0.00     0.060 A 
BRANCH  95  96
ATOM     96  S   UNL     1      10.062   7.726   3.029  1.00  0.00     0.124 S 
ATOM     97  O   UNL     1      10.263   8.768   4.032  1.00  0.00    -0.237 OA
ATOM     98  O   UNL     1       9.634   6.428   3.543  1.00  0.00    -0.237 OA
ATOM     99  O   UNL     1      11.057   7.672   1.963  1.00  0.00    -0.744 OA
ENDBRANCH  95  96
ENDBRANCH  63  88
ENDBRANCH  37  38
ENDBRANCH  30  32
ENDBRANCH  29  30
ENDBRANCH  28  29
ENDBRANCH   1  28
TORSDOF 18
