REMARK SMILES O=C(OCCOC(=O)c1cc(-c2cccc(Cl)c2)ccc1Cl)c1ccc(-c2c3nc(c(-c4c(F)cc(S(=O)(=O)[O-])cc4F)c4ccc([nH]4)c(-c4c(F)cc(S(=O)(=O)[O-])cc4F)c4nc(c(-c5c(F)cc(S(=O)(=O)[O-])cc5F)c5ccc2[nH]5)C=C4)C=C3)cc1
REMARK SMILES IDX 4 1 3 2 2 3 1 4 23 5 24 6 88 7 25 8 87 9 26 10 27 11 28 12
REMARK SMILES IDX 81 13 29 14 86 15 80 16 82 17 30 18 85 19 79 20 78 21 31 23
REMARK SMILES IDX 65 24 44 25 64 26 45 27 48 28 63 29 83 30 46 31 47 32 62 34
REMARK SMILES IDX 84 35 49 36 32 37 33 38 42 39 34 40 35 41 41 42 43 43 36 44
REMARK SMILES IDX 37 45 38 46 39 47 40 48 66 49 67 50 76 51 68 52 69 53 75 54
REMARK SMILES IDX 77 55 70 56 71 57 72 58 73 59 74 60 50 61 51 62 60 63 52 64
REMARK SMILES IDX 53 65 59 66 61 67 54 68 55 69 56 70 57 71 58 72 5 73 6 74
REMARK SMILES IDX 7 75 8 76 9 77 10 78 21 79 11 80 20 81 22 82 19 83 12 84
REMARK SMILES IDX 13 85 18 86 14 87 16 88 15 89 17 90
REMARK H PARENT 82 22 48 33
REMARK Flexibility Score: inf
ROOT
ATOM      1  C   UNL     1       4.266  -1.405   0.946  1.00  0.00     0.275 C 
ENDROOT
BRANCH   1   2
ATOM      2  O   UNL     1       3.347  -0.357   1.271  1.00  0.00    -0.458 OA
BRANCH   2   3
ATOM      3  C   UNL     1       3.186   0.851   0.690  1.00  0.00     0.338 C 
ATOM      4  O   UNL     1       2.339   1.605   1.171  1.00  0.00    -0.246 OA
BRANCH   3   5
ATOM      5  C   UNL     1       3.881   1.295  -0.570  1.00  0.00     0.060 A 
ATOM      6  C   UNL     1       5.010   0.743  -1.183  1.00  0.00     0.016 A 
ATOM      7  C   UNL     1       3.268   2.370  -1.226  1.00  0.00     0.016 A 
ATOM      8  C   UNL     1       5.454   1.180  -2.440  1.00  0.00     0.010 A 
ATOM      9  C   UNL     1       3.665   2.778  -2.500  1.00  0.00     0.010 A 
ATOM     10  C   UNL     1       4.777   2.192  -3.113  1.00  0.00    -0.014 A 
BRANCH  10  11
ATOM     11  C   UNL     1       5.320   2.807  -4.345  1.00  0.00     0.031 A 
ATOM     12  C   UNL     1       5.825   4.216  -4.239  1.00  0.00     0.074 A 
ATOM     13  C   UNL     1       5.319   2.164  -5.527  1.00  0.00     0.049 A 
ATOM     14  N   UNL     1       6.212   5.032  -5.179  1.00  0.00    -0.248 NA
ATOM     15  C   UNL     1       5.896   4.781  -2.879  1.00  0.00     0.031 C 
ATOM     16  C   UNL     1       4.931   0.772  -5.733  1.00  0.00     0.029 A 
ATOM     17  N   UNL     1       5.608   2.612  -6.792  1.00  0.00    -0.354 N 
ATOM     18  C   UNL     1       6.578   6.198  -4.522  1.00  0.00     0.074 A 
ATOM     19  C   UNL     1       6.266   6.025  -3.124  1.00  0.00     0.031 C 
ATOM     20  C   UNL     1       4.899   0.508  -7.050  1.00  0.00     0.029 A 
ATOM     21  C   UNL     1       5.279   1.712  -7.780  1.00  0.00     0.049 A 
ATOM     22  H   UNL     1       6.012   3.492  -6.974  1.00  0.00     0.167 HD
ATOM     23  C   UNL     1       7.177   7.296  -5.035  1.00  0.00     0.037 A 
ATOM     24  C   UNL     1       5.265   1.856  -9.120  1.00  0.00     0.037 A 
ATOM     25  C   UNL     1       7.477   7.442  -6.430  1.00  0.00     0.049 A 
ATOM     26  C   UNL     1       5.814   3.131  -9.700  1.00  0.00     0.074 A 
ATOM     27  C   UNL     1       8.114   8.484  -7.072  1.00  0.00     0.029 A 
ATOM     28  N   UNL     1       7.138   6.510  -7.403  1.00  0.00    -0.354 N 
ATOM     29  N   UNL     1       6.229   4.203  -9.067  1.00  0.00    -0.248 NA
ATOM     30  C   UNL     1       5.948   3.205 -11.160  1.00  0.00     0.031 C 
ATOM     31  C   UNL     1       8.107   8.209  -8.443  1.00  0.00     0.029 A 
ATOM     32  C   UNL     1       7.523   6.966  -8.648  1.00  0.00     0.049 A 
ATOM     33  H   UNL     1       6.689   5.651  -7.230  1.00  0.00     0.167 HD
ATOM     34  C   UNL     1       6.737   5.052 -10.042  1.00  0.00     0.074 A 
ATOM     35  C   UNL     1       6.545   4.381 -11.313  1.00  0.00     0.031 C 
ATOM     36  C   UNL     1       7.335   6.260  -9.895  1.00  0.00     0.037 A 
BRANCH  23  37
ATOM     37  C   UNL     1       7.510   8.396  -4.066  1.00  0.00     0.058 A 
ATOM     38  C   UNL     1       8.464   8.218  -3.047  1.00  0.00     0.135 A 
ATOM     39  C   UNL     1       6.809   9.610  -4.100  1.00  0.00     0.135 A 
ATOM     40  F   UNL     1       9.148   7.065  -2.953  1.00  0.00    -0.206 F 
ATOM     41  C   UNL     1       8.656   9.173  -2.056  1.00  0.00     0.059 A 
ATOM     42  C   UNL     1       7.012  10.595  -3.139  1.00  0.00     0.059 A 
ATOM     43  F   UNL     1       5.886   9.832  -5.049  1.00  0.00    -0.206 F 
ATOM     44  C   UNL     1       7.914  10.354  -2.103  1.00  0.00     0.060 A 
BRANCH  44  45
ATOM     45  S   UNL     1       8.127  11.557  -0.775  1.00  0.00     0.124 S 
ATOM     46  O   UNL     1       7.438  10.895   0.328  1.00  0.00    -0.237 OA
ATOM     47  O   UNL     1       9.579  11.637  -0.657  1.00  0.00    -0.237 OA
ATOM     48  O   UNL     1       7.476  12.755  -1.295  1.00  0.00    -0.744 OA
ENDBRANCH  44  45
ENDBRANCH  23  37
BRANCH  24  49
ATOM     49  C   UNL     1       4.738   0.759  -9.978  1.00  0.00     0.058 A 
ATOM     50  C   UNL     1       5.590  -0.069 -10.722  1.00  0.00     0.135 A 
ATOM     51  C   UNL     1       3.361   0.484 -10.025  1.00  0.00     0.135 A 
ATOM     52  F   UNL     1       6.913   0.152 -10.713  1.00  0.00    -0.206 F 
ATOM     53  C   UNL     1       5.100  -1.127 -11.483  1.00  0.00     0.059 A 
ATOM     54  C   UNL     1       2.847  -0.577 -10.768  1.00  0.00     0.059 A 
ATOM     55  F   UNL     1       2.501   1.234  -9.318  1.00  0.00    -0.206 F 
ATOM     56  C   UNL     1       3.726  -1.379 -11.493  1.00  0.00     0.060 A 
BRANCH  56  57
ATOM     57  S   UNL     1       3.114  -2.799 -12.430  1.00  0.00     0.124 S 
ATOM     58  O   UNL     1       3.398  -2.395 -13.802  1.00  0.00    -0.237 OA
ATOM     59  O   UNL     1       3.934  -3.884 -11.900  1.00  0.00    -0.237 OA
ATOM     60  O   UNL     1       1.700  -2.857 -12.069  1.00  0.00    -0.744 OA
ENDBRANCH  56  57
ENDBRANCH  24  49
BRANCH  36  61
ATOM     61  C   UNL     1       7.891   6.921 -11.122  1.00  0.00     0.058 A 
ATOM     62  C   UNL     1       7.065   7.558 -12.057  1.00  0.00     0.135 A 
ATOM     63  C   UNL     1       9.283   7.038 -11.277  1.00  0.00     0.135 A 
ATOM     64  F   UNL     1       5.730   7.464 -11.956  1.00  0.00    -0.206 F 
ATOM     65  C   UNL     1       7.601   8.303 -13.101  1.00  0.00     0.059 A 
ATOM     66  C   UNL     1       9.839   7.801 -12.296  1.00  0.00     0.059 A 
ATOM     67  F   UNL     1      10.113   6.450 -10.401  1.00  0.00    -0.206 F 
ATOM     68  C   UNL     1       8.989   8.434 -13.201  1.00  0.00     0.060 A 
BRANCH  68  69
ATOM     69  S   UNL     1       9.665   9.495 -14.493  1.00  0.00     0.124 S 
ATOM     70  O   UNL     1       9.422   8.694 -15.688  1.00  0.00    -0.237 OA
ATOM     71  O   UNL     1       8.852  10.701 -14.361  1.00  0.00    -0.237 OA
ATOM     72  O   UNL     1      11.066   9.646 -14.112  1.00  0.00    -0.744 OA
ENDBRANCH  68  69
ENDBRANCH  36  61
ENDBRANCH  10  11
ENDBRANCH   3   5
ENDBRANCH   2   3
ENDBRANCH   1   2
BRANCH   1  73
ATOM     73  C   UNL     1       3.806  -2.302  -0.207  1.00  0.00     0.275 C 
BRANCH  73  74
ATOM     74  O   UNL     1       3.317  -1.574  -1.346  1.00  0.00    -0.458 OA
BRANCH  74  75
ATOM     75  C   UNL     1       1.965  -1.468  -1.476  1.00  0.00     0.339 C 
ATOM     76  O   UNL     1       1.128  -1.901  -0.711  1.00  0.00    -0.246 OA
BRANCH  75  77
ATOM     77  C   UNL     1       1.645  -0.626  -2.653  1.00  0.00     0.079 A 
ATOM     78  C   UNL     1       0.835   0.517  -2.461  1.00  0.00     0.026 A 
ATOM     79  C   UNL     1       2.107  -0.947  -3.931  1.00  0.00     0.055 A 
ATOM     80  C   UNL     1       0.540   1.388  -3.528  1.00  0.00    -0.017 A 
ATOM     81  C   UNL     1       1.813  -0.097  -4.997  1.00  0.00     0.022 A 
ATOM     82  Cl  UNL     1       3.007  -2.381  -4.275  1.00  0.00    -0.083 Cl
ATOM     83  C   UNL     1       1.070   1.069  -4.790  1.00  0.00     0.010 A 
BRANCH  80  84
ATOM     84  C   UNL     1      -0.291   2.603  -3.381  1.00  0.00    -0.017 A 
ATOM     85  C   UNL     1      -1.389   2.816  -4.233  1.00  0.00     0.009 A 
ATOM     86  C   UNL     1       0.006   3.616  -2.459  1.00  0.00     0.029 A 
ATOM     87  C   UNL     1      -2.139   3.997  -4.180  1.00  0.00     0.002 A 
ATOM     88  C   UNL     1      -0.730   4.803  -2.416  1.00  0.00     0.041 A 
ATOM     89  C   UNL     1      -1.803   4.998  -3.275  1.00  0.00     0.020 A 
ATOM     90  Cl  UNL     1      -0.288   6.042  -1.304  1.00  0.00    -0.084 Cl
ENDBRANCH  80  84
ENDBRANCH  75  77
ENDBRANCH  74  75
ENDBRANCH  73  74
ENDBRANCH   1  73
TORSDOF 15
