REMARK SMILES C[C@@H]1C(=O)NC(=O)CN1C(=O)NC1(CC(=O)OCCOC(=O)c2ccc(-c3c4nc(c(-c5c(F)cc(S(=O)(=O)[O-])cc5F)c5ccc([nH]5)c(-c5c(F)cc(S(=O)(=O)[O-])cc5F)c5nc(c(-c6c(F)cc(S(=O)(=O)[O-])cc6F)c6ccc3[nH]6)C=C5)C=C4)cc2)CCC1
REMARK SMILES IDX 18 1 17 2 15 3 16 4 14 5 13 6 89 7 91 8 90 9 12 10 10 11
REMARK SMILES IDX 11 12 9 14 1 15 2 16 3 17 4 18 5 19 8 20 6 21 7 23 19 24
REMARK SMILES IDX 20 25 21 26 22 27 23 28 24 29 88 30 25 31 87 32 26 33 27 34
REMARK SMILES IDX 28 35 81 36 29 37 86 38 80 39 82 40 30 41 85 42 79 43 78 44
REMARK SMILES IDX 31 46 65 47 44 48 64 49 45 50 48 51 63 52 83 53 46 54 47 55
REMARK SMILES IDX 62 57 84 58 49 59 32 60 33 61 42 62 34 63 35 64 41 65 43 66
REMARK SMILES IDX 36 67 37 68 38 69 39 70 40 71 66 72 67 73 76 74 68 75 69 76
REMARK SMILES IDX 75 77 77 78 70 79 71 80 72 81 73 82 74 83 50 84 51 85 60 86
REMARK SMILES IDX 52 87 53 88 59 89 61 90 54 91 55 92 56 93 57 94 58 95
REMARK H PARENT 12 13 5 22 82 45 48 56
REMARK Flexibility Score: inf
ROOT
ATOM      1  C   UNL     1      -4.280   0.025  -5.594  1.00  0.00     0.274 C 
ENDROOT
BRANCH   1   2
ATOM      2  O   UNL     1      -3.467  -0.351  -4.463  1.00  0.00    -0.462 OA
BRANCH   2   3
ATOM      3  C   UNL     1      -2.124  -0.299  -4.623  1.00  0.00     0.308 C 
ATOM      4  O   UNL     1      -1.563   0.062  -5.651  1.00  0.00    -0.252 OA
BRANCH   3   5
ATOM      5  C   UNL     1      -1.347  -0.834  -3.444  1.00  0.00     0.151 C 
BRANCH   5   6
ATOM      6  C   UNL     1      -1.944  -0.734  -2.032  1.00  0.00     0.052 C 
ATOM      7  C   UNL     1      -1.382  -1.683  -0.901  1.00  0.00     0.029 C 
ATOM      8  C   UNL     1      -3.283  -1.554  -1.826  1.00  0.00     0.029 C 
ATOM      9  C   UNL     1      -2.438  -2.719  -1.297  1.00  0.00     0.005 C 
BRANCH   6  10
ATOM     10  N   UNL     1      -2.095   0.672  -1.590  1.00  0.00    -0.332 N 
ATOM     11  C   UNL     1      -1.331   1.677  -1.105  1.00  0.00     0.318 C 
ATOM     12  O   UNL     1      -1.964   2.686  -0.775  1.00  0.00    -0.249 OA
ATOM     13  H   UNL     1      -3.032   0.962  -1.675  1.00  0.00     0.165 HD
BRANCH  11  14
ATOM     14  N   UNL     1       0.029   1.654  -1.006  1.00  0.00    -0.304 N 
ATOM     15  C   UNL     1       1.514   0.072   0.180  1.00  0.00     0.042 C 
ATOM     16  C   UNL     1       0.956   0.536  -1.165  1.00  0.00     0.174 C 
ATOM     17  C   UNL     1       2.109   0.890  -2.108  1.00  0.00     0.249 C 
ATOM     18  O   UNL     1       2.784   0.022  -2.660  1.00  0.00    -0.272 OA
ATOM     19  N   UNL     1       2.472   2.209  -2.164  1.00  0.00    -0.293 N 
ATOM     20  C   UNL     1       0.682   2.916  -0.609  1.00  0.00     0.222 C 
ATOM     21  C   UNL     1       1.924   3.234  -1.437  1.00  0.00     0.246 C 
ATOM     22  H   UNL     1       3.197   2.444  -2.787  1.00  0.00     0.173 HD
ATOM     23  O   UNL     1       2.492   4.321  -1.385  1.00  0.00    -0.273 OA
ENDBRANCH  11  14
ENDBRANCH   6  10
ENDBRANCH   5   6
ENDBRANCH   3   5
ENDBRANCH   2   3
ENDBRANCH   1   2
BRANCH   1  24
ATOM     24  C   UNL     1      -5.100   1.275  -5.287  1.00  0.00     0.275 C 
BRANCH  24  25
ATOM     25  O   UNL     1      -4.236   2.410  -5.118  1.00  0.00    -0.458 OA
BRANCH  25  26
ATOM     26  C   UNL     1      -3.914   2.689  -3.833  1.00  0.00     0.338 C 
ATOM     27  O   UNL     1      -4.316   2.123  -2.832  1.00  0.00    -0.246 OA
BRANCH  26  28
ATOM     28  C   UNL     1      -2.886   3.740  -3.829  1.00  0.00     0.060 A 
ATOM     29  C   UNL     1      -1.550   3.363  -3.959  1.00  0.00     0.016 A 
ATOM     30  C   UNL     1      -3.233   5.070  -3.597  1.00  0.00     0.016 A 
ATOM     31  C   UNL     1      -0.547   4.312  -3.778  1.00  0.00     0.010 A 
ATOM     32  C   UNL     1      -2.221   6.029  -3.475  1.00  0.00     0.010 A 
ATOM     33  C   UNL     1      -0.866   5.655  -3.525  1.00  0.00    -0.014 A 
BRANCH  33  34
ATOM     34  C   UNL     1       0.212   6.654  -3.282  1.00  0.00     0.031 A 
ATOM     35  C   UNL     1       0.285   7.396  -1.970  1.00  0.00     0.074 A 
ATOM     36  C   UNL     1       1.136   6.899  -4.233  1.00  0.00     0.049 A 
ATOM     37  N   UNL     1       1.037   8.415  -1.635  1.00  0.00    -0.248 NA
ATOM     38  C   UNL     1      -0.622   6.947  -0.902  1.00  0.00     0.031 C 
ATOM     39  C   UNL     1       1.210   6.232  -5.534  1.00  0.00     0.029 A 
ATOM     40  N   UNL     1       2.192   7.776  -4.251  1.00  0.00    -0.354 N 
ATOM     41  C   UNL     1       0.667   8.755  -0.339  1.00  0.00     0.074 A 
ATOM     42  C   UNL     1      -0.387   7.841   0.049  1.00  0.00     0.031 C 
ATOM     43  C   UNL     1       2.271   6.700  -6.209  1.00  0.00     0.029 A 
ATOM     44  C   UNL     1       2.907   7.753  -5.424  1.00  0.00     0.049 A 
ATOM     45  H   UNL     1       2.415   8.366  -3.495  1.00  0.00     0.167 HD
ATOM     46  C   UNL     1       1.159   9.739   0.454  1.00  0.00     0.037 A 
ATOM     47  C   UNL     1       3.936   8.514  -5.843  1.00  0.00     0.037 A 
ATOM     48  C   UNL     1       2.248  10.609   0.087  1.00  0.00     0.049 A 
ATOM     49  C   UNL     1       4.456   9.608  -4.956  1.00  0.00     0.074 A 
ATOM     50  C   UNL     1       2.829  11.623   0.831  1.00  0.00     0.029 A 
ATOM     51  N   UNL     1       2.934  10.557  -1.117  1.00  0.00    -0.354 N 
ATOM     52  N   UNL     1       4.056   9.956  -3.757  1.00  0.00    -0.248 NA
ATOM     53  C   UNL     1       5.555  10.427  -5.486  1.00  0.00     0.031 C 
ATOM     54  C   UNL     1       3.846  12.204   0.064  1.00  0.00     0.029 A 
ATOM     55  C   UNL     1       3.922  11.529  -1.143  1.00  0.00     0.049 A 
ATOM     56  H   UNL     1       2.746   9.924  -1.847  1.00  0.00     0.167 HD
ATOM     57  C   UNL     1       4.857  11.028  -3.385  1.00  0.00     0.074 A 
ATOM     58  C   UNL     1       5.777  11.262  -4.480  1.00  0.00     0.031 C 
ATOM     59  C   UNL     1       4.830  11.754  -2.240  1.00  0.00     0.037 A 
BRANCH  46  60
ATOM     60  C   UNL     1       0.502   9.951   1.790  1.00  0.00     0.058 A 
ATOM     61  C   UNL     1       0.701   9.074   2.867  1.00  0.00     0.135 A 
ATOM     62  C   UNL     1      -0.316  11.073   2.004  1.00  0.00     0.135 A 
ATOM     63  F   UNL     1       1.462   7.979   2.716  1.00  0.00    -0.206 F 
ATOM     64  C   UNL     1       0.088   9.285   4.100  1.00  0.00     0.059 A 
ATOM     65  C   UNL     1      -0.919  11.317   3.234  1.00  0.00     0.059 A 
ATOM     66  F   UNL     1      -0.537  11.948   1.009  1.00  0.00    -0.206 F 
ATOM     67  C   UNL     1      -0.724  10.408   4.272  1.00  0.00     0.060 A 
BRANCH  67  68
ATOM     68  S   UNL     1      -1.516  10.672   5.874  1.00  0.00     0.124 S 
ATOM     69  O   UNL     1      -2.615   9.713   5.817  1.00  0.00    -0.237 OA
ATOM     70  O   UNL     1      -0.446  10.351   6.813  1.00  0.00    -0.237 OA
ATOM     71  O   UNL     1      -1.906  12.078   5.832  1.00  0.00    -0.744 OA
ENDBRANCH  67  68
ENDBRANCH  46  60
BRANCH  47  72
ATOM     72  C   UNL     1       4.518   8.278  -7.189  1.00  0.00     0.058 A 
ATOM     73  C   UNL     1       5.780   7.684  -7.334  1.00  0.00     0.135 A 
ATOM     74  C   UNL     1       3.805   8.599  -8.355  1.00  0.00     0.135 A 
ATOM     75  F   UNL     1       6.502   7.370  -6.248  1.00  0.00    -0.206 F 
ATOM     76  C   UNL     1       6.314   7.411  -8.588  1.00  0.00     0.059 A 
ATOM     77  C   UNL     1       4.309   8.314  -9.619  1.00  0.00     0.059 A 
ATOM     78  F   UNL     1       2.588   9.158  -8.267  1.00  0.00    -0.206 F 
ATOM     79  C   UNL     1       5.567   7.723  -9.726  1.00  0.00     0.060 A 
BRANCH  79  80
ATOM     80  S   UNL     1       6.228   7.288 -11.349  1.00  0.00     0.124 S 
ATOM     81  O   UNL     1       7.199   8.353 -11.566  1.00  0.00    -0.237 OA
ATOM     82  O   UNL     1       6.782   5.958 -11.113  1.00  0.00    -0.237 OA
ATOM     83  O   UNL     1       5.048   7.321 -12.209  1.00  0.00    -0.744 OA
ENDBRANCH  79  80
ENDBRANCH  47  72
BRANCH  59  84
ATOM     84  C   UNL     1       5.837  12.860  -2.107  1.00  0.00     0.058 A 
ATOM     85  C   UNL     1       5.685  14.077  -2.789  1.00  0.00     0.135 A 
ATOM     86  C   UNL     1       6.948  12.714  -1.262  1.00  0.00     0.135 A 
ATOM     87  F   UNL     1       4.643  14.262  -3.616  1.00  0.00    -0.206 F 
ATOM     88  C   UNL     1       6.612  15.105  -2.655  1.00  0.00     0.059 A 
ATOM     89  C   UNL     1       7.878  13.737  -1.097  1.00  0.00     0.059 A 
ATOM     90  F   UNL     1       7.135  11.573  -0.582  1.00  0.00    -0.206 F 
ATOM     91  C   UNL     1       7.707  14.925  -1.808  1.00  0.00     0.060 A 
BRANCH  91  92
ATOM     92  S   UNL     1       8.894  16.273  -1.621  1.00  0.00     0.124 S 
ATOM     93  O   UNL     1       9.665  16.159  -2.854  1.00  0.00    -0.237 OA
ATOM     94  O   UNL     1       8.028  17.445  -1.521  1.00  0.00    -0.237 OA
ATOM     95  O   UNL     1       9.610  15.927  -0.397  1.00  0.00    -0.744 OA
ENDBRANCH  91  92
ENDBRANCH  59  84
ENDBRANCH  33  34
ENDBRANCH  26  28
ENDBRANCH  25  26
ENDBRANCH  24  25
ENDBRANCH   1  24
TORSDOF 17
