REMARK SMILES C[C@H]1CCC[C@H](C)N1C(=O)[C@H]1[C@@H](C(=O)OCCOC(=O)c2ccc(-c3c4nc(c(-c5c(F)cc(S(=O)(=O)[O-])cc5F)c5ccc([nH]5)c(-c5c(F)cc(S(=O)(=O)[O-])cc5F)c5nc(c(-c6c(F)cc(S(=O)(=O)[O-])cc6F)c6ccc3[nH]6)C=C5)C=C4)cc2)[C@H]2CC[C@@H]1O2
REMARK SMILES IDX 17 1 16 2 15 3 13 4 14 5 12 6 11 7 90 8 87 9 89 10 91 11
REMARK SMILES IDX 88 12 9 13 1 14 2 15 3 16 8 17 4 18 6 19 5 20 7 21 10 22
REMARK SMILES IDX 18 23 19 24 20 25 21 26 22 27 86 28 23 29 85 30 24 31 25 32
REMARK SMILES IDX 26 33 79 34 27 35 84 36 78 37 80 38 28 39 83 40 77 41 76 42
REMARK SMILES IDX 29 44 63 45 42 46 62 47 43 48 46 49 61 50 81 51 44 52 45 53
REMARK SMILES IDX 60 55 82 56 47 57 30 58 31 59 40 60 32 61 33 62 39 63 41 64
REMARK SMILES IDX 34 65 35 66 36 67 37 68 38 69 64 70 65 71 74 72 66 73 67 74
REMARK SMILES IDX 73 75 75 76 68 77 69 78 70 79 71 80 72 81 48 82 49 83 58 84
REMARK SMILES IDX 50 85 51 86 57 87 59 88 52 89 53 90 54 91 55 92 56 93
REMARK H PARENT 80 43 46 54
REMARK Flexibility Score: inf
ROOT
ATOM      1  C   UNL     1       0.363   5.391   4.345  1.00  0.00     0.275 C 
ENDROOT
BRANCH   1   2
ATOM      2  C   UNL     1       0.410   4.391   3.197  1.00  0.00     0.274 C 
BRANCH   2   3
ATOM      3  O   UNL     1       0.080   3.051   3.657  1.00  0.00    -0.462 OA
BRANCH   3   4
ATOM      4  C   UNL     1       0.729   2.060   2.998  1.00  0.00     0.312 C 
ATOM      5  O   UNL     1       1.566   2.273   2.124  1.00  0.00    -0.252 OA
BRANCH   4   6
ATOM      6  C   UNL     1       0.359   0.634   3.389  1.00  0.00     0.143 C 
ATOM      7  C   UNL     1      -1.068   0.099   3.345  1.00  0.00     0.124 C 
ATOM      8  C   UNL     1      -0.908  -1.109   4.292  1.00  0.00     0.132 C 
ATOM      9  C   UNL     1       0.973   0.059   4.730  1.00  0.00     0.133 C 
ATOM     10  C   UNL     1      -1.043  -0.974   5.785  1.00  0.00     0.035 C 
ATOM     11  O   UNL     1       0.542  -1.239   4.284  1.00  0.00    -0.373 OA
ATOM     12  C   UNL     1       0.233  -0.228   6.117  1.00  0.00     0.036 C 
BRANCH   7  13
ATOM     13  C   UNL     1      -2.197   1.063   3.650  1.00  0.00     0.229 C 
ATOM     14  C   UNL     1      -1.500   1.192   0.509  1.00  0.00     0.031 C 
ATOM     15  C   UNL     1      -2.196   2.286   1.325  1.00  0.00     0.082 C 
ATOM     16  C   UNL     1      -3.280   2.854   0.381  1.00  0.00     0.025 C 
ATOM     17  N   UNL     1      -2.737   1.927   2.679  1.00  0.00    -0.337 N 
ATOM     18  C   UNL     1      -4.121   3.940   1.016  1.00  0.00     0.004 C 
ATOM     19  C   UNL     1      -3.765   2.846   3.255  1.00  0.00     0.082 C 
ATOM     20  C   UNL     1      -4.789   3.364   2.245  1.00  0.00     0.025 C 
ATOM     21  C   UNL     1      -3.118   4.007   4.024  1.00  0.00     0.031 C 
ATOM     22  O   UNL     1      -2.678   1.058   4.787  1.00  0.00    -0.274 OA
ENDBRANCH   7  13
ENDBRANCH   4   6
ENDBRANCH   3   4
ENDBRANCH   2   3
ENDBRANCH   1   2
BRANCH   1  23
ATOM     23  O   UNL     1       1.404   5.022   5.253  1.00  0.00    -0.458 OA
BRANCH  23  24
ATOM     24  C   UNL     1       0.997   4.615   6.472  1.00  0.00     0.338 C 
ATOM     25  O   UNL     1      -0.090   4.793   6.998  1.00  0.00    -0.246 OA
BRANCH  24  26
ATOM     26  C   UNL     1       2.079   3.810   7.049  1.00  0.00     0.060 A 
ATOM     27  C   UNL     1       2.580   2.731   6.319  1.00  0.00     0.016 A 
ATOM     28  C   UNL     1       2.533   4.067   8.336  1.00  0.00     0.016 A 
ATOM     29  C   UNL     1       3.454   1.832   6.914  1.00  0.00     0.010 A 
ATOM     30  C   UNL     1       3.511   3.236   8.883  1.00  0.00     0.010 A 
ATOM     31  C   UNL     1       3.956   2.091   8.194  1.00  0.00    -0.014 A 
BRANCH  31  32
ATOM     32  C   UNL     1       4.924   1.166   8.836  1.00  0.00     0.031 A 
ATOM     33  C   UNL     1       4.607   0.594  10.190  1.00  0.00     0.074 A 
ATOM     34  C   UNL     1       6.093   0.870   8.235  1.00  0.00     0.049 A 
ATOM     35  N   UNL     1       5.409   0.053  11.067  1.00  0.00    -0.248 NA
ATOM     36  C   UNL     1       3.203   0.677  10.627  1.00  0.00     0.031 C 
ATOM     37  C   UNL     1       6.504   1.314   6.900  1.00  0.00     0.029 A 
ATOM     38  N   UNL     1       7.161   0.129   8.676  1.00  0.00    -0.354 N 
ATOM     39  C   UNL     1       4.630  -0.181  12.194  1.00  0.00     0.074 A 
ATOM     40  C   UNL     1       3.286   0.253  11.880  1.00  0.00     0.031 C 
ATOM     41  C   UNL     1       7.717   0.814   6.620  1.00  0.00     0.029 A 
ATOM     42  C   UNL     1       8.213   0.104   7.792  1.00  0.00     0.049 A 
ATOM     43  H   UNL     1       7.172  -0.339   9.542  1.00  0.00     0.167 HD
ATOM     44  C   UNL     1       5.017  -0.693  13.387  1.00  0.00     0.037 A 
ATOM     45  C   UNL     1       9.462  -0.380   7.929  1.00  0.00     0.037 A 
ATOM     46  C   UNL     1       6.343  -1.190  13.646  1.00  0.00     0.049 A 
ATOM     47  C   UNL     1       9.860  -0.984   9.243  1.00  0.00     0.074 A 
ATOM     48  C   UNL     1       6.850  -1.739  14.810  1.00  0.00     0.029 A 
ATOM     49  N   UNL     1       7.367  -1.224  12.709  1.00  0.00    -0.354 N 
ATOM     50  N   UNL     1       9.149  -1.105  10.339  1.00  0.00    -0.248 NA
ATOM     51  C   UNL     1      11.233  -1.491   9.351  1.00  0.00     0.031 C 
ATOM     52  C   UNL     1       8.185  -2.093  14.580  1.00  0.00     0.029 A 
ATOM     53  C   UNL     1       8.501  -1.791  13.264  1.00  0.00     0.049 A 
ATOM     54  H   UNL     1       7.297  -0.893  11.784  1.00  0.00     0.167 HD
ATOM     55  C   UNL     1       9.989  -1.698  11.272  1.00  0.00     0.074 A 
ATOM     56  C   UNL     1      11.254  -1.933  10.602  1.00  0.00     0.031 C 
ATOM     57  C   UNL     1       9.744  -2.009  12.568  1.00  0.00     0.037 A 
BRANCH  44  58
ATOM     58  C   UNL     1       4.012  -0.689  14.505  1.00  0.00     0.058 A 
ATOM     59  C   UNL     1       2.927  -1.578  14.542  1.00  0.00     0.135 A 
ATOM     60  C   UNL     1       4.142   0.228  15.561  1.00  0.00     0.135 A 
ATOM     61  F   UNL     1       2.742  -2.460  13.547  1.00  0.00    -0.206 F 
ATOM     62  C   UNL     1       1.989  -1.538  15.571  1.00  0.00     0.059 A 
ATOM     63  C   UNL     1       3.230   0.271  16.612  1.00  0.00     0.059 A 
ATOM     64  F   UNL     1       5.160   1.104  15.575  1.00  0.00    -0.206 F 
ATOM     65  C   UNL     1       2.146  -0.605  16.598  1.00  0.00     0.060 A 
BRANCH  65  66
ATOM     66  S   UNL     1       0.919  -0.550  17.923  1.00  0.00     0.124 S 
ATOM     67  O   UNL     1      -0.171   0.177  17.280  1.00  0.00    -0.237 OA
ATOM     68  O   UNL     1       0.670  -1.965  18.183  1.00  0.00    -0.237 OA
ATOM     69  O   UNL     1       1.608   0.166  18.992  1.00  0.00    -0.744 OA
ENDBRANCH  65  66
ENDBRANCH  44  58
BRANCH  45  70
ATOM     70  C   UNL     1      10.423  -0.257   6.802  1.00  0.00     0.058 A 
ATOM     71  C   UNL     1      10.787  -1.377   6.042  1.00  0.00     0.135 A 
ATOM     72  C   UNL     1      10.940   0.991   6.419  1.00  0.00     0.135 A 
ATOM     73  F   UNL     1      10.326  -2.592   6.375  1.00  0.00    -0.206 F 
ATOM     74  C   UNL     1      11.621  -1.264   4.934  1.00  0.00     0.059 A 
ATOM     75  C   UNL     1      11.756   1.133   5.301  1.00  0.00     0.059 A 
ATOM     76  F   UNL     1      10.608   2.096   7.105  1.00  0.00    -0.206 F 
ATOM     77  C   UNL     1      12.094  -0.003   4.566  1.00  0.00     0.060 A 
BRANCH  77  78
ATOM     78  S   UNL     1      13.093   0.155   3.069  1.00  0.00     0.124 S 
ATOM     79  O   UNL     1      14.402  -0.277   3.544  1.00  0.00    -0.237 OA
ATOM     80  O   UNL     1      12.417  -0.753   2.146  1.00  0.00    -0.237 OA
ATOM     81  O   UNL     1      12.974   1.572   2.737  1.00  0.00    -0.744 OA
ENDBRANCH  77  78
ENDBRANCH  45  70
BRANCH  57  82
ATOM     82  C   UNL     1      10.863  -2.652  13.330  1.00  0.00     0.058 A 
ATOM     83  C   UNL     1      11.936  -1.897  13.826  1.00  0.00     0.135 A 
ATOM     84  C   UNL     1      10.845  -4.030  13.592  1.00  0.00     0.135 A 
ATOM     85  F   UNL     1      11.998  -0.577  13.592  1.00  0.00    -0.206 F 
ATOM     86  C   UNL     1      12.969  -2.492  14.541  1.00  0.00     0.059 A 
ATOM     87  C   UNL     1      11.858  -4.643  14.320  1.00  0.00     0.059 A 
ATOM     88  F   UNL     1       9.834  -4.790  13.142  1.00  0.00    -0.206 F 
ATOM     89  C   UNL     1      12.922  -3.868  14.779  1.00  0.00     0.060 A 
BRANCH  89  90
ATOM     90  S   UNL     1      14.256  -4.631  15.726  1.00  0.00     0.124 S 
ATOM     91  O   UNL     1      15.303  -4.744  14.716  1.00  0.00    -0.237 OA
ATOM     92  O   UNL     1      14.496  -3.652  16.782  1.00  0.00    -0.237 OA
ATOM     93  O   UNL     1      13.673  -5.893  16.172  1.00  0.00    -0.744 OA
ENDBRANCH  89  90
ENDBRANCH  57  82
ENDBRANCH  31  32
ENDBRANCH  24  26
ENDBRANCH  23  24
ENDBRANCH   1  23
TORSDOF 15
