REMARK SMILES C=Cc1cccc(-c2ccc([C@@H](C)C(=O)OCCOC(=O)c3ccc(-c4c5nc(c(-c6c(F)cc(S(=O)(=O)[O-])cc6F)c6ccc([nH]6)c(-c6c(F)cc(S(=O)(=O)[O-])cc6F)c6nc(c(-c7c(F)cc(S(=O)(=O)[O-])cc7F)c7ccc4[nH]7)C=C6)C=C5)cc3)cc2)c1
REMARK SMILES IDX 17 1 16 2 14 3 15 4 12 5 13 6 11 7 8 8 9 9 89 10 10 11 88 12
REMARK SMILES IDX 7 13 3 14 4 15 90 16 5 17 6 18 2 19 1 20 18 21 19 22 20 23
REMARK SMILES IDX 21 24 22 25 23 26 87 27 24 28 86 29 25 30 26 31 27 32 80 33
REMARK SMILES IDX 28 34 85 35 79 36 81 37 29 38 84 39 78 40 77 41 30 43 64 44
REMARK SMILES IDX 43 45 63 46 44 47 47 48 62 49 82 50 45 51 46 52 61 54 83 55
REMARK SMILES IDX 48 56 31 57 32 58 41 59 33 60 34 61 40 62 42 63 35 64 36 65
REMARK SMILES IDX 37 66 38 67 39 68 65 69 66 70 75 71 67 72 68 73 74 74 76 75
REMARK SMILES IDX 69 76 70 77 71 78 72 79 73 80 49 81 50 82 59 83 51 84 52 85
REMARK SMILES IDX 58 86 60 87 53 88 54 89 55 90 56 91 57 92
REMARK H PARENT 81 42 47 53
REMARK Flexibility Score: inf
ROOT
ATOM      1  C   UNL     1      -6.165  -2.222   6.441  1.00  0.00     0.274 C 
ENDROOT
BRANCH   1   2
ATOM      2  O   UNL     1      -6.306  -1.123   5.519  1.00  0.00    -0.462 OA
BRANCH   2   3
ATOM      3  C   UNL     1      -6.572   0.095   6.061  1.00  0.00     0.313 C 
ATOM      4  O   UNL     1      -6.766   0.286   7.258  1.00  0.00    -0.252 OA
BRANCH   3   5
ATOM      5  C   UNL     1      -6.691   1.215   5.035  1.00  0.00     0.126 C 
ATOM      6  C   UNL     1      -8.162   1.429   4.680  1.00  0.00     0.025 C 
BRANCH   5   7
ATOM      7  C   UNL     1      -5.807   1.094   3.803  1.00  0.00    -0.034 A 
ATOM      8  C   UNL     1      -4.150   0.951   1.494  1.00  0.00    -0.018 A 
ATOM      9  C   UNL     1      -5.236   0.079   1.665  1.00  0.00     0.009 A 
ATOM     10  C   UNL     1      -3.898   1.886   2.506  1.00  0.00     0.009 A 
ATOM     11  C   UNL     1      -6.053   0.149   2.800  1.00  0.00     0.005 A 
ATOM     12  C   UNL     1      -4.716   1.961   3.639  1.00  0.00     0.005 A 
BRANCH   8  13
ATOM     13  C   UNL     1      -3.324   0.907   0.276  1.00  0.00    -0.018 A 
ATOM     14  C   UNL     1      -1.138   0.760  -0.822  1.00  0.00    -0.026 A 
ATOM     15  C   UNL     1      -1.764   0.887  -2.067  1.00  0.00     0.008 A 
ATOM     16  C   UNL     1      -1.925   0.783   0.341  1.00  0.00     0.016 A 
ATOM     17  C   UNL     1      -3.150   1.007  -2.153  1.00  0.00     0.001 A 
ATOM     18  C   UNL     1      -3.922   1.014  -0.991  1.00  0.00     0.009 A 
BRANCH  14  19
ATOM     19  C   UNL     1       0.327   0.674  -0.777  1.00  0.00     0.000 C 
ATOM     20  C   UNL     1       1.010  -0.108   0.068  1.00  0.00     0.009 C 
ENDBRANCH  14  19
ENDBRANCH   8  13
ENDBRANCH   5   7
ENDBRANCH   3   5
ENDBRANCH   2   3
ENDBRANCH   1   2
BRANCH   1  21
ATOM     21  C   UNL     1      -4.695  -2.544   6.720  1.00  0.00     0.275 C 
BRANCH  21  22
ATOM     22  O   UNL     1      -4.066  -1.507   7.494  1.00  0.00    -0.458 OA
BRANCH  22  23
ATOM     23  C   UNL     1      -3.408  -0.579   6.761  1.00  0.00     0.338 C 
ATOM     24  O   UNL     1      -3.257  -0.569   5.552  1.00  0.00    -0.246 OA
BRANCH  23  25
ATOM     25  C   UNL     1      -2.962   0.525   7.622  1.00  0.00     0.060 A 
ATOM     26  C   UNL     1      -3.467   1.801   7.360  1.00  0.00     0.016 A 
ATOM     27  C   UNL     1      -1.969   0.338   8.584  1.00  0.00     0.016 A 
ATOM     28  C   UNL     1      -2.949   2.908   8.024  1.00  0.00     0.010 A 
ATOM     29  C   UNL     1      -1.452   1.451   9.257  1.00  0.00     0.010 A 
ATOM     30  C   UNL     1      -1.917   2.743   8.955  1.00  0.00    -0.014 A 
BRANCH  30  31
ATOM     31  C   UNL     1      -1.255   3.942   9.521  1.00  0.00     0.031 A 
ATOM     32  C   UNL     1       0.083   4.369   8.981  1.00  0.00     0.074 A 
ATOM     33  C   UNL     1      -1.868   4.672  10.470  1.00  0.00     0.049 A 
ATOM     34  N   UNL     1       0.847   5.362   9.353  1.00  0.00    -0.248 NA
ATOM     35  C   UNL     1       0.631   3.569   7.873  1.00  0.00     0.031 C 
ATOM     36  C   UNL     1      -3.184   4.381  11.040  1.00  0.00     0.029 A 
ATOM     37  N   UNL     1      -1.465   5.811  11.119  1.00  0.00    -0.354 N 
ATOM     38  C   UNL     1       1.973   5.298   8.542  1.00  0.00     0.074 A 
ATOM     39  C   UNL     1       1.800   4.160   7.665  1.00  0.00     0.031 C 
ATOM     40  C   UNL     1      -3.481   5.322  11.953  1.00  0.00     0.029 A 
ATOM     41  C   UNL     1      -2.366   6.261  12.052  1.00  0.00     0.049 A 
ATOM     42  H   UNL     1      -0.610   6.263  10.933  1.00  0.00     0.167 HD
ATOM     43  C   UNL     1       3.052   6.116   8.527  1.00  0.00     0.037 A 
ATOM     44  C   UNL     1      -2.293   7.306  12.900  1.00  0.00     0.037 A 
ATOM     45  C   UNL     1       3.215   7.257   9.388  1.00  0.00     0.049 A 
ATOM     46  C   UNL     1      -1.077   8.191  12.875  1.00  0.00     0.074 A 
ATOM     47  C   UNL     1       4.279   8.139   9.462  1.00  0.00     0.029 A 
ATOM     48  N   UNL     1       2.280   7.680  10.321  1.00  0.00    -0.354 N 
ATOM     49  N   UNL     1      -0.009   8.104  12.118  1.00  0.00    -0.248 NA
ATOM     50  C   UNL     1      -1.057   9.319  13.817  1.00  0.00     0.031 C 
ATOM     51  C   UNL     1       3.995   9.086  10.454  1.00  0.00     0.029 A 
ATOM     52  C   UNL     1       2.741   8.810  10.976  1.00  0.00     0.049 A 
ATOM     53  H   UNL     1       1.415   7.242  10.493  1.00  0.00     0.167 HD
ATOM     54  C   UNL     1       0.800   9.176  12.477  1.00  0.00     0.074 A 
ATOM     55  C   UNL     1       0.095   9.902  13.514  1.00  0.00     0.031 C 
ATOM     56  C   UNL     1       2.017   9.526  11.994  1.00  0.00     0.037 A 
BRANCH  43  57
ATOM     57  C   UNL     1       4.153   5.785   7.561  1.00  0.00     0.058 A 
ATOM     58  C   UNL     1       4.031   6.047   6.188  1.00  0.00     0.135 A 
ATOM     59  C   UNL     1       5.348   5.205   8.016  1.00  0.00     0.135 A 
ATOM     60  F   UNL     1       2.901   6.582   5.700  1.00  0.00    -0.206 F 
ATOM     61  C   UNL     1       5.047   5.722   5.294  1.00  0.00     0.059 A 
ATOM     62  C   UNL     1       6.384   4.889   7.143  1.00  0.00     0.059 A 
ATOM     63  F   UNL     1       5.512   4.931   9.320  1.00  0.00    -0.206 F 
ATOM     64  C   UNL     1       6.217   5.137   5.780  1.00  0.00     0.060 A 
BRANCH  64  65
ATOM     65  S   UNL     1       7.526   4.708   4.613  1.00  0.00     0.124 S 
ATOM     66  O   UNL     1       7.008   3.471   4.037  1.00  0.00    -0.237 OA
ATOM     67  O   UNL     1       7.546   5.863   3.720  1.00  0.00    -0.237 OA
ATOM     68  O   UNL     1       8.703   4.560   5.464  1.00  0.00    -0.744 OA
ENDBRANCH  64  65
ENDBRANCH  43  57
BRANCH  44  69
ATOM     69  C   UNL     1      -3.407   7.569  13.846  1.00  0.00     0.058 A 
ATOM     70  C   UNL     1      -4.275   8.654  13.659  1.00  0.00     0.135 A 
ATOM     71  C   UNL     1      -3.629   6.734  14.952  1.00  0.00     0.135 A 
ATOM     72  F   UNL     1      -4.096   9.484  12.620  1.00  0.00    -0.206 F 
ATOM     73  C   UNL     1      -5.319   8.911  14.541  1.00  0.00     0.059 A 
ATOM     74  C   UNL     1      -4.678   6.958  15.836  1.00  0.00     0.059 A 
ATOM     75  F   UNL     1      -2.831   5.676  15.166  1.00  0.00    -0.206 F 
ATOM     76  C   UNL     1      -5.513   8.056  15.628  1.00  0.00     0.060 A 
BRANCH  76  77
ATOM     77  S   UNL     1      -6.901   8.361  16.743  1.00  0.00     0.124 S 
ATOM     78  O   UNL     1      -6.375   9.435  17.578  1.00  0.00    -0.237 OA
ATOM     79  O   UNL     1      -7.967   8.735  15.819  1.00  0.00    -0.237 OA
ATOM     80  O   UNL     1      -7.082   7.074  17.407  1.00  0.00    -0.744 OA
ENDBRANCH  76  77
ENDBRANCH  44  69
BRANCH  56  81
ATOM     81  C   UNL     1       2.645  10.770  12.553  1.00  0.00     0.058 A 
ATOM     82  C   UNL     1       3.258  10.779  13.815  1.00  0.00     0.135 A 
ATOM     83  C   UNL     1       2.671  11.953  11.798  1.00  0.00     0.135 A 
ATOM     84  F   UNL     1       3.254   9.674  14.576  1.00  0.00    -0.206 F 
ATOM     85  C   UNL     1       3.859  11.928  14.320  1.00  0.00     0.059 A 
ATOM     86  C   UNL     1       3.282  13.107  12.276  1.00  0.00     0.059 A 
ATOM     87  F   UNL     1       2.106  11.990  10.581  1.00  0.00    -0.206 F 
ATOM     88  C   UNL     1       3.863  13.089  13.544  1.00  0.00     0.060 A 
BRANCH  88  89
ATOM     89  S   UNL     1       4.668  14.569  14.192  1.00  0.00     0.124 S 
ATOM     90  O   UNL     1       3.645  15.089  15.092  1.00  0.00    -0.237 OA
ATOM     91  O   UNL     1       5.861  14.026  14.835  1.00  0.00    -0.237 OA
ATOM     92  O   UNL     1       4.919  15.367  12.995  1.00  0.00    -0.744 OA
ENDBRANCH  88  89
ENDBRANCH  56  81
ENDBRANCH  30  31
ENDBRANCH  23  25
ENDBRANCH  22  23
ENDBRANCH  21  22
ENDBRANCH   1  21
TORSDOF 17
