REMARK SMILES Cc1nc(SCc2cccc(Cl)c2)[nH]c(=O)c1CC(=O)OCCOC(=O)c1ccc(-c2c3nc(c(-c4c(F)cc(S(=O)(=O)[O-])cc4F)c4ccc([nH]4)c(-c4c(F)cc(S(=O)(=O)[O-])cc4F)c4nc(c(-c5c(F)cc(S(=O)(=O)[O-])cc5F)c5ccc2[nH]5)C=C4)C=C3)cc1
REMARK SMILES IDX 22 1 21 2 19 3 20 4 18 5 17 6 1 7 2 8 3 9 4 10 15 11 14 12
REMARK SMILES IDX 16 13 5 15 6 16 7 17 8 18 13 19 9 20 11 21 10 22 12 23 23 24
REMARK SMILES IDX 24 25 25 26 26 27 27 28 28 29 92 30 29 31 91 32 30 33 31 34
REMARK SMILES IDX 32 35 85 36 33 37 90 38 84 39 86 40 34 41 89 42 83 43 82 44
REMARK SMILES IDX 35 46 69 47 48 48 68 49 49 50 52 51 67 52 87 53 50 54 51 55
REMARK SMILES IDX 66 57 88 58 53 59 36 60 37 61 46 62 38 63 39 64 45 65 47 66
REMARK SMILES IDX 40 67 41 68 42 69 43 70 44 71 70 72 71 73 80 74 72 75 73 76
REMARK SMILES IDX 79 77 81 78 74 79 75 80 76 81 77 82 78 83 54 84 55 85 64 86
REMARK SMILES IDX 56 87 57 88 63 89 65 90 58 91 59 92 60 93 61 94 62 95
REMARK H PARENT 14 14 86 45 52 56
REMARK Flexibility Score: inf
ROOT
ATOM      1  C   UNL     1       0.707  -2.949  -3.359  1.00  0.00     0.274 C 
ENDROOT
BRANCH   1   2
ATOM      2  O   UNL     1       0.223  -2.369  -2.126  1.00  0.00    -0.462 OA
BRANCH   2   3
ATOM      3  C   UNL     1      -0.002  -3.261  -1.124  1.00  0.00     0.310 C 
ATOM      4  O   UNL     1       0.141  -4.476  -1.236  1.00  0.00    -0.252 OA
BRANCH   3   5
ATOM      5  C   UNL     1      -0.515  -2.654   0.175  1.00  0.00     0.166 C 
BRANCH   5   6
ATOM      6  C   UNL     1      -0.537  -1.161   0.287  1.00  0.00     0.050 A 
ATOM      7  C   UNL     1      -3.024  -0.977   0.429  1.00  0.00     0.067 C 
ATOM      8  C   UNL     1      -1.635  -0.397   0.430  1.00  0.00     0.050 A 
ATOM      9  N   UNL     1      -1.606   0.974   0.476  1.00  0.00    -0.229 NA
ATOM     10  C   UNL     1      -0.481   1.554   0.237  1.00  0.00     0.168 A 
ATOM     11  C   UNL     1       0.761  -0.445   0.296  1.00  0.00     0.255 A 
ATOM     12  N   UNL     1       0.699   0.900   0.134  1.00  0.00    -0.301 N 
ATOM     13  O   UNL     1       1.820  -1.037   0.451  1.00  0.00    -0.269 OA
ATOM     14  H   UNL     1       1.521   1.407  -0.060  1.00  0.00     0.172 HD
BRANCH  10  15
ATOM     15  S   UNL     1      -0.361   3.259  -0.045  1.00  0.00    -0.083 SA
BRANCH  15  16
ATOM     16  C   UNL     1      -2.115   3.699  -0.212  1.00  0.00     0.113 C 
BRANCH  16  17
ATOM     17  C   UNL     1      -2.754   3.441  -1.566  1.00  0.00    -0.036 A 
ATOM     18  C   UNL     1      -3.368   4.495  -2.260  1.00  0.00     0.005 A 
ATOM     19  C   UNL     1      -2.867   2.154  -2.116  1.00  0.00     0.025 A 
ATOM     20  C   UNL     1      -4.071   4.264  -3.448  1.00  0.00     0.002 A 
ATOM     21  C   UNL     1      -3.573   1.922  -3.296  1.00  0.00     0.041 A 
ATOM     22  C   UNL     1      -4.180   2.974  -3.965  1.00  0.00     0.020 A 
ATOM     23  Cl  UNL     1      -3.710   0.315  -3.901  1.00  0.00    -0.084 Cl
ENDBRANCH  16  17
ENDBRANCH  15  16
ENDBRANCH  10  15
ENDBRANCH   5   6
ENDBRANCH   3   5
ENDBRANCH   2   3
ENDBRANCH   1   2
BRANCH   1  24
ATOM     24  C   UNL     1       2.225  -2.835  -3.483  1.00  0.00     0.275 C 
BRANCH  24  25
ATOM     25  O   UNL     1       2.854  -3.372  -2.309  1.00  0.00    -0.458 OA
BRANCH  25  26
ATOM     26  C   UNL     1       3.639  -2.507  -1.624  1.00  0.00     0.338 C 
ATOM     27  O   UNL     1       3.950  -1.375  -1.956  1.00  0.00    -0.246 OA
BRANCH  26  28
ATOM     28  C   UNL     1       4.114  -3.152  -0.386  1.00  0.00     0.060 A 
ATOM     29  C   UNL     1       3.198  -3.591   0.570  1.00  0.00     0.016 A 
ATOM     30  C   UNL     1       5.479  -3.198  -0.115  1.00  0.00     0.016 A 
ATOM     31  C   UNL     1       3.630  -3.970   1.836  1.00  0.00     0.010 A 
ATOM     32  C   UNL     1       5.919  -3.682   1.121  1.00  0.00     0.010 A 
ATOM     33  C   UNL     1       4.997  -4.033   2.124  1.00  0.00    -0.014 A 
BRANCH  33  34
ATOM     34  C   UNL     1       5.456  -4.425   3.483  1.00  0.00     0.031 A 
ATOM     35  C   UNL     1       6.262  -3.463   4.316  1.00  0.00     0.074 A 
ATOM     36  C   UNL     1       5.141  -5.640   3.974  1.00  0.00     0.049 A 
ATOM     37  N   UNL     1       6.874  -3.667   5.454  1.00  0.00    -0.248 NA
ATOM     38  C   UNL     1       6.408  -2.095   3.794  1.00  0.00     0.031 C 
ATOM     39  C   UNL     1       4.330  -6.649   3.288  1.00  0.00     0.029 A 
ATOM     40  N   UNL     1       5.464  -6.234   5.168  1.00  0.00    -0.354 N 
ATOM     41  C   UNL     1       7.514  -2.472   5.762  1.00  0.00     0.074 A 
ATOM     42  C   UNL     1       7.226  -1.550   4.684  1.00  0.00     0.031 C 
ATOM     43  C   UNL     1       4.201  -7.724   4.078  1.00  0.00     0.029 A 
ATOM     44  C   UNL     1       4.981  -7.516   5.293  1.00  0.00     0.049 A 
ATOM     45  H   UNL     1       5.992  -5.787   5.869  1.00  0.00     0.167 HD
ATOM     46  C   UNL     1       8.268  -2.171   6.847  1.00  0.00     0.037 A 
ATOM     47  C   UNL     1       5.173  -8.436   6.257  1.00  0.00     0.037 A 
ATOM     48  C   UNL     1       8.514  -3.083   7.937  1.00  0.00     0.049 A 
ATOM     49  C   UNL     1       6.040  -8.090   7.434  1.00  0.00     0.074 A 
ATOM     50  C   UNL     1       9.251  -2.869   9.089  1.00  0.00     0.029 A 
ATOM     51  N   UNL     1       8.020  -4.377   8.015  1.00  0.00    -0.354 N 
ATOM     52  N   UNL     1       6.668  -6.968   7.695  1.00  0.00    -0.248 NA
ATOM     53  C   UNL     1       6.233  -9.138   8.445  1.00  0.00     0.031 C 
ATOM     54  C   UNL     1       9.234  -4.046   9.846  1.00  0.00     0.029 A 
ATOM     55  C   UNL     1       8.448  -4.978   9.189  1.00  0.00     0.049 A 
ATOM     56  H   UNL     1       7.450  -4.806   7.337  1.00  0.00     0.167 HD
ATOM     57  C   UNL     1       7.316  -7.169   8.908  1.00  0.00     0.074 A 
ATOM     58  C   UNL     1       6.988  -8.513   9.338  1.00  0.00     0.031 C 
ATOM     59  C   UNL     1       8.112  -6.318   9.602  1.00  0.00     0.037 A 
BRANCH  46  60
ATOM     60  C   UNL     1       8.910  -0.811   6.898  1.00  0.00     0.058 A 
ATOM     61  C   UNL     1       8.165   0.356   7.129  1.00  0.00     0.135 A 
ATOM     62  C   UNL     1      10.300  -0.678   6.745  1.00  0.00     0.135 A 
ATOM     63  F   UNL     1       6.831   0.291   7.267  1.00  0.00    -0.206 F 
ATOM     64  C   UNL     1       8.771   1.609   7.180  1.00  0.00     0.059 A 
ATOM     65  C   UNL     1      10.931   0.560   6.818  1.00  0.00     0.059 A 
ATOM     66  F   UNL     1      11.062  -1.761   6.522  1.00  0.00    -0.206 F 
ATOM     67  C   UNL     1      10.155   1.700   7.021  1.00  0.00     0.060 A 
BRANCH  67  68
ATOM     68  S   UNL     1      10.929   3.331   7.093  1.00  0.00     0.124 S 
ATOM     69  O   UNL     1      10.532   3.898   5.809  1.00  0.00    -0.237 OA
ATOM     70  O   UNL     1      10.300   3.925   8.269  1.00  0.00    -0.237 OA
ATOM     71  O   UNL     1      12.350   3.028   7.233  1.00  0.00    -0.744 OA
ENDBRANCH  67  68
ENDBRANCH  46  60
BRANCH  47  72
ATOM     72  C   UNL     1       4.553  -9.781   6.130  1.00  0.00     0.058 A 
ATOM     73  C   UNL     1       3.511 -10.180   6.980  1.00  0.00     0.135 A 
ATOM     74  C   UNL     1       4.977 -10.688   5.145  1.00  0.00     0.135 A 
ATOM     75  F   UNL     1       3.077  -9.352   7.942  1.00  0.00    -0.206 F 
ATOM     76  C   UNL     1       2.919 -11.434   6.867  1.00  0.00     0.059 A 
ATOM     77  C   UNL     1       4.382 -11.935   4.994  1.00  0.00     0.059 A 
ATOM     78  F   UNL     1       5.961 -10.349   4.298  1.00  0.00    -0.206 F 
ATOM     79  C   UNL     1       3.360 -12.303   5.868  1.00  0.00     0.060 A 
BRANCH  79  80
ATOM     80  S   UNL     1       2.551 -13.909   5.695  1.00  0.00     0.124 S 
ATOM     81  O   UNL     1       3.106 -14.640   6.828  1.00  0.00    -0.237 OA
ATOM     82  O   UNL     1       1.138 -13.554   5.794  1.00  0.00    -0.237 OA
ATOM     83  O   UNL     1       2.983 -14.362   4.377  1.00  0.00    -0.744 OA
ENDBRANCH  79  80
ENDBRANCH  47  72
BRANCH  59  84
ATOM     84  C   UNL     1       8.653  -6.808  10.917  1.00  0.00     0.058 A 
ATOM     85  C   UNL     1       9.667  -7.777  10.983  1.00  0.00     0.135 A 
ATOM     86  C   UNL     1       8.161  -6.289  12.125  1.00  0.00     0.135 A 
ATOM     87  F   UNL     1      10.166  -8.311   9.857  1.00  0.00    -0.206 F 
ATOM     88  C   UNL     1      10.151  -8.239  12.202  1.00  0.00     0.059 A 
ATOM     89  C   UNL     1       8.650  -6.716  13.355  1.00  0.00     0.059 A 
ATOM     90  F   UNL     1       7.199  -5.353  12.118  1.00  0.00    -0.206 F 
ATOM     91  C   UNL     1       9.633  -7.705  13.384  1.00  0.00     0.060 A 
BRANCH  91  92
ATOM     92  S   UNL     1      10.274  -8.305  14.961  1.00  0.00     0.124 S 
ATOM     93  O   UNL     1       9.621  -9.606  15.067  1.00  0.00    -0.237 OA
ATOM     94  O   UNL     1      11.714  -8.335  14.725  1.00  0.00    -0.237 OA
ATOM     95  O   UNL     1       9.823  -7.297  15.916  1.00  0.00    -0.744 OA
ENDBRANCH  91  92
ENDBRANCH  59  84
ENDBRANCH  33  34
ENDBRANCH  26  28
ENDBRANCH  25  26
ENDBRANCH  24  25
ENDBRANCH   1  24
TORSDOF 18
