REMARK SMILES CCn1c(N2CCC[C@H](C(=O)OCCOC(=O)c3ccc(-c4c5nc(c(-c6c(F)cc(S(=O)(=O)[O-])cc6F)c6ccc([nH]6)c(-c6c(F)cc(S(=O)(=O)[O-])cc6F)c6nc(c(-c7c(F)cc(S(=O)(=O)[O-])cc7F)c7ccc4[nH]7)C=C6)C=C5)cc3)C2)nc2cc(C)ccc21
REMARK SMILES IDX 14 1 13 2 12 3 10 4 11 5 9 6 5 7 6 8 84 9 7 10 8 11 4 12
REMARK SMILES IDX 3 13 92 14 85 15 86 16 91 17 87 18 90 19 88 20 89 21 2 22
REMARK SMILES IDX 1 23 15 24 16 25 17 26 18 27 19 28 83 29 20 30 82 31 21 32
REMARK SMILES IDX 22 33 23 34 76 35 24 36 81 37 75 38 77 39 25 40 80 41 74 42
REMARK SMILES IDX 73 43 26 45 60 46 39 47 59 48 40 49 43 50 58 51 78 52 41 53
REMARK SMILES IDX 42 54 57 56 79 57 44 58 27 59 28 60 37 61 29 62 30 63 36 64
REMARK SMILES IDX 38 65 31 66 32 67 33 68 34 69 35 70 61 71 62 72 71 73 63 74
REMARK SMILES IDX 64 75 70 76 72 77 65 78 66 79 67 80 68 81 69 82 45 83 46 84
REMARK SMILES IDX 55 85 47 86 48 87 54 88 56 89 49 90 50 91 51 92 52 93 53 94
REMARK H PARENT 77 44 43 55
REMARK Flexibility Score: inf
ROOT
ATOM      1  C   UNL     1       6.547  -1.387  -6.162  1.00  0.00     0.275 C 
ENDROOT
BRANCH   1   2
ATOM      2  C   UNL     1       5.241  -1.537  -5.374  1.00  0.00     0.274 C 
BRANCH   2   3
ATOM      3  O   UNL     1       4.525  -0.286  -5.390  1.00  0.00    -0.462 OA
BRANCH   3   4
ATOM      4  C   UNL     1       4.191   0.258  -4.188  1.00  0.00     0.310 C 
ATOM      5  O   UNL     1       4.527  -0.200  -3.103  1.00  0.00    -0.252 OA
BRANCH   4   6
ATOM      6  C   UNL     1       3.413   1.560  -4.335  1.00  0.00     0.119 C 
ATOM      7  N   UNL     1       1.122   0.744  -4.094  1.00  0.00    -0.341 N 
ATOM      8  C   UNL     1       0.756   1.115  -5.455  1.00  0.00     0.119 C 
ATOM      9  C   UNL     1       2.169   1.538  -3.464  1.00  0.00     0.135 C 
ATOM     10  C   UNL     1       1.971   1.188  -6.377  1.00  0.00     0.022 C 
ATOM     11  C   UNL     1       3.103   2.005  -5.765  1.00  0.00     0.019 C 
BRANCH   7  12
ATOM     12  C   UNL     1       0.945  -0.531  -3.667  1.00  0.00     0.206 A 
ATOM     13  N   UNL     1       0.406  -0.808  -2.425  1.00  0.00    -0.310 N 
ATOM     14  C   UNL     1       0.313  -2.175  -2.300  1.00  0.00     0.070 A 
ATOM     15  N   UNL     1       1.209  -1.636  -4.327  1.00  0.00    -0.213 NA
ATOM     16  C   UNL     1       0.855  -2.662  -3.483  1.00  0.00     0.091 A 
ATOM     17  C   UNL     1      -0.186  -3.013  -1.297  1.00  0.00     0.029 A 
ATOM     18  C   UNL     1       0.934  -4.052  -3.674  1.00  0.00     0.034 A 
ATOM     19  C   UNL     1      -0.110  -4.389  -1.507  1.00  0.00     0.006 A 
ATOM     20  C   UNL     1       0.436  -4.916  -2.680  1.00  0.00    -0.049 A 
ATOM     21  C   UNL     1       0.462  -6.399  -2.892  1.00  0.00     0.044 C 
BRANCH  13  22
ATOM     22  C   UNL     1      -0.097   0.154  -1.462  1.00  0.00     0.122 C 
ATOM     23  C   UNL     1       0.446  -0.049  -0.062  1.00  0.00     0.028 C 
ENDBRANCH  13  22
ENDBRANCH   7  12
ENDBRANCH   4   6
ENDBRANCH   3   4
ENDBRANCH   2   3
ENDBRANCH   1   2
BRANCH   1  24
ATOM     24  O   UNL     1       7.472  -0.605  -5.389  1.00  0.00    -0.458 OA
BRANCH  24  25
ATOM     25  C   UNL     1       7.504   0.715  -5.682  1.00  0.00     0.338 C 
ATOM     26  O   UNL     1       7.324   1.226  -6.782  1.00  0.00    -0.246 OA
BRANCH  25  27
ATOM     27  C   UNL     1       7.425   1.444  -4.399  1.00  0.00     0.060 A 
ATOM     28  C   UNL     1       7.891   0.891  -3.198  1.00  0.00     0.016 A 
ATOM     29  C   UNL     1       6.624   2.584  -4.386  1.00  0.00     0.016 A 
ATOM     30  C   UNL     1       7.426   1.389  -1.980  1.00  0.00     0.010 A 
ATOM     31  C   UNL     1       6.147   3.055  -3.171  1.00  0.00     0.010 A 
ATOM     32  C   UNL     1       6.489   2.424  -1.969  1.00  0.00    -0.014 A 
BRANCH  32  33
ATOM     33  C   UNL     1       6.078   3.054  -0.712  1.00  0.00     0.031 A 
ATOM     34  C   UNL     1       6.944   4.203  -0.389  1.00  0.00     0.074 A 
ATOM     35  C   UNL     1       5.024   2.765   0.083  1.00  0.00     0.049 A 
ATOM     36  N   UNL     1       7.896   4.204   0.484  1.00  0.00    -0.248 NA
ATOM     37  C   UNL     1       6.906   5.396  -1.248  1.00  0.00     0.031 C 
ATOM     38  C   UNL     1       4.002   1.745  -0.121  1.00  0.00     0.029 A 
ATOM     39  N   UNL     1       4.617   3.374   1.251  1.00  0.00    -0.354 N 
ATOM     40  C   UNL     1       8.401   5.490   0.446  1.00  0.00     0.074 A 
ATOM     41  C   UNL     1       7.963   6.069  -0.795  1.00  0.00     0.031 C 
ATOM     42  C   UNL     1       3.013   1.930   0.781  1.00  0.00     0.029 A 
ATOM     43  C   UNL     1       3.337   3.020   1.669  1.00  0.00     0.049 A 
ATOM     44  H   UNL     1       5.184   4.007   1.748  1.00  0.00     0.167 HD
ATOM     45  C   UNL     1       8.834   6.098   1.580  1.00  0.00     0.037 A 
ATOM     46  C   UNL     1       2.595   3.478   2.713  1.00  0.00     0.037 A 
ATOM     47  C   UNL     1       9.070   5.149   2.636  1.00  0.00     0.049 A 
ATOM     48  C   UNL     1       3.559   3.956   3.720  1.00  0.00     0.074 A 
ATOM     49  C   UNL     1       9.875   4.038   2.787  1.00  0.00     0.029 A 
ATOM     50  N   UNL     1       8.114   5.077   3.617  1.00  0.00    -0.354 N 
ATOM     51  N   UNL     1       4.341   3.166   4.399  1.00  0.00    -0.248 NA
ATOM     52  C   UNL     1       3.928   5.360   3.711  1.00  0.00     0.031 C 
ATOM     53  C   UNL     1       9.150   3.149   3.631  1.00  0.00     0.029 A 
ATOM     54  C   UNL     1       7.958   3.771   4.002  1.00  0.00     0.049 A 
ATOM     55  H   UNL     1       7.617   5.843   3.986  1.00  0.00     0.167 HD
ATOM     56  C   UNL     1       5.524   3.874   4.497  1.00  0.00     0.074 A 
ATOM     57  C   UNL     1       5.167   5.256   4.194  1.00  0.00     0.031 C 
ATOM     58  C   UNL     1       6.720   3.224   4.520  1.00  0.00     0.037 A 
BRANCH  45  59
ATOM     59  C   UNL     1       8.639   7.570   1.825  1.00  0.00     0.058 A 
ATOM     60  C   UNL     1       9.356   8.201   2.855  1.00  0.00     0.135 A 
ATOM     61  C   UNL     1       7.606   8.339   1.237  1.00  0.00     0.135 A 
ATOM     62  F   UNL     1      10.310   7.536   3.526  1.00  0.00    -0.206 F 
ATOM     63  C   UNL     1       9.071   9.502   3.266  1.00  0.00     0.059 A 
ATOM     64  C   UNL     1       7.355   9.658   1.577  1.00  0.00     0.059 A 
ATOM     65  F   UNL     1       6.725   7.818   0.374  1.00  0.00    -0.206 F 
ATOM     66  C   UNL     1       8.075  10.225   2.612  1.00  0.00     0.060 A 
BRANCH  66  67
ATOM     67  S   UNL     1       7.687  11.895   3.153  1.00  0.00     0.124 S 
ATOM     68  O   UNL     1       7.066  11.643   4.448  1.00  0.00    -0.237 OA
ATOM     69  O   UNL     1       9.007  12.515   3.183  1.00  0.00    -0.237 OA
ATOM     70  O   UNL     1       6.794  12.387   2.108  1.00  0.00    -0.744 OA
ENDBRANCH  66  67
ENDBRANCH  45  59
BRANCH  46  71
ATOM     71  C   UNL     1       1.132   3.784   2.809  1.00  0.00     0.058 A 
ATOM     72  C   UNL     1       0.553   4.193   4.032  1.00  0.00     0.135 A 
ATOM     73  C   UNL     1       0.343   3.997   1.663  1.00  0.00     0.135 A 
ATOM     74  F   UNL     1       1.218   4.026   5.185  1.00  0.00    -0.206 F 
ATOM     75  C   UNL     1      -0.679   4.857   4.101  1.00  0.00     0.059 A 
ATOM     76  C   UNL     1      -0.893   4.654   1.708  1.00  0.00     0.059 A 
ATOM     77  F   UNL     1       0.791   3.651   0.447  1.00  0.00    -0.206 F 
ATOM     78  C   UNL     1      -1.381   5.115   2.927  1.00  0.00     0.060 A 
BRANCH  78  79
ATOM     79  S   UNL     1      -2.860   6.161   2.990  1.00  0.00     0.124 S 
ATOM     80  O   UNL     1      -3.801   5.314   3.716  1.00  0.00    -0.237 OA
ATOM     81  O   UNL     1      -2.377   7.336   3.707  1.00  0.00    -0.237 OA
ATOM     82  O   UNL     1      -3.178   6.381   1.581  1.00  0.00    -0.744 OA
ENDBRANCH  78  79
ENDBRANCH  46  71
BRANCH  58  83
ATOM     83  C   UNL     1       6.743   1.772   4.922  1.00  0.00     0.058 A 
ATOM     84  C   UNL     1       6.218   0.709   4.166  1.00  0.00     0.135 A 
ATOM     85  C   UNL     1       7.506   1.441   6.053  1.00  0.00     0.135 A 
ATOM     86  F   UNL     1       5.525   0.936   3.040  1.00  0.00    -0.206 F 
ATOM     87  C   UNL     1       6.457  -0.624   4.517  1.00  0.00     0.059 A 
ATOM     88  C   UNL     1       7.781   0.124   6.403  1.00  0.00     0.059 A 
ATOM     89  F   UNL     1       8.059   2.415   6.797  1.00  0.00    -0.206 F 
ATOM     90  C   UNL     1       7.258  -0.906   5.626  1.00  0.00     0.060 A 
BRANCH  90  91
ATOM     91  S   UNL     1       7.697  -2.620   5.993  1.00  0.00     0.124 S 
ATOM     92  O   UNL     1       6.426  -3.175   6.447  1.00  0.00    -0.237 OA
ATOM     93  O   UNL     1       8.178  -3.106   4.703  1.00  0.00    -0.237 OA
ATOM     94  O   UNL     1       8.726  -2.498   7.023  1.00  0.00    -0.744 OA
ENDBRANCH  90  91
ENDBRANCH  58  83
ENDBRANCH  32  33
ENDBRANCH  25  27
ENDBRANCH  24  25
ENDBRANCH   1  24
TORSDOF 16
