REMARK SMILES C[C@@H](CC(=O)OCCOC(=O)c1ccc(-c2c3nc(c(-c4c(F)cc(S(=O)(=O)[O-])cc4F)c4ccc([nH]4)c(-c4c(F)cc(S(=O)(=O)[O-])cc4F)c4nc(c(-c5c(F)cc(S(=O)(=O)[O-])cc5F)c5ccc2[nH]5)C=C4)C=C3)cc1)CC(=O)N1C[C@H](C)[C@@H](C)C1
REMARK SMILES IDX 7 1 6 2 4 3 5 4 3 5 2 6 1 7 78 8 79 9 80 10 81 11 82 12
REMARK SMILES IDX 87 13 83 14 85 15 84 16 86 17 8 18 9 19 10 20 11 21 12 22
REMARK SMILES IDX 13 23 77 24 14 25 76 26 15 27 16 28 17 29 70 30 18 31 75 32
REMARK SMILES IDX 69 33 71 34 19 35 74 36 68 37 67 38 20 40 54 41 33 42 53 43
REMARK SMILES IDX 34 44 37 45 52 46 72 47 35 48 36 49 51 51 73 52 38 53 21 54
REMARK SMILES IDX 22 55 31 56 23 57 24 58 30 59 32 60 25 61 26 62 27 63 28 64
REMARK SMILES IDX 29 65 55 66 56 67 65 68 57 69 58 70 64 71 66 72 59 73 60 74
REMARK SMILES IDX 61 75 62 76 63 77 39 78 40 79 49 80 41 81 42 82 48 83 50 84
REMARK SMILES IDX 43 85 44 86 45 87 46 88 47 89
REMARK H PARENT 71 39 37 50
REMARK Flexibility Score: inf
ROOT
ATOM      1  C   UNL     1       0.653   1.794   3.654  1.00  0.00     0.274 C 
ENDROOT
BRANCH   1   2
ATOM      2  O   UNL     1       0.877   0.797   2.637  1.00  0.00    -0.462 OA
BRANCH   2   3
ATOM      3  C   UNL     1       1.375  -0.398   3.039  1.00  0.00     0.306 C 
ATOM      4  O   UNL     1       1.696  -0.663   4.191  1.00  0.00    -0.252 OA
BRANCH   3   5
ATOM      5  C   UNL     1       1.469  -1.427   1.920  1.00  0.00     0.126 C 
BRANCH   5   6
ATOM      6  C   UNL     1       1.196  -0.973   0.469  1.00  0.00     0.006 C 
ATOM      7  C   UNL     1       2.283   0.027   0.060  1.00  0.00     0.009 C 
BRANCH   6   8
ATOM      8  C   UNL     1      -0.244  -0.449   0.309  1.00  0.00     0.104 C 
BRANCH   8   9
ATOM      9  C   UNL     1      -0.978  -0.685  -1.006  1.00  0.00     0.222 C 
ATOM     10  O   UNL     1      -1.726  -1.651  -1.146  1.00  0.00    -0.275 OA
ATOM     11  N   UNL     1      -0.877   0.311  -1.952  1.00  0.00    -0.342 N 
ATOM     12  C   UNL     1      -1.953   0.611  -2.876  1.00  0.00     0.123 C 
ATOM     13  C   UNL     1       0.363   0.928  -2.357  1.00  0.00     0.123 C 
ATOM     14  C   UNL     1      -1.263   1.121  -4.140  1.00  0.00     0.010 C 
ATOM     15  C   UNL     1       0.058   1.724  -3.625  1.00  0.00     0.010 C 
ATOM     16  C   UNL     1      -1.027  -0.034  -5.112  1.00  0.00     0.010 C 
ATOM     17  C   UNL     1      -0.050   3.215  -3.314  1.00  0.00     0.010 C 
ENDBRANCH   8   9
ENDBRANCH   6   8
ENDBRANCH   5   6
ENDBRANCH   3   5
ENDBRANCH   2   3
ENDBRANCH   1   2
BRANCH   1  18
ATOM     18  C   UNL     1      -0.839   1.925   3.949  1.00  0.00     0.275 C 
BRANCH  18  19
ATOM     19  O   UNL     1      -1.340   0.675   4.451  1.00  0.00    -0.458 OA
BRANCH  19  20
ATOM     20  C   UNL     1      -2.273   0.072   3.678  1.00  0.00     0.338 C 
ATOM     21  O   UNL     1      -2.782   0.503   2.659  1.00  0.00    -0.246 OA
BRANCH  20  22
ATOM     22  C   UNL     1      -2.583  -1.250   4.238  1.00  0.00     0.060 A 
ATOM     23  C   UNL     1      -1.658  -2.285   4.097  1.00  0.00     0.016 A 
ATOM     24  C   UNL     1      -3.841  -1.494   4.785  1.00  0.00     0.016 A 
ATOM     25  C   UNL     1      -2.012  -3.588   4.434  1.00  0.00     0.010 A 
ATOM     26  C   UNL     1      -4.173  -2.791   5.182  1.00  0.00     0.010 A 
ATOM     27  C   UNL     1      -3.276  -3.855   4.974  1.00  0.00    -0.014 A 
BRANCH  27  28
ATOM     28  C   UNL     1      -3.695  -5.252   5.251  1.00  0.00     0.031 A 
ATOM     29  C   UNL     1      -4.809  -5.864   4.446  1.00  0.00     0.074 A 
ATOM     30  C   UNL     1      -3.080  -5.968   6.212  1.00  0.00     0.049 A 
ATOM     31  N   UNL     1      -5.440  -6.995   4.632  1.00  0.00    -0.248 NA
ATOM     32  C   UNL     1      -5.283  -5.096   3.284  1.00  0.00     0.031 C 
ATOM     33  C   UNL     1      -1.955  -5.503   7.025  1.00  0.00     0.029 A 
ATOM     34  N   UNL     1      -3.320  -7.238   6.670  1.00  0.00    -0.354 N 
ATOM     35  C   UNL     1      -6.414  -7.052   3.641  1.00  0.00     0.074 A 
ATOM     36  C   UNL     1      -6.293  -5.841   2.858  1.00  0.00     0.031 C 
ATOM     37  C   UNL     1      -1.598  -6.477   7.878  1.00  0.00     0.029 A 
ATOM     38  C   UNL     1      -2.506  -7.608   7.714  1.00  0.00     0.049 A 
ATOM     39  H   UNL     1      -4.010  -7.828   6.289  1.00  0.00     0.167 HD
ATOM     40  C   UNL     1      -7.326  -8.027   3.410  1.00  0.00     0.037 A 
ATOM     41  C   UNL     1      -2.514  -8.718   8.476  1.00  0.00     0.037 A 
ATOM     42  C   UNL     1      -7.410  -9.247   4.170  1.00  0.00     0.049 A 
ATOM     43  C   UNL     1      -3.543  -9.781   8.210  1.00  0.00     0.074 A 
ATOM     44  C   UNL     1      -8.296 -10.299   4.019  1.00  0.00     0.029 A 
ATOM     45  N   UNL     1      -6.562  -9.585   5.215  1.00  0.00    -0.354 N 
ATOM     46  N   UNL     1      -4.492  -9.800   7.305  1.00  0.00    -0.248 NA
ATOM     47  C   UNL     1      -3.511 -10.969   9.074  1.00  0.00     0.031 C 
ATOM     48  C   UNL     1      -7.998 -11.264   4.989  1.00  0.00     0.029 A 
ATOM     49  C   UNL     1      -6.905 -10.828   5.720  1.00  0.00     0.049 A 
ATOM     50  H   UNL     1      -5.825  -9.024   5.548  1.00  0.00     0.167 HD
ATOM     51  C   UNL     1      -5.159 -11.006   7.478  1.00  0.00     0.074 A 
ATOM     52  C   UNL     1      -4.498 -11.696   8.568  1.00  0.00     0.031 C 
ATOM     53  C   UNL     1      -6.224 -11.499   6.799  1.00  0.00     0.037 A 
BRANCH  40  54
ATOM     54  C   UNL     1      -8.326  -7.796   2.312  1.00  0.00     0.058 A 
ATOM     55  C   UNL     1      -7.976  -7.888   0.957  1.00  0.00     0.135 A 
ATOM     56  C   UNL     1      -9.663  -7.497   2.625  1.00  0.00     0.135 A 
ATOM     57  F   UNL     1      -6.709  -8.155   0.603  1.00  0.00    -0.206 F 
ATOM     58  C   UNL     1      -8.910  -7.668  -0.052  1.00  0.00     0.059 A 
ATOM     59  C   UNL     1     -10.618  -7.295   1.633  1.00  0.00     0.059 A 
ATOM     60  F   UNL     1     -10.051  -7.395   3.906  1.00  0.00    -0.206 F 
ATOM     61  C   UNL     1     -10.229  -7.368   0.296  1.00  0.00     0.060 A 
BRANCH  61  62
ATOM     62  S   UNL     1     -11.435  -7.086  -1.018  1.00  0.00     0.124 S 
ATOM     63  O   UNL     1     -11.093  -5.732  -1.442  1.00  0.00    -0.237 OA
ATOM     64  O   UNL     1     -11.119  -8.146  -1.970  1.00  0.00    -0.237 OA
ATOM     65  O   UNL     1     -12.718  -7.224  -0.336  1.00  0.00    -0.744 OA
ENDBRANCH  61  62
ENDBRANCH  40  54
BRANCH  41  66
ATOM     66  C   UNL     1      -1.528  -8.864   9.579  1.00  0.00     0.058 A 
ATOM     67  C   UNL     1      -0.469  -9.778   9.485  1.00  0.00     0.135 A 
ATOM     68  C   UNL     1      -1.611  -8.074  10.736  1.00  0.00     0.135 A 
ATOM     69  F   UNL     1      -0.353 -10.561   8.402  1.00  0.00    -0.206 F 
ATOM     70  C   UNL     1       0.471  -9.909  10.502  1.00  0.00     0.059 A 
ATOM     71  C   UNL     1      -0.670  -8.171  11.756  1.00  0.00     0.059 A 
ATOM     72  F   UNL     1      -2.600  -7.176  10.868  1.00  0.00    -0.206 F 
ATOM     73  C   UNL     1       0.364  -9.098  11.633  1.00  0.00     0.060 A 
BRANCH  73  74
ATOM     74  S   UNL     1       1.622  -9.228  12.923  1.00  0.00     0.124 S 
ATOM     75  O   UNL     1       1.209 -10.444  13.614  1.00  0.00    -0.237 OA
ATOM     76  O   UNL     1       2.854  -9.323  12.146  1.00  0.00    -0.237 OA
ATOM     77  O   UNL     1       1.459  -7.987  13.674  1.00  0.00    -0.744 OA
ENDBRANCH  73  74
ENDBRANCH  41  66
BRANCH  53  78
ATOM     78  C   UNL     1      -6.714 -12.863   7.191  1.00  0.00     0.058 A 
ATOM     79  C   UNL     1      -7.472 -13.065   8.354  1.00  0.00     0.135 A 
ATOM     80  C   UNL     1      -6.453 -13.973   6.372  1.00  0.00     0.135 A 
ATOM     81  F   UNL     1      -7.742 -12.036   9.172  1.00  0.00    -0.206 F 
ATOM     82  C   UNL     1      -7.938 -14.329   8.704  1.00  0.00     0.059 A 
ATOM     83  C   UNL     1      -6.925 -15.241   6.692  1.00  0.00     0.059 A 
ATOM     84  F   UNL     1      -5.739 -13.827   5.245  1.00  0.00    -0.206 F 
ATOM     85  C   UNL     1      -7.657 -15.411   7.867  1.00  0.00     0.060 A 
BRANCH  85  86
ATOM     86  S   UNL     1      -8.286 -17.043   8.315  1.00  0.00     0.124 S 
ATOM     87  O   UNL     1      -7.337 -17.450   9.346  1.00  0.00    -0.237 OA
ATOM     88  O   UNL     1      -9.637 -16.745   8.780  1.00  0.00    -0.237 OA
ATOM     89  O   UNL     1      -8.213 -17.789   7.062  1.00  0.00    -0.744 OA
ENDBRANCH  85  86
ENDBRANCH  53  78
ENDBRANCH  27  28
ENDBRANCH  20  22
ENDBRANCH  19  20
ENDBRANCH  18  19
ENDBRANCH   1  18
TORSDOF 17
