REMARK SMILES O=C(OCCOC(=O)c1ccc(-c2c3nc(c(-c4c(F)cc(S(=O)(=O)[O-])cc4F)c4ccc([nH]4)c(-c4c(F)cc(S(=O)(=O)[O-])cc4F)c4nc(c(-c5c(F)cc(S(=O)(=O)[O-])cc5F)c5ccc2[nH]5)C=C4)C=C3)cc1)C1=CCc2ccccc21
REMARK SMILES IDX 6 1 5 2 4 3 3 4 2 5 1 6 75 7 76 8 83 9 77 10 78 11 82 12
REMARK SMILES IDX 79 13 81 14 80 15 7 16 8 17 9 18 10 19 74 20 11 21 73 22
REMARK SMILES IDX 12 23 13 24 14 25 67 26 15 27 72 28 66 29 68 30 16 31 71 32
REMARK SMILES IDX 65 33 64 34 17 36 51 37 30 38 50 39 31 40 34 41 49 42 69 43
REMARK SMILES IDX 32 44 33 45 48 47 70 48 35 49 18 50 19 51 28 52 20 53 21 54
REMARK SMILES IDX 27 55 29 56 22 57 23 58 24 59 25 60 26 61 52 62 53 63 62 64
REMARK SMILES IDX 54 65 55 66 61 67 63 68 56 69 57 70 58 71 59 72 60 73 36 74
REMARK SMILES IDX 37 75 46 76 38 77 39 78 45 79 47 80 40 81 41 82 42 83 43 84
REMARK SMILES IDX 44 85
REMARK H PARENT 68 35 34 46
REMARK Flexibility Score: inf
ROOT
ATOM      1  O   UNL     1       2.923  -0.144   2.255  1.00  0.00    -0.458 OA
ENDROOT
BRANCH   1   2
ATOM      2  C   UNL     1       2.907   1.295   2.396  1.00  0.00     0.275 C 
BRANCH   2   3
ATOM      3  C   UNL     1       3.470   2.025   1.163  1.00  0.00     0.275 C 
BRANCH   3   4
ATOM      4  O   UNL     1       3.074   1.426  -0.067  1.00  0.00    -0.458 OA
BRANCH   4   5
ATOM      5  C   UNL     1       3.514   0.240  -0.535  1.00  0.00     0.338 C 
ATOM      6  O   UNL     1       2.750  -0.393  -1.266  1.00  0.00    -0.246 OA
BRANCH   5   7
ATOM      7  C   UNL     1       4.898  -0.263  -0.328  1.00  0.00     0.063 C 
ATOM      8  C   UNL     1       5.351  -1.062  -1.323  1.00  0.00    -0.006 C 
ATOM      9  C   UNL     1       5.838  -0.437   0.802  1.00  0.00    -0.008 A 
ATOM     10  C   UNL     1       6.552  -1.874  -0.962  1.00  0.00     0.064 C 
ATOM     11  C   UNL     1       6.737  -1.467   0.462  1.00  0.00    -0.036 A 
ATOM     12  C   UNL     1       6.006   0.144   2.051  1.00  0.00     0.009 A 
ATOM     13  C   UNL     1       7.657  -2.003   1.357  1.00  0.00     0.004 A 
ATOM     14  C   UNL     1       6.944  -0.362   2.963  1.00  0.00     0.001 A 
ATOM     15  C   UNL     1       7.740  -1.455   2.631  1.00  0.00     0.000 A 
ENDBRANCH   5   7
ENDBRANCH   4   5
ENDBRANCH   3   4
ENDBRANCH   2   3
ENDBRANCH   1   2
BRANCH   1  16
ATOM     16  C   UNL     1       1.695  -0.703   2.087  1.00  0.00     0.338 C 
ATOM     17  O   UNL     1       0.635  -0.097   2.161  1.00  0.00    -0.246 OA
BRANCH  16  18
ATOM     18  C   UNL     1       1.734  -2.149   1.737  1.00  0.00     0.060 A 
ATOM     19  C   UNL     1       0.684  -2.613   0.936  1.00  0.00     0.016 A 
ATOM     20  C   UNL     1       2.661  -3.067   2.243  1.00  0.00     0.016 A 
ATOM     21  C   UNL     1       0.499  -3.980   0.714  1.00  0.00     0.010 A 
ATOM     22  C   UNL     1       2.481  -4.449   2.003  1.00  0.00     0.010 A 
ATOM     23  C   UNL     1       1.370  -4.923   1.276  1.00  0.00    -0.014 A 
BRANCH  23  24
ATOM     24  C   UNL     1       1.013  -6.374   1.171  1.00  0.00     0.031 A 
ATOM     25  C   UNL     1       0.482  -7.117   2.376  1.00  0.00     0.074 A 
ATOM     26  C   UNL     1       1.035  -7.015  -0.016  1.00  0.00     0.049 A 
ATOM     27  N   UNL     1       0.004  -8.336   2.457  1.00  0.00    -0.248 NA
ATOM     28  C   UNL     1       0.480  -6.391   3.655  1.00  0.00     0.031 C 
ATOM     29  C   UNL     1       1.482  -6.436  -1.281  1.00  0.00     0.029 A 
ATOM     30  N   UNL     1       0.650  -8.294  -0.354  1.00  0.00    -0.354 N 
ATOM     31  C   UNL     1      -0.361  -8.521   3.786  1.00  0.00     0.074 A 
ATOM     32  C   UNL     1      -0.008  -7.303   4.485  1.00  0.00     0.031 C 
ATOM     33  C   UNL     1       1.331  -7.347  -2.258  1.00  0.00     0.029 A 
ATOM     34  C   UNL     1       0.800  -8.586  -1.690  1.00  0.00     0.049 A 
ATOM     35  H   UNL     1       0.298  -8.940   0.301  1.00  0.00     0.167 HD
ATOM     36  C   UNL     1      -0.952  -9.591   4.374  1.00  0.00     0.037 A 
ATOM     37  C   UNL     1       0.547  -9.716  -2.385  1.00  0.00     0.037 A 
ATOM     38  C   UNL     1      -1.323 -10.809   3.697  1.00  0.00     0.049 A 
ATOM     39  C   UNL     1      -0.043 -10.921  -1.695  1.00  0.00     0.074 A 
ATOM     40  C   UNL     1      -1.956 -11.924   4.224  1.00  0.00     0.029 A 
ATOM     41  N   UNL     1      -1.090 -11.085   2.359  1.00  0.00    -0.354 N 
ATOM     42  N   UNL     1      -0.420 -11.058  -0.447  1.00  0.00    -0.248 NA
ATOM     43  C   UNL     1      -0.249 -12.127  -2.514  1.00  0.00     0.031 C 
ATOM     44  C   UNL     1      -2.054 -12.894   3.221  1.00  0.00     0.029 A 
ATOM     45  C   UNL     1      -1.535 -12.363   2.053  1.00  0.00     0.049 A 
ATOM     46  H   UNL     1      -0.671 -10.464   1.720  1.00  0.00     0.167 HD
ATOM     47  C   UNL     1      -0.931 -12.350  -0.340  1.00  0.00     0.074 A 
ATOM     48  C   UNL     1      -0.827 -12.952  -1.651  1.00  0.00     0.031 C 
ATOM     49  C   UNL     1      -1.442 -12.974   0.750  1.00  0.00     0.037 A 
BRANCH  36  50
ATOM     50  C   UNL     1      -1.230  -9.507   5.851  1.00  0.00     0.058 A 
ATOM     51  C   UNL     1      -2.252  -8.693   6.365  1.00  0.00     0.135 A 
ATOM     52  C   UNL     1      -0.502 -10.295   6.757  1.00  0.00     0.135 A 
ATOM     53  F   UNL     1      -2.973  -7.913   5.544  1.00  0.00    -0.206 F 
ATOM     54  C   UNL     1      -2.522  -8.640   7.729  1.00  0.00     0.059 A 
ATOM     55  C   UNL     1      -0.773 -10.279   8.122  1.00  0.00     0.059 A 
ATOM     56  F   UNL     1       0.481 -11.097   6.318  1.00  0.00    -0.206 F 
ATOM     57  C   UNL     1      -1.775  -9.436   8.600  1.00  0.00     0.060 A 
BRANCH  57  58
ATOM     58  S   UNL     1      -2.135  -9.354  10.367  1.00  0.00     0.124 S 
ATOM     59  O   UNL     1      -1.593  -8.044  10.713  1.00  0.00    -0.237 OA
ATOM     60  O   UNL     1      -3.590  -9.465  10.396  1.00  0.00    -0.237 OA
ATOM     61  O   UNL     1      -1.411 -10.497  10.916  1.00  0.00    -0.744 OA
ENDBRANCH  57  58
ENDBRANCH  36  50
BRANCH  37  62
ATOM     62  C   UNL     1       0.866  -9.779  -3.839  1.00  0.00     0.058 A 
ATOM     63  C   UNL     1      -0.145  -9.867  -4.807  1.00  0.00     0.135 A 
ATOM     64  C   UNL     1       2.198  -9.782  -4.283  1.00  0.00     0.135 A 
ATOM     65  F   UNL     1      -1.433  -9.889  -4.431  1.00  0.00    -0.206 F 
ATOM     66  C   UNL     1       0.151  -9.973  -6.163  1.00  0.00     0.059 A 
ATOM     67  C   UNL     1       2.518  -9.859  -5.634  1.00  0.00     0.059 A 
ATOM     68  F   UNL     1       3.203  -9.698  -3.398  1.00  0.00    -0.206 F 
ATOM     69  C   UNL     1       1.487  -9.965  -6.567  1.00  0.00     0.060 A 
BRANCH  69  70
ATOM     70  S   UNL     1       1.863 -10.062  -8.330  1.00  0.00     0.124 S 
ATOM     71  O   UNL     1       1.561 -11.459  -8.620  1.00  0.00    -0.237 OA
ATOM     72  O   UNL     1       0.943  -9.079  -8.895  1.00  0.00    -0.237 OA
ATOM     73  O   UNL     1       3.275  -9.695  -8.393  1.00  0.00    -0.744 OA
ENDBRANCH  69  70
ENDBRANCH  37  62
BRANCH  49  74
ATOM     74  C   UNL     1      -1.963 -14.380   0.584  1.00  0.00     0.058 A 
ATOM     75  C   UNL     1      -1.103 -15.472   0.383  1.00  0.00     0.135 A 
ATOM     76  C   UNL     1      -3.340 -14.649   0.681  1.00  0.00     0.135 A 
ATOM     77  F   UNL     1       0.221 -15.278   0.277  1.00  0.00    -0.206 F 
ATOM     78  C   UNL     1      -1.588 -16.772   0.262  1.00  0.00     0.059 A 
ATOM     79  C   UNL     1      -3.845 -15.944   0.592  1.00  0.00     0.059 A 
ATOM     80  F   UNL     1      -4.211 -13.647   0.884  1.00  0.00    -0.206 F 
ATOM     81  C   UNL     1      -2.962 -16.999   0.370  1.00  0.00     0.060 A 
BRANCH  81  82
ATOM     82  S   UNL     1      -3.574 -18.695   0.247  1.00  0.00     0.124 S 
ATOM     83  O   UNL     1      -3.420 -18.962  -1.179  1.00  0.00    -0.237 OA
ATOM     84  O   UNL     1      -2.665 -19.421   1.129  1.00  0.00    -0.237 OA
ATOM     85  O   UNL     1      -4.951 -18.596   0.721  1.00  0.00    -0.744 OA
ENDBRANCH  81  82
ENDBRANCH  49  74
ENDBRANCH  23  24
ENDBRANCH  16  18
ENDBRANCH   1  16
TORSDOF 14
