REMARK SMILES Cc1ccc(S(=O)(=O)N[C@H]2C=C[C@@H](C(=O)OCCOC(=O)c3ccc(-c4c5nc(c(-c6c(F)cc(S(=O)(=O)[O-])cc6F)c6ccc([nH]6)c(-c6c(F)cc(S(=O)(=O)[O-])cc6F)c6nc(c(-c7c(F)cc(S(=O)(=O)[O-])cc7F)c7ccc4[nH]7)C=C6)C=C5)cc3)C2)c(C)c1
REMARK SMILES IDX 17 1 16 2 14 3 15 4 13 5 10 6 11 7 88 8 12 9 9 10 6 12 7 13
REMARK SMILES IDX 8 14 5 15 1 16 2 17 3 18 91 19 4 20 89 21 90 22 18 23 19 24
REMARK SMILES IDX 20 25 21 26 22 27 23 28 87 29 24 30 86 31 25 32 26 33 27 34
REMARK SMILES IDX 80 35 28 36 85 37 79 38 81 39 29 40 84 41 78 42 77 43 30 45
REMARK SMILES IDX 64 46 43 47 63 48 44 49 47 50 62 51 82 52 45 53 46 54 61 56
REMARK SMILES IDX 83 57 48 58 31 59 32 60 41 61 33 62 34 63 40 64 42 65 35 66
REMARK SMILES IDX 36 67 37 68 38 69 39 70 65 71 66 72 75 73 67 74 68 75 74 76
REMARK SMILES IDX 76 77 69 78 70 79 71 80 72 81 73 82 49 83 50 84 59 85 51 86
REMARK SMILES IDX 52 87 58 88 60 89 53 90 54 91 55 92 56 93 57 94
REMARK H PARENT 9 11 81 44 47 55
REMARK Flexibility Score: inf
ROOT
ATOM      1  C   UNL     1      -5.604  -7.160   3.462  1.00  0.00     0.274 C 
ENDROOT
BRANCH   1   2
ATOM      2  O   UNL     1      -4.580  -6.280   2.967  1.00  0.00    -0.462 OA
BRANCH   2   3
ATOM      3  C   UNL     1      -3.746  -5.734   3.887  1.00  0.00     0.312 C 
ATOM      4  O   UNL     1      -3.884  -5.843   5.101  1.00  0.00    -0.252 OA
BRANCH   3   5
ATOM      5  C   UNL     1      -2.564  -5.002   3.264  1.00  0.00     0.123 C 
ATOM      6  C   UNL     1      -1.838  -3.729   1.314  1.00  0.00     0.093 C 
ATOM      7  C   UNL     1      -2.168  -2.847   2.468  1.00  0.00    -0.011 C 
ATOM      8  C   UNL     1      -2.398  -5.090   1.747  1.00  0.00     0.043 C 
ATOM      9  C   UNL     1      -2.591  -3.535   3.532  1.00  0.00    -0.015 C 
BRANCH   6  10
ATOM     10  N   UNL     1      -2.460  -3.349   0.056  1.00  0.00    -0.204 NA
ATOM     11  H   UNL     1      -1.840  -3.710  -0.669  1.00  0.00     0.142 HD
BRANCH  10  12
ATOM     12  S   UNL     1      -2.835  -1.798  -0.424  1.00  0.00     0.241 S 
ATOM     13  O   UNL     1      -3.741  -1.250   0.566  1.00  0.00    -0.207 OA
ATOM     14  O   UNL     1      -3.212  -1.894  -1.814  1.00  0.00    -0.207 OA
BRANCH  12  15
ATOM     15  C   UNL     1      -1.299  -0.890  -0.368  1.00  0.00     0.085 A 
ATOM     16  C   UNL     1       2.494   1.123   0.042  1.00  0.00     0.044 C 
ATOM     17  C   UNL     1       1.181   0.411  -0.105  1.00  0.00    -0.051 A 
ATOM     18  C   UNL     1       1.133  -0.958  -0.369  1.00  0.00     0.005 A 
ATOM     19  C   UNL     1      -0.018   1.129  -0.019  1.00  0.00     0.008 A 
ATOM     20  C   UNL     1      -0.096  -1.602  -0.509  1.00  0.00     0.022 A 
ATOM     21  C   UNL     1      -1.272   0.500  -0.159  1.00  0.00    -0.031 A 
ATOM     22  C   UNL     1      -2.484   1.388  -0.099  1.00  0.00     0.046 C 
ENDBRANCH  12  15
ENDBRANCH  10  12
ENDBRANCH   6  10
ENDBRANCH   3   5
ENDBRANCH   2   3
ENDBRANCH   1   2
BRANCH   1  23
ATOM     23  C   UNL     1      -5.258  -8.617   3.139  1.00  0.00     0.275 C 
BRANCH  23  24
ATOM     24  O   UNL     1      -4.086  -9.066   3.849  1.00  0.00    -0.458 OA
BRANCH  24  25
ATOM     25  C   UNL     1      -2.917  -8.895   3.187  1.00  0.00     0.338 C 
ATOM     26  O   UNL     1      -2.762  -8.412   2.077  1.00  0.00    -0.246 OA
BRANCH  25  27
ATOM     27  C   UNL     1      -1.780  -9.248   4.050  1.00  0.00     0.060 A 
ATOM     28  C   UNL     1      -0.941  -8.213   4.462  1.00  0.00     0.016 A 
ATOM     29  C   UNL     1      -1.453 -10.570   4.339  1.00  0.00     0.016 A 
ATOM     30  C   UNL     1       0.248  -8.483   5.124  1.00  0.00     0.010 A 
ATOM     31  C   UNL     1      -0.272 -10.844   5.043  1.00  0.00     0.010 A 
ATOM     32  C   UNL     1       0.596  -9.803   5.426  1.00  0.00    -0.014 A 
BRANCH  32  33
ATOM     33  C   UNL     1       1.887 -10.071   6.109  1.00  0.00     0.031 A 
ATOM     34  C   UNL     1       2.987 -10.794   5.381  1.00  0.00     0.074 A 
ATOM     35  C   UNL     1       2.086  -9.614   7.361  1.00  0.00     0.049 A 
ATOM     36  N   UNL     1       4.142 -11.208   5.834  1.00  0.00    -0.248 NA
ATOM     37  C   UNL     1       2.760 -11.092   3.958  1.00  0.00     0.031 C 
ATOM     38  C   UNL     1       1.116  -8.845   8.146  1.00  0.00     0.029 A 
ATOM     39  N   UNL     1       3.171  -9.723   8.195  1.00  0.00    -0.354 N 
ATOM     40  C   UNL     1       4.770 -11.832   4.762  1.00  0.00     0.074 A 
ATOM     41  C   UNL     1       3.860 -11.762   3.640  1.00  0.00     0.031 C 
ATOM     42  C   UNL     1       1.652  -8.545   9.339  1.00  0.00     0.029 A 
ATOM     43  C   UNL     1       2.973  -9.155   9.432  1.00  0.00     0.049 A 
ATOM     44  H   UNL     1       4.010 -10.166   7.933  1.00  0.00     0.167 HD
ATOM     45  C   UNL     1       5.998 -12.403   4.721  1.00  0.00     0.037 A 
ATOM     46  C   UNL     1       3.751  -9.161  10.532  1.00  0.00     0.037 A 
ATOM     47  C   UNL     1       6.904 -12.447   5.840  1.00  0.00     0.049 A 
ATOM     48  C   UNL     1       5.079  -9.869  10.478  1.00  0.00     0.074 A 
ATOM     49  C   UNL     1       8.164 -13.019   5.906  1.00  0.00     0.029 A 
ATOM     50  N   UNL     1       6.655 -11.889   7.085  1.00  0.00    -0.354 N 
ATOM     51  N   UNL     1       5.643 -10.487   9.467  1.00  0.00    -0.248 NA
ATOM     52  C   UNL     1       5.872  -9.887  11.714  1.00  0.00     0.031 C 
ATOM     53  C   UNL     1       8.660 -12.838   7.200  1.00  0.00     0.029 A 
ATOM     54  C   UNL     1       7.731 -12.111   7.928  1.00  0.00     0.049 A 
ATOM     55  H   UNL     1       5.834 -11.406   7.333  1.00  0.00     0.167 HD
ATOM     56  C   UNL     1       6.869 -10.943   9.939  1.00  0.00     0.074 A 
ATOM     57  C   UNL     1       6.971 -10.514  11.319  1.00  0.00     0.031 C 
ATOM     58  C   UNL     1       7.822 -11.657   9.292  1.00  0.00     0.037 A 
BRANCH  45  59
ATOM     59  C   UNL     1       6.436 -13.041   3.431  1.00  0.00     0.058 A 
ATOM     60  C   UNL     1       6.812 -12.273   2.319  1.00  0.00     0.135 A 
ATOM     61  C   UNL     1       6.549 -14.438   3.331  1.00  0.00     0.135 A 
ATOM     62  F   UNL     1       6.704 -10.935   2.353  1.00  0.00    -0.206 F 
ATOM     63  C   UNL     1       7.278 -12.867   1.150  1.00  0.00     0.059 A 
ATOM     64  C   UNL     1       7.036 -15.052   2.180  1.00  0.00     0.059 A 
ATOM     65  F   UNL     1       6.199 -15.220   4.364  1.00  0.00    -0.206 F 
ATOM     66  C   UNL     1       7.392 -14.257   1.092  1.00  0.00     0.060 A 
BRANCH  66  67
ATOM     67  S   UNL     1       8.033 -15.007  -0.420  1.00  0.00     0.124 S 
ATOM     68  O   UNL     1       6.921 -14.798  -1.343  1.00  0.00    -0.237 OA
ATOM     69  O   UNL     1       9.228 -14.212  -0.680  1.00  0.00    -0.237 OA
ATOM     70  O   UNL     1       8.276 -16.394  -0.037  1.00  0.00    -0.744 OA
ENDBRANCH  66  67
ENDBRANCH  45  59
BRANCH  46  71
ATOM     71  C   UNL     1       3.282  -8.524  11.793  1.00  0.00     0.058 A 
ATOM     72  C   UNL     1       3.936  -7.405  12.329  1.00  0.00     0.135 A 
ATOM     73  C   UNL     1       2.192  -9.047  12.508  1.00  0.00     0.135 A 
ATOM     74  F   UNL     1       4.986  -6.870  11.688  1.00  0.00    -0.206 F 
ATOM     75  C   UNL     1       3.553  -6.851  13.547  1.00  0.00     0.059 A 
ATOM     76  C   UNL     1       1.770  -8.491  13.710  1.00  0.00     0.059 A 
ATOM     77  F   UNL     1       1.521 -10.108  12.032  1.00  0.00    -0.206 F 
ATOM     78  C   UNL     1       2.471  -7.407  14.233  1.00  0.00     0.060 A 
BRANCH  78  79
ATOM     79  S   UNL     1       1.982  -6.688  15.816  1.00  0.00     0.124 S 
ATOM     80  O   UNL     1       3.032  -7.184  16.698  1.00  0.00    -0.237 OA
ATOM     81  O   UNL     1       2.013  -5.257  15.527  1.00  0.00    -0.237 OA
ATOM     82  O   UNL     1       0.652  -7.246  16.040  1.00  0.00    -0.744 OA
ENDBRANCH  78  79
ENDBRANCH  46  71
BRANCH  58  83
ATOM     83  C   UNL     1       9.080 -11.973  10.053  1.00  0.00     0.058 A 
ATOM     84  C   UNL     1       9.101 -12.927  11.081  1.00  0.00     0.135 A 
ATOM     85  C   UNL     1      10.287 -11.336   9.722  1.00  0.00     0.135 A 
ATOM     86  F   UNL     1       7.973 -13.558  11.442  1.00  0.00    -0.206 F 
ATOM     87  C   UNL     1      10.271 -13.220  11.775  1.00  0.00     0.059 A 
ATOM     88  C   UNL     1      11.474 -11.634  10.382  1.00  0.00     0.059 A 
ATOM     89  F   UNL     1      10.322 -10.422   8.738  1.00  0.00    -0.206 F 
ATOM     90  C   UNL     1      11.453 -12.568  11.417  1.00  0.00     0.060 A 
BRANCH  90  91
ATOM     91  S   UNL     1      12.970 -12.977  12.305  1.00  0.00     0.124 S 
ATOM     92  O   UNL     1      12.754 -12.302  13.581  1.00  0.00    -0.237 OA
ATOM     93  O   UNL     1      12.926 -14.435  12.344  1.00  0.00    -0.237 OA
ATOM     94  O   UNL     1      14.020 -12.410  11.464  1.00  0.00    -0.744 OA
ENDBRANCH  90  91
ENDBRANCH  58  83
ENDBRANCH  32  33
ENDBRANCH  25  27
ENDBRANCH  24  25
ENDBRANCH  23  24
ENDBRANCH   1  23
TORSDOF 17
