REMARK SMILES CCOc1cc(/C=C2/SC(=S)N([C@H](CC)C(=O)OCCOC(=O)c3ccc(-c4c5nc(c(-c6c(F)cc(S(=O)(=O)[O-])cc6F)c6ccc([nH]6)c(-c6c(F)cc(S(=O)(=O)[O-])cc6F)c6nc(c(-c7c(F)cc(S(=O)(=O)[O-])cc7F)c7ccc4[nH]7)C=C6)C=C5)cc3)C2=O)ccc1O
REMARK SMILES IDX 19 1 18 2 16 3 17 4 13 5 12 6 7 7 8 8 9 9 90 10 10 11 91 12
REMARK SMILES IDX 11 13 6 14 4 15 5 16 94 17 93 18 92 19 3 20 2 21 1 22 95 23
REMARK SMILES IDX 14 25 15 26 20 27 21 28 22 29 23 30 24 31 25 32 89 33 26 34
REMARK SMILES IDX 88 35 27 36 28 37 29 38 82 39 30 40 87 41 81 42 83 43 31 44
REMARK SMILES IDX 86 45 80 46 79 47 32 49 66 50 45 51 65 52 46 53 49 54 64 55
REMARK SMILES IDX 84 56 47 57 48 58 63 60 85 61 50 62 33 63 34 64 43 65 35 66
REMARK SMILES IDX 36 67 42 68 44 69 37 70 38 71 39 72 40 73 41 74 67 75 68 76
REMARK SMILES IDX 77 77 69 78 70 79 76 80 78 81 71 82 72 83 73 84 74 85 75 86
REMARK SMILES IDX 51 87 52 88 61 89 53 90 54 91 60 92 62 93 55 94 56 95 57 96
REMARK SMILES IDX 58 97 59 98
REMARK H PARENT 95 24 83 48 49 59
REMARK Flexibility Score: inf
ROOT
ATOM      1  C   UNL     1      -4.174   3.035   5.859  1.00  0.00     0.274 C 
ENDROOT
BRANCH   1   2
ATOM      2  O   UNL     1      -3.659   4.179   5.152  1.00  0.00    -0.461 OA
BRANCH   2   3
ATOM      3  C   UNL     1      -4.493   5.244   4.978  1.00  0.00     0.329 C 
ATOM      4  O   UNL     1      -5.648   5.301   5.381  1.00  0.00    -0.250 OA
BRANCH   3   5
ATOM      5  C   UNL     1      -3.836   6.343   4.122  1.00  0.00     0.201 C 
BRANCH   5   6
ATOM      6  N   UNL     1      -4.481   6.570   2.805  1.00  0.00    -0.278 N 
ATOM      7  C   UNL     1      -4.278   8.612  -0.142  1.00  0.00     0.029 C 
ATOM      8  C   UNL     1      -4.766   7.831   0.833  1.00  0.00     0.081 C 
ATOM      9  S   UNL     1      -5.680   6.413   0.517  1.00  0.00    -0.054 SA
ATOM     10  C   UNL     1      -4.404   7.852   2.276  1.00  0.00     0.266 C 
ATOM     11  C   UNL     1      -5.014   5.620   1.954  1.00  0.00     0.149 C 
ATOM     12  O   UNL     1      -4.059   8.860   2.876  1.00  0.00    -0.268 OA
ATOM     13  S   UNL     1      -5.072   3.960   2.091  1.00  0.00    -0.052 S 
BRANCH   7  14
ATOM     14  C   UNL     1      -3.158   9.537   0.051  1.00  0.00    -0.020 A 
ATOM     15  C   UNL     1      -2.267  11.795   0.275  1.00  0.00     0.161 A 
ATOM     16  C   UNL     1      -3.342  10.922   0.044  1.00  0.00     0.058 A 
ATOM     17  C   UNL     1      -1.011  11.245   0.546  1.00  0.00     0.157 A 
ATOM     18  C   UNL     1      -0.803   9.868   0.494  1.00  0.00     0.051 A 
ATOM     19  C   UNL     1      -1.873   9.015   0.240  1.00  0.00     0.012 A 
BRANCH  15  20
ATOM     20  O   UNL     1      -2.622  13.112   0.204  1.00  0.00    -0.490 OA
BRANCH  20  21
ATOM     21  C   UNL     1      -1.640  14.142   0.150  1.00  0.00     0.226 C 
ATOM     22  C   UNL     1      -0.883  14.182  -1.168  1.00  0.00     0.049 C 
ENDBRANCH  20  21
ENDBRANCH  15  20
BRANCH  17  23
ATOM     23  O   UNL     1       0.071  11.979   0.934  1.00  0.00    -0.504 OA
ATOM     24  H   UNL     1       0.008  12.912   0.993  1.00  0.00     0.293 HD
ENDBRANCH  17  23
ENDBRANCH   7  14
ENDBRANCH   5   6
BRANCH   5  25
ATOM     25  C   UNL     1      -2.292   6.258   4.059  1.00  0.00     0.034 C 
ATOM     26  C   UNL     1      -1.597   7.619   4.034  1.00  0.00     0.007 C 
ENDBRANCH   5  25
ENDBRANCH   3   5
ENDBRANCH   2   3
ENDBRANCH   1   2
BRANCH   1  27
ATOM     27  C   UNL     1      -3.569   2.936   7.260  1.00  0.00     0.275 C 
BRANCH  27  28
ATOM     28  O   UNL     1      -3.989   4.035   8.087  1.00  0.00    -0.458 OA
BRANCH  28  29
ATOM     29  C   UNL     1      -3.168   5.112   8.055  1.00  0.00     0.338 C 
ATOM     30  O   UNL     1      -2.099   5.203   7.474  1.00  0.00    -0.246 OA
BRANCH  29  31
ATOM     31  C   UNL     1      -3.831   6.266   8.683  1.00  0.00     0.060 A 
ATOM     32  C   UNL     1      -3.909   7.443   7.933  1.00  0.00     0.016 A 
ATOM     33  C   UNL     1      -4.312   6.224   9.993  1.00  0.00     0.016 A 
ATOM     34  C   UNL     1      -4.467   8.587   8.490  1.00  0.00     0.010 A 
ATOM     35  C   UNL     1      -4.862   7.380  10.557  1.00  0.00     0.010 A 
ATOM     36  C   UNL     1      -4.929   8.571   9.812  1.00  0.00    -0.014 A 
BRANCH  36  37
ATOM     37  C   UNL     1      -5.412   9.837  10.412  1.00  0.00     0.031 A 
ATOM     38  C   UNL     1      -4.511  10.619  11.324  1.00  0.00     0.074 A 
ATOM     39  C   UNL     1      -6.623  10.315  10.073  1.00  0.00     0.049 A 
ATOM     40  N   UNL     1      -4.724  11.769  11.909  1.00  0.00    -0.248 NA
ATOM     41  C   UNL     1      -3.194  10.031  11.614  1.00  0.00     0.031 C 
ATOM     42  C   UNL     1      -7.567   9.655   9.170  1.00  0.00     0.029 A 
ATOM     43  N   UNL     1      -7.260  11.474  10.437  1.00  0.00    -0.354 N 
ATOM     44  C   UNL     1      -3.574  12.043  12.639  1.00  0.00     0.074 A 
ATOM     45  C   UNL     1      -2.675  10.925  12.444  1.00  0.00     0.031 C 
ATOM     46  C   UNL     1      -8.659  10.427   9.041  1.00  0.00     0.029 A 
ATOM     47  C   UNL     1      -8.503  11.619   9.871  1.00  0.00     0.049 A 
ATOM     48  H   UNL     1      -6.863  12.138  11.046  1.00  0.00     0.167 HD
ATOM     49  C   UNL     1      -3.292  13.131  13.394  1.00  0.00     0.037 A 
ATOM     50  C   UNL     1      -9.416  12.600  10.013  1.00  0.00     0.037 A 
ATOM     51  C   UNL     1      -4.191  14.242  13.579  1.00  0.00     0.049 A 
ATOM     52  C   UNL     1      -9.091  13.782  10.886  1.00  0.00     0.074 A 
ATOM     53  C   UNL     1      -3.996  15.395  14.321  1.00  0.00     0.029 A 
ATOM     54  N   UNL     1      -5.457  14.339  13.019  1.00  0.00    -0.354 N 
ATOM     55  N   UNL     1      -7.995  14.031  11.565  1.00  0.00    -0.248 NA
ATOM     56  C   UNL     1     -10.123  14.820  11.007  1.00  0.00     0.031 C 
ATOM     57  C   UNL     1      -5.159  16.170  14.240  1.00  0.00     0.029 A 
ATOM     58  C   UNL     1      -6.061  15.522  13.412  1.00  0.00     0.049 A 
ATOM     59  H   UNL     1      -5.865  13.665  12.429  1.00  0.00     0.167 HD
ATOM     60  C   UNL     1      -8.201  15.260  12.181  1.00  0.00     0.074 A 
ATOM     61  C   UNL     1      -9.517  15.713  11.777  1.00  0.00     0.031 C 
ATOM     62  C   UNL     1      -7.377  15.952  13.007  1.00  0.00     0.037 A 
BRANCH  49  63
ATOM     63  C   UNL     1      -1.964  13.159  14.099  1.00  0.00     0.058 A 
ATOM     64  C   UNL     1      -0.762  13.368  13.405  1.00  0.00     0.135 A 
ATOM     65  C   UNL     1      -1.895  12.995  15.492  1.00  0.00     0.135 A 
ATOM     66  F   UNL     1      -0.769  13.513  12.070  1.00  0.00    -0.206 F 
ATOM     67  C   UNL     1       0.464  13.388  14.062  1.00  0.00     0.059 A 
ATOM     68  C   UNL     1      -0.682  13.034  16.174  1.00  0.00     0.059 A 
ATOM     69  F   UNL     1      -3.014  12.788  16.204  1.00  0.00    -0.206 F 
ATOM     70  C   UNL     1       0.494  13.217  15.448  1.00  0.00     0.060 A 
BRANCH  70  71
ATOM     71  S   UNL     1       2.091  13.240  16.289  1.00  0.00     0.124 S 
ATOM     72  O   UNL     1       2.635  11.938  15.915  1.00  0.00    -0.237 OA
ATOM     73  O   UNL     1       2.746  14.397  15.686  1.00  0.00    -0.237 OA
ATOM     74  O   UNL     1       1.733  13.390  17.696  1.00  0.00    -0.744 OA
ENDBRANCH  70  71
ENDBRANCH  49  63
BRANCH  50  75
ATOM     75  C   UNL     1     -10.724  12.502   9.314  1.00  0.00     0.058 A 
ATOM     76  C   UNL     1     -11.043  13.350   8.245  1.00  0.00     0.135 A 
ATOM     77  C   UNL     1     -11.678  11.547   9.700  1.00  0.00     0.135 A 
ATOM     78  F   UNL     1     -10.167  14.286   7.846  1.00  0.00    -0.206 F 
ATOM     79  C   UNL     1     -12.267  13.267   7.589  1.00  0.00     0.059 A 
ATOM     80  C   UNL     1     -12.899  11.428   9.044  1.00  0.00     0.059 A 
ATOM     81  F   UNL     1     -11.417  10.704  10.711  1.00  0.00    -0.206 F 
ATOM     82  C   UNL     1     -13.189  12.300   7.995  1.00  0.00     0.060 A 
BRANCH  82  83
ATOM     83  S   UNL     1     -14.755  12.162   7.107  1.00  0.00     0.124 S 
ATOM     84  O   UNL     1     -15.489  13.311   7.627  1.00  0.00    -0.237 OA
ATOM     85  O   UNL     1     -14.330  12.253   5.714  1.00  0.00    -0.237 OA
ATOM     86  O   UNL     1     -15.258  10.854   7.516  1.00  0.00    -0.744 OA
ENDBRANCH  82  83
ENDBRANCH  50  75
BRANCH  62  87
ATOM     87  C   UNL     1      -7.874  17.279  13.510  1.00  0.00     0.058 A 
ATOM     88  C   UNL     1      -8.889  17.367  14.475  1.00  0.00     0.135 A 
ATOM     89  C   UNL     1      -7.321  18.477  13.028  1.00  0.00     0.135 A 
ATOM     90  F   UNL     1      -9.454  16.253  14.966  1.00  0.00    -0.206 F 
ATOM     91  C   UNL     1      -9.368  18.597  14.916  1.00  0.00     0.059 A 
ATOM     92  C   UNL     1      -7.766  19.717  13.474  1.00  0.00     0.059 A 
ATOM     93  F   UNL     1      -6.337  18.449  12.115  1.00  0.00    -0.206 F 
ATOM     94  C   UNL     1      -8.805  19.767  14.403  1.00  0.00     0.060 A 
BRANCH  94  95
ATOM     95  S   UNL     1      -9.435  21.359  14.976  1.00  0.00     0.124 S 
ATOM     96  O   UNL     1     -10.680  21.469  14.223  1.00  0.00    -0.237 OA
ATOM     97  O   UNL     1      -9.581  21.143  16.413  1.00  0.00    -0.237 OA
ATOM     98  O   UNL     1      -8.384  22.297  14.594  1.00  0.00    -0.744 OA
ENDBRANCH  94  95
ENDBRANCH  62  87
ENDBRANCH  36  37
ENDBRANCH  29  31
ENDBRANCH  28  29
ENDBRANCH  27  28
ENDBRANCH   1  27
TORSDOF 20
