REMARK SMILES Cc1c(C(=O)OCCOC(=O)c2ccc(-c3c4nc(c(-c5c(F)cc(S(=O)(=O)[O-])cc5F)c5ccc([nH]5)c(-c5c(F)cc(S(=O)(=O)[O-])cc5F)c5nc(c(-c6c(F)cc(S(=O)(=O)[O-])cc6F)c6ccc3[nH]6)C=C5)C=C4)cc2)cccc1N1[C@@H](C)C=C(/C=C(\C#N)C(=O)NCCc2c[nH]c3ccccc23)[C@@H]1C
REMARK SMILES IDX 6 1 4 2 5 3 3 4 1 5 2 6 81 7 78 8 80 9 79 10 82 11 83 12
REMARK SMILES IDX 105 13 85 14 84 15 86 16 106 17 87 18 88 19 89 20 90 21
REMARK SMILES IDX 91 22 92 23 93 24 94 26 95 27 96 28 97 29 104 30 98 31 99 32
REMARK SMILES IDX 103 33 100 35 102 36 101 37 7 38 8 39 9 40 10 41 11 42 12 43
REMARK SMILES IDX 13 44 77 45 14 46 76 47 15 48 16 49 17 50 70 51 18 52 75 53
REMARK SMILES IDX 69 54 71 55 19 56 74 57 68 58 67 59 20 61 54 62 33 63 53 64
REMARK SMILES IDX 34 65 37 66 52 67 72 68 35 69 36 70 51 72 73 73 38 74 21 75
REMARK SMILES IDX 22 76 31 77 23 78 24 79 30 80 32 81 25 82 26 83 27 84 28 85
REMARK SMILES IDX 29 86 55 87 56 88 65 89 57 90 58 91 64 92 66 93 59 94 60 95
REMARK SMILES IDX 61 96 62 97 63 98 39 99 40 100 49 101 41 102 42 103 48 104
REMARK SMILES IDX 50 105 43 106 44 107 45 108 46 109 47 110
REMARK H PARENT 93 25 98 34 71 60 37 71
REMARK Flexibility Score: inf
ROOT
ATOM      1  O   UNL     1       3.062  -3.703  -0.025  1.00  0.00    -0.458 OA
ENDROOT
BRANCH   1   2
ATOM      2  C   UNL     1       1.618  -3.285  -0.205  1.00  0.00     0.338 C 
ATOM      3  O   UNL     1       1.116  -4.437  -0.349  1.00  0.00    -0.246 OA
BRANCH   2   4
ATOM      4  C   UNL     1       0.814  -1.274  -0.228  1.00  0.00     0.065 A 
ATOM      5  C   UNL     1       2.850   0.630   0.314  1.00  0.00     0.047 C 
ATOM      6  C   UNL     1       1.389   0.212  -0.077  1.00  0.00    -0.013 A 
ATOM      7  C   UNL     1       0.570   1.465  -0.188  1.00  0.00     0.041 A 
ATOM      8  C   UNL     1      -0.719  -0.890  -0.426  1.00  0.00     0.016 A 
ATOM      9  C   UNL     1      -0.810   1.470  -0.364  1.00  0.00     0.026 A 
ATOM     10  C   UNL     1      -1.464   0.301  -0.475  1.00  0.00     0.003 A 
BRANCH   7  11
ATOM     11  N   UNL     1       1.103   2.728  -0.013  1.00  0.00    -0.358 N 
ATOM     12  C   UNL     1       0.611   3.625   1.033  1.00  0.00     0.103 C 
ATOM     13  C   UNL     1       2.009   3.383  -0.954  1.00  0.00     0.110 C 
ATOM     14  C   UNL     1       1.654   4.687   0.968  1.00  0.00     0.003 C 
ATOM     15  C   UNL     1       0.616   2.977   2.416  1.00  0.00     0.035 C 
ATOM     16  C   UNL     1       2.515   4.479  -0.041  1.00  0.00    -0.026 C 
ATOM     17  C   UNL     1       1.260   3.934  -2.168  1.00  0.00     0.036 C 
BRANCH  16  18
ATOM     18  C   UNL     1       3.799   5.094  -0.247  1.00  0.00     0.031 C 
ATOM     19  C   UNL     1       4.523   5.794   0.651  1.00  0.00     0.117 C 
BRANCH  19  20
ATOM     20  C   UNL     1       4.089   6.068   1.974  1.00  0.00     0.105 C 
ATOM     21  N   UNL     1       3.726   6.346   3.044  1.00  0.00    -0.192 NA
ENDBRANCH  19  20
BRANCH  19  22
ATOM     22  C   UNL     1       5.688   6.531   0.097  1.00  0.00     0.261 C 
ATOM     23  O   UNL     1       5.983   6.473  -1.095  1.00  0.00    -0.268 OA
ATOM     24  N   UNL     1       6.192   7.542   0.858  1.00  0.00    -0.351 N 
ATOM     25  H   UNL     1       6.119   8.437   0.454  1.00  0.00     0.163 HD
BRANCH  24  26
ATOM     26  C   UNL     1       6.828   7.517   2.182  1.00  0.00     0.121 C 
BRANCH  26  27
ATOM     27  C   UNL     1       8.163   6.721   2.323  1.00  0.00     0.059 C 
BRANCH  27  28
ATOM     28  C   UNL     1       9.363   7.300   1.554  1.00  0.00    -0.021 A 
ATOM     29  C   UNL     1       9.417   8.659   1.229  1.00  0.00     0.087 A 
ATOM     30  C   UNL     1       9.929   6.776   0.338  1.00  0.00     0.003 A 
ATOM     31  N   UNL     1       8.716   8.555   0.014  1.00  0.00    -0.361 N 
ATOM     32  C   UNL     1       9.212   7.457  -0.645  1.00  0.00     0.046 A 
ATOM     33  C   UNL     1      10.932   5.890  -0.088  1.00  0.00     0.010 A 
ATOM     34  H   UNL     1       8.003   9.156  -0.303  1.00  0.00     0.166 HD
ATOM     35  C   UNL     1       9.128   7.051  -1.971  1.00  0.00     0.026 A 
ATOM     36  C   UNL     1      11.045   5.643  -1.470  1.00  0.00     0.001 A 
ATOM     37  C   UNL     1      10.101   6.139  -2.376  1.00  0.00     0.002 A 
ENDBRANCH  27  28
ENDBRANCH  26  27
ENDBRANCH  24  26
ENDBRANCH  19  22
ENDBRANCH  16  18
ENDBRANCH   7  11
ENDBRANCH   2   4
ENDBRANCH   1   2
BRANCH   1  38
ATOM     38  C   UNL     1       3.281  -4.977   0.609  1.00  0.00     0.275 C 
BRANCH  38  39
ATOM     39  C   UNL     1       3.002  -4.861   2.118  1.00  0.00     0.275 C 
BRANCH  39  40
ATOM     40  O   UNL     1       1.639  -4.517   2.474  1.00  0.00    -0.458 OA
BRANCH  40  41
ATOM     41  C   UNL     1       1.359  -3.232   2.824  1.00  0.00     0.338 C 
ATOM     42  O   UNL     1       1.468  -2.736   3.930  1.00  0.00    -0.246 OA
BRANCH  41  43
ATOM     43  C   UNL     1       1.088  -2.455   1.606  1.00  0.00     0.060 A 
ATOM     44  C   UNL     1      -0.259  -3.001   0.550  1.00  0.00     0.016 A 
ATOM     45  C   UNL     1       2.593  -1.825   0.872  1.00  0.00     0.016 A 
ATOM     46  C   UNL     1      -0.086  -2.952  -1.293  1.00  0.00     0.010 A 
ATOM     47  C   UNL     1       2.773  -1.768  -0.954  1.00  0.00     0.010 A 
ATOM     48  C   UNL     1       1.434  -2.352  -2.014  1.00  0.00    -0.014 A 
BRANCH  48  49
ATOM     49  C   UNL     1       1.913  -2.789  -3.307  1.00  0.00     0.031 A 
ATOM     50  C   UNL     1       2.528  -1.731  -4.112  1.00  0.00     0.074 A 
ATOM     51  C   UNL     1       1.995  -4.123  -3.538  1.00  0.00     0.049 A 
ATOM     52  N   UNL     1       2.778  -1.840  -5.358  1.00  0.00    -0.248 NA
ATOM     53  C   UNL     1       2.863  -0.400  -3.602  1.00  0.00     0.031 C 
ATOM     54  C   UNL     1       2.808  -4.875  -4.490  1.00  0.00     0.029 A 
ATOM     55  N   UNL     1       1.167  -5.108  -3.001  1.00  0.00    -0.354 N 
ATOM     56  C   UNL     1       3.656  -0.828  -5.683  1.00  0.00     0.074 A 
ATOM     57  C   UNL     1       3.569   0.116  -4.608  1.00  0.00     0.031 C 
ATOM     58  C   UNL     1       2.263  -6.095  -4.679  1.00  0.00     0.029 A 
ATOM     59  C   UNL     1       1.021  -6.148  -3.928  1.00  0.00     0.049 A 
ATOM     60  H   UNL     1       0.750  -5.078  -2.109  1.00  0.00     0.167 HD
ATOM     61  C   UNL     1       4.476  -1.044  -6.746  1.00  0.00     0.037 A 
ATOM     62  C   UNL     1      -0.220  -6.356  -4.469  1.00  0.00     0.037 A 
ATOM     63  C   UNL     1       4.109  -2.323  -7.371  1.00  0.00     0.049 A 
ATOM     64  C   UNL     1      -0.323  -5.791  -5.885  1.00  0.00     0.074 A 
ATOM     65  C   UNL     1       4.594  -3.616  -7.281  1.00  0.00     0.029 A 
ATOM     66  N   UNL     1       2.819  -2.451  -7.847  1.00  0.00    -0.354 N 
ATOM     67  N   UNL     1       0.633  -5.111  -6.468  1.00  0.00    -0.248 NA
ATOM     68  C   UNL     1      -1.488  -5.925  -6.758  1.00  0.00     0.031 C 
ATOM     69  C   UNL     1       3.561  -4.509  -7.716  1.00  0.00     0.029 A 
ATOM     70  C   UNL     1       2.454  -3.759  -8.073  1.00  0.00     0.049 A 
ATOM     71  H   UNL     1       2.221  -1.686  -8.008  1.00  0.00     0.167 HD
ATOM     72  C   UNL     1       0.259  -4.713  -7.723  1.00  0.00     0.074 A 
ATOM     73  C   UNL     1      -1.108  -5.205  -7.833  1.00  0.00     0.031 C 
ATOM     74  C   UNL     1       1.101  -4.019  -8.559  1.00  0.00     0.037 A 
BRANCH  61  75
ATOM     75  C   UNL     1       5.734  -0.272  -7.066  1.00  0.00     0.058 A 
ATOM     76  C   UNL     1       6.705  -0.871  -7.896  1.00  0.00     0.135 A 
ATOM     77  C   UNL     1       6.081   1.015  -6.596  1.00  0.00     0.135 A 
ATOM     78  F   UNL     1       6.507  -2.073  -8.453  1.00  0.00    -0.206 F 
ATOM     79  C   UNL     1       7.925  -0.274  -8.200  1.00  0.00     0.059 A 
ATOM     80  C   UNL     1       7.315   1.623  -6.862  1.00  0.00     0.059 A 
ATOM     81  F   UNL     1       5.229   1.774  -5.899  1.00  0.00    -0.206 F 
ATOM     82  C   UNL     1       8.228   0.971  -7.674  1.00  0.00     0.060 A 
BRANCH  82  83
ATOM     83  S   UNL     1       9.802   1.721  -8.117  1.00  0.00     0.124 S 
ATOM     84  O   UNL     1      10.757   0.708  -7.678  1.00  0.00    -0.237 OA
ATOM     85  O   UNL     1       9.662   1.881  -9.560  1.00  0.00    -0.237 OA
ATOM     86  O   UNL     1       9.819   2.963  -7.349  1.00  0.00    -0.744 OA
ENDBRANCH  82  83
ENDBRANCH  61  75
BRANCH  62  87
ATOM     87  C   UNL     1      -1.261  -6.388  -3.383  1.00  0.00     0.058 A 
ATOM     88  C   UNL     1      -1.076  -7.354  -2.362  1.00  0.00     0.135 A 
ATOM     89  C   UNL     1      -2.081  -5.300  -3.066  1.00  0.00     0.135 A 
ATOM     90  F   UNL     1      -0.349  -8.457  -2.612  1.00  0.00    -0.206 F 
ATOM     91  C   UNL     1      -1.501  -7.151  -1.049  1.00  0.00     0.059 A 
ATOM     92  C   UNL     1      -2.577  -5.110  -1.762  1.00  0.00     0.059 A 
ATOM     93  F   UNL     1      -2.278  -4.321  -3.962  1.00  0.00    -0.206 F 
ATOM     94  C   UNL     1      -2.229  -6.008  -0.747  1.00  0.00     0.060 A 
BRANCH  94  95
ATOM     95  S   UNL     1      -2.641  -5.691   0.991  1.00  0.00     0.124 S 
ATOM     96  O   UNL     1      -3.540  -6.797   1.298  1.00  0.00    -0.237 OA
ATOM     97  O   UNL     1      -1.342  -5.746   1.653  1.00  0.00    -0.237 OA
ATOM     98  O   UNL     1      -3.266  -4.370   0.953  1.00  0.00    -0.744 OA
ENDBRANCH  94  95
ENDBRANCH  62  87
BRANCH  74  99
ATOM     99  C   UNL     1       0.722  -3.483  -9.930  1.00  0.00     0.058 A 
ATOM    100  C   UNL     1      -0.148  -4.159 -10.795  1.00  0.00     0.135 A 
ATOM    101  C   UNL     1       1.289  -2.296 -10.472  1.00  0.00     0.135 A 
ATOM    102  F   UNL     1      -0.596  -5.389 -10.504  1.00  0.00    -0.206 F 
ATOM    103  C   UNL     1      -0.547  -3.624 -12.021  1.00  0.00     0.059 A 
ATOM    104  C   UNL     1       0.965  -1.783 -11.717  1.00  0.00     0.059 A 
ATOM    105  F   UNL     1       2.184  -1.544  -9.822  1.00  0.00    -0.206 F 
ATOM    106  C   UNL     1       0.009  -2.429 -12.469  1.00  0.00     0.060 A 
BRANCH 106 107
ATOM    107  S   UNL     1      -0.477  -1.759 -14.060  1.00  0.00     0.124 S 
ATOM    108  O   UNL     1      -0.368  -2.928 -14.927  1.00  0.00    -0.237 OA
ATOM    109  O   UNL     1      -1.834  -1.299 -13.780  1.00  0.00    -0.237 OA
ATOM    110  O   UNL     1       0.503  -0.707 -14.306  1.00  0.00    -0.744 OA
ENDBRANCH 106 107
ENDBRANCH  74  99
ENDBRANCH  48  49
ENDBRANCH  41  43
ENDBRANCH  40  41
ENDBRANCH  39  40
ENDBRANCH  38  39
ENDBRANCH   1  38
TORSDOF 21
