REMARK SMILES Nc1ccc(-c2cc(Cl)cc3c2O[C@H](C(F)(F)F)C(C(=O)OCCOC(=O)c2ccc(-c4c5nc(c(-c6c(F)cc(S(=O)(=O)[O-])cc6F)c6ccc([nH]6)c(-c6c(F)cc(S(=O)(=O)[O-])cc6F)c6nc(c(-c7c(F)cc(S(=O)(=O)[O-])cc7F)c7ccc4[nH]7)C=C6)C=C5)cc2)=C3)cc1
REMARK SMILES IDX 24 1 23 2 22 3 20 4 21 5 19 6 6 7 7 8 12 9 8 10 11 11 13 12
REMARK SMILES IDX 9 13 10 14 94 15 14 16 5 17 2 18 3 19 96 20 4 21 95 22 1 23
REMARK SMILES IDX 15 26 16 27 17 28 18 29 25 30 26 31 27 32 28 33 29 34 93 35
REMARK SMILES IDX 30 36 92 37 31 38 32 39 33 40 86 41 34 42 91 43 85 44 87 45
REMARK SMILES IDX 35 46 90 47 84 48 83 49 36 51 70 52 49 53 69 54 50 55 53 56
REMARK SMILES IDX 68 57 88 58 51 59 52 60 67 62 89 63 54 64 37 65 38 66 47 67
REMARK SMILES IDX 39 68 40 69 46 70 48 71 41 72 42 73 43 74 44 75 45 76 71 77
REMARK SMILES IDX 72 78 81 79 73 80 74 81 80 82 82 83 75 84 76 85 77 86 78 87
REMARK SMILES IDX 79 88 55 89 56 90 65 91 57 92 58 93 64 94 66 95 59 96 60 97
REMARK SMILES IDX 61 98 62 99 63 100
REMARK H PARENT 1 24 1 25 87 50 53 61
REMARK Flexibility Score: inf
ROOT
ATOM      1  C   UNL     1      -7.155  -2.606   6.940  1.00  0.00     0.275 C 
ENDROOT
BRANCH   1   2
ATOM      2  C   UNL     1      -6.168  -3.483   6.167  1.00  0.00     0.275 C 
BRANCH   2   3
ATOM      3  O   UNL     1      -5.483  -2.728   5.143  1.00  0.00    -0.459 OA
BRANCH   3   4
ATOM      4  C   UNL     1      -5.881  -2.965   3.872  1.00  0.00     0.338 C 
ATOM      5  O   UNL     1      -6.733  -3.763   3.513  1.00  0.00    -0.246 OA
BRANCH   4   6
ATOM      6  C   UNL     1      -5.154  -2.093   2.930  1.00  0.00     0.087 C 
ATOM      7  C   UNL     1      -3.050   0.034  -0.012  1.00  0.00     0.026 A 
ATOM      8  C   UNL     1      -3.784   0.675  -1.027  1.00  0.00     0.033 A 
ATOM      9  C   UNL     1      -3.753  -0.629   1.015  1.00  0.00     0.135 A 
ATOM     10  C   UNL     1      -5.176   0.656  -1.019  1.00  0.00     0.042 A 
ATOM     11  C   UNL     1      -5.146  -0.675   0.990  1.00  0.00     0.019 A 
ATOM     12  O   UNL     1      -3.020  -1.181   2.035  1.00  0.00    -0.475 OA
ATOM     13  Cl  UNL     1      -6.050   1.451  -2.269  1.00  0.00    -0.084 Cl
ATOM     14  C   UNL     1      -5.862  -0.018  -0.017  1.00  0.00     0.032 A 
ATOM     15  C   UNL     1      -5.853  -1.443   1.994  1.00  0.00     0.027 C 
ATOM     16  C   UNL     1      -3.656  -2.084   2.976  1.00  0.00     0.316 C 
BRANCH   7  17
ATOM     17  C   UNL     1      -1.581   0.041  -0.054  1.00  0.00    -0.014 A 
ATOM     18  C   UNL     1       1.246   0.037  -0.064  1.00  0.00     0.031 A 
ATOM     19  C   UNL     1       0.535  -1.163  -0.077  1.00  0.00     0.026 A 
ATOM     20  C   UNL     1       0.535   1.237  -0.022  1.00  0.00     0.026 A 
ATOM     21  C   UNL     1      -0.861  -1.162  -0.090  1.00  0.00     0.011 A 
ATOM     22  C   UNL     1      -0.863   1.243  -0.030  1.00  0.00     0.011 A 
BRANCH  18  23
ATOM     23  N   UNL     1       2.627   0.032   0.038  1.00  0.00    -0.399 N 
ATOM     24  H   UNL     1       3.120  -0.819   0.008  1.00  0.00     0.156 HD
ATOM     25  H   UNL     1       3.116   0.881   0.141  1.00  0.00     0.156 HD
ENDBRANCH  18  23
ENDBRANCH   7  17
BRANCH  16  26
ATOM     26  C   UNL     1      -3.084  -3.495   2.767  1.00  0.00     0.430 C 
ATOM     27  F   UNL     1      -1.728  -3.488   2.786  1.00  0.00    -0.167 F 
ATOM     28  F   UNL     1      -3.476  -4.345   3.746  1.00  0.00    -0.167 F 
ATOM     29  F   UNL     1      -3.466  -4.032   1.586  1.00  0.00    -0.167 F 
ENDBRANCH  16  26
ENDBRANCH   4   6
ENDBRANCH   3   4
ENDBRANCH   2   3
ENDBRANCH   1   2
BRANCH   1  30
ATOM     30  O   UNL     1      -8.263  -2.232   6.102  1.00  0.00    -0.458 OA
BRANCH  30  31
ATOM     31  C   UNL     1      -8.213  -0.975   5.606  1.00  0.00     0.338 C 
ATOM     32  O   UNL     1      -7.367  -0.125   5.822  1.00  0.00    -0.246 OA
BRANCH  31  33
ATOM     33  C   UNL     1      -9.294  -0.798   4.628  1.00  0.00     0.060 A 
ATOM     34  C   UNL     1     -10.408  -0.013   4.894  1.00  0.00     0.016 A 
ATOM     35  C   UNL     1      -9.103  -1.323   3.357  1.00  0.00     0.016 A 
ATOM     36  C   UNL     1     -11.335   0.214   3.868  1.00  0.00     0.010 A 
ATOM     37  C   UNL     1      -9.926  -0.952   2.302  1.00  0.00     0.010 A 
ATOM     38  C   UNL     1     -11.089  -0.221   2.547  1.00  0.00    -0.014 A 
BRANCH  38  39
ATOM     39  C   UNL     1     -12.045   0.053   1.435  1.00  0.00     0.031 A 
ATOM     40  C   UNL     1     -12.588  -1.075   0.580  1.00  0.00     0.074 A 
ATOM     41  C   UNL     1     -12.411   1.324   1.168  1.00  0.00     0.049 A 
ATOM     42  N   UNL     1     -13.441  -1.021  -0.413  1.00  0.00    -0.248 NA
ATOM     43  C   UNL     1     -12.077  -2.433   0.837  1.00  0.00     0.031 C 
ATOM     44  C   UNL     1     -11.882   2.515   1.839  1.00  0.00     0.029 A 
ATOM     45  N   UNL     1     -13.329   1.830   0.282  1.00  0.00    -0.354 N 
ATOM     46  C   UNL     1     -13.547  -2.321  -0.899  1.00  0.00     0.074 A 
ATOM     47  C   UNL     1     -12.605  -3.126  -0.160  1.00  0.00     0.031 C 
ATOM     48  C   UNL     1     -12.547   3.598   1.409  1.00  0.00     0.029 A 
ATOM     49  C   UNL     1     -13.517   3.189   0.398  1.00  0.00     0.049 A 
ATOM     50  H   UNL     1     -13.808   1.274  -0.374  1.00  0.00     0.167 HD
ATOM     51  C   UNL     1     -14.391  -2.819  -1.836  1.00  0.00     0.037 A 
ATOM     52  C   UNL     1     -14.386   4.011  -0.221  1.00  0.00     0.037 A 
ATOM     53  C   UNL     1     -15.377  -2.028  -2.521  1.00  0.00     0.049 A 
ATOM     54  C   UNL     1     -15.350   3.433  -1.220  1.00  0.00     0.074 A 
ATOM     55  C   UNL     1     -16.334  -2.445  -3.429  1.00  0.00     0.029 A 
ATOM     56  N   UNL     1     -15.543  -0.661  -2.361  1.00  0.00    -0.354 N 
ATOM     57  N   UNL     1     -15.485   2.187  -1.608  1.00  0.00    -0.248 NA
ATOM     58  C   UNL     1     -16.282   4.368  -1.864  1.00  0.00     0.031 C 
ATOM     59  C   UNL     1     -17.057  -1.322  -3.845  1.00  0.00     0.029 A 
ATOM     60  C   UNL     1     -16.579  -0.214  -3.162  1.00  0.00     0.049 A 
ATOM     61  H   UNL     1     -15.003  -0.092  -1.766  1.00  0.00     0.167 HD
ATOM     62  C   UNL     1     -16.525   2.186  -2.530  1.00  0.00     0.074 A 
ATOM     63  C   UNL     1     -16.999   3.552  -2.625  1.00  0.00     0.031 C 
ATOM     64  C   UNL     1     -17.037   1.150  -3.239  1.00  0.00     0.037 A 
BRANCH  51  65
ATOM     65  C   UNL     1     -14.322  -4.295  -2.135  1.00  0.00     0.058 A 
ATOM     66  C   UNL     1     -14.731  -5.253  -1.193  1.00  0.00     0.135 A 
ATOM     67  C   UNL     1     -13.894  -4.758  -3.390  1.00  0.00     0.135 A 
ATOM     68  F   UNL     1     -15.137  -4.871   0.029  1.00  0.00    -0.206 F 
ATOM     69  C   UNL     1     -14.689  -6.615  -1.471  1.00  0.00     0.059 A 
ATOM     70  C   UNL     1     -13.874  -6.116  -3.702  1.00  0.00     0.059 A 
ATOM     71  F   UNL     1     -13.494  -3.889  -4.332  1.00  0.00    -0.206 F 
ATOM     72  C   UNL     1     -14.263  -7.038  -2.730  1.00  0.00     0.060 A 
BRANCH  72  73
ATOM     73  S   UNL     1     -14.241  -8.809  -3.077  1.00  0.00     0.124 S 
ATOM     74  O   UNL     1     -13.136  -9.258  -2.236  1.00  0.00    -0.237 OA
ATOM     75  O   UNL     1     -15.573  -9.226  -2.648  1.00  0.00    -0.237 OA
ATOM     76  O   UNL     1     -14.000  -8.873  -4.515  1.00  0.00    -0.744 OA
ENDBRANCH  72  73
ENDBRANCH  51  65
BRANCH  52  77
ATOM     77  C   UNL     1     -14.426   5.454   0.142  1.00  0.00     0.058 A 
ATOM     78  C   UNL     1     -15.500   5.979   0.876  1.00  0.00     0.135 A 
ATOM     79  C   UNL     1     -13.378   6.325  -0.193  1.00  0.00     0.135 A 
ATOM     80  F   UNL     1     -16.529   5.189   1.218  1.00  0.00    -0.206 F 
ATOM     81  C   UNL     1     -15.538   7.316   1.261  1.00  0.00     0.059 A 
ATOM     82  C   UNL     1     -13.380   7.660   0.202  1.00  0.00     0.059 A 
ATOM     83  F   UNL     1     -12.318   5.868  -0.878  1.00  0.00    -0.206 F 
ATOM     84  C   UNL     1     -14.468   8.147   0.925  1.00  0.00     0.060 A 
BRANCH  84  85
ATOM     85  S   UNL     1     -14.499   9.863   1.490  1.00  0.00     0.124 S 
ATOM     86  O   UNL     1     -15.558  10.427   0.661  1.00  0.00    -0.237 OA
ATOM     87  O   UNL     1     -14.810   9.711   2.908  1.00  0.00    -0.237 OA
ATOM     88  O   UNL     1     -13.150  10.337   1.199  1.00  0.00    -0.744 OA
ENDBRANCH  84  85
ENDBRANCH  52  77
BRANCH  64  89
ATOM     89  C   UNL     1     -18.174   1.444  -4.175  1.00  0.00     0.058 A 
ATOM     90  C   UNL     1     -17.967   2.119  -5.388  1.00  0.00     0.135 A 
ATOM     91  C   UNL     1     -19.468   0.976  -3.894  1.00  0.00     0.135 A 
ATOM     92  F   UNL     1     -16.749   2.590  -5.700  1.00  0.00    -0.206 F 
ATOM     93  C   UNL     1     -19.008   2.334  -6.284  1.00  0.00     0.059 A 
ATOM     94  C   UNL     1     -20.518   1.156  -4.789  1.00  0.00     0.059 A 
ATOM     95  F   UNL     1     -19.715   0.314  -2.753  1.00  0.00    -0.206 F 
ATOM     96  C   UNL     1     -20.279   1.843  -5.978  1.00  0.00     0.060 A 
BRANCH  96  97
ATOM     97  S   UNL     1     -21.607   2.093  -7.173  1.00  0.00     0.124 S 
ATOM     98  O   UNL     1     -21.843   3.528  -7.056  1.00  0.00    -0.237 OA
ATOM     99  O   UNL     1     -20.990   1.651  -8.420  1.00  0.00    -0.237 OA
ATOM    100  O   UNL     1     -22.680   1.238  -6.674  1.00  0.00    -0.744 OA
ENDBRANCH  96  97
ENDBRANCH  64  89
ENDBRANCH  38  39
ENDBRANCH  31  33
ENDBRANCH  30  31
ENDBRANCH   1  30
TORSDOF 17
