REMARK SMILES COCc1nc2ccccc2n1CC(=O)OCCOC(=O)c1ccc(-c2c3nc(c(-c4c(F)cc(S(=O)(=O)[O-])cc4F)c4ccc([nH]4)c(-c4c(F)cc(S(=O)(=O)[O-])cc4F)c4nc(c(-c5c(F)cc(S(=O)(=O)[O-])cc5F)c5ccc2[nH]5)C=C4)C=C3)cc1
REMARK SMILES IDX 17 1 16 2 14 3 15 4 13 5 12 6 4 7 5 8 6 9 11 10 7 11 10 12
REMARK SMILES IDX 8 13 9 14 3 15 2 16 1 17 18 18 19 19 20 20 21 21 22 22 23 23
REMARK SMILES IDX 87 24 24 25 86 26 25 27 26 28 27 29 80 30 28 31 85 32 79 33
REMARK SMILES IDX 81 34 29 35 84 36 78 37 77 38 30 40 64 41 43 42 63 43 44 44
REMARK SMILES IDX 47 45 62 46 82 47 45 48 46 49 61 51 83 52 48 53 31 54 32 55
REMARK SMILES IDX 41 56 33 57 34 58 40 59 42 60 35 61 36 62 37 63 38 64 39 65
REMARK SMILES IDX 65 66 66 67 75 68 67 69 68 70 74 71 76 72 69 73 70 74 71 75
REMARK SMILES IDX 72 76 73 77 49 78 50 79 59 80 51 81 52 82 58 83 60 84 53 85
REMARK SMILES IDX 54 86 55 87 56 88 57 89
REMARK H PARENT 81 39 47 50
REMARK Flexibility Score: inf
ROOT
ATOM      1  C   UNL     1       3.131   4.520   4.004  1.00  0.00     0.274 C 
ENDROOT
BRANCH   1   2
ATOM      2  O   UNL     1       2.153   3.451   3.920  1.00  0.00    -0.461 OA
BRANCH   2   3
ATOM      3  C   UNL     1       0.922   3.745   4.408  1.00  0.00     0.326 C 
ATOM      4  O   UNL     1       0.623   4.836   4.887  1.00  0.00    -0.250 OA
BRANCH   3   5
ATOM      5  C   UNL     1      -0.109   2.657   4.278  1.00  0.00     0.246 C 
BRANCH   5   6
ATOM      6  N   UNL     1       0.314   1.281   4.057  1.00  0.00    -0.315 N 
ATOM      7  C   UNL     1       0.694   0.657   2.873  1.00  0.00     0.136 A 
ATOM      8  N   UNL     1       0.884  -0.634   3.080  1.00  0.00    -0.231 NA
ATOM      9  C   UNL     1       0.408  -0.889   4.332  1.00  0.00     0.089 A 
ATOM     10  C   UNL     1       0.034   0.282   4.973  1.00  0.00     0.069 A 
ATOM     11  C   UNL     1       0.231  -2.119   4.973  1.00  0.00     0.030 A 
ATOM     12  C   UNL     1      -0.544   0.288   6.251  1.00  0.00     0.028 A 
ATOM     13  C   UNL     1      -0.346  -2.135   6.247  1.00  0.00     0.002 A 
ATOM     14  C   UNL     1      -0.732  -0.949   6.871  1.00  0.00     0.002 A 
BRANCH   7  15
ATOM     15  C   UNL     1       0.861   1.312   1.539  1.00  0.00     0.235 C 
BRANCH  15  16
ATOM     16  O   UNL     1       0.133   0.587   0.535  1.00  0.00    -0.377 OA
ATOM     17  C   UNL     1       0.884  -0.477  -0.040  1.00  0.00     0.195 C 
ENDBRANCH  15  16
ENDBRANCH   7  15
ENDBRANCH   5   6
ENDBRANCH   3   5
ENDBRANCH   2   3
ENDBRANCH   1   2
BRANCH   1  18
ATOM     18  C   UNL     1       3.453   5.064   2.607  1.00  0.00     0.275 C 
BRANCH  18  19
ATOM     19  O   UNL     1       2.345   5.847   2.131  1.00  0.00    -0.458 OA
BRANCH  19  20
ATOM     20  C   UNL     1       1.489   5.231   1.279  1.00  0.00     0.338 C 
ATOM     21  O   UNL     1       1.718   4.231   0.616  1.00  0.00    -0.246 OA
BRANCH  20  22
ATOM     22  C   UNL     1       0.135   5.721   1.617  1.00  0.00     0.060 A 
ATOM     23  C   UNL     1      -0.112   7.035   2.007  1.00  0.00     0.016 A 
ATOM     24  C   UNL     1      -0.848   4.749   1.797  1.00  0.00     0.016 A 
ATOM     25  C   UNL     1      -1.273   7.320   2.726  1.00  0.00     0.010 A 
ATOM     26  C   UNL     1      -1.934   5.001   2.616  1.00  0.00     0.010 A 
ATOM     27  C   UNL     1      -2.133   6.280   3.117  1.00  0.00    -0.014 A 
BRANCH  27  28
ATOM     28  C   UNL     1      -3.452   6.577   3.668  1.00  0.00     0.031 A 
ATOM     29  C   UNL     1      -4.398   6.845   2.561  1.00  0.00     0.074 A 
ATOM     30  C   UNL     1      -3.889   6.521   4.943  1.00  0.00     0.049 A 
ATOM     31  N   UNL     1      -4.612   7.998   2.023  1.00  0.00    -0.248 NA
ATOM     32  C   UNL     1      -4.950   5.717   1.792  1.00  0.00     0.031 C 
ATOM     33  C   UNL     1      -3.229   5.963   6.124  1.00  0.00     0.029 A 
ATOM     34  N   UNL     1      -5.093   6.951   5.440  1.00  0.00    -0.354 N 
ATOM     35  C   UNL     1      -5.562   7.767   1.042  1.00  0.00     0.074 A 
ATOM     36  C   UNL     1      -5.509   6.360   0.763  1.00  0.00     0.031 C 
ATOM     37  C   UNL     1      -4.103   5.946   7.167  1.00  0.00     0.029 A 
ATOM     38  C   UNL     1      -5.324   6.641   6.780  1.00  0.00     0.049 A 
ATOM     39  H   UNL     1      -5.745   7.443   4.891  1.00  0.00     0.167 HD
ATOM     40  C   UNL     1      -6.530   8.694   0.810  1.00  0.00     0.037 A 
ATOM     41  C   UNL     1      -6.420   6.979   7.513  1.00  0.00     0.037 A 
ATOM     42  C   UNL     1      -6.220   9.923   1.503  1.00  0.00     0.049 A 
ATOM     43  C   UNL     1      -6.990   8.196   6.887  1.00  0.00     0.074 A 
ATOM     44  C   UNL     1      -5.325  10.961   1.354  1.00  0.00     0.029 A 
ATOM     45  N   UNL     1      -6.660   9.948   2.802  1.00  0.00    -0.354 N 
ATOM     46  N   UNL     1      -6.386   9.352   6.888  1.00  0.00    -0.248 NA
ATOM     47  C   UNL     1      -8.128   8.084   5.981  1.00  0.00     0.031 C 
ATOM     48  C   UNL     1      -5.129  11.514   2.655  1.00  0.00     0.029 A 
ATOM     49  C   UNL     1      -5.931  10.825   3.561  1.00  0.00     0.049 A 
ATOM     50  H   UNL     1      -7.405   9.404   3.145  1.00  0.00     0.167 HD
ATOM     51  C   UNL     1      -6.782   9.941   5.708  1.00  0.00     0.074 A 
ATOM     52  C   UNL     1      -7.974   9.216   5.290  1.00  0.00     0.031 C 
ATOM     53  C   UNL     1      -5.926  10.733   5.005  1.00  0.00     0.037 A 
BRANCH  40  54
ATOM     54  C   UNL     1      -7.952   8.380   0.396  1.00  0.00     0.058 A 
ATOM     55  C   UNL     1      -8.819   9.453   0.099  1.00  0.00     0.135 A 
ATOM     56  C   UNL     1      -8.577   7.121   0.541  1.00  0.00     0.135 A 
ATOM     57  F   UNL     1      -8.339  10.698  -0.054  1.00  0.00    -0.206 F 
ATOM     58  C   UNL     1     -10.203   9.297   0.016  1.00  0.00     0.059 A 
ATOM     59  C   UNL     1      -9.948   6.935   0.409  1.00  0.00     0.059 A 
ATOM     60  F   UNL     1      -7.913   6.021   0.912  1.00  0.00    -0.206 F 
ATOM     61  C   UNL     1     -10.758   8.033   0.181  1.00  0.00     0.060 A 
BRANCH  61  62
ATOM     62  S   UNL     1     -12.546   7.839   0.138  1.00  0.00     0.124 S 
ATOM     63  O   UNL     1     -12.947   8.550   1.346  1.00  0.00    -0.237 OA
ATOM     64  O   UNL     1     -12.886   8.480  -1.128  1.00  0.00    -0.237 OA
ATOM     65  O   UNL     1     -12.726   6.390   0.168  1.00  0.00    -0.744 OA
ENDBRANCH  61  62
ENDBRANCH  40  54
BRANCH  41  66
ATOM     66  C   UNL     1      -7.130   6.332   8.652  1.00  0.00     0.058 A 
ATOM     67  C   UNL     1      -8.095   7.042   9.402  1.00  0.00     0.135 A 
ATOM     68  C   UNL     1      -7.150   4.934   8.791  1.00  0.00     0.135 A 
ATOM     69  F   UNL     1      -8.151   8.382   9.341  1.00  0.00    -0.206 F 
ATOM     70  C   UNL     1      -9.083   6.402  10.156  1.00  0.00     0.059 A 
ATOM     71  C   UNL     1      -8.125   4.272   9.545  1.00  0.00     0.059 A 
ATOM     72  F   UNL     1      -6.282   4.171   8.109  1.00  0.00    -0.206 F 
ATOM     73  C   UNL     1      -9.113   5.011  10.191  1.00  0.00     0.060 A 
BRANCH  73  74
ATOM     74  S   UNL     1     -10.527   4.185  10.967  1.00  0.00     0.124 S 
ATOM     75  O   UNL     1     -10.341   4.520  12.375  1.00  0.00    -0.237 OA
ATOM     76  O   UNL     1     -11.658   4.826  10.306  1.00  0.00    -0.237 OA
ATOM     77  O   UNL     1     -10.325   2.779  10.628  1.00  0.00    -0.744 OA
ENDBRANCH  73  74
ENDBRANCH  41  66
BRANCH  53  78
ATOM     78  C   UNL     1      -4.835  11.425   5.766  1.00  0.00     0.058 A 
ATOM     79  C   UNL     1      -3.732  10.790   6.359  1.00  0.00     0.135 A 
ATOM     80  C   UNL     1      -4.878  12.827   5.818  1.00  0.00     0.135 A 
ATOM     81  F   UNL     1      -3.588   9.458   6.300  1.00  0.00    -0.206 F 
ATOM     82  C   UNL     1      -2.720  11.521   6.986  1.00  0.00     0.059 A 
ATOM     83  C   UNL     1      -3.868  13.576   6.410  1.00  0.00     0.059 A 
ATOM     84  F   UNL     1      -5.895  13.489   5.243  1.00  0.00    -0.206 F 
ATOM     85  C   UNL     1      -2.792  12.915   6.997  1.00  0.00     0.060 A 
BRANCH  85  86
ATOM     86  S   UNL     1      -1.431  13.864   7.710  1.00  0.00     0.124 S 
ATOM     87  O   UNL     1      -1.571  13.584   9.135  1.00  0.00    -0.237 OA
ATOM     88  O   UNL     1      -0.263  13.277   7.060  1.00  0.00    -0.237 OA
ATOM     89  O   UNL     1      -1.727  15.239   7.312  1.00  0.00    -0.744 OA
ENDBRANCH  85  86
ENDBRANCH  53  78
ENDBRANCH  27  28
ENDBRANCH  20  22
ENDBRANCH  19  20
ENDBRANCH  18  19
ENDBRANCH   1  18
TORSDOF 17
