REMARK SMILES O=C(OCCOC(=O)[C@H]1CC[C@H]2CCCC[C@@H]2[N@H+]1[C@@H]1CCCSC1)c1ccc(-c2c3nc(c(-c4c(F)cc(S(=O)(=O)[O-])cc4F)c4ccc([nH]4)c(-c4c(F)cc(S(=O)(=O)[O-])cc4F)c4nc(c(-c5c(F)cc(S(=O)(=O)[O-])cc5F)c5ccc2[nH]5)C=C4)C=C3)cc1
REMARK SMILES IDX 4 1 3 2 2 3 1 4 25 5 26 6 90 7 27 8 89 9 28 10 29 11 30 12
REMARK SMILES IDX 83 13 31 14 88 15 82 16 84 17 32 18 87 19 81 20 80 21 33 23
REMARK SMILES IDX 67 24 46 25 66 26 47 27 50 28 65 29 85 30 48 31 49 32 64 34
REMARK SMILES IDX 86 35 51 36 34 37 35 38 44 39 36 40 37 41 43 42 45 43 38 44
REMARK SMILES IDX 39 45 40 46 41 47 42 48 68 49 69 50 78 51 70 52 71 53 77 54
REMARK SMILES IDX 79 55 72 56 73 57 74 58 75 59 76 60 52 61 53 62 62 63 54 64
REMARK SMILES IDX 55 65 61 66 63 67 56 68 57 69 58 70 59 71 60 72 5 73 6 74
REMARK SMILES IDX 7 75 8 76 9 77 10 78 18 79 11 80 17 81 12 83 16 84 13 85
REMARK SMILES IDX 15 86 14 87 19 88 20 89 24 90 21 91 23 92 22 93
REMARK H PARENT 84 22 50 33 18 82
REMARK Flexibility Score: inf
ROOT
ATOM      1  C   UNL     1       4.374  -1.866  -0.828  1.00  0.00     0.275 C 
ENDROOT
BRANCH   1   2
ATOM      2  O   UNL     1       4.011  -1.554   0.521  1.00  0.00    -0.458 OA
BRANCH   2   3
ATOM      3  C   UNL     1       4.051  -0.367   1.162  1.00  0.00     0.338 C 
ATOM      4  O   UNL     1       3.466  -0.278   2.241  1.00  0.00    -0.246 OA
BRANCH   3   5
ATOM      5  C   UNL     1       4.723   0.855   0.610  1.00  0.00     0.060 A 
ATOM      6  C   UNL     1       5.697   0.932  -0.392  1.00  0.00     0.016 A 
ATOM      7  C   UNL     1       4.302   2.056   1.175  1.00  0.00     0.016 A 
ATOM      8  C   UNL     1       6.146   2.170  -0.893  1.00  0.00     0.010 A 
ATOM      9  C   UNL     1       4.713   3.279   0.652  1.00  0.00     0.010 A 
ATOM     10  C   UNL     1       5.637   3.368  -0.396  1.00  0.00    -0.014 A 
BRANCH  10  11
ATOM     11  C   UNL     1       6.099   4.710  -0.869  1.00  0.00     0.031 A 
ATOM     12  C   UNL     1       6.550   5.725   0.157  1.00  0.00     0.074 A 
ATOM     13  C   UNL     1       5.979   5.093  -2.160  1.00  0.00     0.049 A 
ATOM     14  N   UNL     1       6.776   7.006   0.020  1.00  0.00    -0.248 NA
ATOM     15  C   UNL     1       6.660   5.250   1.548  1.00  0.00     0.031 C 
ATOM     16  C   UNL     1       5.409   4.288  -3.246  1.00  0.00     0.029 A 
ATOM     17  N   UNL     1       6.274   6.291  -2.769  1.00  0.00    -0.354 N 
ATOM     18  C   UNL     1       6.998   7.477   1.309  1.00  0.00     0.074 A 
ATOM     19  C   UNL     1       6.701   6.392   2.213  1.00  0.00     0.031 C 
ATOM     20  C   UNL     1       5.397   5.014  -4.380  1.00  0.00     0.029 A 
ATOM     21  C   UNL     1       5.959   6.333  -4.110  1.00  0.00     0.049 A 
ATOM     22  H   UNL     1       6.675   7.051  -2.289  1.00  0.00     0.167 HD
ATOM     23  C   UNL     1       7.519   8.660   1.714  1.00  0.00     0.037 A 
ATOM     24  C   UNL     1       6.121   7.320  -5.015  1.00  0.00     0.037 A 
ATOM     25  C   UNL     1       7.950   9.681   0.804  1.00  0.00     0.049 A 
ATOM     26  C   UNL     1       6.784   8.604  -4.579  1.00  0.00     0.074 A 
ATOM     27  C   UNL     1       8.638  10.848   1.074  1.00  0.00     0.029 A 
ATOM     28  N   UNL     1       7.758   9.631  -0.569  1.00  0.00    -0.354 N 
ATOM     29  N   UNL     1       7.132   8.983  -3.372  1.00  0.00    -0.248 NA
ATOM     30  C   UNL     1       7.114   9.579  -5.630  1.00  0.00     0.031 C 
ATOM     31  C   UNL     1       8.858  11.509  -0.139  1.00  0.00     0.029 A 
ATOM     32  C   UNL     1       8.330  10.739  -1.164  1.00  0.00     0.049 A 
ATOM     33  H   UNL     1       7.285   8.912  -1.048  1.00  0.00     0.167 HD
ATOM     34  C   UNL     1       7.776  10.206  -3.525  1.00  0.00     0.074 A 
ATOM     35  C   UNL     1       7.757  10.513  -4.940  1.00  0.00     0.031 C 
ATOM     36  C   UNL     1       8.343  10.998  -2.582  1.00  0.00     0.037 A 
BRANCH  23  37
ATOM     37  C   UNL     1       7.743   8.837   3.193  1.00  0.00     0.058 A 
ATOM     38  C   UNL     1       8.652   8.021   3.892  1.00  0.00     0.135 A 
ATOM     39  C   UNL     1       7.020   9.786   3.931  1.00  0.00     0.135 A 
ATOM     40  F   UNL     1       9.371   7.093   3.239  1.00  0.00    -0.206 F 
ATOM     41  C   UNL     1       8.768   8.075   5.275  1.00  0.00     0.059 A 
ATOM     42  C   UNL     1       7.155   9.889   5.314  1.00  0.00     0.059 A 
ATOM     43  F   UNL     1       6.153  10.606   3.316  1.00  0.00    -0.206 F 
ATOM     44  C   UNL     1       8.006   9.006   5.979  1.00  0.00     0.060 A 
BRANCH  44  45
ATOM     45  S   UNL     1       8.148   9.036   7.777  1.00  0.00     0.124 S 
ATOM     46  O   UNL     1       7.361   7.864   8.150  1.00  0.00    -0.237 OA
ATOM     47  O   UNL     1       9.584   8.927   7.983  1.00  0.00    -0.237 OA
ATOM     48  O   UNL     1       7.560  10.327   8.139  1.00  0.00    -0.744 OA
ENDBRANCH  44  45
ENDBRANCH  23  37
BRANCH  24  49
ATOM     49  C   UNL     1       5.755   7.109  -6.444  1.00  0.00     0.058 A 
ATOM     50  C   UNL     1       6.751   6.902  -7.412  1.00  0.00     0.135 A 
ATOM     51  C   UNL     1       4.421   7.125  -6.878  1.00  0.00     0.135 A 
ATOM     52  F   UNL     1       8.042   6.882  -7.049  1.00  0.00    -0.206 F 
ATOM     53  C   UNL     1       6.443   6.748  -8.760  1.00  0.00     0.059 A 
ATOM     54  C   UNL     1       4.086   6.954  -8.221  1.00  0.00     0.059 A 
ATOM     55  F   UNL     1       3.428   7.300  -5.992  1.00  0.00    -0.206 F 
ATOM     56  C   UNL     1       5.106   6.777  -9.156  1.00  0.00     0.060 A 
BRANCH  56  57
ATOM     57  S   UNL     1       4.724   6.544 -10.908  1.00  0.00     0.124 S 
ATOM     58  O   UNL     1       5.226   7.784 -11.487  1.00  0.00    -0.237 OA
ATOM     59  O   UNL     1       5.481   5.338 -11.225  1.00  0.00    -0.237 OA
ATOM     60  O   UNL     1       3.272   6.385 -10.917  1.00  0.00    -0.744 OA
ENDBRANCH  56  57
ENDBRANCH  24  49
BRANCH  36  61
ATOM     61  C   UNL     1       9.070  12.229  -3.040  1.00  0.00     0.058 A 
ATOM     62  C   UNL     1       8.388  13.377  -3.463  1.00  0.00     0.135 A 
ATOM     63  C   UNL     1      10.471  12.288  -2.948  1.00  0.00     0.135 A 
ATOM     64  F   UNL     1       7.050  13.367  -3.574  1.00  0.00    -0.206 F 
ATOM     65  C   UNL     1       9.070  14.546  -3.783  1.00  0.00     0.059 A 
ATOM     66  C   UNL     1      11.171  13.454  -3.237  1.00  0.00     0.059 A 
ATOM     67  F   UNL     1      11.168  11.216  -2.538  1.00  0.00    -0.206 F 
ATOM     68  C   UNL     1      10.461  14.577  -3.656  1.00  0.00     0.060 A 
BRANCH  68  69
ATOM     69  S   UNL     1      11.327  16.123  -3.999  1.00  0.00     0.124 S 
ATOM     70  O   UNL     1      11.264  16.179  -5.456  1.00  0.00    -0.237 OA
ATOM     71  O   UNL     1      10.507  17.103  -3.291  1.00  0.00    -0.237 OA
ATOM     72  O   UNL     1      12.654  15.902  -3.434  1.00  0.00    -0.744 OA
ENDBRANCH  68  69
ENDBRANCH  36  61
ENDBRANCH  10  11
ENDBRANCH   3   5
ENDBRANCH   2   3
ENDBRANCH   1   2
BRANCH   1  73
ATOM     73  C   UNL     1       3.419  -1.328  -1.895  1.00  0.00     0.274 C 
BRANCH  73  74
ATOM     74  O   UNL     1       3.224   0.102  -1.891  1.00  0.00    -0.458 OA
BRANCH  74  75
ATOM     75  C   UNL     1       1.974   0.551  -1.542  1.00  0.00     0.365 C 
ATOM     76  O   UNL     1       1.096  -0.178  -1.090  1.00  0.00    -0.245 OA
BRANCH  75  77
ATOM     77  C   UNL     1       1.766   2.041  -1.922  1.00  0.00     0.295 C 
ATOM     78  C   UNL     1       0.612   2.117  -2.949  1.00  0.00     0.078 C 
ATOM     79  N   UNL     1       1.650   2.998  -0.781  1.00  0.00    -0.317 N 
ATOM     80  C   UNL     1       0.010   3.513  -3.114  1.00  0.00     0.016 C 
ATOM     81  C   UNL     1       1.341   4.390  -1.196  1.00  0.00     0.188 C 
ATOM     82  H   UNL     1       2.608   3.011  -0.432  1.00  0.00     0.349 HD
ATOM     83  C   UNL     1       1.025   4.566  -2.696  1.00  0.00     0.048 C 
ATOM     84  C   UNL     1       2.487   5.353  -0.851  1.00  0.00     0.065 C 
ATOM     85  C   UNL     1       0.530   5.998  -2.937  1.00  0.00     0.010 C 
ATOM     86  C   UNL     1       2.156   6.810  -1.166  1.00  0.00     0.006 C 
ATOM     87  C   UNL     1       1.621   7.007  -2.581  1.00  0.00     0.001 C 
BRANCH  79  88
ATOM     88  C   UNL     1       0.934   2.542   0.443  1.00  0.00     0.195 C 
ATOM     89  C   UNL     1      -0.577   2.306   0.243  1.00  0.00     0.067 C 
ATOM     90  C   UNL     1       1.139   3.509   1.645  1.00  0.00     0.134 C 
ATOM     91  C   UNL     1      -1.248   1.672   1.465  1.00  0.00     0.017 C 
ATOM     92  S   UNL     1       0.554   2.814   3.219  1.00  0.00    -0.156 SA
ATOM     93  C   UNL     1      -1.158   2.512   2.731  1.00  0.00     0.070 C 
ENDBRANCH  79  88
ENDBRANCH  75  77
ENDBRANCH  74  75
ENDBRANCH  73  74
ENDBRANCH   1  73
TORSDOF 15
