REMARK SMILES COCCN(CC(=O)OCCOC(=O)c1ccc(-c2c3nc(c(-c4c(F)cc(S(=O)(=O)[O-])cc4F)c4ccc([nH]4)c(-c4c(F)cc(S(=O)(=O)[O-])cc4F)c4nc(c(-c5c(F)cc(S(=O)(=O)[O-])cc5F)c5ccc2[nH]5)C=C4)C=C3)cc1)C(=O)c1cccc(N)c1
REMARK SMILES IDX 10 1 9 2 7 3 8 4 6 5 5 6 4 7 3 8 2 9 1 10 81 11 82 12 83 13
REMARK SMILES IDX 84 14 89 15 85 16 87 17 86 18 88 19 11 22 12 23 13 24 14 25
REMARK SMILES IDX 15 26 16 27 80 28 17 29 79 30 18 31 19 32 20 33 73 34 21 35
REMARK SMILES IDX 78 36 72 37 74 38 22 39 77 40 71 41 70 42 23 44 57 45 36 46
REMARK SMILES IDX 56 47 37 48 40 49 55 50 75 51 38 52 39 53 54 55 76 56 41 57
REMARK SMILES IDX 24 58 25 59 34 60 26 61 27 62 33 63 35 64 28 65 29 66 30 67
REMARK SMILES IDX 31 68 32 69 58 70 59 71 68 72 60 73 61 74 67 75 69 76 62 77
REMARK SMILES IDX 63 78 64 79 65 80 66 81 42 82 43 83 52 84 44 85 45 86 51 87
REMARK SMILES IDX 53 88 46 89 47 90 48 91 49 92 50 93
REMARK H PARENT 88 20 88 21 74 43 40 54
REMARK Flexibility Score: inf
ROOT
ATOM      1  C   UNL     1      -0.131   0.404   6.218  1.00  0.00     0.274 C 
ENDROOT
BRANCH   1   2
ATOM      2  O   UNL     1      -0.161   0.560   4.776  1.00  0.00    -0.461 OA
BRANCH   2   3
ATOM      3  C   UNL     1       1.014   0.939   4.202  1.00  0.00     0.325 C 
ATOM      4  O   UNL     1       2.000   1.297   4.846  1.00  0.00    -0.250 OA
BRANCH   3   5
ATOM      5  C   UNL     1       1.108   0.696   2.685  1.00  0.00     0.242 C 
BRANCH   5   6
ATOM      6  N   UNL     1      -0.090   0.706   1.832  1.00  0.00    -0.325 N 
BRANCH   6   7
ATOM      7  C   UNL     1      -0.487   2.012   1.290  1.00  0.00     0.149 C 
BRANCH   7   8
ATOM      8  C   UNL     1       0.426   2.509   0.148  1.00  0.00     0.181 C 
BRANCH   8   9
ATOM      9  O   UNL     1       0.324   1.676  -1.007  1.00  0.00    -0.383 OA
ATOM     10  C   UNL     1       1.458   0.843  -1.199  1.00  0.00     0.194 C 
ENDBRANCH   8   9
ENDBRANCH   7   8
ENDBRANCH   6   7
BRANCH   6  11
ATOM     11  C   UNL     1      -0.851  -0.412   1.463  1.00  0.00     0.254 C 
ATOM     12  O   UNL     1      -1.948  -0.323   0.912  1.00  0.00    -0.269 OA
BRANCH  11  13
ATOM     13  C   UNL     1      -0.354  -1.786   1.699  1.00  0.00     0.042 A 
ATOM     14  C   UNL     1       0.749  -2.283   0.999  1.00  0.00     0.014 A 
ATOM     15  C   UNL     1      -1.055  -2.618   2.584  1.00  0.00     0.039 A 
ATOM     16  C   UNL     1       1.187  -3.586   1.232  1.00  0.00     0.003 A 
ATOM     17  C   UNL     1      -0.562  -3.892   2.891  1.00  0.00     0.032 A 
ATOM     18  C   UNL     1       0.534  -4.383   2.176  1.00  0.00     0.025 A 
BRANCH  17  19
ATOM     19  N   UNL     1      -1.198  -4.688   3.837  1.00  0.00    -0.399 N 
ATOM     20  H   UNL     1      -0.844  -5.582   4.045  1.00  0.00     0.156 HD
ATOM     21  H   UNL     1      -2.002  -4.357   4.298  1.00  0.00     0.156 HD
ENDBRANCH  17  19
ENDBRANCH  11  13
ENDBRANCH   6  11
ENDBRANCH   5   6
ENDBRANCH   3   5
ENDBRANCH   2   3
ENDBRANCH   1   2
BRANCH   1  22
ATOM     22  C   UNL     1       0.080  -1.057   6.680  1.00  0.00     0.275 C 
BRANCH  22  23
ATOM     23  O   UNL     1       1.426  -1.560   6.493  1.00  0.00    -0.458 OA
BRANCH  23  24
ATOM     24  C   UNL     1       1.652  -1.943   5.228  1.00  0.00     0.338 C 
ATOM     25  O   UNL     1       0.852  -1.800   4.306  1.00  0.00    -0.246 OA
BRANCH  24  26
ATOM     26  C   UNL     1       2.952  -2.499   4.902  1.00  0.00     0.060 A 
ATOM     27  C   UNL     1       3.793  -1.727   4.091  1.00  0.00     0.016 A 
ATOM     28  C   UNL     1       3.186  -3.863   5.086  1.00  0.00     0.016 A 
ATOM     29  C   UNL     1       4.880  -2.319   3.462  1.00  0.00     0.010 A 
ATOM     30  C   UNL     1       4.297  -4.450   4.479  1.00  0.00     0.010 A 
ATOM     31  C   UNL     1       5.148  -3.680   3.667  1.00  0.00    -0.014 A 
BRANCH  31  32
ATOM     32  C   UNL     1       6.438  -4.234   3.206  1.00  0.00     0.031 A 
ATOM     33  C   UNL     1       6.558  -5.079   1.977  1.00  0.00     0.074 A 
ATOM     34  C   UNL     1       7.511  -3.951   3.968  1.00  0.00     0.049 A 
ATOM     35  N   UNL     1       7.620  -5.671   1.497  1.00  0.00    -0.248 NA
ATOM     36  C   UNL     1       5.340  -5.288   1.181  1.00  0.00     0.031 C 
ATOM     37  C   UNL     1       7.479  -3.128   5.183  1.00  0.00     0.029 A 
ATOM     38  N   UNL     1       8.818  -4.332   3.856  1.00  0.00    -0.354 N 
ATOM     39  C   UNL     1       7.207  -6.326   0.344  1.00  0.00     0.074 A 
ATOM     40  C   UNL     1       5.789  -6.063   0.198  1.00  0.00     0.031 C 
ATOM     41  C   UNL     1       8.706  -3.092   5.719  1.00  0.00     0.029 A 
ATOM     42  C   UNL     1       9.595  -3.912   4.907  1.00  0.00     0.049 A 
ATOM     43  H   UNL     1       9.168  -4.855   3.098  1.00  0.00     0.167 HD
ATOM     44  C   UNL     1       7.953  -7.076  -0.503  1.00  0.00     0.037 A 
ATOM     45  C   UNL     1      10.875  -4.188   5.207  1.00  0.00     0.037 A 
ATOM     46  C   UNL     1       9.364  -7.323  -0.332  1.00  0.00     0.049 A 
ATOM     47  C   UNL     1      11.664  -5.045   4.270  1.00  0.00     0.074 A 
ATOM     48  C   UNL     1      10.223  -8.029  -1.158  1.00  0.00     0.029 A 
ATOM     49  N   UNL     1      10.122  -6.883   0.744  1.00  0.00    -0.354 N 
ATOM     50  N   UNL     1      11.267  -5.628   3.165  1.00  0.00    -0.248 NA
ATOM     51  C   UNL     1      13.070  -5.279   4.613  1.00  0.00     0.031 C 
ATOM     52  C   UNL     1      11.491  -8.043  -0.565  1.00  0.00     0.029 A 
ATOM     53  C   UNL     1      11.430  -7.322   0.616  1.00  0.00     0.049 A 
ATOM     54  H   UNL     1       9.780  -6.339   1.490  1.00  0.00     0.167 HD
ATOM     55  C   UNL     1      12.377  -6.297   2.673  1.00  0.00     0.074 A 
ATOM     56  C   UNL     1      13.466  -6.033   3.596  1.00  0.00     0.031 C 
ATOM     57  C   UNL     1      12.488  -7.059   1.558  1.00  0.00     0.037 A 
BRANCH  44  58
ATOM     58  C   UNL     1       7.275  -7.700  -1.690  1.00  0.00     0.058 A 
ATOM     59  C   UNL     1       6.996  -6.960  -2.848  1.00  0.00     0.135 A 
ATOM     60  C   UNL     1       7.001  -9.077  -1.709  1.00  0.00     0.135 A 
ATOM     61  F   UNL     1       7.230  -5.639  -2.878  1.00  0.00    -0.206 F 
ATOM     62  C   UNL     1       6.472  -7.565  -3.988  1.00  0.00     0.059 A 
ATOM     63  C   UNL     1       6.488  -9.705  -2.841  1.00  0.00     0.059 A 
ATOM     64  F   UNL     1       7.248  -9.829  -0.625  1.00  0.00    -0.206 F 
ATOM     65  C   UNL     1       6.224  -8.939  -3.976  1.00  0.00     0.060 A 
BRANCH  65  66
ATOM     66  S   UNL     1       5.592  -9.723  -5.477  1.00  0.00     0.124 S 
ATOM     67  O   UNL     1       4.188  -9.324  -5.442  1.00  0.00    -0.237 OA
ATOM     68  O   UNL     1       6.401  -9.102  -6.521  1.00  0.00    -0.237 OA
ATOM     69  O   UNL     1       5.848 -11.142  -5.252  1.00  0.00    -0.744 OA
ENDBRANCH  65  66
ENDBRANCH  44  58
BRANCH  45  70
ATOM     70  C   UNL     1      11.446  -3.665   6.469  1.00  0.00     0.058 A 
ATOM     71  C   UNL     1      12.318  -2.570   6.470  1.00  0.00     0.135 A 
ATOM     72  C   UNL     1      11.056  -4.203   7.705  1.00  0.00     0.135 A 
ATOM     73  F   UNL     1      12.709  -2.022   5.310  1.00  0.00    -0.206 F 
ATOM     74  C   UNL     1      12.787  -2.021   7.658  1.00  0.00     0.059 A 
ATOM     75  C   UNL     1      11.497  -3.661   8.906  1.00  0.00     0.059 A 
ATOM     76  F   UNL     1      10.200  -5.235   7.750  1.00  0.00    -0.206 F 
ATOM     77  C   UNL     1      12.367  -2.572   8.872  1.00  0.00     0.060 A 
BRANCH  77  78
ATOM     78  S   UNL     1      12.906  -1.808  10.417  1.00  0.00     0.124 S 
ATOM     79  O   UNL     1      14.215  -2.422  10.604  1.00  0.00    -0.237 OA
ATOM     80  O   UNL     1      12.909  -0.387  10.081  1.00  0.00    -0.237 OA
ATOM     81  O   UNL     1      11.872  -2.215  11.363  1.00  0.00    -0.744 OA
ENDBRANCH  77  78
ENDBRANCH  45  70
BRANCH  57  82
ATOM     82  C   UNL     1      13.837  -7.651   1.290  1.00  0.00     0.058 A 
ATOM     83  C   UNL     1      14.284  -8.784   1.986  1.00  0.00     0.135 A 
ATOM     84  C   UNL     1      14.690  -7.080   0.334  1.00  0.00     0.135 A 
ATOM     85  F   UNL     1      13.505  -9.355   2.918  1.00  0.00    -0.206 F 
ATOM     86  C   UNL     1      15.548  -9.317   1.763  1.00  0.00     0.059 A 
ATOM     87  C   UNL     1      15.951  -7.607   0.082  1.00  0.00     0.059 A 
ATOM     88  F   UNL     1      14.301  -5.997  -0.358  1.00  0.00    -0.206 F 
ATOM     89  C   UNL     1      16.378  -8.716   0.814  1.00  0.00     0.060 A 
BRANCH  89  90
ATOM     90  S   UNL     1      18.019  -9.409   0.526  1.00  0.00     0.124 S 
ATOM     91  O   UNL     1      18.780  -8.820   1.623  1.00  0.00    -0.237 OA
ATOM     92  O   UNL     1      17.780 -10.846   0.621  1.00  0.00    -0.237 OA
ATOM     93  O   UNL     1      18.358  -8.923  -0.808  1.00  0.00    -0.744 OA
ENDBRANCH  89  90
ENDBRANCH  57  82
ENDBRANCH  31  32
ENDBRANCH  24  26
ENDBRANCH  23  24
ENDBRANCH  22  23
ENDBRANCH   1  22
TORSDOF 21
