REMARK SMILES O=C(OCCOC(=O)[C@@H]1C[C@@H]2CC[C@H]1N2C(=O)C[C@H]1CCCCO1)c1ccc(-c2c3nc(c(-c4c(F)cc(S(=O)(=O)[O-])cc4F)c4ccc([nH]4)c(-c4c(F)cc(S(=O)(=O)[O-])cc4F)c4nc(c(-c5c(F)cc(S(=O)(=O)[O-])cc5F)c5ccc2[nH]5)C=C4)C=C3)cc1
REMARK SMILES IDX 4 1 3 2 2 3 1 4 25 5 26 6 90 7 27 8 89 9 28 10 29 11 30 12
REMARK SMILES IDX 83 13 31 14 88 15 82 16 84 17 32 18 87 19 81 20 80 21 33 23
REMARK SMILES IDX 67 24 46 25 66 26 47 27 50 28 65 29 85 30 48 31 49 32 64 34
REMARK SMILES IDX 86 35 51 36 34 37 35 38 44 39 36 40 37 41 43 42 45 43 38 44
REMARK SMILES IDX 39 45 40 46 41 47 42 48 68 49 69 50 78 51 70 52 71 53 77 54
REMARK SMILES IDX 79 55 72 56 73 57 74 58 75 59 76 60 52 61 53 62 62 63 54 64
REMARK SMILES IDX 55 65 61 66 63 67 56 68 57 69 58 70 59 71 60 72 5 73 6 74
REMARK SMILES IDX 7 75 8 76 9 77 10 78 14 79 11 80 13 81 15 82 12 83 16 84
REMARK SMILES IDX 17 85 18 86 19 87 20 88 24 89 21 90 23 91 22 92
REMARK H PARENT 84 22 50 33
REMARK Flexibility Score: inf
ROOT
ATOM      1  C   UNL     1      -2.946  -4.462  -3.720  1.00  0.00     0.275 C 
ENDROOT
BRANCH   1   2
ATOM      2  O   UNL     1      -1.656  -4.423  -4.358  1.00  0.00    -0.458 OA
BRANCH   2   3
ATOM      3  C   UNL     1      -0.621  -3.711  -3.858  1.00  0.00     0.338 C 
ATOM      4  O   UNL     1       0.415  -4.258  -3.509  1.00  0.00    -0.246 OA
BRANCH   3   5
ATOM      5  C   UNL     1      -0.760  -2.223  -3.830  1.00  0.00     0.060 A 
ATOM      6  C   UNL     1      -1.928  -1.531  -4.151  1.00  0.00     0.016 A 
ATOM      7  C   UNL     1       0.340  -1.494  -3.365  1.00  0.00     0.016 A 
ATOM      8  C   UNL     1      -2.046  -0.168  -3.878  1.00  0.00     0.010 A 
ATOM      9  C   UNL     1       0.214  -0.137  -3.050  1.00  0.00     0.010 A 
ATOM     10  C   UNL     1      -0.989   0.537  -3.293  1.00  0.00    -0.014 A 
BRANCH  10  11
ATOM     11  C   UNL     1      -1.127   2.000  -3.088  1.00  0.00     0.031 A 
ATOM     12  C   UNL     1      -0.303   2.917  -3.946  1.00  0.00     0.074 A 
ATOM     13  C   UNL     1      -2.036   2.495  -2.220  1.00  0.00     0.049 A 
ATOM     14  N   UNL     1      -0.396   4.212  -4.093  1.00  0.00    -0.248 NA
ATOM     15  C   UNL     1       0.773   2.300  -4.740  1.00  0.00     0.031 C 
ATOM     16  C   UNL     1      -2.853   1.704  -1.295  1.00  0.00     0.029 A 
ATOM     17  N   UNL     1      -2.447   3.786  -1.993  1.00  0.00    -0.354 N 
ATOM     18  C   UNL     1       0.588   4.549  -5.013  1.00  0.00     0.074 A 
ATOM     19  C   UNL     1       1.338   3.353  -5.304  1.00  0.00     0.031 C 
ATOM     20  C   UNL     1      -3.689   2.522  -0.628  1.00  0.00     0.029 A 
ATOM     21  C   UNL     1      -3.478   3.893  -1.085  1.00  0.00     0.049 A 
ATOM     22  H   UNL     1      -2.043   4.565  -2.439  1.00  0.00     0.167 HD
ATOM     23  C   UNL     1       0.806   5.736  -5.623  1.00  0.00     0.037 A 
ATOM     24  C   UNL     1      -4.191   4.971  -0.699  1.00  0.00     0.037 A 
ATOM     25  C   UNL     1       0.050   6.919  -5.343  1.00  0.00     0.049 A 
ATOM     26  C   UNL     1      -3.909   6.296  -1.369  1.00  0.00     0.074 A 
ATOM     27  C   UNL     1       0.172   8.175  -5.902  1.00  0.00     0.029 A 
ATOM     28  N   UNL     1      -0.978   6.984  -4.412  1.00  0.00    -0.354 N 
ATOM     29  N   UNL     1      -3.046   6.572  -2.320  1.00  0.00    -0.248 NA
ATOM     30  C   UNL     1      -4.713   7.448  -0.937  1.00  0.00     0.031 C 
ATOM     31  C   UNL     1      -0.766   9.011  -5.287  1.00  0.00     0.029 A 
ATOM     32  C   UNL     1      -1.495   8.264  -4.373  1.00  0.00     0.049 A 
ATOM     33  H   UNL     1      -1.292   6.230  -3.863  1.00  0.00     0.167 HD
ATOM     34  C   UNL     1      -3.229   7.918  -2.622  1.00  0.00     0.074 A 
ATOM     35  C   UNL     1      -4.293   8.396  -1.763  1.00  0.00     0.031 C 
ATOM     36  C   UNL     1      -2.578   8.693  -3.524  1.00  0.00     0.037 A 
BRANCH  23  37
ATOM     37  C   UNL     1       1.889   5.765  -6.661  1.00  0.00     0.058 A 
ATOM     38  C   UNL     1       1.729   5.104  -7.892  1.00  0.00     0.135 A 
ATOM     39  C   UNL     1       3.117   6.390  -6.404  1.00  0.00     0.135 A 
ATOM     40  F   UNL     1       0.583   4.461  -8.171  1.00  0.00    -0.206 F 
ATOM     41  C   UNL     1       2.768   5.019  -8.810  1.00  0.00     0.059 A 
ATOM     42  C   UNL     1       4.162   6.340  -7.322  1.00  0.00     0.059 A 
ATOM     43  F   UNL     1       3.323   7.023  -5.239  1.00  0.00    -0.206 F 
ATOM     44  C   UNL     1       3.984   5.633  -8.512  1.00  0.00     0.060 A 
BRANCH  44  45
ATOM     45  S   UNL     1       5.336   5.478  -9.697  1.00  0.00     0.124 S 
ATOM     46  O   UNL     1       5.744   4.091  -9.491  1.00  0.00    -0.237 OA
ATOM     47  O   UNL     1       4.673   5.761 -10.966  1.00  0.00    -0.237 OA
ATOM     48  O   UNL     1       6.293   6.487  -9.254  1.00  0.00    -0.744 OA
ENDBRANCH  44  45
ENDBRANCH  23  37
BRANCH  24  49
ATOM     49  C   UNL     1      -5.273   4.859   0.323  1.00  0.00     0.058 A 
ATOM     50  C   UNL     1      -6.623   5.042  -0.020  1.00  0.00     0.135 A 
ATOM     51  C   UNL     1      -4.978   4.622   1.674  1.00  0.00     0.135 A 
ATOM     52  F   UNL     1      -6.964   5.274  -1.297  1.00  0.00    -0.206 F 
ATOM     53  C   UNL     1      -7.633   5.035   0.940  1.00  0.00     0.059 A 
ATOM     54  C   UNL     1      -5.972   4.588   2.650  1.00  0.00     0.059 A 
ATOM     55  F   UNL     1      -3.708   4.421   2.059  1.00  0.00    -0.206 F 
ATOM     56  C   UNL     1      -7.296   4.814   2.275  1.00  0.00     0.060 A 
BRANCH  56  57
ATOM     57  S   UNL     1      -8.613   4.802   3.513  1.00  0.00     0.124 S 
ATOM     58  O   UNL     1      -8.947   6.219   3.601  1.00  0.00    -0.237 OA
ATOM     59  O   UNL     1      -9.616   3.947   2.885  1.00  0.00    -0.237 OA
ATOM     60  O   UNL     1      -7.962   4.231   4.689  1.00  0.00    -0.744 OA
ENDBRANCH  56  57
ENDBRANCH  24  49
BRANCH  36  61
ATOM     61  C   UNL     1      -3.019  10.121  -3.660  1.00  0.00     0.058 A 
ATOM     62  C   UNL     1      -2.693  11.083  -2.693  1.00  0.00     0.135 A 
ATOM     63  C   UNL     1      -3.688  10.547  -4.819  1.00  0.00     0.135 A 
ATOM     64  F   UNL     1      -2.057  10.722  -1.567  1.00  0.00    -0.206 F 
ATOM     65  C   UNL     1      -3.026  12.422  -2.865  1.00  0.00     0.059 A 
ATOM     66  C   UNL     1      -4.006  11.885  -5.023  1.00  0.00     0.059 A 
ATOM     67  F   UNL     1      -4.009   9.665  -5.778  1.00  0.00    -0.206 F 
ATOM     68  C   UNL     1      -3.676  12.814  -4.037  1.00  0.00     0.060 A 
BRANCH  68  69
ATOM     69  S   UNL     1      -4.042  14.564  -4.280  1.00  0.00     0.124 S 
ATOM     70  O   UNL     1      -5.189  14.748  -3.398  1.00  0.00    -0.237 OA
ATOM     71  O   UNL     1      -2.803  15.206  -3.852  1.00  0.00    -0.237 OA
ATOM     72  O   UNL     1      -4.325  14.656  -5.709  1.00  0.00    -0.744 OA
ENDBRANCH  68  69
ENDBRANCH  36  61
ENDBRANCH  10  11
ENDBRANCH   3   5
ENDBRANCH   2   3
ENDBRANCH   1   2
BRANCH   1  73
ATOM     73  C   UNL     1      -3.006  -4.468  -2.189  1.00  0.00     0.274 C 
BRANCH  73  74
ATOM     74  O   UNL     1      -2.255  -3.434  -1.521  1.00  0.00    -0.462 OA
BRANCH  74  75
ATOM     75  C   UNL     1      -1.779  -3.828  -0.308  1.00  0.00     0.311 C 
ATOM     76  O   UNL     1      -1.918  -4.963   0.145  1.00  0.00    -0.252 OA
BRANCH  75  77
ATOM     77  C   UNL     1      -1.163  -2.749   0.545  1.00  0.00     0.124 C 
ATOM     78  C   UNL     1      -0.654  -1.390   0.029  1.00  0.00     0.042 C 
ATOM     79  C   UNL     1       0.098  -3.294   1.228  1.00  0.00     0.099 C 
ATOM     80  C   UNL     1       0.767  -1.262   0.649  1.00  0.00     0.086 C 
ATOM     81  C   UNL     1       1.218  -3.555   0.182  1.00  0.00     0.028 C 
ATOM     82  N   UNL     1       0.598  -2.076   1.825  1.00  0.00    -0.336 N 
ATOM     83  C   UNL     1       1.759  -2.137  -0.110  1.00  0.00     0.027 C 
BRANCH  82  84
ATOM     84  C   UNL     1       1.179  -1.897   3.050  1.00  0.00     0.225 C 
ATOM     85  O   UNL     1       2.142  -1.157   3.229  1.00  0.00    -0.275 OA
BRANCH  84  86
ATOM     86  C   UNL     1       0.493  -2.631   4.187  1.00  0.00     0.132 C 
BRANCH  86  87
ATOM     87  C   UNL     1      -0.948  -2.123   4.269  1.00  0.00     0.127 C 
ATOM     88  C   UNL     1      -1.825  -2.919   5.229  1.00  0.00     0.033 C 
ATOM     89  O   UNL     1      -0.926  -0.750   4.674  1.00  0.00    -0.378 OA
ATOM     90  C   UNL     1      -3.237  -2.323   5.234  1.00  0.00     0.005 C 
ATOM     91  C   UNL     1      -2.206  -0.137   4.528  1.00  0.00     0.160 C 
ATOM     92  C   UNL     1      -3.200  -0.811   5.462  1.00  0.00     0.029 C 
ENDBRANCH  86  87
ENDBRANCH  84  86
ENDBRANCH  82  84
ENDBRANCH  75  77
ENDBRANCH  74  75
ENDBRANCH  73  74
ENDBRANCH   1  73
TORSDOF 17
