REMARK SMILES O=C(N[C@@H](CS)C(=O)N[C@@H](CO)C(=O)OCCOC(=O)c1ccc(-c2c3nc(c(-c4c(F)cc(S(=O)(=O)[O-])cc4F)c4ccc([nH]4)c(-c4c(F)cc(S(=O)(=O)[O-])cc4F)c4nc(c(-c5c(F)cc(S(=O)(=O)[O-])cc5F)c5ccc2[nH]5)C=C4)C=C3)cc1)c1ccc(F)cc1
REMARK SMILES IDX 16 1 15 2 13 3 14 4 10 5 9 6 7 7 8 8 4 10 3 11 1 12 2 13
REMARK SMILES IDX 87 15 88 16 93 17 89 18 92 19 90 20 91 21 5 22 6 23 11 25
REMARK SMILES IDX 12 26 17 28 18 29 19 30 20 31 21 32 22 33 86 34 23 35 85 36
REMARK SMILES IDX 24 37 25 38 26 39 79 40 27 41 84 42 78 43 80 44 28 45 83 46
REMARK SMILES IDX 77 47 76 48 29 50 63 51 42 52 62 53 43 54 46 55 61 56 81 57
REMARK SMILES IDX 44 58 45 59 60 61 82 62 47 63 30 64 31 65 40 66 32 67 33 68
REMARK SMILES IDX 39 69 41 70 34 71 35 72 36 73 37 74 38 75 64 76 65 77 74 78
REMARK SMILES IDX 66 79 67 80 73 81 75 82 68 83 69 84 70 85 71 86 72 87 48 88
REMARK SMILES IDX 49 89 58 90 50 91 51 92 57 93 59 94 52 95 53 96 54 97 55 98
REMARK SMILES IDX 56 99
REMARK H PARENT 9 9 3 14 6 24 12 27 80 49 46 60
REMARK Flexibility Score: inf
ROOT
ATOM      1  C   UNL     1       5.601   7.344  -0.212  1.00  0.00     0.274 C 
ENDROOT
BRANCH   1   2
ATOM      2  O   UNL     1       5.119   6.111   0.359  1.00  0.00    -0.460 OA
BRANCH   2   3
ATOM      3  C   UNL     1       3.920   5.652  -0.105  1.00  0.00     0.331 C 
ATOM      4  O   UNL     1       3.255   6.192  -0.981  1.00  0.00    -0.250 OA
BRANCH   3   5
ATOM      5  C   UNL     1       3.436   4.424   0.679  1.00  0.00     0.218 C 
BRANCH   5   6
ATOM      6  N   UNL     1       4.505   3.800   1.469  1.00  0.00    -0.339 N 
ATOM      7  C   UNL     1       4.985   2.535   1.546  1.00  0.00     0.244 C 
ATOM      8  O   UNL     1       5.962   2.373   2.288  1.00  0.00    -0.273 OA
ATOM      9  H   UNL     1       4.969   4.431   2.065  1.00  0.00     0.164 HD
BRANCH   7  10
ATOM     10  C   UNL     1       4.405   1.328   0.775  1.00  0.00     0.181 C 
BRANCH  10  11
ATOM     11  N   UNL     1       3.011   1.033   1.123  1.00  0.00    -0.339 N 
ATOM     12  O   UNL     1       1.116  -0.182   1.080  1.00  0.00    -0.269 OA
ATOM     13  C   UNL     1       2.339  -0.160   0.998  1.00  0.00     0.251 C 
ATOM     14  H   UNL     1       2.491   1.784   1.492  1.00  0.00     0.164 HD
BRANCH  13  15
ATOM     15  C   UNL     1       3.081  -1.410   0.722  1.00  0.00     0.040 A 
ATOM     16  C   UNL     1       4.070  -1.856   1.607  1.00  0.00     0.017 A 
ATOM     17  C   UNL     1       2.738  -2.178  -0.400  1.00  0.00     0.017 A 
ATOM     18  C   UNL     1       4.748  -3.046   1.344  1.00  0.00     0.040 A 
ATOM     19  C   UNL     1       3.418  -3.371  -0.655  1.00  0.00     0.040 A 
ATOM     20  C   UNL     1       4.417  -3.792   0.217  1.00  0.00     0.123 A 
ATOM     21  F   UNL     1       5.060  -4.943  -0.018  1.00  0.00    -0.207 F 
ENDBRANCH  13  15
ENDBRANCH  10  11
BRANCH  10  22
ATOM     22  C   UNL     1       4.706   1.369  -0.736  1.00  0.00     0.101 C 
BRANCH  22  23
ATOM     23  S   UNL     1       3.278   1.700  -1.827  1.00  0.00    -0.177 SA
ATOM     24  H   UNL     1       2.374   0.691  -1.710  1.00  0.00     0.102 HD
ENDBRANCH  22  23
ENDBRANCH  10  22
ENDBRANCH   7  10
ENDBRANCH   5   6
BRANCH   5  25
ATOM     25  C   UNL     1       2.291   4.886   1.591  1.00  0.00     0.193 C 
BRANCH  25  26
ATOM     26  O   UNL     1       2.783   5.643   2.702  1.00  0.00    -0.394 OA
ATOM     27  H   UNL     1       3.379   5.090   3.231  1.00  0.00     0.210 HD
ENDBRANCH  25  26
ENDBRANCH   5  25
ENDBRANCH   3   5
ENDBRANCH   2   3
ENDBRANCH   1   2
BRANCH   1  28
ATOM     28  C   UNL     1       6.855   7.092  -1.041  1.00  0.00     0.275 C 
BRANCH  28  29
ATOM     29  O   UNL     1       6.525   6.269  -2.171  1.00  0.00    -0.458 OA
BRANCH  29  30
ATOM     30  C   UNL     1       7.016   5.009  -2.140  1.00  0.00     0.338 C 
ATOM     31  O   UNL     1       7.737   4.514  -1.292  1.00  0.00    -0.246 OA
BRANCH  30  32
ATOM     32  C   UNL     1       6.527   4.261  -3.308  1.00  0.00     0.060 A 
ATOM     33  C   UNL     1       5.158   4.143  -3.531  1.00  0.00     0.016 A 
ATOM     34  C   UNL     1       7.432   3.554  -4.100  1.00  0.00     0.016 A 
ATOM     35  C   UNL     1       4.695   3.241  -4.493  1.00  0.00     0.010 A 
ATOM     36  C   UNL     1       6.959   2.721  -5.120  1.00  0.00     0.010 A 
ATOM     37  C   UNL     1       5.580   2.513  -5.304  1.00  0.00    -0.014 A 
BRANCH  37  38
ATOM     38  C   UNL     1       5.093   1.500  -6.294  1.00  0.00     0.031 A 
ATOM     39  C   UNL     1       5.678   0.105  -6.299  1.00  0.00     0.074 A 
ATOM     40  C   UNL     1       4.133   1.790  -7.196  1.00  0.00     0.049 A 
ATOM     41  N   UNL     1       5.670  -0.795  -7.248  1.00  0.00    -0.248 NA
ATOM     42  C   UNL     1       6.377  -0.325  -5.077  1.00  0.00     0.031 C 
ATOM     43  C   UNL     1       3.388   3.047  -7.280  1.00  0.00     0.029 A 
ATOM     44  N   UNL     1       3.617   1.036  -8.225  1.00  0.00    -0.354 N 
ATOM     45  C   UNL     1       6.438  -1.856  -6.778  1.00  0.00     0.074 A 
ATOM     46  C   UNL     1       6.872  -1.500  -5.444  1.00  0.00     0.031 C 
ATOM     47  C   UNL     1       2.483   2.961  -8.264  1.00  0.00     0.029 A 
ATOM     48  C   UNL     1       2.673   1.701  -8.972  1.00  0.00     0.049 A 
ATOM     49  H   UNL     1       3.896   0.110  -8.408  1.00  0.00     0.167 HD
ATOM     50  C   UNL     1       6.761  -3.011  -7.411  1.00  0.00     0.037 A 
ATOM     51  C   UNL     1       2.080   1.383 -10.140  1.00  0.00     0.037 A 
ATOM     52  C   UNL     1       6.253  -3.394  -8.704  1.00  0.00     0.049 A 
ATOM     53  C   UNL     1       2.476   0.123 -10.851  1.00  0.00     0.074 A 
ATOM     54  C   UNL     1       6.529  -4.536  -9.438  1.00  0.00     0.029 A 
ATOM     55  N   UNL     1       5.334  -2.662  -9.441  1.00  0.00    -0.354 N 
ATOM     56  N   UNL     1       3.331  -0.797 -10.477  1.00  0.00    -0.248 NA
ATOM     57  C   UNL     1       1.861  -0.120 -12.163  1.00  0.00     0.031 C 
ATOM     58  C   UNL     1       5.792  -4.485 -10.627  1.00  0.00     0.029 A 
ATOM     59  C   UNL     1       5.031  -3.327 -10.618  1.00  0.00     0.049 A 
ATOM     60  H   UNL     1       4.954  -1.796  -9.168  1.00  0.00     0.167 HD
ATOM     61  C   UNL     1       3.358  -1.730 -11.507  1.00  0.00     0.074 A 
ATOM     62  C   UNL     1       2.422  -1.270 -12.513  1.00  0.00     0.031 C 
ATOM     63  C   UNL     1       4.097  -2.861 -11.610  1.00  0.00     0.037 A 
BRANCH  50  64
ATOM     64  C   UNL     1       7.752  -3.927  -6.744  1.00  0.00     0.058 A 
ATOM     65  C   UNL     1       7.412  -4.732  -5.647  1.00  0.00     0.135 A 
ATOM     66  C   UNL     1       9.059  -4.031  -7.252  1.00  0.00     0.135 A 
ATOM     67  F   UNL     1       6.184  -4.661  -5.111  1.00  0.00    -0.206 F 
ATOM     68  C   UNL     1       8.339  -5.593  -5.063  1.00  0.00     0.059 A 
ATOM     69  C   UNL     1       9.994  -4.900  -6.699  1.00  0.00     0.059 A 
ATOM     70  F   UNL     1       9.436  -3.284  -8.302  1.00  0.00    -0.206 F 
ATOM     71  C   UNL     1       9.629  -5.667  -5.595  1.00  0.00     0.060 A 
BRANCH  71  72
ATOM     72  S   UNL     1      10.824  -6.787  -4.833  1.00  0.00     0.124 S 
ATOM     73  O   UNL     1      11.206  -6.036  -3.641  1.00  0.00    -0.237 OA
ATOM     74  O   UNL     1      10.028  -7.987  -4.598  1.00  0.00    -0.237 OA
ATOM     75  O   UNL     1      11.862  -6.918  -5.851  1.00  0.00    -0.744 OA
ENDBRANCH  71  72
ENDBRANCH  50  64
BRANCH  51  76
ATOM     76  C   UNL     1       1.108   2.333 -10.743  1.00  0.00     0.058 A 
ATOM     77  C   UNL     1      -0.263   2.047 -10.764  1.00  0.00     0.135 A 
ATOM     78  C   UNL     1       1.528   3.575 -11.248  1.00  0.00     0.135 A 
ATOM     79  F   UNL     1      -0.709   0.865 -10.312  1.00  0.00    -0.206 F 
ATOM     80  C   UNL     1      -1.189   2.968 -11.244  1.00  0.00     0.059 A 
ATOM     81  C   UNL     1       0.620   4.521 -11.706  1.00  0.00     0.059 A 
ATOM     82  F   UNL     1       2.831   3.897 -11.242  1.00  0.00    -0.206 F 
ATOM     83  C   UNL     1      -0.738   4.208 -11.700  1.00  0.00     0.060 A 
BRANCH  83  84
ATOM     84  S   UNL     1      -1.949   5.447 -12.213  1.00  0.00     0.124 S 
ATOM     85  O   UNL     1      -2.269   5.001 -13.564  1.00  0.00    -0.237 OA
ATOM     86  O   UNL     1      -3.005   5.281 -11.219  1.00  0.00    -0.237 OA
ATOM     87  O   UNL     1      -1.203   6.698 -12.118  1.00  0.00    -0.744 OA
ENDBRANCH  83  84
ENDBRANCH  51  76
BRANCH  63  88
ATOM     88  C   UNL     1       3.901  -3.699 -12.838  1.00  0.00     0.058 A 
ATOM     89  C   UNL     1       4.486  -3.351 -14.065  1.00  0.00     0.135 A 
ATOM     90  C   UNL     1       3.152  -4.885 -12.777  1.00  0.00     0.135 A 
ATOM     91  F   UNL     1       5.203  -2.222 -14.175  1.00  0.00    -0.206 F 
ATOM     92  C   UNL     1       4.324  -4.145 -15.195  1.00  0.00     0.059 A 
ATOM     93  C   UNL     1       2.991  -5.702 -13.890  1.00  0.00     0.059 A 
ATOM     94  F   UNL     1       2.577  -5.261 -11.623  1.00  0.00    -0.206 F 
ATOM     95  C   UNL     1       3.573  -5.319 -15.098  1.00  0.00     0.060 A 
BRANCH  95  96
ATOM     96  S   UNL     1       3.392  -6.359 -16.563  1.00  0.00     0.124 S 
ATOM     97  O   UNL     1       2.394  -5.618 -17.328  1.00  0.00    -0.237 OA
ATOM     98  O   UNL     1       4.743  -6.360 -17.117  1.00  0.00    -0.237 OA
ATOM     99  O   UNL     1       2.945  -7.637 -16.018  1.00  0.00    -0.744 OA
ENDBRANCH  95  96
ENDBRANCH  63  88
ENDBRANCH  37  38
ENDBRANCH  30  32
ENDBRANCH  29  30
ENDBRANCH  28  29
ENDBRANCH   1  28
TORSDOF 22
