REMARK SMILES Cc1cc(CC(=O)C(=O)OCCOC(=O)c2ccc(-c3c4nc(c(-c5c(F)cc(S(=O)(=O)[O-])cc5F)c5ccc([nH]5)c(-c5c(F)cc(S(=O)(=O)[O-])cc5F)c5nc(c(-c6c(F)cc(S(=O)(=O)[O-])cc6F)c6ccc3[nH]6)C=C5)C=C4)cc2)cc2cn[nH]c12
REMARK SMILES IDX 12 1 11 2 10 3 8 4 9 5 6 6 7 7 5 8 4 9 1 10 2 11 3 12 87 13
REMARK SMILES IDX 83 14 86 15 82 16 84 17 85 18 13 20 14 21 15 22 16 23 17 24
REMARK SMILES IDX 81 25 18 26 80 27 19 28 20 29 21 30 74 31 22 32 79 33 73 34
REMARK SMILES IDX 75 35 23 36 78 37 72 38 71 39 24 41 58 42 37 43 57 44 38 45
REMARK SMILES IDX 41 46 56 47 76 48 39 49 40 50 55 52 77 53 42 54 25 55 26 56
REMARK SMILES IDX 35 57 27 58 28 59 34 60 36 61 29 62 30 63 31 64 32 65 33 66
REMARK SMILES IDX 59 67 60 68 69 69 61 70 62 71 68 72 70 73 63 74 64 75 65 76
REMARK SMILES IDX 66 77 67 78 43 79 44 80 53 81 45 82 46 83 52 84 54 85 47 86
REMARK SMILES IDX 48 87 49 88 50 89 51 90
REMARK H PARENT 86 19 75 40 41 51
REMARK Flexibility Score: inf
ROOT
ATOM      1  C   UNL     1       1.900  -2.390  -7.181  1.00  0.00     0.275 C 
ENDROOT
BRANCH   1   2
ATOM      2  C   UNL     1       2.270  -3.619  -6.353  1.00  0.00     0.275 C 
BRANCH   2   3
ATOM      3  O   UNL     1       1.117  -4.245  -5.762  1.00  0.00    -0.456 OA
BRANCH   3   4
ATOM      4  C   UNL     1       0.776  -3.784  -4.537  1.00  0.00     0.375 C 
ATOM      5  O   UNL     1       1.431  -3.007  -3.862  1.00  0.00    -0.243 OA
BRANCH   4   6
ATOM      6  C   UNL     1      -0.623  -4.290  -4.126  1.00  0.00     0.244 C 
ATOM      7  O   UNL     1      -1.068  -5.335  -4.592  1.00  0.00    -0.286 OA
BRANCH   6   8
ATOM      8  C   UNL     1      -1.393  -3.437  -3.132  1.00  0.00     0.124 C 
BRANCH   8   9
ATOM      9  C   UNL     1      -0.629  -3.190  -1.852  1.00  0.00    -0.039 A 
ATOM     10  C   UNL     1       0.802  -0.216   0.101  1.00  0.00     0.047 C 
ATOM     11  C   UNL     1       0.502  -1.621  -0.329  1.00  0.00    -0.025 A 
ATOM     12  C   UNL     1      -0.366  -1.883  -1.407  1.00  0.00     0.009 A 
ATOM     13  C   UNL     1       1.075  -2.751   0.279  1.00  0.00     0.068 A 
ATOM     14  C   UNL     1       0.796  -4.056  -0.105  1.00  0.00     0.020 A 
ATOM     15  N   UNL     1       1.985  -2.875   1.298  1.00  0.00    -0.278 N 
ATOM     16  C   UNL     1      -0.092  -4.290  -1.162  1.00  0.00     0.016 A 
ATOM     17  C   UNL     1       1.589  -4.860   0.740  1.00  0.00     0.143 A 
ATOM     18  N   UNL     1       2.317  -4.145   1.601  1.00  0.00    -0.183 NA
ATOM     19  H   UNL     1       2.366  -2.099   1.769  1.00  0.00     0.190 HD
ENDBRANCH   8   9
ENDBRANCH   6   8
ENDBRANCH   4   6
ENDBRANCH   3   4
ENDBRANCH   2   3
ENDBRANCH   1   2
BRANCH   1  20
ATOM     20  O   UNL     1       1.502  -1.279  -6.372  1.00  0.00    -0.458 OA
BRANCH  20  21
ATOM     21  C   UNL     1       0.186  -1.257  -6.071  1.00  0.00     0.338 C 
ATOM     22  O   UNL     1      -0.613  -2.175  -6.179  1.00  0.00    -0.246 OA
BRANCH  21  23
ATOM     23  C   UNL     1      -0.245   0.091  -5.719  1.00  0.00     0.060 A 
ATOM     24  C   UNL     1      -1.496   0.211  -5.101  1.00  0.00     0.016 A 
ATOM     25  C   UNL     1       0.413   1.183  -6.297  1.00  0.00     0.016 A 
ATOM     26  C   UNL     1      -2.171   1.401  -5.204  1.00  0.00     0.010 A 
ATOM     27  C   UNL     1      -0.274   2.366  -6.421  1.00  0.00     0.010 A 
ATOM     28  C   UNL     1      -1.581   2.429  -5.937  1.00  0.00    -0.014 A 
BRANCH  28  29
ATOM     29  C   UNL     1      -2.400   3.583  -6.222  1.00  0.00     0.031 A 
ATOM     30  C   UNL     1      -2.504   4.550  -5.109  1.00  0.00     0.074 A 
ATOM     31  C   UNL     1      -2.925   3.754  -7.447  1.00  0.00     0.049 A 
ATOM     32  N   UNL     1      -3.556   4.899  -4.448  1.00  0.00    -0.248 NA
ATOM     33  C   UNL     1      -1.244   5.079  -4.562  1.00  0.00     0.031 C 
ATOM     34  C   UNL     1      -2.653   2.993  -8.670  1.00  0.00     0.029 A 
ATOM     35  N   UNL     1      -3.745   4.742  -7.877  1.00  0.00    -0.354 N 
ATOM     36  C   UNL     1      -3.120   5.837  -3.517  1.00  0.00     0.074 A 
ATOM     37  C   UNL     1      -1.682   5.776  -3.516  1.00  0.00     0.031 C 
ATOM     38  C   UNL     1      -3.109   3.693  -9.733  1.00  0.00     0.029 A 
ATOM     39  C   UNL     1      -3.792   4.882  -9.254  1.00  0.00     0.049 A 
ATOM     40  H   UNL     1      -4.263   5.312  -7.264  1.00  0.00     0.167 HD
ATOM     41  C   UNL     1      -3.962   6.745  -2.953  1.00  0.00     0.037 A 
ATOM     42  C   UNL     1      -4.252   5.975  -9.913  1.00  0.00     0.037 A 
ATOM     43  C   UNL     1      -5.340   6.380  -3.136  1.00  0.00     0.049 A 
ATOM     44  C   UNL     1      -5.116   6.727  -8.955  1.00  0.00     0.074 A 
ATOM     45  C   UNL     1      -6.116   5.319  -2.712  1.00  0.00     0.029 A 
ATOM     46  N   UNL     1      -6.035   6.969  -4.166  1.00  0.00    -0.354 N 
ATOM     47  N   UNL     1      -6.254   6.273  -8.495  1.00  0.00    -0.248 NA
ATOM     48  C   UNL     1      -4.493   7.760  -8.135  1.00  0.00     0.031 C 
ATOM     49  C   UNL     1      -6.996   5.044  -3.797  1.00  0.00     0.029 A 
ATOM     50  C   UNL     1      -6.736   5.975  -4.804  1.00  0.00     0.049 A 
ATOM     51  H   UNL     1      -6.030   7.925  -4.402  1.00  0.00     0.167 HD
ATOM     52  C   UNL     1      -6.293   6.660  -7.160  1.00  0.00     0.074 A 
ATOM     53  C   UNL     1      -5.220   7.641  -7.019  1.00  0.00     0.031 C 
ATOM     54  C   UNL     1      -6.995   5.945  -6.229  1.00  0.00     0.037 A 
BRANCH  41  55
ATOM     55  C   UNL     1      -3.532   8.113  -2.499  1.00  0.00     0.058 A 
ATOM     56  C   UNL     1      -4.383   8.879  -1.680  1.00  0.00     0.135 A 
ATOM     57  C   UNL     1      -2.427   8.800  -3.050  1.00  0.00     0.135 A 
ATOM     58  F   UNL     1      -5.470   8.327  -1.118  1.00  0.00    -0.206 F 
ATOM     59  C   UNL     1      -4.181  10.244  -1.472  1.00  0.00     0.059 A 
ATOM     60  C   UNL     1      -2.173  10.143  -2.806  1.00  0.00     0.059 A 
ATOM     61  F   UNL     1      -1.598   8.226  -3.933  1.00  0.00    -0.206 F 
ATOM     62  C   UNL     1      -3.081  10.869  -2.055  1.00  0.00     0.060 A 
BRANCH  62  63
ATOM     63  S   UNL     1      -2.891  12.653  -1.906  1.00  0.00     0.124 S 
ATOM     64  O   UNL     1      -4.003  13.130  -2.721  1.00  0.00    -0.237 OA
ATOM     65  O   UNL     1      -3.018  12.853  -0.467  1.00  0.00    -0.237 OA
ATOM     66  O   UNL     1      -1.559  12.896  -2.453  1.00  0.00    -0.744 OA
ENDBRANCH  62  63
ENDBRANCH  41  55
BRANCH  42  67
ATOM     67  C   UNL     1      -3.675   6.564 -11.152  1.00  0.00     0.058 A 
ATOM     68  C   UNL     1      -4.359   7.547 -11.885  1.00  0.00     0.135 A 
ATOM     69  C   UNL     1      -2.329   6.344 -11.521  1.00  0.00     0.135 A 
ATOM     70  F   UNL     1      -5.631   7.850 -11.582  1.00  0.00    -0.206 F 
ATOM     71  C   UNL     1      -3.741   8.284 -12.904  1.00  0.00     0.059 A 
ATOM     72  C   UNL     1      -1.699   7.050 -12.542  1.00  0.00     0.059 A 
ATOM     73  F   UNL     1      -1.547   5.494 -10.840  1.00  0.00    -0.206 F 
ATOM     74  C   UNL     1      -2.404   8.037 -13.215  1.00  0.00     0.060 A 
BRANCH  74  75
ATOM     75  S   UNL     1      -1.556   9.082 -14.422  1.00  0.00     0.124 S 
ATOM     76  O   UNL     1      -2.256   8.749 -15.657  1.00  0.00    -0.237 OA
ATOM     77  O   UNL     1      -1.797  10.419 -13.889  1.00  0.00    -0.237 OA
ATOM     78  O   UNL     1      -0.169   8.628 -14.350  1.00  0.00    -0.744 OA
ENDBRANCH  74  75
ENDBRANCH  42  67
BRANCH  54  79
ATOM     79  C   UNL     1      -7.911   4.851  -6.717  1.00  0.00     0.058 A 
ATOM     80  C   UNL     1      -7.451   3.682  -7.351  1.00  0.00     0.135 A 
ATOM     81  C   UNL     1      -9.268   4.893  -6.365  1.00  0.00     0.135 A 
ATOM     82  F   UNL     1      -6.150   3.511  -7.614  1.00  0.00    -0.206 F 
ATOM     83  C   UNL     1      -8.305   2.622  -7.658  1.00  0.00     0.059 A 
ATOM     84  C   UNL     1     -10.133   3.833  -6.632  1.00  0.00     0.059 A 
ATOM     85  F   UNL     1      -9.755   5.948  -5.692  1.00  0.00    -0.206 F 
ATOM     86  C   UNL     1      -9.646   2.704  -7.289  1.00  0.00     0.060 A 
BRANCH  86  87
ATOM     87  S   UNL     1     -10.723   1.287  -7.596  1.00  0.00     0.124 S 
ATOM     88  O   UNL     1     -10.887   1.335  -9.045  1.00  0.00    -0.237 OA
ATOM     89  O   UNL     1      -9.932   0.171  -7.085  1.00  0.00    -0.237 OA
ATOM     90  O   UNL     1     -11.922   1.596  -6.820  1.00  0.00    -0.744 OA
ENDBRANCH  86  87
ENDBRANCH  54  79
ENDBRANCH  28  29
ENDBRANCH  21  23
ENDBRANCH  20  21
ENDBRANCH   1  20
TORSDOF 16
