REMARK SMILES Cc1ccc(C2=NN(C(=O)CCC(=O)OCCOC(=O)c3ccc(-c4c5nc(c(-c6c(F)cc(S(=O)(=O)[O-])cc6F)c6ccc([nH]6)c(-c6c(F)cc(S(=O)(=O)[O-])cc6F)c6nc(c(-c7c(F)cc(S(=O)(=O)[O-])cc7F)c7ccc4[nH]7)C=C6)C=C5)cc3)[C@H](C[C@@H]3C=c4cccc(C)c4=NC3=O)C2)cc1
REMARK SMILES IDX 16 1 15 2 13 3 14 4 12 5 11 6 9 7 10 8 8 9 6 10 7 11 101 12
REMARK SMILES IDX 87 13 5 14 1 15 2 16 3 17 103 18 4 19 102 20 88 21 89 22
REMARK SMILES IDX 90 23 99 24 91 25 98 26 100 27 92 28 97 29 93 30 95 31 94 32
REMARK SMILES IDX 96 33 17 34 18 35 19 36 20 37 21 38 22 39 86 40 23 41 85 42
REMARK SMILES IDX 24 43 25 44 26 45 79 46 27 47 84 48 78 49 80 50 28 51 83 52
REMARK SMILES IDX 77 53 76 54 29 56 63 57 42 58 62 59 43 60 46 61 61 62 81 63
REMARK SMILES IDX 44 64 45 65 60 67 82 68 47 69 30 70 31 71 40 72 32 73 33 74
REMARK SMILES IDX 39 75 41 76 34 77 35 78 36 79 37 80 38 81 64 82 65 83 74 84
REMARK SMILES IDX 66 85 67 86 73 87 75 88 68 89 69 90 70 91 71 92 72 93 48 94
REMARK SMILES IDX 49 95 58 96 50 97 51 98 57 99 59 100 52 101 53 102 54 103
REMARK SMILES IDX 55 104 56 105
REMARK H PARENT 80 55 46 66
REMARK Flexibility Score: inf
ROOT
ATOM      1  C   UNL     1      -4.870   2.035  -1.517  1.00  0.00     0.274 C 
ENDROOT
BRANCH   1   2
ATOM      2  O   UNL     1      -5.243   1.817  -0.129  1.00  0.00    -0.462 OA
BRANCH   2   3
ATOM      3  C   UNL     1      -6.286   1.053   0.224  1.00  0.00     0.306 C 
ATOM      4  O   UNL     1      -7.014   0.478  -0.571  1.00  0.00    -0.252 OA
BRANCH   3   5
ATOM      5  C   UNL     1      -6.413   0.754   1.673  1.00  0.00     0.132 C 
BRANCH   5   6
ATOM      6  C   UNL     1      -6.716  -0.725   1.784  1.00  0.00     0.114 C 
BRANCH   6   7
ATOM      7  C   UNL     1      -5.424  -1.509   1.787  1.00  0.00     0.243 C 
ATOM      8  O   UNL     1      -5.121  -2.091   2.838  1.00  0.00    -0.273 OA
BRANCH   7   9
ATOM      9  N   UNL     1      -4.581  -1.524   0.673  1.00  0.00    -0.230 N 
ATOM     10  C   UNL     1      -2.607  -1.014  -0.024  1.00  0.00     0.070 C 
ATOM     11  N   UNL     1      -3.279  -1.268   1.043  1.00  0.00    -0.174 NA
ATOM     12  C   UNL     1      -3.293  -1.236  -1.320  1.00  0.00     0.086 C 
ATOM     13  C   UNL     1      -4.731  -1.363  -0.820  1.00  0.00     0.118 C 
BRANCH  10  14
ATOM     14  C   UNL     1      -1.209  -0.641   0.008  1.00  0.00    -0.002 A 
ATOM     15  C   UNL     1       2.956   0.230   0.009  1.00  0.00     0.044 C 
ATOM     16  C   UNL     1       1.486  -0.053   0.027  1.00  0.00    -0.051 A 
ATOM     17  C   UNL     1       1.057  -1.388   0.050  1.00  0.00     0.004 A 
ATOM     18  C   UNL     1       0.544   0.988   0.023  1.00  0.00     0.004 A 
ATOM     19  C   UNL     1      -0.295  -1.685   0.044  1.00  0.00     0.010 A 
ATOM     20  C   UNL     1      -0.819   0.697   0.015  1.00  0.00     0.010 A 
ENDBRANCH  10  14
BRANCH  13  21
ATOM     21  C   UNL     1      -5.513  -2.339  -1.739  1.00  0.00     0.045 C 
BRANCH  21  22
ATOM     22  C   UNL     1      -6.992  -2.559  -1.418  1.00  0.00     0.106 C 
ATOM     23  C   UNL     1      -7.067  -3.293  -0.133  1.00  0.00    -0.003 C 
ATOM     24  C   UNL     1      -7.780  -3.288  -2.525  1.00  0.00     0.253 C 
ATOM     25  C   UNL     1      -8.060  -4.095   0.205  1.00  0.00    -0.003 A 
ATOM     26  N   UNL     1      -8.759  -4.200  -2.162  1.00  0.00    -0.212 NA
ATOM     27  O   UNL     1      -7.512  -3.087  -3.709  1.00  0.00    -0.272 OA
ATOM     28  C   UNL     1      -8.261  -4.521   1.561  1.00  0.00     0.010 A 
ATOM     29  C   UNL     1      -8.875  -4.580  -0.929  1.00  0.00     0.077 A 
ATOM     30  C   UNL     1      -9.169  -5.461   1.824  1.00  0.00     0.001 A 
ATOM     31  C   UNL     1      -9.770  -5.727  -0.548  1.00  0.00    -0.025 A 
ATOM     32  C   UNL     1      -9.868  -6.112   0.741  1.00  0.00     0.005 A 
ATOM     33  C   UNL     1     -10.358  -6.497  -1.681  1.00  0.00     0.047 C 
ENDBRANCH  21  22
ENDBRANCH  13  21
ENDBRANCH   7   9
ENDBRANCH   6   7
ENDBRANCH   5   6
ENDBRANCH   3   5
ENDBRANCH   2   3
ENDBRANCH   1   2
BRANCH   1  34
ATOM     34  C   UNL     1      -5.480   1.377  -2.813  1.00  0.00     0.275 C 
BRANCH  34  35
ATOM     35  O   UNL     1      -6.857   1.006  -3.193  1.00  0.00    -0.458 OA
BRANCH  35  36
ATOM     36  C   UNL     1      -8.130   1.163  -2.703  1.00  0.00     0.338 C 
ATOM     37  O   UNL     1      -8.958   0.272  -2.821  1.00  0.00    -0.246 OA
BRANCH  36  38
ATOM     38  C   UNL     1      -8.342   2.377  -1.887  1.00  0.00     0.060 A 
ATOM     39  C   UNL     1      -9.088   2.389  -0.683  1.00  0.00     0.016 A 
ATOM     40  C   UNL     1      -7.457   3.375  -2.170  1.00  0.00     0.016 A 
ATOM     41  C   UNL     1      -8.799   3.338   0.313  1.00  0.00     0.010 A 
ATOM     42  C   UNL     1      -6.958   4.018  -1.084  1.00  0.00     0.010 A 
ATOM     43  C   UNL     1      -7.674   4.127   0.121  1.00  0.00    -0.014 A 
BRANCH  43  44
ATOM     44  C   UNL     1      -7.162   5.269   0.883  1.00  0.00     0.031 A 
ATOM     45  C   UNL     1      -6.462   5.181   2.177  1.00  0.00     0.074 A 
ATOM     46  C   UNL     1      -7.035   6.342   0.058  1.00  0.00     0.049 A 
ATOM     47  N   UNL     1      -6.226   6.184   2.946  1.00  0.00    -0.248 NA
ATOM     48  C   UNL     1      -5.930   3.953   2.742  1.00  0.00     0.031 C 
ATOM     49  C   UNL     1      -6.123   7.465   0.054  1.00  0.00     0.029 A 
ATOM     50  N   UNL     1      -7.747   6.541  -1.126  1.00  0.00    -0.354 N 
ATOM     51  C   UNL     1      -5.256   5.802   3.863  1.00  0.00     0.074 A 
ATOM     52  C   UNL     1      -5.231   4.368   3.806  1.00  0.00     0.031 C 
ATOM     53  C   UNL     1      -6.547   8.359  -0.870  1.00  0.00     0.029 A 
ATOM     54  C   UNL     1      -7.814   7.878  -1.422  1.00  0.00     0.049 A 
ATOM     55  H   UNL     1      -8.145   5.824  -1.670  1.00  0.00     0.167 HD
ATOM     56  C   UNL     1      -4.445   6.757   4.405  1.00  0.00     0.037 A 
ATOM     57  C   UNL     1      -9.071   8.391  -1.277  1.00  0.00     0.037 A 
ATOM     58  C   UNL     1      -4.748   8.031   3.757  1.00  0.00     0.049 A 
ATOM     59  C   UNL     1      -9.077   9.218  -0.020  1.00  0.00     0.074 A 
ATOM     60  C   UNL     1      -4.144   8.695   2.704  1.00  0.00     0.029 A 
ATOM     61  N   UNL     1      -6.008   8.587   3.913  1.00  0.00    -0.354 N 
ATOM     62  N   UNL     1      -8.311   8.996   1.015  1.00  0.00    -0.248 NA
ATOM     63  C   UNL     1      -9.806  10.473   0.071  1.00  0.00     0.031 C 
ATOM     64  C   UNL     1      -5.085   9.625   2.187  1.00  0.00     0.029 A 
ATOM     65  C   UNL     1      -6.260   9.505   2.914  1.00  0.00     0.049 A 
ATOM     66  H   UNL     1      -6.635   8.359   4.637  1.00  0.00     0.167 HD
ATOM     67  C   UNL     1      -8.329  10.092   1.830  1.00  0.00     0.074 A 
ATOM     68  C   UNL     1      -9.306  10.975   1.213  1.00  0.00     0.031 C 
ATOM     69  C   UNL     1      -7.513  10.240   2.915  1.00  0.00     0.037 A 
BRANCH  56  70
ATOM     70  C   UNL     1      -3.221   6.580   5.292  1.00  0.00     0.058 A 
ATOM     71  C   UNL     1      -2.275   7.631   5.406  1.00  0.00     0.135 A 
ATOM     72  C   UNL     1      -2.934   5.457   6.096  1.00  0.00     0.135 A 
ATOM     73  F   UNL     1      -2.416   8.783   4.735  1.00  0.00    -0.206 F 
ATOM     74  C   UNL     1      -1.141   7.569   6.214  1.00  0.00     0.059 A 
ATOM     75  C   UNL     1      -1.784   5.363   6.902  1.00  0.00     0.059 A 
ATOM     76  F   UNL     1      -3.779   4.421   6.174  1.00  0.00    -0.206 F 
ATOM     77  C   UNL     1      -0.896   6.430   6.960  1.00  0.00     0.060 A 
BRANCH  77  78
ATOM     78  S   UNL     1       0.565   6.406   8.017  1.00  0.00     0.124 S 
ATOM     79  O   UNL     1       1.643   6.594   7.051  1.00  0.00    -0.237 OA
ATOM     80  O   UNL     1       0.315   7.531   8.912  1.00  0.00    -0.237 OA
ATOM     81  O   UNL     1       0.514   5.087   8.641  1.00  0.00    -0.744 OA
ENDBRANCH  77  78
ENDBRANCH  56  70
BRANCH  57  82
ATOM     82  C   UNL     1     -10.129   7.414  -1.777  1.00  0.00     0.058 A 
ATOM     83  C   UNL     1     -10.110   7.115  -3.162  1.00  0.00     0.135 A 
ATOM     84  C   UNL     1     -10.776   6.468  -0.955  1.00  0.00     0.135 A 
ATOM     85  F   UNL     1      -9.474   7.941  -4.011  1.00  0.00    -0.206 F 
ATOM     86  C   UNL     1     -10.594   5.914  -3.686  1.00  0.00     0.059 A 
ATOM     87  C   UNL     1     -11.281   5.255  -1.466  1.00  0.00     0.059 A 
ATOM     88  F   UNL     1     -10.811   6.643   0.375  1.00  0.00    -0.206 F 
ATOM     89  C   UNL     1     -11.151   4.973  -2.826  1.00  0.00     0.060 A 
BRANCH  89  90
ATOM     90  S   UNL     1     -11.522   3.329  -3.507  1.00  0.00     0.124 S 
ATOM     91  O   UNL     1     -12.685   3.607  -4.343  1.00  0.00    -0.237 OA
ATOM     92  O   UNL     1     -10.284   3.034  -4.228  1.00  0.00    -0.237 OA
ATOM     93  O   UNL     1     -11.778   2.524  -2.319  1.00  0.00    -0.744 OA
ENDBRANCH  89  90
ENDBRANCH  57  82
BRANCH  69  94
ATOM     94  C   UNL     1      -7.788  11.156   4.080  1.00  0.00     0.058 A 
ATOM     95  C   UNL     1      -9.066  11.649   4.381  1.00  0.00     0.135 A 
ATOM     96  C   UNL     1      -6.789  11.409   5.057  1.00  0.00     0.135 A 
ATOM     97  F   UNL     1     -10.133  11.366   3.623  1.00  0.00    -0.206 F 
ATOM     98  C   UNL     1      -9.316  12.418   5.510  1.00  0.00     0.059 A 
ATOM     99  C   UNL     1      -7.042  12.090   6.238  1.00  0.00     0.059 A 
ATOM    100  F   UNL     1      -5.526  10.980   4.917  1.00  0.00    -0.206 F 
ATOM    101  C   UNL     1      -8.300  12.630   6.433  1.00  0.00     0.060 A 
BRANCH 101 102
ATOM    102  S   UNL     1      -8.646  13.601   7.900  1.00  0.00     0.124 S 
ATOM    103  O   UNL     1      -8.486  14.957   7.383  1.00  0.00    -0.237 OA
ATOM    104  O   UNL     1     -10.013  13.206   8.226  1.00  0.00    -0.237 OA
ATOM    105  O   UNL     1      -7.628  13.158   8.847  1.00  0.00    -0.744 OA
ENDBRANCH 101 102
ENDBRANCH  69  94
ENDBRANCH  43  44
ENDBRANCH  36  38
ENDBRANCH  35  36
ENDBRANCH  34  35
ENDBRANCH   1  34
TORSDOF 20
