REMARK SMILES C[C@@]([NH3+])(Cc1ccccc1Br)C(=O)OCCOC(=O)c1ccc(-c2c3nc(c(-c4c(F)cc(S(=O)(=O)[O-])cc4F)c4ccc([nH]4)c(-c4c(F)cc(S(=O)(=O)[O-])cc4F)c4nc(c(-c5c(F)cc(S(=O)(=O)[O-])cc5F)c5ccc2[nH]5)C=C4)C=C3)cc1
REMARK SMILES IDX 16 1 15 2 14 3 12 4 13 5 2 6 1 7 3 8 4 12 5 13 6 14 10 15
REMARK SMILES IDX 7 16 9 17 11 18 8 19 17 20 18 21 19 22 20 23 21 24 85 25
REMARK SMILES IDX 22 26 84 27 23 28 24 29 25 30 78 31 26 32 83 33 77 34 79 35
REMARK SMILES IDX 27 36 82 37 76 38 75 39 28 41 62 42 41 43 61 44 42 45 45 46
REMARK SMILES IDX 60 47 80 48 43 49 44 50 59 52 81 53 46 54 29 55 30 56 39 57
REMARK SMILES IDX 31 58 32 59 38 60 40 61 33 62 34 63 35 64 36 65 37 66 63 67
REMARK SMILES IDX 64 68 73 69 65 70 66 71 72 72 74 73 67 74 68 75 69 76 70 77
REMARK SMILES IDX 71 78 47 79 48 80 57 81 49 82 50 83 56 84 58 85 51 86 52 87
REMARK SMILES IDX 53 88 54 89 55 90
REMARK H PARENT 3 9 3 10 3 11 79 40 45 51
REMARK Flexibility Score: inf
ROOT
ATOM      1  C   UNL     1       0.982  -3.049  -3.853  1.00  0.00     0.275 C 
ENDROOT
BRANCH   1   2
ATOM      2  C   UNL     1       0.949  -3.857  -2.557  1.00  0.00     0.274 C 
BRANCH   2   3
ATOM      3  O   UNL     1       0.198  -3.179  -1.527  1.00  0.00    -0.457 OA
BRANCH   3   4
ATOM      4  C   UNL     1       0.946  -2.379  -0.714  1.00  0.00     0.368 C 
ATOM      5  O   UNL     1       2.168  -2.282  -0.795  1.00  0.00    -0.245 OA
BRANCH   4   6
ATOM      6  C   UNL     1       0.138  -1.777   0.467  1.00  0.00     0.194 C 
ATOM      7  C   UNL     1       0.867  -0.519   0.960  1.00  0.00     0.092 C 
BRANCH   6   8
ATOM      8  N   UNL     1       0.237  -2.770   1.589  1.00  0.00    -0.343 N 
ATOM      9  H   UNL     1      -0.281  -2.423   2.397  1.00  0.00     0.345 HD
ATOM     10  H   UNL     1       1.216  -2.900   1.843  1.00  0.00     0.345 HD
ATOM     11  H   UNL     1      -0.158  -3.662   1.290  1.00  0.00     0.345 HD
ENDBRANCH   6   8
BRANCH   6  12
ATOM     12  C   UNL     1      -1.374  -1.517   0.210  1.00  0.00     0.117 C 
BRANCH  12  13
ATOM     13  C   UNL     1      -1.815  -0.613  -0.930  1.00  0.00    -0.027 A 
ATOM     14  C   UNL     1      -2.224  -1.225  -2.132  1.00  0.00     0.005 A 
ATOM     15  C   UNL     1      -1.947   0.787  -0.843  1.00  0.00     0.021 A 
ATOM     16  C   UNL     1      -2.708  -0.478  -3.209  1.00  0.00     0.000 A 
ATOM     17  C   UNL     1      -2.399   1.536  -1.940  1.00  0.00     0.016 A 
ATOM     18  Br  UNL     1      -1.662   1.771   0.757  1.00  0.00    -0.051 Br
ATOM     19  C   UNL     1      -2.779   0.905  -3.120  1.00  0.00     0.001 A 
ENDBRANCH  12  13
ENDBRANCH   6  12
ENDBRANCH   4   6
ENDBRANCH   3   4
ENDBRANCH   2   3
ENDBRANCH   1   2
BRANCH   1  20
ATOM     20  O   UNL     1       1.469  -1.726  -3.591  1.00  0.00    -0.458 OA
BRANCH  20  21
ATOM     21  C   UNL     1       0.886  -0.736  -4.307  1.00  0.00     0.338 C 
ATOM     22  O   UNL     1       0.075  -0.882  -5.207  1.00  0.00    -0.246 OA
BRANCH  21  23
ATOM     23  C   UNL     1       1.394   0.586  -3.868  1.00  0.00     0.060 A 
ATOM     24  C   UNL     1       1.812   0.823  -2.555  1.00  0.00     0.016 A 
ATOM     25  C   UNL     1       1.407   1.631  -4.793  1.00  0.00     0.016 A 
ATOM     26  C   UNL     1       2.188   2.108  -2.154  1.00  0.00     0.010 A 
ATOM     27  C   UNL     1       1.857   2.898  -4.410  1.00  0.00     0.010 A 
ATOM     28  C   UNL     1       2.233   3.158  -3.082  1.00  0.00    -0.014 A 
BRANCH  28  29
ATOM     29  C   UNL     1       2.672   4.527  -2.692  1.00  0.00     0.031 A 
ATOM     30  C   UNL     1       1.738   5.696  -2.864  1.00  0.00     0.074 A 
ATOM     31  C   UNL     1       3.923   4.735  -2.236  1.00  0.00     0.049 A 
ATOM     32  N   UNL     1       1.995   6.977  -2.808  1.00  0.00    -0.248 NA
ATOM     33  C   UNL     1       0.330   5.379  -3.156  1.00  0.00     0.031 C 
ATOM     34  C   UNL     1       4.924   3.694  -1.996  1.00  0.00     0.029 A 
ATOM     35  N   UNL     1       4.573   5.900  -1.904  1.00  0.00    -0.354 N 
ATOM     36  C   UNL     1       0.799   7.621  -3.106  1.00  0.00     0.074 A 
ATOM     37  C   UNL     1      -0.187   6.587  -3.342  1.00  0.00     0.031 C 
ATOM     38  C   UNL     1       6.052   4.262  -1.541  1.00  0.00     0.029 A 
ATOM     39  C   UNL     1       5.883   5.711  -1.530  1.00  0.00     0.049 A 
ATOM     40  H   UNL     1       4.142   6.784  -1.933  1.00  0.00     0.167 HD
ATOM     41  C   UNL     1       0.550   8.951  -3.180  1.00  0.00     0.037 A 
ATOM     42  C   UNL     1       6.855   6.601  -1.252  1.00  0.00     0.037 A 
ATOM     43  C   UNL     1       1.525   9.975  -2.903  1.00  0.00     0.049 A 
ATOM     44  C   UNL     1       6.561   8.070  -1.356  1.00  0.00     0.074 A 
ATOM     45  C   UNL     1       1.364  11.350  -2.936  1.00  0.00     0.029 A 
ATOM     46  N   UNL     1       2.839   9.737  -2.527  1.00  0.00    -0.354 N 
ATOM     47  N   UNL     1       5.440   8.662  -1.690  1.00  0.00    -0.248 NA
ATOM     48  C   UNL     1       7.668   8.992  -1.067  1.00  0.00     0.031 C 
ATOM     49  C   UNL     1       2.588  11.943  -2.606  1.00  0.00     0.029 A 
ATOM     50  C   UNL     1       3.502  10.938  -2.334  1.00  0.00     0.049 A 
ATOM     51  H   UNL     1       3.241   8.845  -2.414  1.00  0.00     0.167 HD
ATOM     52  C   UNL     1       5.705  10.026  -1.648  1.00  0.00     0.074 A 
ATOM     53  C   UNL     1       7.087  10.171  -1.238  1.00  0.00     0.031 C 
ATOM     54  C   UNL     1       4.879  11.063  -1.930  1.00  0.00     0.037 A 
BRANCH  41  55
ATOM     55  C   UNL     1      -0.827   9.381  -3.607  1.00  0.00     0.058 A 
ATOM     56  C   UNL     1      -1.930   9.298  -2.745  1.00  0.00     0.135 A 
ATOM     57  C   UNL     1      -1.034   9.924  -4.886  1.00  0.00     0.135 A 
ATOM     58  F   UNL     1      -1.791   8.772  -1.517  1.00  0.00    -0.206 F 
ATOM     59  C   UNL     1      -3.197   9.717  -3.142  1.00  0.00     0.059 A 
ATOM     60  C   UNL     1      -2.287  10.369  -5.297  1.00  0.00     0.059 A 
ATOM     61  F   UNL     1      -0.012  10.026  -5.750  1.00  0.00    -0.206 F 
ATOM     62  C   UNL     1      -3.366  10.249  -4.423  1.00  0.00     0.060 A 
BRANCH  62  63
ATOM     63  S   UNL     1      -5.012  10.792  -4.928  1.00  0.00     0.124 S 
ATOM     64  O   UNL     1      -5.666   9.516  -5.202  1.00  0.00    -0.237 OA
ATOM     65  O   UNL     1      -5.487  11.504  -3.746  1.00  0.00    -0.237 OA
ATOM     66  O   UNL     1      -4.751  11.627  -6.096  1.00  0.00    -0.744 OA
ENDBRANCH  62  63
ENDBRANCH  41  55
BRANCH  42  67
ATOM     67  C   UNL     1       8.211   6.116  -0.885  1.00  0.00     0.058 A 
ATOM     68  C   UNL     1       8.681   6.220   0.432  1.00  0.00     0.135 A 
ATOM     69  C   UNL     1       9.046   5.503  -1.833  1.00  0.00     0.135 A 
ATOM     70  F   UNL     1       7.923   6.809   1.370  1.00  0.00    -0.206 F 
ATOM     71  C   UNL     1       9.930   5.731   0.799  1.00  0.00     0.059 A 
ATOM     72  C   UNL     1      10.289   4.986  -1.484  1.00  0.00     0.059 A 
ATOM     73  F   UNL     1       8.636   5.371  -3.104  1.00  0.00    -0.206 F 
ATOM     74  C   UNL     1      10.725   5.109  -0.166  1.00  0.00     0.060 A 
BRANCH  74  75
ATOM     75  S   UNL     1      12.312   4.404   0.331  1.00  0.00     0.124 S 
ATOM     76  O   UNL     1      13.157   5.590   0.382  1.00  0.00    -0.237 OA
ATOM     77  O   UNL     1      11.992   3.792   1.618  1.00  0.00    -0.237 OA
ATOM     78  O   UNL     1      12.607   3.460  -0.743  1.00  0.00    -0.744 OA
ENDBRANCH  74  75
ENDBRANCH  42  67
BRANCH  54  79
ATOM     79  C   UNL     1       5.448  12.445  -1.788  1.00  0.00     0.058 A 
ATOM     80  C   UNL     1       6.314  12.983  -2.753  1.00  0.00     0.135 A 
ATOM     81  C   UNL     1       5.101  13.250  -0.692  1.00  0.00     0.135 A 
ATOM     82  F   UNL     1       6.681  12.249  -3.815  1.00  0.00    -0.206 F 
ATOM     83  C   UNL     1       6.835  14.266  -2.624  1.00  0.00     0.059 A 
ATOM     84  C   UNL     1       5.596  14.543  -0.553  1.00  0.00     0.059 A 
ATOM     85  F   UNL     1       4.271  12.783   0.254  1.00  0.00    -0.206 F 
ATOM     86  C   UNL     1       6.473  15.037  -1.518  1.00  0.00     0.060 A 
BRANCH  86  87
ATOM     87  S   UNL     1       7.138  16.709  -1.369  1.00  0.00     0.124 S 
ATOM     88  O   UNL     1       8.491  16.445  -0.890  1.00  0.00    -0.237 OA
ATOM     89  O   UNL     1       7.037  17.213  -2.735  1.00  0.00    -0.237 OA
ATOM     90  O   UNL     1       6.243  17.344  -0.406  1.00  0.00    -0.744 OA
ENDBRANCH  86  87
ENDBRANCH  54  79
ENDBRANCH  28  29
ENDBRANCH  21  23
ENDBRANCH  20  21
ENDBRANCH   1  20
TORSDOF 17
