REMARK SMILES COc1cc([C@@H]2[NH2+][C@H](C(=O)OCCOC(=O)c3ccc(-c4c5nc(c(-c6c(F)cc(S(=O)(=O)[O-])cc6F)c6ccc([nH]6)c(-c6c(F)cc(S(=O)(=O)[O-])cc6F)c6nc(c(-c7c(F)cc(S(=O)(=O)[O-])cc7F)c7ccc4[nH]7)C=C6)C=C5)cc3)CS2)ccc1OCc1ccc(Cl)cc1
REMARK SMILES IDX 12 1 11 2 9 3 10 4 8 5 6 6 7 7 84 8 83 11 5 12 3 13 4 14
REMARK SMILES IDX 87 15 86 16 85 17 2 18 1 19 88 20 89 21 90 22 91 23 96 24
REMARK SMILES IDX 92 25 95 26 93 27 94 28 13 29 14 30 15 31 16 32 17 33 18 34
REMARK SMILES IDX 82 35 19 36 81 37 20 38 21 39 22 40 75 41 23 42 80 43 74 44
REMARK SMILES IDX 76 45 24 46 79 47 73 48 72 49 25 51 59 52 38 53 58 54 39 55
REMARK SMILES IDX 42 56 57 57 77 58 40 59 41 60 56 62 78 63 43 64 26 65 27 66
REMARK SMILES IDX 36 67 28 68 29 69 35 70 37 71 30 72 31 73 32 74 33 75 34 76
REMARK SMILES IDX 60 77 61 78 70 79 62 80 63 81 69 82 71 83 64 84 65 85 66 86
REMARK SMILES IDX 67 87 68 88 44 89 45 90 54 91 46 92 47 93 53 94 55 95 48 96
REMARK SMILES IDX 49 97 50 98 51 99 52 100
REMARK H PARENT 7 9 7 10 76 50 42 61
REMARK Flexibility Score: inf
ROOT
ATOM      1  C   UNL     1       3.954  -5.041  -3.733  1.00  0.00     0.274 C 
ENDROOT
BRANCH   1   2
ATOM      2  O   UNL     1       2.549  -5.342  -3.617  1.00  0.00    -0.458 OA
BRANCH   2   3
ATOM      3  C   UNL     1       2.079  -6.513  -4.106  1.00  0.00     0.365 C 
ATOM      4  O   UNL     1       2.765  -7.324  -4.719  1.00  0.00    -0.245 OA
BRANCH   3   5
ATOM      5  C   UNL     1       0.565  -6.707  -3.901  1.00  0.00     0.304 C 
ATOM      6  C   UNL     1      -0.807  -5.091  -2.701  1.00  0.00     0.274 C 
ATOM      7  N   UNL     1       0.075  -6.249  -2.585  1.00  0.00    -0.319 N 
ATOM      8  S   UNL     1      -1.448  -4.990  -4.375  1.00  0.00    -0.087 SA
ATOM      9  H   UNL     1      -0.438  -7.011  -2.142  1.00  0.00     0.348 HD
ATOM     10  H   UNL     1       0.883  -5.974  -2.027  1.00  0.00     0.348 HD
ATOM     11  C   UNL     1      -0.206  -6.104  -5.065  1.00  0.00     0.153 C 
BRANCH   6  12
ATOM     12  C   UNL     1      -0.088  -3.861  -2.185  1.00  0.00     0.024 A 
ATOM     13  C   UNL     1       0.644  -2.639  -0.219  1.00  0.00     0.161 A 
ATOM     14  C   UNL     1      -0.236  -3.526  -0.830  1.00  0.00     0.061 A 
ATOM     15  C   UNL     1       1.722  -2.109  -0.935  1.00  0.00     0.161 A 
ATOM     16  C   UNL     1       1.847  -2.384  -2.296  1.00  0.00     0.051 A 
ATOM     17  C   UNL     1       0.901  -3.198  -2.929  1.00  0.00     0.015 A 
BRANCH  13  18
ATOM     18  O   UNL     1       0.435  -2.395   1.114  1.00  0.00    -0.493 OA
ATOM     19  C   UNL     1       0.172  -1.016   1.366  1.00  0.00     0.278 C 
ENDBRANCH  13  18
BRANCH  15  20
ATOM     20  O   UNL     1       2.630  -1.383  -0.230  1.00  0.00    -0.485 OA
BRANCH  20  21
ATOM     21  C   UNL     1       3.017  -0.098  -0.712  1.00  0.00     0.265 C 
BRANCH  21  22
ATOM     22  C   UNL     1       1.938   0.936  -1.017  1.00  0.00    -0.011 A 
ATOM     23  C   UNL     1       2.086   2.233  -0.502  1.00  0.00     0.009 A 
ATOM     24  C   UNL     1       0.826   0.691  -1.839  1.00  0.00     0.009 A 
ATOM     25  C   UNL     1       1.127   3.220  -0.750  1.00  0.00     0.021 A 
ATOM     26  C   UNL     1      -0.148   1.662  -2.067  1.00  0.00     0.021 A 
ATOM     27  C   UNL     1       0.003   2.924  -1.516  1.00  0.00     0.041 A 
ATOM     28  Cl  UNL     1      -1.200   4.121  -1.787  1.00  0.00    -0.084 Cl
ENDBRANCH  21  22
ENDBRANCH  20  21
ENDBRANCH  15  20
ENDBRANCH   6  12
ENDBRANCH   3   5
ENDBRANCH   2   3
ENDBRANCH   1   2
BRANCH   1  29
ATOM     29  C   UNL     1       4.602  -4.977  -2.349  1.00  0.00     0.275 C 
BRANCH  29  30
ATOM     30  O   UNL     1       4.685  -6.297  -1.797  1.00  0.00    -0.458 OA
BRANCH  30  31
ATOM     31  C   UNL     1       3.635  -6.655  -1.019  1.00  0.00     0.338 C 
ATOM     32  O   UNL     1       2.733  -5.958  -0.605  1.00  0.00    -0.246 OA
BRANCH  31  33
ATOM     33  C   UNL     1       3.670  -8.115  -0.884  1.00  0.00     0.060 A 
ATOM     34  C   UNL     1       2.628  -8.853  -1.450  1.00  0.00     0.016 A 
ATOM     35  C   UNL     1       4.716  -8.743  -0.210  1.00  0.00     0.016 A 
ATOM     36  C   UNL     1       2.628 -10.237  -1.351  1.00  0.00     0.010 A 
ATOM     37  C   UNL     1       4.716 -10.133  -0.111  1.00  0.00     0.010 A 
ATOM     38  C   UNL     1       3.669 -10.883  -0.675  1.00  0.00    -0.014 A 
BRANCH  38  39
ATOM     39  C   UNL     1       3.628 -12.350  -0.503  1.00  0.00     0.031 A 
ATOM     40  C   UNL     1       3.302 -12.920   0.844  1.00  0.00     0.074 A 
ATOM     41  C   UNL     1       3.871 -13.149  -1.558  1.00  0.00     0.049 A 
ATOM     42  N   UNL     1       3.275 -14.168   1.228  1.00  0.00    -0.248 NA
ATOM     43  C   UNL     1       2.967 -11.954   1.903  1.00  0.00     0.031 C 
ATOM     44  C   UNL     1       4.163 -12.687  -2.916  1.00  0.00     0.029 A 
ATOM     45  N   UNL     1       3.915 -14.515  -1.652  1.00  0.00    -0.354 N 
ATOM     46  C   UNL     1       2.939 -14.139   2.576  1.00  0.00     0.074 A 
ATOM     47  C   UNL     1       2.801 -12.749   2.950  1.00  0.00     0.031 C 
ATOM     48  C   UNL     1       4.353 -13.754  -3.709  1.00  0.00     0.029 A 
ATOM     49  C   UNL     1       4.245 -14.968  -2.907  1.00  0.00     0.049 A 
ATOM     50  H   UNL     1       3.729 -15.115  -0.893  1.00  0.00     0.167 HD
ATOM     51  C   UNL     1       2.758 -15.184   3.418  1.00  0.00     0.037 A 
ATOM     52  C   UNL     1       4.460 -16.223  -3.348  1.00  0.00     0.037 A 
ATOM     53  C   UNL     1       2.901 -16.561   3.021  1.00  0.00     0.049 A 
ATOM     54  C   UNL     1       4.309 -17.364  -2.378  1.00  0.00     0.074 A 
ATOM     55  C   UNL     1       2.729 -17.700   3.785  1.00  0.00     0.029 A 
ATOM     56  N   UNL     1       3.259 -16.984   1.747  1.00  0.00    -0.354 N 
ATOM     57  N   UNL     1       3.978 -17.328  -1.108  1.00  0.00    -0.248 NA
ATOM     58  C   UNL     1       4.558 -18.714  -2.898  1.00  0.00     0.031 C 
ATOM     59  C   UNL     1       3.037 -18.809   2.990  1.00  0.00     0.029 A 
ATOM     60  C   UNL     1       3.338 -18.366   1.710  1.00  0.00     0.049 A 
ATOM     61  H   UNL     1       3.431 -16.388   0.982  1.00  0.00     0.167 HD
ATOM     62  C   UNL     1       3.953 -18.652  -0.683  1.00  0.00     0.074 A 
ATOM     63  C   UNL     1       4.290 -19.463  -1.836  1.00  0.00     0.031 C 
ATOM     64  C   UNL     1       3.673 -19.152   0.547  1.00  0.00     0.037 A 
BRANCH  51  65
ATOM     65  C   UNL     1       2.425 -14.872   4.852  1.00  0.00     0.058 A 
ATOM     66  C   UNL     1       1.188 -14.322   5.227  1.00  0.00     0.135 A 
ATOM     67  C   UNL     1       3.355 -15.136   5.871  1.00  0.00     0.135 A 
ATOM     68  F   UNL     1       0.266 -14.031   4.294  1.00  0.00    -0.206 F 
ATOM     69  C   UNL     1       0.899 -14.015   6.553  1.00  0.00     0.059 A 
ATOM     70  C   UNL     1       3.076 -14.865   7.207  1.00  0.00     0.059 A 
ATOM     71  F   UNL     1       4.555 -15.658   5.571  1.00  0.00    -0.206 F 
ATOM     72  C   UNL     1       1.851 -14.289   7.536  1.00  0.00     0.060 A 
BRANCH  72  73
ATOM     73  S   UNL     1       1.463 -13.878   9.251  1.00  0.00     0.124 S 
ATOM     74  O   UNL     1       1.530 -12.420   9.224  1.00  0.00    -0.237 OA
ATOM     75  O   UNL     1       0.129 -14.448   9.414  1.00  0.00    -0.237 OA
ATOM     76  O   UNL     1       2.521 -14.540  10.008  1.00  0.00    -0.744 OA
ENDBRANCH  72  73
ENDBRANCH  51  65
BRANCH  52  77
ATOM     77  C   UNL     1       4.842 -16.455  -4.766  1.00  0.00     0.058 A 
ATOM     78  C   UNL     1       3.965 -17.087  -5.659  1.00  0.00     0.135 A 
ATOM     79  C   UNL     1       6.083 -16.026  -5.265  1.00  0.00     0.135 A 
ATOM     80  F   UNL     1       2.770 -17.523  -5.231  1.00  0.00    -0.206 F 
ATOM     81  C   UNL     1       4.306 -17.296  -6.992  1.00  0.00     0.059 A 
ATOM     82  C   UNL     1       6.435 -16.198  -6.600  1.00  0.00     0.059 A 
ATOM     83  F   UNL     1       6.955 -15.405  -4.456  1.00  0.00    -0.206 F 
ATOM     84  C   UNL     1       5.542 -16.841  -7.455  1.00  0.00     0.060 A 
BRANCH  84  85
ATOM     85  S   UNL     1       5.949 -17.068  -9.200  1.00  0.00     0.124 S 
ATOM     86  O   UNL     1       6.162 -18.509  -9.267  1.00  0.00    -0.237 OA
ATOM     87  O   UNL     1       4.748 -16.568  -9.861  1.00  0.00    -0.237 OA
ATOM     88  O   UNL     1       7.142 -16.245  -9.377  1.00  0.00    -0.744 OA
ENDBRANCH  84  85
ENDBRANCH  52  77
BRANCH  64  89
ATOM     89  C   UNL     1       3.681 -20.648   0.700  1.00  0.00     0.058 A 
ATOM     90  C   UNL     1       4.872 -21.390   0.686  1.00  0.00     0.135 A 
ATOM     91  C   UNL     1       2.479 -21.342   0.921  1.00  0.00     0.135 A 
ATOM     92  F   UNL     1       6.047 -20.777   0.472  1.00  0.00    -0.206 F 
ATOM     93  C   UNL     1       4.870 -22.770   0.861  1.00  0.00     0.059 A 
ATOM     94  C   UNL     1       2.457 -22.717   1.130  1.00  0.00     0.059 A 
ATOM     95  F   UNL     1       1.312 -20.680   0.954  1.00  0.00    -0.206 F 
ATOM     96  C   UNL     1       3.657 -23.424   1.086  1.00  0.00     0.060 A 
BRANCH  96  97
ATOM     97  S   UNL     1       3.674 -25.209   1.347  1.00  0.00     0.124 S 
ATOM     98  O   UNL     1       3.957 -25.701   0.003  1.00  0.00    -0.237 OA
ATOM     99  O   UNL     1       4.748 -25.372   2.322  1.00  0.00    -0.237 OA
ATOM    100  O   UNL     1       2.333 -25.493   1.849  1.00  0.00    -0.744 OA
ENDBRANCH  96  97
ENDBRANCH  64  89
ENDBRANCH  38  39
ENDBRANCH  31  33
ENDBRANCH  30  31
ENDBRANCH  29  30
ENDBRANCH   1  29
TORSDOF 19
