REMARK SMILES COc1ccc2c(c1)[C@@](NC=O)(C(=O)OCCOC(=O)c1ccc(-c3c4nc(c(-c5c(F)cc(S(=O)(=O)[O-])cc5F)c5ccc([nH]5)c(-c5c(F)cc(S(=O)(=O)[O-])cc5F)c5nc(c(-c6c(F)cc(S(=O)(=O)[O-])cc6F)c6ccc3[nH]6)C=C5)C=C4)cc1)CCC2
REMARK SMILES IDX 17 1 16 2 15 3 13 4 14 5 9 6 3 7 4 8 8 9 5 10 7 11 6 12
REMARK SMILES IDX 89 13 87 14 88 15 2 16 1 17 10 18 11 19 12 21 18 22 19 23
REMARK SMILES IDX 20 24 21 25 22 26 86 27 23 28 85 29 24 30 25 31 26 32 79 33
REMARK SMILES IDX 27 34 84 35 78 36 80 37 28 38 83 39 77 40 76 41 29 43 63 44
REMARK SMILES IDX 42 45 62 46 43 47 46 48 61 49 81 50 44 51 45 52 60 54 82 55
REMARK SMILES IDX 47 56 30 57 31 58 40 59 32 60 33 61 39 62 41 63 34 64 35 65
REMARK SMILES IDX 36 66 37 67 38 68 64 69 65 70 74 71 66 72 67 73 73 74 75 75
REMARK SMILES IDX 68 76 69 77 70 78 71 79 72 80 48 81 49 82 58 83 50 84 51 85
REMARK SMILES IDX 57 86 59 87 52 88 53 89 54 90 55 91 56 92
REMARK H PARENT 10 20 80 42 46 53
REMARK Flexibility Score: inf
ROOT
ATOM      1  C   UNL     1       7.471  -2.988   0.431  1.00  0.00     0.275 C 
ENDROOT
BRANCH   1   2
ATOM      2  C   UNL     1       6.317  -3.994   0.467  1.00  0.00     0.274 C 
BRANCH   2   3
ATOM      3  O   UNL     1       5.677  -4.183  -0.813  1.00  0.00    -0.460 OA
BRANCH   3   4
ATOM      4  C   UNL     1       4.575  -3.399  -1.014  1.00  0.00     0.336 C 
ATOM      5  O   UNL     1       4.271  -2.498  -0.237  1.00  0.00    -0.249 OA
BRANCH   4   6
ATOM      6  C   UNL     1       3.799  -3.727  -2.358  1.00  0.00     0.164 C 
ATOM      7  C   UNL     1       0.344  -2.550  -1.058  1.00  0.00     0.119 A 
ATOM      8  C   UNL     1      -0.464  -3.626  -1.405  1.00  0.00     0.047 A 
ATOM      9  C   UNL     1       1.692  -2.582  -1.412  1.00  0.00     0.053 A 
ATOM     10  C   UNL     1       0.058  -4.699  -2.128  1.00  0.00     0.008 A 
ATOM     11  C   UNL     1       2.271  -3.700  -2.067  1.00  0.00    -0.004 A 
ATOM     12  C   UNL     1       1.415  -4.735  -2.489  1.00  0.00    -0.042 A 
ATOM     13  C   UNL     1       1.905  -5.900  -3.309  1.00  0.00     0.036 C 
ATOM     14  C   UNL     1       4.224  -5.120  -2.893  1.00  0.00     0.046 C 
ATOM     15  C   UNL     1       3.258  -5.633  -3.953  1.00  0.00     0.008 C 
BRANCH   7  16
ATOM     16  O   UNL     1      -0.284  -1.549  -0.372  1.00  0.00    -0.497 OA
ATOM     17  C   UNL     1       0.482  -0.388  -0.065  1.00  0.00     0.278 C 
ENDBRANCH   7  16
BRANCH   6  18
ATOM     18  N   UNL     1       4.029  -2.694  -3.385  1.00  0.00    -0.339 N 
ATOM     19  C   UNL     1       5.173  -2.483  -4.092  1.00  0.00     0.338 C 
ATOM     20  H   UNL     1       3.274  -2.092  -3.580  1.00  0.00     0.164 HD
ATOM     21  O   UNL     1       5.224  -1.683  -5.016  1.00  0.00    -0.279 OA
ENDBRANCH   6  18
ENDBRANCH   4   6
ENDBRANCH   3   4
ENDBRANCH   2   3
ENDBRANCH   1   2
BRANCH   1  22
ATOM     22  O   UNL     1       7.042  -1.677   0.024  1.00  0.00    -0.458 OA
BRANCH  22  23
ATOM     23  C   UNL     1       7.323  -1.365  -1.262  1.00  0.00     0.338 C 
ATOM     24  O   UNL     1       7.901  -2.069  -2.074  1.00  0.00    -0.246 OA
BRANCH  23  25
ATOM     25  C   UNL     1       6.752  -0.057  -1.623  1.00  0.00     0.060 A 
ATOM     26  C   UNL     1       5.409   0.002  -1.983  1.00  0.00     0.016 A 
ATOM     27  C   UNL     1       7.575   1.050  -1.819  1.00  0.00     0.016 A 
ATOM     28  C   UNL     1       4.903   1.113  -2.644  1.00  0.00     0.010 A 
ATOM     29  C   UNL     1       7.038   2.210  -2.394  1.00  0.00     0.010 A 
ATOM     30  C   UNL     1       5.707   2.238  -2.849  1.00  0.00    -0.014 A 
BRANCH  30  31
ATOM     31  C   UNL     1       5.159   3.411  -3.582  1.00  0.00     0.031 A 
ATOM     32  C   UNL     1       5.800   3.861  -4.867  1.00  0.00     0.074 A 
ATOM     33  C   UNL     1       4.072   4.057  -3.113  1.00  0.00     0.049 A 
ATOM     34  N   UNL     1       5.616   4.970  -5.536  1.00  0.00    -0.248 NA
ATOM     35  C   UNL     1       6.787   2.952  -5.474  1.00  0.00     0.031 C 
ATOM     36  C   UNL     1       3.310   3.684  -1.917  1.00  0.00     0.029 A 
ATOM     37  N   UNL     1       3.413   5.164  -3.588  1.00  0.00    -0.354 N 
ATOM     38  C   UNL     1       6.513   4.926  -6.598  1.00  0.00     0.074 A 
ATOM     39  C   UNL     1       7.228   3.673  -6.497  1.00  0.00     0.031 C 
ATOM     40  C   UNL     1       2.277   4.527  -1.770  1.00  0.00     0.029 A 
ATOM     41  C   UNL     1       2.355   5.554  -2.802  1.00  0.00     0.049 A 
ATOM     42  H   UNL     1       3.674   5.633  -4.413  1.00  0.00     0.167 HD
ATOM     43  C   UNL     1       6.721   5.856  -7.560  1.00  0.00     0.037 A 
ATOM     44  C   UNL     1       1.569   6.646  -2.868  1.00  0.00     0.037 A 
ATOM     45  C   UNL     1       5.941   7.059  -7.701  1.00  0.00     0.049 A 
ATOM     46  C   UNL     1       1.829   7.669  -3.937  1.00  0.00     0.074 A 
ATOM     47  C   UNL     1       6.051   8.048  -8.664  1.00  0.00     0.029 A 
ATOM     48  N   UNL     1       4.892   7.424  -6.872  1.00  0.00    -0.354 N 
ATOM     49  N   UNL     1       2.729   7.651  -4.891  1.00  0.00    -0.248 NA
ATOM     50  C   UNL     1       0.987   8.873  -3.923  1.00  0.00     0.031 C 
ATOM     51  C   UNL     1       5.087   9.026  -8.399  1.00  0.00     0.029 A 
ATOM     52  C   UNL     1       4.355   8.630  -7.292  1.00  0.00     0.049 A 
ATOM     53  H   UNL     1       4.576   6.904  -6.098  1.00  0.00     0.167 HD
ATOM     54  C   UNL     1       2.555   8.836  -5.596  1.00  0.00     0.074 A 
ATOM     55  C   UNL     1       1.453   9.538  -4.971  1.00  0.00     0.031 C 
ATOM     56  C   UNL     1       3.251   9.305  -6.660  1.00  0.00     0.037 A 
BRANCH  43  57
ATOM     57  C   UNL     1       7.860   5.643  -8.517  1.00  0.00     0.058 A 
ATOM     58  C   UNL     1       7.782   4.741  -9.586  1.00  0.00     0.135 A 
ATOM     59  C   UNL     1       9.025   6.419  -8.396  1.00  0.00     0.135 A 
ATOM     60  F   UNL     1       6.698   3.964  -9.739  1.00  0.00    -0.206 F 
ATOM     61  C   UNL     1       8.823   4.610 -10.502  1.00  0.00     0.059 A 
ATOM     62  C   UNL     1      10.069   6.320  -9.310  1.00  0.00     0.059 A 
ATOM     63  F   UNL     1       9.151   7.296  -7.387  1.00  0.00    -0.206 F 
ATOM     64  C   UNL     1       9.962   5.406 -10.357  1.00  0.00     0.060 A 
BRANCH  64  65
ATOM     65  S   UNL     1      11.289   5.259 -11.573  1.00  0.00     0.124 S 
ATOM     66  O   UNL     1      11.921   4.008 -11.167  1.00  0.00    -0.237 OA
ATOM     67  O   UNL     1      10.557   5.218 -12.836  1.00  0.00    -0.237 OA
ATOM     68  O   UNL     1      12.085   6.463 -11.355  1.00  0.00    -0.744 OA
ENDBRANCH  64  65
ENDBRANCH  43  57
BRANCH  44  69
ATOM     69  C   UNL     1       0.506   6.863  -1.851  1.00  0.00     0.058 A 
ATOM     70  C   UNL     1      -0.851   6.798  -2.197  1.00  0.00     0.135 A 
ATOM     71  C   UNL     1       0.828   7.147  -0.515  1.00  0.00     0.135 A 
ATOM     72  F   UNL     1      -1.209   6.539  -3.464  1.00  0.00    -0.206 F 
ATOM     73  C   UNL     1      -1.853   7.024  -1.258  1.00  0.00     0.059 A 
ATOM     74  C   UNL     1      -0.155   7.350   0.447  1.00  0.00     0.059 A 
ATOM     75  F   UNL     1       2.113   7.208  -0.130  1.00  0.00    -0.206 F 
ATOM     76  C   UNL     1      -1.494   7.301   0.062  1.00  0.00     0.060 A 
BRANCH  76  77
ATOM     77  S   UNL     1      -2.793   7.558   1.290  1.00  0.00     0.124 S 
ATOM     78  O   UNL     1      -3.166   8.944   1.033  1.00  0.00    -0.237 OA
ATOM     79  O   UNL     1      -3.781   6.551   0.915  1.00  0.00    -0.237 OA
ATOM     80  O   UNL     1      -2.107   7.311   2.554  1.00  0.00    -0.744 OA
ENDBRANCH  76  77
ENDBRANCH  44  69
BRANCH  56  81
ATOM     81  C   UNL     1       2.816  10.623  -7.232  1.00  0.00     0.058 A 
ATOM     82  C   UNL     1       3.131  11.835  -6.599  1.00  0.00     0.135 A 
ATOM     83  C   UNL     1       2.107  10.673  -8.442  1.00  0.00     0.135 A 
ATOM     84  F   UNL     1       3.799  11.836  -5.435  1.00  0.00    -0.206 F 
ATOM     85  C   UNL     1       2.737  13.055  -7.137  1.00  0.00     0.059 A 
ATOM     86  C   UNL     1       1.723  11.884  -9.009  1.00  0.00     0.059 A 
ATOM     87  F   UNL     1       1.790   9.540  -9.088  1.00  0.00    -0.206 F 
ATOM     88  C   UNL     1       2.032  13.069  -8.342  1.00  0.00     0.060 A 
BRANCH  88  89
ATOM     89  S   UNL     1       1.546  14.659  -9.047  1.00  0.00     0.124 S 
ATOM     90  O   UNL     1       0.387  15.000  -8.230  1.00  0.00    -0.237 OA
ATOM     91  O   UNL     1       2.736  15.476  -8.832  1.00  0.00    -0.237 OA
ATOM     92  O   UNL     1       1.260  14.336 -10.442  1.00  0.00    -0.744 OA
ENDBRANCH  88  89
ENDBRANCH  56  81
ENDBRANCH  30  31
ENDBRANCH  23  25
ENDBRANCH  22  23
ENDBRANCH   1  22
TORSDOF 16
