REMARK SMILES [NH3+][C@]1(C(=O)OCCOC(=O)c2ccc(-c3c4nc(c(-c5c(F)cc(S(=O)(=O)[O-])cc5F)c5ccc([nH]5)c(-c5c(F)cc(S(=O)(=O)[O-])cc5F)c5nc(c(-c6c(F)cc(S(=O)(=O)[O-])cc6F)c6ccc3[nH]6)C=C5)C=C4)cc2)CC[C@@H]([N@H+](CC2CC2)C2CC2)C1
REMARK SMILES IDX 6 1 5 2 3 3 4 4 2 5 77 6 88 7 78 8 79 9 1 10 80 14 81 16
REMARK SMILES IDX 82 17 83 18 84 19 85 20 86 21 87 22 7 23 8 24 9 25 10 26
REMARK SMILES IDX 11 27 12 28 76 29 13 30 75 31 14 32 15 33 16 34 69 35 17 36
REMARK SMILES IDX 74 37 68 38 70 39 18 40 73 41 67 42 66 43 19 45 53 46 32 47
REMARK SMILES IDX 52 48 33 49 36 50 51 51 71 52 34 53 35 54 50 56 72 57 37 58
REMARK SMILES IDX 20 59 21 60 30 61 22 62 23 63 29 64 31 65 24 66 25 67 26 68
REMARK SMILES IDX 27 69 28 70 54 71 55 72 64 73 56 74 57 75 63 76 65 77 58 78
REMARK SMILES IDX 59 79 60 80 61 81 62 82 38 83 39 84 48 85 40 86 41 87 47 88
REMARK SMILES IDX 49 89 42 90 43 91 44 92 45 93 46 94
REMARK H PARENT 1 11 1 12 1 13 80 15 70 44 36 55
REMARK Flexibility Score: inf
ROOT
ATOM      1  C   UNL     1       1.899  -2.194   0.304  1.00  0.00     0.274 C 
ENDROOT
BRANCH   1   2
ATOM      2  O   UNL     1       1.411  -1.057   1.043  1.00  0.00    -0.457 OA
BRANCH   2   3
ATOM      3  C   UNL     1       1.319   0.086   0.299  1.00  0.00     0.368 C 
ATOM      4  O   UNL     1       1.765   0.182  -0.839  1.00  0.00    -0.245 OA
BRANCH   3   5
ATOM      5  C   UNL     1       0.471   1.178   0.992  1.00  0.00     0.198 C 
ATOM      6  C   UNL     1       1.089   1.704   2.289  1.00  0.00     0.087 C 
ATOM      7  C   UNL     1       0.338   2.442   0.098  1.00  0.00     0.145 C 
ATOM      8  C   UNL     1       0.675   3.175   2.303  1.00  0.00     0.072 C 
ATOM      9  C   UNL     1       0.949   3.637   0.852  1.00  0.00     0.191 C 
BRANCH   5  10
ATOM     10  N   UNL     1      -0.878   0.631   1.313  1.00  0.00    -0.343 N 
ATOM     11  H   UNL     1      -1.437   1.351   1.770  1.00  0.00     0.345 HD
ATOM     12  H   UNL     1      -0.780  -0.170   1.937  1.00  0.00     0.345 HD
ATOM     13  H   UNL     1      -1.339   0.337   0.452  1.00  0.00     0.345 HD
ENDBRANCH   5  10
BRANCH   9  14
ATOM     14  N   UNL     1       2.367   4.033   0.785  1.00  0.00    -0.330 N 
ATOM     15  H   UNL     1       2.671   3.226   1.331  1.00  0.00     0.348 HD
BRANCH  14  16
ATOM     16  C   UNL     1       2.560   5.394   1.336  1.00  0.00     0.266 C 
BRANCH  16  17
ATOM     17  C   UNL     1       3.236   5.397   2.678  1.00  0.00     0.044 C 
ATOM     18  C   UNL     1       3.962   4.203   3.260  1.00  0.00     0.010 C 
ATOM     19  C   UNL     1       4.743   5.385   2.770  1.00  0.00     0.010 C 
ENDBRANCH  16  17
ENDBRANCH  14  16
BRANCH  14  20
ATOM     20  C   UNL     1       3.342   3.739  -0.280  1.00  0.00     0.184 C 
ATOM     21  C   UNL     1       4.025   2.391  -0.201  1.00  0.00     0.071 C 
ATOM     22  C   UNL     1       3.304   2.806  -1.444  1.00  0.00     0.071 C 
ENDBRANCH  14  20
ENDBRANCH   9  14
ENDBRANCH   3   5
ENDBRANCH   2   3
ENDBRANCH   1   2
BRANCH   1  23
ATOM     23  C   UNL     1       0.740  -2.945  -0.360  1.00  0.00     0.275 C 
BRANCH  23  24
ATOM     24  O   UNL     1       0.009  -2.062  -1.231  1.00  0.00    -0.458 OA
BRANCH  24  25
ATOM     25  C   UNL     1      -1.322  -2.280  -1.319  1.00  0.00     0.338 C 
ATOM     26  O   UNL     1      -1.939  -3.211  -0.813  1.00  0.00    -0.246 OA
BRANCH  25  27
ATOM     27  C   UNL     1      -1.971  -1.224  -2.132  1.00  0.00     0.060 A 
ATOM     28  C   UNL     1      -1.495   0.090  -2.142  1.00  0.00     0.016 A 
ATOM     29  C   UNL     1      -3.121  -1.534  -2.859  1.00  0.00     0.016 A 
ATOM     30  C   UNL     1      -2.189   1.097  -2.813  1.00  0.00     0.010 A 
ATOM     31  C   UNL     1      -3.760  -0.545  -3.618  1.00  0.00     0.010 A 
ATOM     32  C   UNL     1      -3.308   0.785  -3.596  1.00  0.00    -0.014 A 
BRANCH  32  33
ATOM     33  C   UNL     1      -3.985   1.827  -4.419  1.00  0.00     0.031 A 
ATOM     34  C   UNL     1      -5.449   2.119  -4.224  1.00  0.00     0.074 A 
ATOM     35  C   UNL     1      -3.295   2.490  -5.371  1.00  0.00     0.049 A 
ATOM     36  N   UNL     1      -6.265   2.798  -4.988  1.00  0.00    -0.248 NA
ATOM     37  C   UNL     1      -6.079   1.567  -3.014  1.00  0.00     0.031 C 
ATOM     38  C   UNL     1      -1.863   2.341  -5.644  1.00  0.00     0.029 A 
ATOM     39  N   UNL     1      -3.710   3.414  -6.300  1.00  0.00    -0.354 N 
ATOM     40  C   UNL     1      -7.512   2.719  -4.380  1.00  0.00     0.074 A 
ATOM     41  C   UNL     1      -7.345   1.928  -3.179  1.00  0.00     0.031 C 
ATOM     42  C   UNL     1      -1.518   3.151  -6.656  1.00  0.00     0.029 A 
ATOM     43  C   UNL     1      -2.715   3.808  -7.165  1.00  0.00     0.049 A 
ATOM     44  H   UNL     1      -4.630   3.761  -6.342  1.00  0.00     0.167 HD
ATOM     45  C   UNL     1      -8.688   3.255  -4.789  1.00  0.00     0.037 A 
ATOM     46  C   UNL     1      -2.764   4.560  -8.282  1.00  0.00     0.037 A 
ATOM     47  C   UNL     1      -8.840   4.069  -5.968  1.00  0.00     0.049 A 
ATOM     48  C   UNL     1      -4.088   5.093  -8.749  1.00  0.00     0.074 A 
ATOM     49  C   UNL     1      -9.989   4.659  -6.466  1.00  0.00     0.029 A 
ATOM     50  N   UNL     1      -7.809   4.418  -6.828  1.00  0.00    -0.354 N 
ATOM     51  N   UNL     1      -5.269   4.959  -8.198  1.00  0.00    -0.248 NA
ATOM     52  C   UNL     1      -4.090   5.855 -10.006  1.00  0.00     0.031 C 
ATOM     53  C   UNL     1      -9.659   5.340  -7.643  1.00  0.00     0.029 A 
ATOM     54  C   UNL     1      -8.297   5.202  -7.860  1.00  0.00     0.049 A 
ATOM     55  H   UNL     1      -6.869   4.147  -6.721  1.00  0.00     0.167 HD
ATOM     56  C   UNL     1      -6.157   5.615  -9.041  1.00  0.00     0.074 A 
ATOM     57  C   UNL     1      -5.373   6.169 -10.126  1.00  0.00     0.031 C 
ATOM     58  C   UNL     1      -7.502   5.739  -8.934  1.00  0.00     0.037 A 
BRANCH  45  59
ATOM     59  C   UNL     1      -9.915   2.958  -3.974  1.00  0.00     0.058 A 
ATOM     60  C   UNL     1     -10.161   3.597  -2.750  1.00  0.00     0.135 A 
ATOM     61  C   UNL     1     -10.883   2.060  -4.453  1.00  0.00     0.135 A 
ATOM     62  F   UNL     1      -9.260   4.450  -2.240  1.00  0.00    -0.206 F 
ATOM     63  C   UNL     1     -11.320   3.345  -2.021  1.00  0.00     0.059 A 
ATOM     64  C   UNL     1     -12.058   1.808  -3.750  1.00  0.00     0.059 A 
ATOM     65  F   UNL     1     -10.694   1.421  -5.619  1.00  0.00    -0.206 F 
ATOM     66  C   UNL     1     -12.262   2.449  -2.529  1.00  0.00     0.060 A 
BRANCH  66  67
ATOM     67  S   UNL     1     -13.768   2.144  -1.580  1.00  0.00     0.124 S 
ATOM     68  O   UNL     1     -13.266   1.295  -0.504  1.00  0.00    -0.237 OA
ATOM     69  O   UNL     1     -14.170   3.491  -1.188  1.00  0.00    -0.237 OA
ATOM     70  O   UNL     1     -14.648   1.486  -2.540  1.00  0.00    -0.744 OA
ENDBRANCH  66  67
ENDBRANCH  45  59
BRANCH  46  71
ATOM     71  C   UNL     1      -1.529   4.787  -9.078  1.00  0.00     0.058 A 
ATOM     72  C   UNL     1      -0.927   6.051  -9.136  1.00  0.00     0.135 A 
ATOM     73  C   UNL     1      -0.923   3.740  -9.791  1.00  0.00     0.135 A 
ATOM     74  F   UNL     1      -1.476   7.086  -8.481  1.00  0.00    -0.206 F 
ATOM     75  C   UNL     1       0.228   6.274  -9.881  1.00  0.00     0.059 A 
ATOM     76  C   UNL     1       0.245   3.931 -10.521  1.00  0.00     0.059 A 
ATOM     77  F   UNL     1      -1.455   2.508  -9.758  1.00  0.00    -0.206 F 
ATOM     78  C   UNL     1       0.806   5.206 -10.569  1.00  0.00     0.060 A 
BRANCH  78  79
ATOM     79  S   UNL     1       2.333   5.485 -11.494  1.00  0.00     0.124 S 
ATOM     80  O   UNL     1       1.825   6.100 -12.714  1.00  0.00    -0.237 OA
ATOM     81  O   UNL     1       3.083   6.363 -10.600  1.00  0.00    -0.237 OA
ATOM     82  O   UNL     1       2.881   4.140 -11.642  1.00  0.00    -0.744 OA
ENDBRANCH  78  79
ENDBRANCH  46  71
BRANCH  58  83
ATOM     83  C   UNL     1      -8.205   6.507 -10.014  1.00  0.00     0.058 A 
ATOM     84  C   UNL     1      -8.442   5.940 -11.276  1.00  0.00     0.135 A 
ATOM     85  C   UNL     1      -8.677   7.807  -9.776  1.00  0.00     0.135 A 
ATOM     86  F   UNL     1      -8.001   4.703 -11.554  1.00  0.00    -0.206 F 
ATOM     87  C   UNL     1      -9.108   6.644 -12.273  1.00  0.00     0.059 A 
ATOM     88  C   UNL     1      -9.363   8.522 -10.753  1.00  0.00     0.059 A 
ATOM     89  F   UNL     1      -8.479   8.390  -8.583  1.00  0.00    -0.206 F 
ATOM     90  C   UNL     1      -9.564   7.936 -12.002  1.00  0.00     0.060 A 
BRANCH  90  91
ATOM     91  S   UNL     1     -10.454   8.830 -13.293  1.00  0.00     0.124 S 
ATOM     92  O   UNL     1      -9.362   9.257 -14.161  1.00  0.00    -0.237 OA
ATOM     93  O   UNL     1     -11.334   7.802 -13.840  1.00  0.00    -0.237 OA
ATOM     94  O   UNL     1     -11.129   9.898 -12.560  1.00  0.00    -0.744 OA
ENDBRANCH  90  91
ENDBRANCH  58  83
ENDBRANCH  32  33
ENDBRANCH  25  27
ENDBRANCH  24  25
ENDBRANCH  23  24
ENDBRANCH   1  23
TORSDOF 19
