REMARK SMILES COC(=O)c1ccc(Cl)c(-c2ccc(C(=O)OCCOC(=O)c3ccc(-c4c5nc(c(-c6c(F)cc(S(=O)(=O)[O-])cc6F)c6ccc([nH]6)c(-c6c(F)cc(S(=O)(=O)[O-])cc6F)c6nc(c(-c7c(F)cc(S(=O)(=O)[O-])cc7F)c7ccc4[nH]7)C=C6)C=C5)cc3)c(F)c2)c1
REMARK SMILES IDX 18 1 17 2 15 3 16 4 14 5 11 6 12 7 91 8 13 9 89 10 90 11
REMARK SMILES IDX 10 12 5 13 6 14 92 15 7 16 8 17 9 18 3 19 4 20 2 21 1 22
REMARK SMILES IDX 19 23 20 24 21 25 22 26 23 27 24 28 88 29 25 30 87 31 26 32
REMARK SMILES IDX 27 33 28 34 81 35 29 36 86 37 80 38 82 39 30 40 85 41 79 42
REMARK SMILES IDX 78 43 31 45 65 46 44 47 64 48 45 49 48 50 63 51 83 52 46 53
REMARK SMILES IDX 47 54 62 56 84 57 49 58 32 59 33 60 42 61 34 62 35 63 41 64
REMARK SMILES IDX 43 65 36 66 37 67 38 68 39 69 40 70 66 71 67 72 76 73 68 74
REMARK SMILES IDX 69 75 75 76 77 77 70 78 71 79 72 80 73 81 74 82 50 83 51 84
REMARK SMILES IDX 60 85 52 86 53 87 59 88 61 89 54 90 55 91 56 92 57 93 58 94
REMARK H PARENT 82 44 48 55
REMARK Flexibility Score: inf
ROOT
ATOM      1  C   UNL     1       6.096   8.334   8.074  1.00  0.00     0.275 C 
ENDROOT
BRANCH   1   2
ATOM      2  O   UNL     1       5.202   7.686   7.147  1.00  0.00    -0.458 OA
BRANCH   2   3
ATOM      3  C   UNL     1       4.695   6.498   7.552  1.00  0.00     0.341 C 
ATOM      4  O   UNL     1       4.922   5.940   8.615  1.00  0.00    -0.246 OA
BRANCH   3   5
ATOM      5  C   UNL     1       3.700   5.974   6.596  1.00  0.00     0.095 A 
ATOM      6  C   UNL     1       1.761   4.867   4.874  1.00  0.00    -0.014 A 
ATOM      7  C   UNL     1       1.635   4.743   6.263  1.00  0.00     0.010 A 
ATOM      8  C   UNL     1       2.874   5.553   4.359  1.00  0.00     0.049 A 
ATOM      9  C   UNL     1       2.610   5.260   7.110  1.00  0.00     0.019 A 
ATOM     10  C   UNL     1       3.828   6.109   5.218  1.00  0.00     0.138 A 
ATOM     11  F   UNL     1       4.900   6.706   4.675  1.00  0.00    -0.206 F 
BRANCH   6  12
ATOM     12  C   UNL     1       0.809   4.163   4.007  1.00  0.00     0.001 A 
ATOM     13  C   UNL     1       0.379   2.210   2.602  1.00  0.00     0.060 A 
ATOM     14  C   UNL     1      -0.962   2.580   2.475  1.00  0.00     0.017 A 
ATOM     15  C   UNL     1       1.250   2.989   3.369  1.00  0.00     0.026 A 
ATOM     16  C   UNL     1      -1.418   3.744   3.100  1.00  0.00     0.022 A 
ATOM     17  C   UNL     1      -0.539   4.535   3.852  1.00  0.00     0.048 A 
ATOM     18  Cl  UNL     1      -1.174   5.972   4.573  1.00  0.00    -0.084 Cl
BRANCH  13  19
ATOM     19  C   UNL     1       0.939   1.001   1.953  1.00  0.00     0.337 C 
ATOM     20  O   UNL     1       1.889   0.380   2.387  1.00  0.00    -0.246 OA
BRANCH  19  21
ATOM     21  O   UNL     1       0.310   0.793   0.769  1.00  0.00    -0.465 OA
ATOM     22  C   UNL     1       0.915  -0.228  -0.023  1.00  0.00     0.282 C 
ENDBRANCH  19  21
ENDBRANCH  13  19
ENDBRANCH   6  12
ENDBRANCH   3   5
ENDBRANCH   2   3
ENDBRANCH   1   2
BRANCH   1  23
ATOM     23  C   UNL     1       5.421   9.532   8.741  1.00  0.00     0.275 C 
BRANCH  23  24
ATOM     24  O   UNL     1       4.340   9.098   9.586  1.00  0.00    -0.458 OA
BRANCH  24  25
ATOM     25  C   UNL     1       3.099   9.385   9.129  1.00  0.00     0.338 C 
ATOM     26  O   UNL     1       2.805   9.996   8.116  1.00  0.00    -0.246 OA
BRANCH  25  27
ATOM     27  C   UNL     1       2.085   8.788  10.011  1.00  0.00     0.060 A 
ATOM     28  C   UNL     1       1.845   7.423   9.904  1.00  0.00     0.016 A 
ATOM     29  C   UNL     1       1.254   9.583  10.796  1.00  0.00     0.016 A 
ATOM     30  C   UNL     1       0.708   6.862  10.481  1.00  0.00     0.010 A 
ATOM     31  C   UNL     1       0.173   8.996  11.467  1.00  0.00     0.010 A 
ATOM     32  C   UNL     1      -0.145   7.636  11.282  1.00  0.00    -0.014 A 
BRANCH  32  33
ATOM     33  C   UNL     1      -1.384   7.042  11.875  1.00  0.00     0.031 A 
ATOM     34  C   UNL     1      -2.735   7.657  11.589  1.00  0.00     0.074 A 
ATOM     35  C   UNL     1      -1.321   5.930  12.640  1.00  0.00     0.049 A 
ATOM     36  N   UNL     1      -3.893   7.411  12.148  1.00  0.00    -0.248 NA
ATOM     37  C   UNL     1      -2.789   8.692  10.543  1.00  0.00     0.031 C 
ATOM     38  C   UNL     1      -0.102   5.181  12.954  1.00  0.00     0.029 A 
ATOM     39  N   UNL     1      -2.310   5.222  13.283  1.00  0.00    -0.354 N 
ATOM     40  C   UNL     1      -4.799   8.288  11.559  1.00  0.00     0.074 A 
ATOM     41  C   UNL     1      -4.055   9.084  10.608  1.00  0.00     0.031 C 
ATOM     42  C   UNL     1      -0.421   4.093  13.671  1.00  0.00     0.029 A 
ATOM     43  C   UNL     1      -1.849   4.117  13.962  1.00  0.00     0.049 A 
ATOM     44  H   UNL     1      -3.259   5.482  13.259  1.00  0.00     0.167 HD
ATOM     45  C   UNL     1      -6.130   8.412  11.784  1.00  0.00     0.037 A 
ATOM     46  C   UNL     1      -2.488   3.241  14.764  1.00  0.00     0.037 A 
ATOM     47  C   UNL     1      -6.880   7.578  12.689  1.00  0.00     0.049 A 
ATOM     48  C   UNL     1      -3.951   3.440  15.050  1.00  0.00     0.074 A 
ATOM     49  C   UNL     1      -8.227   7.644  13.004  1.00  0.00     0.029 A 
ATOM     50  N   UNL     1      -6.358   6.507  13.399  1.00  0.00    -0.354 N 
ATOM     51  N   UNL     1      -4.770   4.342  14.565  1.00  0.00    -0.248 NA
ATOM     52  C   UNL     1      -4.571   2.520  16.014  1.00  0.00     0.031 C 
ATOM     53  C   UNL     1      -8.514   6.631  13.923  1.00  0.00     0.029 A 
ATOM     54  C   UNL     1      -7.355   5.906  14.150  1.00  0.00     0.049 A 
ATOM     55  H   UNL     1      -5.418   6.217  13.374  1.00  0.00     0.167 HD
ATOM     56  C   UNL     1      -6.004   4.087  15.151  1.00  0.00     0.074 A 
ATOM     57  C   UNL     1      -5.830   2.938  16.015  1.00  0.00     0.031 C 
ATOM     58  C   UNL     1      -7.174   4.752  14.992  1.00  0.00     0.037 A 
BRANCH  45  59
ATOM     59  C   UNL     1      -6.879   9.492  11.049  1.00  0.00     0.058 A 
ATOM     60  C   UNL     1      -7.368  10.614  11.740  1.00  0.00     0.135 A 
ATOM     61  C   UNL     1      -7.187   9.380   9.684  1.00  0.00     0.135 A 
ATOM     62  F   UNL     1      -7.101  10.774  13.045  1.00  0.00    -0.206 F 
ATOM     63  C   UNL     1      -8.155  11.573  11.110  1.00  0.00     0.059 A 
ATOM     64  C   UNL     1      -7.952  10.341   9.027  1.00  0.00     0.059 A 
ATOM     65  F   UNL     1      -6.727   8.340   8.972  1.00  0.00    -0.206 F 
ATOM     66  C   UNL     1      -8.445  11.426   9.753  1.00  0.00     0.060 A 
BRANCH  66  67
ATOM     67  S   UNL     1      -9.456  12.687   8.947  1.00  0.00     0.124 S 
ATOM     68  O   UNL     1     -10.765  12.452   9.546  1.00  0.00    -0.237 OA
ATOM     69  O   UNL     1      -8.784  13.920   9.347  1.00  0.00    -0.237 OA
ATOM     70  O   UNL     1      -9.344  12.355   7.529  1.00  0.00    -0.744 OA
ENDBRANCH  66  67
ENDBRANCH  45  59
BRANCH  46  71
ATOM     71  C   UNL     1      -1.741   2.111  15.383  1.00  0.00     0.058 A 
ATOM     72  C   UNL     1      -0.749   2.331  16.351  1.00  0.00     0.135 A 
ATOM     73  C   UNL     1      -2.003   0.784  15.008  1.00  0.00     0.135 A 
ATOM     74  F   UNL     1      -0.457   3.580  16.745  1.00  0.00    -0.206 F 
ATOM     75  C   UNL     1      -0.023   1.282  16.902  1.00  0.00     0.059 A 
ATOM     76  C   UNL     1      -1.312  -0.286  15.569  1.00  0.00     0.059 A 
ATOM     77  F   UNL     1      -2.957   0.521  14.101  1.00  0.00    -0.206 F 
ATOM     78  C   UNL     1      -0.310  -0.024  16.504  1.00  0.00     0.060 A 
BRANCH  78  79
ATOM     79  S   UNL     1       0.635  -1.374  17.242  1.00  0.00     0.124 S 
ATOM     80  O   UNL     1       1.935  -1.201  16.604  1.00  0.00    -0.237 OA
ATOM     81  O   UNL     1       0.576  -1.048  18.663  1.00  0.00    -0.237 OA
ATOM     82  O   UNL     1      -0.110  -2.564  16.843  1.00  0.00    -0.744 OA
ENDBRANCH  78  79
ENDBRANCH  46  71
BRANCH  58  83
ATOM     83  C   UNL     1      -8.375   4.235  15.733  1.00  0.00     0.058 A 
ATOM     84  C   UNL     1      -9.415   3.595  15.040  1.00  0.00     0.135 A 
ATOM     85  C   UNL     1      -8.530   4.434  17.113  1.00  0.00     0.135 A 
ATOM     86  F   UNL     1      -9.317   3.382  13.718  1.00  0.00    -0.206 F 
ATOM     87  C   UNL     1     -10.575   3.184  15.688  1.00  0.00     0.059 A 
ATOM     88  C   UNL     1      -9.672   4.010  17.787  1.00  0.00     0.059 A 
ATOM     89  F   UNL     1      -7.558   5.030  17.822  1.00  0.00    -0.206 F 
ATOM     90  C   UNL     1     -10.696   3.401  17.061  1.00  0.00     0.060 A 
BRANCH  90  91
ATOM     91  S   UNL     1     -12.205   2.853  17.888  1.00  0.00     0.124 S 
ATOM     92  O   UNL     1     -13.182   3.818  17.397  1.00  0.00    -0.237 OA
ATOM     93  O   UNL     1     -12.353   1.489  17.390  1.00  0.00    -0.237 OA
ATOM     94  O   UNL     1     -11.873   2.961  19.306  1.00  0.00    -0.744 OA
ENDBRANCH  90  91
ENDBRANCH  58  83
ENDBRANCH  32  33
ENDBRANCH  25  27
ENDBRANCH  24  25
ENDBRANCH  23  24
ENDBRANCH   1  23
TORSDOF 17
