REMARK SMILES O=C(OCCOC(=O)[C@@H]1CCCC[C@H]1C(=O)Nc1ccccc1C(=O)N1CCOCC1)c1ccc(-c2c3nc(c(-c4c(F)cc(S(=O)(=O)[O-])cc4F)c4ccc([nH]4)c(-c4c(F)cc(S(=O)(=O)[O-])cc4F)c4nc(c(-c5c(F)cc(S(=O)(=O)[O-])cc5F)c5ccc2[nH]5)C=C4)C=C3)cc1
REMARK SMILES IDX 4 1 3 2 2 3 1 4 32 5 33 6 97 7 34 8 96 9 35 10 36 11 37 12
REMARK SMILES IDX 90 13 38 14 95 15 89 16 91 17 39 18 94 19 88 20 87 21 40 23
REMARK SMILES IDX 74 24 53 25 73 26 54 27 57 28 72 29 92 30 55 31 56 32 71 34
REMARK SMILES IDX 93 35 58 36 41 37 42 38 51 39 43 40 44 41 50 42 52 43 45 44
REMARK SMILES IDX 46 45 47 46 48 47 49 48 75 49 76 50 85 51 77 52 78 53 84 54
REMARK SMILES IDX 86 55 79 56 80 57 81 58 82 59 83 60 59 61 60 62 69 63 61 64
REMARK SMILES IDX 62 65 68 66 70 67 63 68 64 69 65 70 66 71 67 72 5 73 6 74
REMARK SMILES IDX 7 75 8 76 9 77 10 78 14 79 11 80 13 81 12 82 15 83 16 84
REMARK SMILES IDX 17 85 18 87 19 88 23 89 20 90 22 91 21 92 24 93 25 94 26 95
REMARK SMILES IDX 27 96 31 97 28 98 30 99 29 100
REMARK H PARENT 91 22 57 33 17 86
REMARK Flexibility Score: inf
ROOT
ATOM      1  C   UNL     1       4.579  -0.970   0.072  1.00  0.00     0.275 C 
ENDROOT
BRANCH   1   2
ATOM      2  O   UNL     1       3.822  -0.287   1.077  1.00  0.00    -0.458 OA
BRANCH   2   3
ATOM      3  C   UNL     1       4.028   0.985   1.497  1.00  0.00     0.338 C 
ATOM      4  O   UNL     1       3.549   1.386   2.553  1.00  0.00    -0.246 OA
BRANCH   3   5
ATOM      5  C   UNL     1       4.660   1.952   0.567  1.00  0.00     0.060 A 
ATOM      6  C   UNL     1       5.873   1.748  -0.108  1.00  0.00     0.016 A 
ATOM      7  C   UNL     1       3.955   3.130   0.347  1.00  0.00     0.016 A 
ATOM      8  C   UNL     1       6.268   2.586  -1.159  1.00  0.00     0.010 A 
ATOM      9  C   UNL     1       4.382   3.998  -0.652  1.00  0.00     0.010 A 
ATOM     10  C   UNL     1       5.499   3.699  -1.469  1.00  0.00    -0.014 A 
BRANCH  10  11
ATOM     11  C   UNL     1       5.901   4.707  -2.486  1.00  0.00     0.031 A 
ATOM     12  C   UNL     1       6.247   6.048  -1.915  1.00  0.00     0.074 A 
ATOM     13  C   UNL     1       5.815   4.531  -3.824  1.00  0.00     0.049 A 
ATOM     14  N   UNL     1       6.358   7.203  -2.506  1.00  0.00    -0.248 NA
ATOM     15  C   UNL     1       6.398   6.093  -0.446  1.00  0.00     0.031 C 
ATOM     16  C   UNL     1       5.468   3.295  -4.531  1.00  0.00     0.029 A 
ATOM     17  N   UNL     1       5.939   5.451  -4.844  1.00  0.00    -0.354 N 
ATOM     18  C   UNL     1       6.609   8.089  -1.471  1.00  0.00     0.074 A 
ATOM     19  C   UNL     1       6.382   7.392  -0.229  1.00  0.00     0.031 C 
ATOM     20  C   UNL     1       5.298   3.559  -5.843  1.00  0.00     0.029 A 
ATOM     21  C   UNL     1       5.570   4.972  -6.085  1.00  0.00     0.049 A 
ATOM     22  H   UNL     1       6.262   6.370  -4.699  1.00  0.00     0.167 HD
ATOM     23  C   UNL     1       7.140   9.328  -1.534  1.00  0.00     0.037 A 
ATOM     24  C   UNL     1       5.467   5.613  -7.270  1.00  0.00     0.037 A 
ATOM     25  C   UNL     1       7.416   9.991  -2.766  1.00  0.00     0.049 A 
ATOM     26  C   UNL     1       5.917   7.053  -7.346  1.00  0.00     0.074 A 
ATOM     27  C   UNL     1       8.009  11.215  -2.980  1.00  0.00     0.029 A 
ATOM     28  N   UNL     1       7.101   9.459  -4.009  1.00  0.00    -0.354 N 
ATOM     29  N   UNL     1       6.297   7.847  -6.371  1.00  0.00    -0.248 NA
ATOM     30  C   UNL     1       5.985   7.670  -8.680  1.00  0.00     0.031 C 
ATOM     31  C   UNL     1       8.025  11.441  -4.361  1.00  0.00     0.029 A 
ATOM     32  C   UNL     1       7.479  10.336  -5.002  1.00  0.00     0.049 A 
ATOM     33  H   UNL     1       6.671   8.586  -4.159  1.00  0.00     0.167 HD
ATOM     34  C   UNL     1       6.739   9.016  -6.981  1.00  0.00     0.074 A 
ATOM     35  C   UNL     1       6.525   8.851  -8.404  1.00  0.00     0.031 C 
ATOM     36  C   UNL     1       7.307  10.110  -6.416  1.00  0.00     0.037 A 
BRANCH  23  37
ATOM     37  C   UNL     1       7.504   9.930  -0.211  1.00  0.00     0.058 A 
ATOM     38  C   UNL     1       8.518   9.349   0.580  1.00  0.00     0.135 A 
ATOM     39  C   UNL     1       6.714  10.934   0.360  1.00  0.00     0.135 A 
ATOM     40  F   UNL     1       9.273   8.352   0.088  1.00  0.00    -0.206 F 
ATOM     41  C   UNL     1       8.659   9.669   1.923  1.00  0.00     0.059 A 
ATOM     42  C   UNL     1       6.867  11.298   1.694  1.00  0.00     0.059 A 
ATOM     43  F   UNL     1       5.732  11.509  -0.351  1.00  0.00    -0.206 F 
ATOM     44  C   UNL     1       7.811  10.627   2.476  1.00  0.00     0.060 A 
BRANCH  44  45
ATOM     45  S   UNL     1       7.916  10.945   4.248  1.00  0.00     0.124 S 
ATOM     46  O   UNL     1       7.217   9.784   4.791  1.00  0.00    -0.237 OA
ATOM     47  O   UNL     1       9.357  10.979   4.476  1.00  0.00    -0.237 OA
ATOM     48  O   UNL     1       7.229  12.223   4.402  1.00  0.00    -0.744 OA
ENDBRANCH  44  45
ENDBRANCH  23  37
BRANCH  24  49
ATOM     49  C   UNL     1       4.989   4.915  -8.499  1.00  0.00     0.058 A 
ATOM     50  C   UNL     1       5.885   4.486  -9.490  1.00  0.00     0.135 A 
ATOM     51  C   UNL     1       3.620   4.714  -8.737  1.00  0.00     0.135 A 
ATOM     52  F   UNL     1       7.203   4.673  -9.325  1.00  0.00    -0.206 F 
ATOM     53  C   UNL     1       5.447   3.895 -10.675  1.00  0.00     0.059 A 
ATOM     54  C   UNL     1       3.156   4.122  -9.912  1.00  0.00     0.059 A 
ATOM     55  F   UNL     1       2.714   5.102  -7.826  1.00  0.00    -0.206 F 
ATOM     56  C   UNL     1       4.078   3.717 -10.877  1.00  0.00     0.060 A 
BRANCH  56  57
ATOM     57  S   UNL     1       3.521   2.901 -12.393  1.00  0.00     0.124 S 
ATOM     58  O   UNL     1       3.799   3.918 -13.399  1.00  0.00    -0.237 OA
ATOM     59  O   UNL     1       4.372   1.716 -12.427  1.00  0.00    -0.237 OA
ATOM     60  O   UNL     1       2.109   2.639 -12.128  1.00  0.00    -0.744 OA
ENDBRANCH  56  57
ENDBRANCH  24  49
BRANCH  36  61
ATOM     61  C   UNL     1       7.857  11.172  -7.319  1.00  0.00     0.058 A 
ATOM     62  C   UNL     1       7.035  12.133  -7.918  1.00  0.00     0.135 A 
ATOM     63  C   UNL     1       9.250  11.327  -7.420  1.00  0.00     0.135 A 
ATOM     64  F   UNL     1       5.700  12.017  -7.855  1.00  0.00    -0.206 F 
ATOM     65  C   UNL     1       7.578  13.238  -8.564  1.00  0.00     0.059 A 
ATOM     66  C   UNL     1       9.813  12.435  -8.039  1.00  0.00     0.059 A 
ATOM     67  F   UNL     1      10.074  10.431  -6.853  1.00  0.00    -0.206 F 
ATOM     68  C   UNL     1       8.967  13.391  -8.599  1.00  0.00     0.060 A 
BRANCH  68  69
ATOM     69  S   UNL     1       9.655  14.901  -9.307  1.00  0.00     0.124 S 
ATOM     70  O   UNL     1       9.478  14.663 -10.735  1.00  0.00    -0.237 OA
ATOM     71  O   UNL     1       8.803  15.934  -8.725  1.00  0.00    -0.237 OA
ATOM     72  O   UNL     1      11.036  14.899  -8.835  1.00  0.00    -0.744 OA
ENDBRANCH  68  69
ENDBRANCH  36  61
ENDBRANCH  10  11
ENDBRANCH   3   5
ENDBRANCH   2   3
ENDBRANCH   1   2
BRANCH   1  73
ATOM     73  C   UNL     1       4.056  -0.922  -1.369  1.00  0.00     0.274 C 
BRANCH  73  74
ATOM     74  O   UNL     1       3.667   0.320  -2.000  1.00  0.00    -0.462 OA
BRANCH  74  75
ATOM     75  C   UNL     1       2.387   0.771  -1.784  1.00  0.00     0.309 C 
ATOM     76  O   UNL     1       1.765   0.544  -0.768  1.00  0.00    -0.252 OA
BRANCH  75  77
ATOM     77  C   UNL     1       1.867   1.646  -2.969  1.00  0.00     0.111 C 
ATOM     78  C   UNL     1       2.550   2.972  -2.708  1.00  0.00     0.016 C 
ATOM     79  C   UNL     1       0.330   1.863  -3.051  1.00  0.00     0.093 C 
ATOM     80  C   UNL     1       2.157   4.155  -3.556  1.00  0.00     0.001 C 
ATOM     81  C   UNL     1      -0.072   3.176  -3.786  1.00  0.00     0.014 C 
ATOM     82  C   UNL     1       0.686   4.405  -3.335  1.00  0.00     0.001 C 
BRANCH  79  83
ATOM     83  C   UNL     1      -0.648   0.854  -3.686  1.00  0.00     0.228 C 
ATOM     84  O   UNL     1      -1.758   0.697  -3.157  1.00  0.00    -0.274 OA
ATOM     85  N   UNL     1      -0.503   0.323  -4.933  1.00  0.00    -0.325 N 
ATOM     86  H   UNL     1      -1.330  -0.020  -5.343  1.00  0.00     0.169 HD
BRANCH  85  87
ATOM     87  C   UNL     1       0.645   0.194  -5.712  1.00  0.00     0.054 A 
ATOM     88  C   UNL     1       0.651   0.914  -6.917  1.00  0.00     0.027 A 
ATOM     89  C   UNL     1       1.753  -0.585  -5.343  1.00  0.00     0.063 A 
ATOM     90  C   UNL     1       1.818   1.014  -7.671  1.00  0.00     0.002 A 
ATOM     91  C   UNL     1       2.934  -0.443  -6.100  1.00  0.00     0.016 A 
ATOM     92  C   UNL     1       2.972   0.370  -7.239  1.00  0.00     0.001 A 
BRANCH  89  93
ATOM     93  C   UNL     1       1.784  -1.554  -4.188  1.00  0.00     0.256 C 
ATOM     94  O   UNL     1       2.858  -2.025  -3.820  1.00  0.00    -0.269 OA
ATOM     95  N   UNL     1       0.578  -1.946  -3.597  1.00  0.00    -0.334 N 
ATOM     96  C   UNL     1       0.074  -3.250  -3.990  1.00  0.00     0.148 C 
ATOM     97  C   UNL     1       0.387  -1.714  -2.163  1.00  0.00     0.148 C 
ATOM     98  C   UNL     1      -1.360  -3.441  -3.492  1.00  0.00     0.181 C 
ATOM     99  C   UNL     1      -1.002  -2.067  -1.630  1.00  0.00     0.181 C 
ATOM    100  O   UNL     1      -1.406  -3.372  -2.057  1.00  0.00    -0.378 OA
ENDBRANCH  89  93
ENDBRANCH  85  87
ENDBRANCH  79  83
ENDBRANCH  75  77
ENDBRANCH  74  75
ENDBRANCH  73  74
ENDBRANCH   1  73
TORSDOF 17
