REMARK SMILES O=C(CN1C(=O)S/C(=C\c2cccc(Br)c2)C1=O)NCC(=O)OCCOC(=O)c1ccc(-c2c3nc(c(-c4c(F)cc(S(=O)(=O)[O-])cc4F)c4ccc([nH]4)c(-c4c(F)cc(S(=O)(=O)[O-])cc4F)c4nc(c(-c5c(F)cc(S(=O)(=O)[O-])cc5F)c5ccc2[nH]5)C=C4)C=C3)cc1
REMARK SMILES IDX 24 1 23 2 21 3 22 4 20 5 19 6 1 7 2 8 3 10 4 11 5 12 17 13
REMARK SMILES IDX 6 14 7 15 8 16 18 17 9 18 10 19 11 20 16 21 12 22 14 23
REMARK SMILES IDX 13 24 15 25 25 26 26 27 27 28 28 29 29 30 30 31 94 32 31 33
REMARK SMILES IDX 93 34 32 35 33 36 34 37 87 38 35 39 92 40 86 41 88 42 36 43
REMARK SMILES IDX 91 44 85 45 84 46 37 48 71 49 50 50 70 51 51 52 54 53 69 54
REMARK SMILES IDX 89 55 52 56 53 57 68 59 90 60 55 61 38 62 39 63 48 64 40 65
REMARK SMILES IDX 41 66 47 67 49 68 42 69 43 70 44 71 45 72 46 73 72 74 73 75
REMARK SMILES IDX 82 76 74 77 75 78 81 79 83 80 76 81 77 82 78 83 79 84 80 85
REMARK SMILES IDX 56 86 57 87 66 88 58 89 59 90 65 91 67 92 60 93 61 94 62 95
REMARK SMILES IDX 63 96 64 97
REMARK H PARENT 19 9 88 47 54 58
REMARK Flexibility Score: inf
ROOT
ATOM      1  C   UNL     1       2.676  -5.084  -0.354  1.00  0.00     0.274 C 
ENDROOT
BRANCH   1   2
ATOM      2  O   UNL     1       2.329  -3.701  -0.162  1.00  0.00    -0.461 OA
BRANCH   2   3
ATOM      3  C   UNL     1       1.644  -3.391   0.975  1.00  0.00     0.325 C 
ATOM      4  O   UNL     1       1.172  -4.213   1.751  1.00  0.00    -0.250 OA
BRANCH   3   5
ATOM      5  C   UNL     1       1.473  -1.884   1.151  1.00  0.00     0.238 C 
BRANCH   5   6
ATOM      6  N   UNL     1       2.397  -1.083   0.365  1.00  0.00    -0.344 N 
ATOM      7  O   UNL     1       0.896   0.568  -0.136  1.00  0.00    -0.273 OA
ATOM      8  C   UNL     1       2.022   0.091  -0.243  1.00  0.00     0.240 C 
ATOM      9  H   UNL     1       3.326  -1.393   0.265  1.00  0.00     0.164 HD
BRANCH   8  10
ATOM     10  C   UNL     1       3.153   0.820  -0.962  1.00  0.00     0.229 C 
BRANCH  10  11
ATOM     11  N   UNL     1       3.765   1.744  -0.032  1.00  0.00    -0.259 N 
ATOM     12  C   UNL     1       3.488   3.080  -0.044  1.00  0.00     0.294 C 
ATOM     13  C   UNL     1       4.673   1.301   0.897  1.00  0.00     0.268 C 
ATOM     14  O   UNL     1       2.761   3.681  -0.824  1.00  0.00    -0.261 OA
ATOM     15  S   UNL     1       4.402   3.892   1.216  1.00  0.00    -0.022 SA
ATOM     16  C   UNL     1       5.131   2.428   1.747  1.00  0.00     0.083 C 
ATOM     17  O   UNL     1       5.058   0.147   1.017  1.00  0.00    -0.268 OA
ATOM     18  C   UNL     1       6.002   2.234   2.747  1.00  0.00     0.029 C 
BRANCH  18  19
ATOM     19  C   UNL     1       6.554   3.260   3.638  1.00  0.00    -0.023 A 
ATOM     20  C   UNL     1       5.729   4.080   4.418  1.00  0.00     0.008 A 
ATOM     21  C   UNL     1       7.944   3.390   3.741  1.00  0.00     0.023 A 
ATOM     22  C   UNL     1       6.285   5.045   5.261  1.00  0.00     0.002 A 
ATOM     23  C   UNL     1       8.492   4.357   4.583  1.00  0.00     0.018 A 
ATOM     24  C   UNL     1       7.670   5.187   5.341  1.00  0.00     0.016 A 
ATOM     25  Br  UNL     1      10.369   4.552   4.684  1.00  0.00    -0.051 Br
ENDBRANCH  18  19
ENDBRANCH  10  11
ENDBRANCH   8  10
ENDBRANCH   5   6
ENDBRANCH   3   5
ENDBRANCH   2   3
ENDBRANCH   1   2
BRANCH   1  26
ATOM     26  C   UNL     1       4.181  -5.298  -0.154  1.00  0.00     0.275 C 
BRANCH  26  27
ATOM     27  O   UNL     1       4.580  -5.121   1.220  1.00  0.00    -0.458 OA
BRANCH  27  28
ATOM     28  C   UNL     1       4.830  -3.838   1.575  1.00  0.00     0.338 C 
ATOM     29  O   UNL     1       4.749  -2.854   0.857  1.00  0.00    -0.246 OA
BRANCH  28  30
ATOM     30  C   UNL     1       5.075  -3.748   3.024  1.00  0.00     0.060 A 
ATOM     31  C   UNL     1       4.239  -2.913   3.769  1.00  0.00     0.016 A 
ATOM     32  C   UNL     1       6.157  -4.388   3.630  1.00  0.00     0.016 A 
ATOM     33  C   UNL     1       4.498  -2.686   5.116  1.00  0.00     0.010 A 
ATOM     34  C   UNL     1       6.405  -4.173   4.992  1.00  0.00     0.010 A 
ATOM     35  C   UNL     1       5.589  -3.305   5.740  1.00  0.00    -0.014 A 
BRANCH  35  36
ATOM     36  C   UNL     1       5.885  -3.000   7.164  1.00  0.00     0.031 A 
ATOM     37  C   UNL     1       7.107  -2.201   7.528  1.00  0.00     0.074 A 
ATOM     38  C   UNL     1       5.034  -3.411   8.125  1.00  0.00     0.049 A 
ATOM     39  N   UNL     1       7.555  -1.869   8.711  1.00  0.00    -0.248 NA
ATOM     40  C   UNL     1       7.936  -1.714   6.414  1.00  0.00     0.031 C 
ATOM     41  C   UNL     1       3.801  -4.165   7.891  1.00  0.00     0.029 A 
ATOM     42  N   UNL     1       5.074  -3.252   9.487  1.00  0.00    -0.354 N 
ATOM     43  C   UNL     1       8.728  -1.155   8.488  1.00  0.00     0.074 A 
ATOM     44  C   UNL     1       8.934  -1.122   7.056  1.00  0.00     0.031 C 
ATOM     45  C   UNL     1       3.198  -4.395   9.069  1.00  0.00     0.029 A 
ATOM     46  C   UNL     1       4.026  -3.855  10.142  1.00  0.00     0.049 A 
ATOM     47  H   UNL     1       5.786  -2.755   9.952  1.00  0.00     0.167 HD
ATOM     48  C   UNL     1       9.552  -0.578   9.397  1.00  0.00     0.037 A 
ATOM     49  C   UNL     1       3.774  -3.983  11.460  1.00  0.00     0.037 A 
ATOM     50  C   UNL     1       9.328  -0.606  10.821  1.00  0.00     0.049 A 
ATOM     51  C   UNL     1       4.729  -3.371  12.449  1.00  0.00     0.074 A 
ATOM     52  C   UNL     1      10.091  -0.030  11.823  1.00  0.00     0.029 A 
ATOM     53  N   UNL     1       8.267  -1.245  11.448  1.00  0.00    -0.354 N 
ATOM     54  N   UNL     1       5.827  -2.690  12.223  1.00  0.00    -0.248 NA
ATOM     55  C   UNL     1       4.409  -3.541  13.873  1.00  0.00     0.031 C 
ATOM     56  C   UNL     1       9.524  -0.369  13.056  1.00  0.00     0.029 A 
ATOM     57  C   UNL     1       8.370  -1.099  12.823  1.00  0.00     0.049 A 
ATOM     58  H   UNL     1       7.547  -1.730  10.984  1.00  0.00     0.167 HD
ATOM     59  C   UNL     1       6.314  -2.327  13.474  1.00  0.00     0.074 A 
ATOM     60  C   UNL     1       5.381  -2.850  14.451  1.00  0.00     0.031 C 
ATOM     61  C   UNL     1       7.431  -1.623  13.785  1.00  0.00     0.037 A 
BRANCH  48  62
ATOM     62  C   UNL     1      10.794   0.104   8.886  1.00  0.00     0.058 A 
ATOM     63  C   UNL     1      10.743   1.312   8.172  1.00  0.00     0.135 A 
ATOM     64  C   UNL     1      12.061  -0.441   9.157  1.00  0.00     0.135 A 
ATOM     65  F   UNL     1       9.561   1.869   7.869  1.00  0.00    -0.206 F 
ATOM     66  C   UNL     1      11.902   1.942   7.725  1.00  0.00     0.059 A 
ATOM     67  C   UNL     1      13.233   0.187   8.745  1.00  0.00     0.059 A 
ATOM     68  F   UNL     1      12.170  -1.594   9.835  1.00  0.00    -0.206 F 
ATOM     69  C   UNL     1      13.142   1.372   8.017  1.00  0.00     0.060 A 
BRANCH  69  70
ATOM     70  S   UNL     1      14.635   2.205   7.436  1.00  0.00     0.124 S 
ATOM     71  O   UNL     1      14.565   1.959   5.999  1.00  0.00    -0.237 OA
ATOM     72  O   UNL     1      14.407   3.583   7.856  1.00  0.00    -0.237 OA
ATOM     73  O   UNL     1      15.709   1.508   8.137  1.00  0.00    -0.744 OA
ENDBRANCH  69  70
ENDBRANCH  48  62
BRANCH  49  74
ATOM     74  C   UNL     1       2.577  -4.740  11.917  1.00  0.00     0.058 A 
ATOM     75  C   UNL     1       1.509  -4.096  12.559  1.00  0.00     0.135 A 
ATOM     76  C   UNL     1       2.477  -6.127  11.717  1.00  0.00     0.135 A 
ATOM     77  F   UNL     1       1.560  -2.774  12.783  1.00  0.00    -0.206 F 
ATOM     78  C   UNL     1       0.393  -4.800  13.002  1.00  0.00     0.059 A 
ATOM     79  C   UNL     1       1.358  -6.847  12.122  1.00  0.00     0.059 A 
ATOM     80  F   UNL     1       3.465  -6.790  11.097  1.00  0.00    -0.206 F 
ATOM     81  C   UNL     1       0.326  -6.176  12.775  1.00  0.00     0.060 A 
BRANCH  81  82
ATOM     82  S   UNL     1      -1.145  -7.073  13.316  1.00  0.00     0.124 S 
ATOM     83  O   UNL     1      -0.972  -7.074  14.764  1.00  0.00    -0.237 OA
ATOM     84  O   UNL     1      -2.222  -6.233  12.801  1.00  0.00    -0.237 OA
ATOM     85  O   UNL     1      -1.006  -8.371  12.663  1.00  0.00    -0.744 OA
ENDBRANCH  81  82
ENDBRANCH  49  74
BRANCH  61  86
ATOM     86  C   UNL     1       7.683  -1.336  15.242  1.00  0.00     0.058 A 
ATOM     87  C   UNL     1       8.058  -2.344  16.145  1.00  0.00     0.135 A 
ATOM     88  C   UNL     1       7.577  -0.025  15.735  1.00  0.00     0.135 A 
ATOM     89  F   UNL     1       8.169  -3.616  15.730  1.00  0.00    -0.206 F 
ATOM     90  C   UNL     1       8.282  -2.069  17.490  1.00  0.00     0.059 A 
ATOM     91  C   UNL     1       7.829   0.279  17.068  1.00  0.00     0.059 A 
ATOM     92  F   UNL     1       7.234   0.981  14.913  1.00  0.00    -0.206 F 
ATOM     93  C   UNL     1       8.165  -0.753  17.943  1.00  0.00     0.060 A 
BRANCH  93  94
ATOM     94  S   UNL     1       8.472  -0.407  19.688  1.00  0.00     0.124 S 
ATOM     95  O   UNL     1       7.279  -0.968  20.313  1.00  0.00    -0.237 OA
ATOM     96  O   UNL     1       9.717  -1.127  19.935  1.00  0.00    -0.237 OA
ATOM     97  O   UNL     1       8.578   1.049  19.732  1.00  0.00    -0.744 OA
ENDBRANCH  93  94
ENDBRANCH  61  86
ENDBRANCH  35  36
ENDBRANCH  28  30
ENDBRANCH  27  28
ENDBRANCH  26  27
ENDBRANCH   1  26
TORSDOF 18
