REMARK SMILES O=C(COc1ccc(/C=N/NC(=O)c2cc3cc([N+](=O)[O-])ccc3o2)cc1)OCCOC(=O)c1ccc(-c2c3nc(c(-c4c(F)cc(S(=O)(=O)[O-])cc4F)c4ccc([nH]4)c(-c4c(F)cc(S(=O)(=O)[O-])cc4F)c4nc(c(-c5c(F)cc(S(=O)(=O)[O-])cc5F)c5ccc2[nH]5)C=C4)C=C3)cc1
REMARK SMILES IDX 28 1 2 2 1 3 3 4 4 5 5 6 6 7 27 8 7 9 26 10 8 11 9 12 10 13
REMARK SMILES IDX 11 14 12 15 13 17 14 18 15 19 25 20 16 21 24 22 17 23 23 24
REMARK SMILES IDX 18 25 22 26 19 27 20 28 21 29 29 30 30 31 31 32 32 33 33 34
REMARK SMILES IDX 34 35 35 36 99 37 36 38 98 39 37 40 38 41 39 42 92 43 40 44
REMARK SMILES IDX 97 45 91 46 93 47 41 48 96 49 90 50 89 51 42 53 76 54 55 55
REMARK SMILES IDX 75 56 56 57 59 58 74 59 94 60 57 61 58 62 73 64 95 65 60 66
REMARK SMILES IDX 43 67 44 68 53 69 45 70 46 71 52 72 54 73 47 74 48 75 49 76
REMARK SMILES IDX 50 77 51 78 77 79 78 80 87 81 79 82 80 83 86 84 88 85 81 86
REMARK SMILES IDX 82 87 83 88 84 89 85 90 61 91 62 92 71 93 63 94 64 95 70 96
REMARK SMILES IDX 72 97 65 98 66 99 67 100 68 101 69 102
REMARK H PARENT 11 16 93 52 59 63
REMARK Flexibility Score: inf
ROOT
ATOM      1  O   UNL     1       3.218   0.923  -0.175  1.00  0.00    -0.460 OA
ENDROOT
BRANCH   1   2
ATOM      2  C   UNL     1       2.530  -0.245  -0.213  1.00  0.00     0.344 C 
ATOM      3  O   UNL     1       1.305  -0.238  -0.324  1.00  0.00    -0.248 OA
BRANCH   2   4
ATOM      4  C   UNL     1       3.320  -1.550  -0.189  1.00  0.00     0.351 C 
BRANCH   4   5
ATOM      5  O   UNL     1       4.200  -1.710  -1.300  1.00  0.00    -0.482 OA
BRANCH   5   6
ATOM      6  C   UNL     1       3.506  -2.268  -2.336  1.00  0.00     0.120 A 
ATOM      7  C   UNL     1       3.686  -3.623  -2.595  1.00  0.00     0.047 A 
ATOM      8  C   UNL     1       2.625  -1.491  -3.088  1.00  0.00     0.047 A 
ATOM      9  C   UNL     1       2.926  -4.225  -3.592  1.00  0.00     0.013 A 
ATOM     10  C   UNL     1       1.852  -2.093  -4.071  1.00  0.00     0.013 A 
ATOM     11  C   UNL     1       2.005  -3.458  -4.317  1.00  0.00    -0.005 A 
BRANCH  11  12
ATOM     12  C   UNL     1       1.241  -4.046  -5.428  1.00  0.00     0.141 C 
ATOM     13  N   UNL     1       1.401  -5.282  -5.748  1.00  0.00    -0.180 NA
BRANCH  13  14
ATOM     14  N   UNL     1       0.864  -5.801  -6.889  1.00  0.00    -0.240 N 
ATOM     15  C   UNL     1       0.292  -5.156  -7.963  1.00  0.00     0.307 C 
ATOM     16  H   UNL     1       0.888  -6.784  -6.955  1.00  0.00     0.194 HD
ATOM     17  O   UNL     1       0.707  -5.421  -9.095  1.00  0.00    -0.264 OA
BRANCH  15  18
ATOM     18  C   UNL     1      -0.875  -4.317  -7.791  1.00  0.00     0.194 A 
ATOM     19  C   UNL     1      -1.035  -2.968  -8.073  1.00  0.00     0.065 A 
ATOM     20  O   UNL     1      -2.087  -4.948  -7.899  1.00  0.00    -0.451 OA
ATOM     21  C   UNL     1      -2.283  -2.872  -8.750  1.00  0.00     0.028 A 
ATOM     22  C   UNL     1      -2.891  -4.112  -8.606  1.00  0.00     0.135 A 
ATOM     23  C   UNL     1      -2.872  -1.918  -9.598  1.00  0.00     0.097 A 
ATOM     24  C   UNL     1      -4.076  -4.491  -9.231  1.00  0.00     0.055 A 
ATOM     25  C   UNL     1      -3.983  -2.333 -10.359  1.00  0.00     0.270 A 
ATOM     26  C   UNL     1      -4.589  -3.586 -10.167  1.00  0.00     0.089 A 
BRANCH  25  27
ATOM     27  N   UNL     1      -4.434  -1.479 -11.466  1.00  0.00     0.062 N 
ATOM     28  O   UNL     1      -3.993  -0.321 -11.519  1.00  0.00    -0.258 OA
ATOM     29  O   UNL     1      -5.204  -1.975 -12.301  1.00  0.00    -0.258 OA
ENDBRANCH  25  27
ENDBRANCH  15  18
ENDBRANCH  13  14
ENDBRANCH  11  12
ENDBRANCH   5   6
ENDBRANCH   4   5
ENDBRANCH   2   4
ENDBRANCH   1   2
BRANCH   1  30
ATOM     30  C   UNL     1       4.593   1.020   0.248  1.00  0.00     0.274 C 
BRANCH  30  31
ATOM     31  C   UNL     1       4.691   1.216   1.762  1.00  0.00     0.275 C 
BRANCH  31  32
ATOM     32  O   UNL     1       4.231   0.038   2.451  1.00  0.00    -0.458 OA
BRANCH  32  33
ATOM     33  C   UNL     1       2.939   0.074   2.880  1.00  0.00     0.338 C 
ATOM     34  O   UNL     1       2.198   1.032   2.852  1.00  0.00    -0.246 OA
BRANCH  33  35
ATOM     35  C   UNL     1       2.499  -1.309   3.194  1.00  0.00     0.060 A 
ATOM     36  C   UNL     1       1.204  -1.690   2.819  1.00  0.00     0.016 A 
ATOM     37  C   UNL     1       3.339  -2.224   3.837  1.00  0.00     0.016 A 
ATOM     38  C   UNL     1       0.724  -2.961   3.145  1.00  0.00     0.010 A 
ATOM     39  C   UNL     1       2.857  -3.496   4.165  1.00  0.00     0.010 A 
ATOM     40  C   UNL     1       1.530  -3.853   3.865  1.00  0.00    -0.014 A 
BRANCH  40  41
ATOM     41  C   UNL     1       0.914  -5.042   4.507  1.00  0.00     0.031 A 
ATOM     42  C   UNL     1       0.491  -4.926   5.950  1.00  0.00     0.074 A 
ATOM     43  C   UNL     1       0.703  -6.188   3.836  1.00  0.00     0.049 A 
ATOM     44  N   UNL     1      -0.099  -5.805   6.718  1.00  0.00    -0.248 NA
ATOM     45  C   UNL     1       0.779  -3.644   6.614  1.00  0.00     0.031 C 
ATOM     46  C   UNL     1       1.045  -6.429   2.436  1.00  0.00     0.029 A 
ATOM     47  N   UNL     1       0.142  -7.371   4.253  1.00  0.00    -0.354 N 
ATOM     48  C   UNL     1      -0.253  -5.184   7.952  1.00  0.00     0.074 A 
ATOM     49  C   UNL     1       0.346  -3.872   7.844  1.00  0.00     0.031 C 
ATOM     50  C   UNL     1       0.684  -7.683   2.108  1.00  0.00     0.029 A 
ATOM     51  C   UNL     1       0.098  -8.339   3.278  1.00  0.00     0.049 A 
ATOM     52  H   UNL     1      -0.198  -7.512   5.166  1.00  0.00     0.167 HD
ATOM     53  C   UNL     1      -0.851  -5.653   9.073  1.00  0.00     0.037 A 
ATOM     54  C   UNL     1      -0.365  -9.605   3.325  1.00  0.00     0.037 A 
ATOM     55  C   UNL     1      -1.446  -6.957   9.186  1.00  0.00     0.049 A 
ATOM     56  C   UNL     1      -0.986 -10.125   4.600  1.00  0.00     0.074 A 
ATOM     57  C   UNL     1      -2.098  -7.514  10.271  1.00  0.00     0.029 A 
ATOM     58  N   UNL     1      -1.452  -7.913   8.181  1.00  0.00    -0.354 N 
ATOM     59  N   UNL     1      -1.170  -9.508   5.744  1.00  0.00    -0.248 NA
ATOM     60  C   UNL     1      -1.477 -11.511   4.582  1.00  0.00     0.031 C 
ATOM     61  C   UNL     1      -2.456  -8.826   9.940  1.00  0.00     0.029 A 
ATOM     62  C   UNL     1      -2.077  -9.065   8.628  1.00  0.00     0.049 A 
ATOM     63  H   UNL     1      -1.069  -7.791   7.282  1.00  0.00     0.167 HD
ATOM     64  C   UNL     1      -1.841 -10.414   6.563  1.00  0.00     0.074 A 
ATOM     65  C   UNL     1      -2.025 -11.621   5.785  1.00  0.00     0.031 C 
ATOM     66  C   UNL     1      -2.274 -10.255   7.839  1.00  0.00     0.037 A 
BRANCH  53  67
ATOM     67  C   UNL     1      -0.862  -4.750  10.275  1.00  0.00     0.058 A 
ATOM     68  C   UNL     1      -1.653  -3.590  10.322  1.00  0.00     0.135 A 
ATOM     69  C   UNL     1      -0.068  -5.048  11.393  1.00  0.00     0.135 A 
ATOM     70  F   UNL     1      -2.415  -3.247   9.271  1.00  0.00    -0.206 F 
ATOM     71  C   UNL     1      -1.626  -2.737  11.421  1.00  0.00     0.059 A 
ATOM     72  C   UNL     1      -0.048  -4.224  12.514  1.00  0.00     0.059 A 
ATOM     73  F   UNL     1       0.709  -6.142  11.399  1.00  0.00    -0.206 F 
ATOM     74  C   UNL     1      -0.816  -3.061  12.510  1.00  0.00     0.060 A 
BRANCH  74  75
ATOM     75  S   UNL     1      -0.773  -1.935  13.920  1.00  0.00     0.124 S 
ATOM     76  O   UNL     1       0.021  -0.832  13.386  1.00  0.00    -0.237 OA
ATOM     77  O   UNL     1      -2.188  -1.650  14.137  1.00  0.00    -0.237 OA
ATOM     78  O   UNL     1      -0.128  -2.724  14.965  1.00  0.00    -0.744 OA
ENDBRANCH  74  75
ENDBRANCH  53  67
BRANCH  54  79
ATOM     79  C   UNL     1      -0.293 -10.473   2.119  1.00  0.00     0.058 A 
ATOM     80  C   UNL     1      -1.455 -10.843   1.424  1.00  0.00     0.135 A 
ATOM     81  C   UNL     1       0.933 -10.966   1.648  1.00  0.00     0.135 A 
ATOM     82  F   UNL     1      -2.653 -10.409   1.843  1.00  0.00    -0.206 F 
ATOM     83  C   UNL     1      -1.407 -11.683   0.316  1.00  0.00     0.059 A 
ATOM     84  C   UNL     1       1.010 -11.789   0.528  1.00  0.00     0.059 A 
ATOM     85  F   UNL     1       2.075 -10.637   2.272  1.00  0.00    -0.206 F 
ATOM     86  C   UNL     1      -0.168 -12.150  -0.126  1.00  0.00     0.060 A 
BRANCH  86  87
ATOM     87  S   UNL     1      -0.112 -13.206  -1.590  1.00  0.00     0.124 S 
ATOM     88  O   UNL     1      -0.651 -14.458  -1.071  1.00  0.00    -0.237 OA
ATOM     89  O   UNL     1      -0.968 -12.480  -2.523  1.00  0.00    -0.237 OA
ATOM     90  O   UNL     1       1.306 -13.224  -1.936  1.00  0.00    -0.744 OA
ENDBRANCH  86  87
ENDBRANCH  54  79
BRANCH  66  91
ATOM     91  C   UNL     1      -3.052 -11.385   8.460  1.00  0.00     0.058 A 
ATOM     92  C   UNL     1      -2.443 -12.590   8.844  1.00  0.00     0.135 A 
ATOM     93  C   UNL     1      -4.426 -11.236   8.718  1.00  0.00     0.135 A 
ATOM     94  F   UNL     1      -1.134 -12.787   8.622  1.00  0.00    -0.206 F 
ATOM     95  C   UNL     1      -3.175 -13.620   9.430  1.00  0.00     0.059 A 
ATOM     96  C   UNL     1      -5.170 -12.241   9.329  1.00  0.00     0.059 A 
ATOM     97  F   UNL     1      -5.056 -10.098   8.387  1.00  0.00    -0.206 F 
ATOM     98  C   UNL     1      -4.539 -13.437   9.666  1.00  0.00     0.060 A 
BRANCH  98  99
ATOM     99  S   UNL     1      -5.475 -14.772  10.441  1.00  0.00     0.124 S 
ATOM    100  O   UNL     1      -5.613 -15.714   9.335  1.00  0.00    -0.237 OA
ATOM    101  O   UNL     1      -4.589 -15.191  11.523  1.00  0.00    -0.237 OA
ATOM    102  O   UNL     1      -6.709 -14.119  10.868  1.00  0.00    -0.744 OA
ENDBRANCH  98  99
ENDBRANCH  66  91
ENDBRANCH  40  41
ENDBRANCH  33  35
ENDBRANCH  32  33
ENDBRANCH  31  32
ENDBRANCH  30  31
ENDBRANCH   1  30
TORSDOF 20
