REMARK SMILES CC[C@@H](C)SCc1cc(F)cc(/C=C/C(=O)OCCOC(=O)c2ccc(-c3c4nc(c(-c5c(F)cc(S(=O)(=O)[O-])cc5F)c5ccc([nH]5)c(-c5c(F)cc(S(=O)(=O)[O-])cc5F)c5nc(c(-c6c(F)cc(S(=O)(=O)[O-])cc6F)c6ccc3[nH]6)C=C5)C=C4)cc2)c1
REMARK SMILES IDX 18 1 17 2 15 3 16 4 14 5 13 6 12 7 7 8 8 9 89 10 9 11 10 12
REMARK SMILES IDX 11 13 6 14 5 15 3 16 4 17 2 18 1 19 19 20 20 21 21 22 22 23
REMARK SMILES IDX 23 24 24 25 88 26 25 27 87 28 26 29 27 30 28 31 81 32 29 33
REMARK SMILES IDX 86 34 80 35 82 36 30 37 85 38 79 39 78 40 31 42 65 43 44 44
REMARK SMILES IDX 64 45 45 46 48 47 63 48 83 49 46 50 47 51 62 53 84 54 49 55
REMARK SMILES IDX 32 56 33 57 42 58 34 59 35 60 41 61 43 62 36 63 37 64 38 65
REMARK SMILES IDX 39 66 40 67 66 68 67 69 76 70 68 71 69 72 75 73 77 74 70 75
REMARK SMILES IDX 71 76 72 77 73 78 74 79 50 80 51 81 60 82 52 83 53 84 59 85
REMARK SMILES IDX 61 86 54 87 55 88 56 89 57 90 58 91
REMARK H PARENT 82 41 48 52
REMARK Flexibility Score: inf
ROOT
ATOM      1  C   UNL     1      -0.343  10.851   2.768  1.00  0.00     0.275 C 
ENDROOT
BRANCH   1   2
ATOM      2  O   UNL     1      -0.834   9.498   2.726  1.00  0.00    -0.459 OA
BRANCH   2   3
ATOM      3  C   UNL     1      -2.084   9.345   2.228  1.00  0.00     0.330 C 
ATOM      4  O   UNL     1      -2.843  10.245   1.899  1.00  0.00    -0.247 OA
BRANCH   3   5
ATOM      5  C   UNL     1      -2.465   7.929   2.060  1.00  0.00     0.094 C 
ATOM      6  C   UNL     1      -1.681   6.871   2.323  1.00  0.00     0.016 C 
BRANCH   6   7
ATOM      7  C   UNL     1      -2.085   5.482   2.048  1.00  0.00    -0.022 A 
ATOM      8  C   UNL     1      -1.915   3.100   2.612  1.00  0.00    -0.035 A 
ATOM      9  C   UNL     1      -2.718   2.795   1.506  1.00  0.00     0.043 A 
ATOM     10  C   UNL     1      -1.625   4.452   2.885  1.00  0.00     0.013 A 
ATOM     11  C   UNL     1      -3.161   3.812   0.671  1.00  0.00     0.124 A 
ATOM     12  F   UNL     1      -3.886   3.500  -0.411  1.00  0.00    -0.207 F 
ATOM     13  C   UNL     1      -2.842   5.141   0.921  1.00  0.00     0.047 A 
BRANCH   8  14
ATOM     14  C   UNL     1      -1.370   1.993   3.474  1.00  0.00     0.105 C 
BRANCH  14  15
ATOM     15  S   UNL     1       0.449   1.950   3.611  1.00  0.00    -0.154 SA
BRANCH  15  16
ATOM     16  C   UNL     1       1.008   1.530   1.901  1.00  0.00     0.043 C 
ATOM     17  C   UNL     1       0.861   2.698   0.928  1.00  0.00     0.019 C 
BRANCH  16  18
ATOM     18  C   UNL     1       0.395   0.218   1.390  1.00  0.00     0.011 C 
ATOM     19  C   UNL     1       0.968  -0.223   0.048  1.00  0.00     0.005 C 
ENDBRANCH  16  18
ENDBRANCH  15  16
ENDBRANCH  14  15
ENDBRANCH   8  14
ENDBRANCH   6   7
ENDBRANCH   3   5
ENDBRANCH   2   3
ENDBRANCH   1   2
BRANCH   1  20
ATOM     20  C   UNL     1       0.627  11.133   1.616  1.00  0.00     0.275 C 
BRANCH  20  21
ATOM     21  O   UNL     1      -0.022  11.084   0.333  1.00  0.00    -0.458 OA
BRANCH  21  22
ATOM     22  C   UNL     1      -0.011   9.870  -0.269  1.00  0.00     0.338 C 
ATOM     23  O   UNL     1       0.504   8.848   0.154  1.00  0.00    -0.246 OA
BRANCH  22  24
ATOM     24  C   UNL     1      -0.826   9.905  -1.498  1.00  0.00     0.060 A 
ATOM     25  C   UNL     1      -1.793   8.911  -1.671  1.00  0.00     0.016 A 
ATOM     26  C   UNL     1      -0.601  10.855  -2.499  1.00  0.00     0.016 A 
ATOM     27  C   UNL     1      -2.538   8.859  -2.848  1.00  0.00     0.010 A 
ATOM     28  C   UNL     1      -1.348  10.799  -3.682  1.00  0.00     0.010 A 
ATOM     29  C   UNL     1      -2.314   9.796  -3.868  1.00  0.00    -0.014 A 
BRANCH  29  30
ATOM     30  C   UNL     1      -3.072   9.695  -5.140  1.00  0.00     0.031 A 
ATOM     31  C   UNL     1      -2.414   9.126  -6.366  1.00  0.00     0.074 A 
ATOM     32  C   UNL     1      -4.361  10.082  -5.183  1.00  0.00     0.049 A 
ATOM     33  N   UNL     1      -2.900   8.980  -7.571  1.00  0.00    -0.248 NA
ATOM     34  C   UNL     1      -1.029   8.653  -6.214  1.00  0.00     0.031 C 
ATOM     35  C   UNL     1      -5.120  10.611  -4.049  1.00  0.00     0.029 A 
ATOM     36  N   UNL     1      -5.263  10.082  -6.218  1.00  0.00    -0.354 N 
ATOM     37  C   UNL     1      -1.887   8.399  -8.323  1.00  0.00     0.074 A 
ATOM     38  C   UNL     1      -0.747   8.244  -7.444  1.00  0.00     0.031 C 
ATOM     39  C   UNL     1      -6.376  10.872  -4.447  1.00  0.00     0.029 A 
ATOM     40  C   UNL     1      -6.501  10.567  -5.871  1.00  0.00     0.049 A 
ATOM     41  H   UNL     1      -5.043   9.765  -7.124  1.00  0.00     0.167 HD
ATOM     42  C   UNL     1      -1.910   8.019  -9.623  1.00  0.00     0.037 A 
ATOM     43  C   UNL     1      -7.607  10.757  -6.617  1.00  0.00     0.037 A 
ATOM     44  C   UNL     1      -3.048   8.174 -10.493  1.00  0.00     0.049 A 
ATOM     45  C   UNL     1      -7.583  10.398  -8.078  1.00  0.00     0.074 A 
ATOM     46  C   UNL     1      -3.163   7.825 -11.828  1.00  0.00     0.029 A 
ATOM     47  N   UNL     1      -4.267   8.719 -10.117  1.00  0.00    -0.354 N 
ATOM     48  N   UNL     1      -6.612   9.862  -8.778  1.00  0.00    -0.248 NA
ATOM     49  C   UNL     1      -8.801  10.675  -8.854  1.00  0.00     0.031 C 
ATOM     50  C   UNL     1      -4.438   8.192 -12.269  1.00  0.00     0.029 A 
ATOM     51  C   UNL     1      -5.133   8.732 -11.199  1.00  0.00     0.049 A 
ATOM     52  H   UNL     1      -4.484   9.049  -9.216  1.00  0.00     0.167 HD
ATOM     53  C   UNL     1      -7.106   9.723 -10.070  1.00  0.00     0.074 A 
ATOM     54  C   UNL     1      -8.466  10.220 -10.055  1.00  0.00     0.031 C 
ATOM     55  C   UNL     1      -6.486   9.228 -11.169  1.00  0.00     0.037 A 
BRANCH  42  56
ATOM     56  C   UNL     1      -0.665   7.403 -10.196  1.00  0.00     0.058 A 
ATOM     57  C   UNL     1       0.126   8.112 -11.114  1.00  0.00     0.135 A 
ATOM     58  C   UNL     1      -0.292   6.085  -9.889  1.00  0.00     0.135 A 
ATOM     59  F   UNL     1      -0.183   9.377 -11.437  1.00  0.00    -0.206 F 
ATOM     60  C   UNL     1       1.235   7.530 -11.719  1.00  0.00     0.059 A 
ATOM     61  C   UNL     1       0.825   5.490 -10.467  1.00  0.00     0.059 A 
ATOM     62  F   UNL     1      -1.004   5.371  -9.002  1.00  0.00    -0.206 F 
ATOM     63  C   UNL     1       1.575   6.216 -11.392  1.00  0.00     0.060 A 
BRANCH  63  64
ATOM     64  S   UNL     1       3.035   5.485 -12.164  1.00  0.00     0.124 S 
ATOM     65  O   UNL     1       2.582   5.288 -13.537  1.00  0.00    -0.237 OA
ATOM     66  O   UNL     1       4.040   6.526 -11.968  1.00  0.00    -0.237 OA
ATOM     67  O   UNL     1       3.251   4.266 -11.391  1.00  0.00    -0.744 OA
ENDBRANCH  63  64
ENDBRANCH  42  56
BRANCH  43  68
ATOM     68  C   UNL     1      -8.832  11.320  -5.990  1.00  0.00     0.058 A 
ATOM     69  C   UNL     1      -8.884  12.658  -5.570  1.00  0.00     0.135 A 
ATOM     70  C   UNL     1      -9.967  10.523  -5.779  1.00  0.00     0.135 A 
ATOM     71  F   UNL     1      -7.824  13.462  -5.748  1.00  0.00    -0.206 F 
ATOM     72  C   UNL     1     -10.007  13.179  -4.938  1.00  0.00     0.059 A 
ATOM     73  C   UNL     1     -11.111  11.029  -5.169  1.00  0.00     0.059 A 
ATOM     74  F   UNL     1      -9.970   9.243  -6.181  1.00  0.00    -0.206 F 
ATOM     75  C   UNL     1     -11.114  12.354  -4.736  1.00  0.00     0.060 A 
BRANCH  75  76
ATOM     76  S   UNL     1     -12.561  13.047  -3.907  1.00  0.00     0.124 S 
ATOM     77  O   UNL     1     -12.082  13.163  -2.533  1.00  0.00    -0.237 OA
ATOM     78  O   UNL     1     -12.752  14.306  -4.621  1.00  0.00    -0.237 OA
ATOM     79  O   UNL     1     -13.593  12.040  -4.130  1.00  0.00    -0.744 OA
ENDBRANCH  75  76
ENDBRANCH  43  68
BRANCH  55  80
ATOM     80  C   UNL     1      -7.269   9.179 -12.451  1.00  0.00     0.058 A 
ATOM     81  C   UNL     1      -7.716   7.952 -12.967  1.00  0.00     0.135 A 
ATOM     82  C   UNL     1      -7.505  10.335 -13.210  1.00  0.00     0.135 A 
ATOM     83  F   UNL     1      -7.513   6.815 -12.282  1.00  0.00    -0.206 F 
ATOM     84  C   UNL     1      -8.351   7.870 -14.201  1.00  0.00     0.059 A 
ATOM     85  C   UNL     1      -8.159  10.280 -14.438  1.00  0.00     0.059 A 
ATOM     86  F   UNL     1      -7.109  11.534 -12.754  1.00  0.00    -0.206 F 
ATOM     87  C   UNL     1      -8.562   9.040 -14.934  1.00  0.00     0.060 A 
BRANCH  87  88
ATOM     88  S   UNL     1      -9.389   8.918 -16.534  1.00  0.00     0.124 S 
ATOM     89  O   UNL     1      -8.350   8.314 -17.362  1.00  0.00    -0.237 OA
ATOM     90  O   UNL     1     -10.533   8.065 -16.229  1.00  0.00    -0.237 OA
ATOM     91  O   UNL     1      -9.719  10.304 -16.852  1.00  0.00    -0.744 OA
ENDBRANCH  87  88
ENDBRANCH  55  80
ENDBRANCH  29  30
ENDBRANCH  22  24
ENDBRANCH  21  22
ENDBRANCH  20  21
ENDBRANCH   1  20
TORSDOF 19
