REMARK SMILES Cc1nn(CC(F)F)c2c1c(C(F)(F)F)cc(=O)n2CC(=O)OCCOC(=O)c1ccc(-c2c3nc(c(-c4c(F)cc(S(=O)(=O)[O-])cc4F)c4ccc([nH]4)c(-c4c(F)cc(S(=O)(=O)[O-])cc4F)c4nc(c(-c5c(F)cc(S(=O)(=O)[O-])cc5F)c5ccc2[nH]5)C=C4)C=C3)cc1
REMARK SMILES IDX 24 1 23 2 21 3 22 4 20 5 19 6 1 7 2 8 3 9 10 10 4 11 9 12
REMARK SMILES IDX 11 13 16 14 17 15 18 16 5 17 6 18 7 19 8 20 12 21 13 22
REMARK SMILES IDX 14 23 15 24 25 25 26 26 27 27 28 28 29 29 30 30 94 31 31 32
REMARK SMILES IDX 93 33 32 34 33 35 34 36 87 37 35 38 92 39 86 40 88 41 36 42
REMARK SMILES IDX 91 43 85 44 84 45 37 47 71 48 50 49 70 50 51 51 54 52 69 53
REMARK SMILES IDX 89 54 52 55 53 56 68 58 90 59 55 60 38 61 39 62 48 63 40 64
REMARK SMILES IDX 41 65 47 66 49 67 42 68 43 69 44 70 45 71 46 72 72 73 73 74
REMARK SMILES IDX 82 75 74 76 75 77 81 78 83 79 76 80 77 81 78 82 79 83 80 84
REMARK SMILES IDX 56 85 57 86 66 87 58 88 59 89 65 90 67 91 60 92 61 93 62 94
REMARK SMILES IDX 63 95 64 96
REMARK H PARENT 88 46 54 57
REMARK Flexibility Score: inf
ROOT
ATOM      1  C   UNL     1      -3.455   5.497   0.044  1.00  0.00     0.274 C 
ENDROOT
BRANCH   1   2
ATOM      2  O   UNL     1      -2.081   5.082   0.295  1.00  0.00    -0.461 OA
BRANCH   2   3
ATOM      3  C   UNL     1      -1.131   6.073   0.241  1.00  0.00     0.326 C 
ATOM      4  O   UNL     1      -1.383   7.236  -0.054  1.00  0.00    -0.250 OA
BRANCH   3   5
ATOM      5  C   UNL     1       0.201   5.632   0.854  1.00  0.00     0.250 C 
BRANCH   5   6
ATOM      6  N   UNL     1       0.818   4.513   0.180  1.00  0.00    -0.282 N 
ATOM      7  C   UNL     1       1.101  -0.465  -0.181  1.00  0.00     0.069 C 
ATOM      8  C   UNL     1       0.900   0.932   0.276  1.00  0.00     0.069 A 
ATOM      9  N   UNL     1       0.206   1.138   1.398  1.00  0.00    -0.175 NA
ATOM     10  C   UNL     1       1.314   2.157  -0.286  1.00  0.00     0.053 A 
ATOM     11  N   UNL     1       0.183   2.482   1.565  1.00  0.00    -0.243 N 
ATOM     12  C   UNL     1       0.749   3.150   0.498  1.00  0.00     0.142 A 
ATOM     13  C   UNL     1       2.103   2.530  -1.413  1.00  0.00     0.074 A 
ATOM     14  C   UNL     1       2.235   3.827  -1.732  1.00  0.00     0.085 A 
ATOM     15  C   UNL     1       1.533   4.882  -0.968  1.00  0.00     0.253 A 
ATOM     16  O   UNL     1       1.607   6.031  -1.396  1.00  0.00    -0.269 OA
BRANCH  11  17
ATOM     17  C   UNL     1      -0.289   2.922   2.861  1.00  0.00     0.219 C 
BRANCH  17  18
ATOM     18  C   UNL     1       0.828   2.867   3.878  1.00  0.00     0.363 C 
ATOM     19  F   UNL     1       1.689   3.898   3.674  1.00  0.00    -0.208 F 
ATOM     20  F   UNL     1       0.319   3.044   5.126  1.00  0.00    -0.208 F 
ENDBRANCH  17  18
ENDBRANCH  11  17
BRANCH  13  21
ATOM     21  C   UNL     1       2.811   1.467  -2.182  1.00  0.00     0.417 C 
ATOM     22  F   UNL     1       3.609   0.697  -1.400  1.00  0.00    -0.166 F 
ATOM     23  F   UNL     1       1.945   0.632  -2.814  1.00  0.00    -0.166 F 
ATOM     24  F   UNL     1       3.614   1.976  -3.155  1.00  0.00    -0.166 F 
ENDBRANCH  13  21
ENDBRANCH   5   6
ENDBRANCH   3   5
ENDBRANCH   2   3
ENDBRANCH   1   2
BRANCH   1  25
ATOM     25  C   UNL     1      -4.431   4.746   0.978  1.00  0.00     0.275 C 
BRANCH  25  26
ATOM     26  O   UNL     1      -4.447   5.387   2.273  1.00  0.00    -0.458 OA
BRANCH  26  27
ATOM     27  C   UNL     1      -3.927   4.723   3.328  1.00  0.00     0.338 C 
ATOM     28  O   UNL     1      -3.933   3.500   3.511  1.00  0.00    -0.246 OA
BRANCH  27  29
ATOM     29  C   UNL     1      -3.037   5.649   4.052  1.00  0.00     0.060 A 
ATOM     30  C   UNL     1      -2.738   5.612   5.408  1.00  0.00     0.016 A 
ATOM     31  C   UNL     1      -2.269   6.453   3.228  1.00  0.00     0.016 A 
ATOM     32  C   UNL     1      -1.656   6.380   5.888  1.00  0.00     0.010 A 
ATOM     33  C   UNL     1      -1.120   7.051   3.672  1.00  0.00     0.010 A 
ATOM     34  C   UNL     1      -0.798   7.078   5.007  1.00  0.00    -0.014 A 
BRANCH  34  35
ATOM     35  C   UNL     1       0.410   7.809   5.437  1.00  0.00     0.031 A 
ATOM     36  C   UNL     1       0.984   7.400   6.745  1.00  0.00     0.074 A 
ATOM     37  C   UNL     1       1.110   8.767   4.771  1.00  0.00     0.049 A 
ATOM     38  N   UNL     1       0.747   7.955   7.888  1.00  0.00    -0.248 NA
ATOM     39  C   UNL     1       1.830   6.205   6.820  1.00  0.00     0.031 C 
ATOM     40  C   UNL     1       1.020   9.271   3.390  1.00  0.00     0.029 A 
ATOM     41  N   UNL     1       2.134   9.526   5.277  1.00  0.00    -0.354 N 
ATOM     42  C   UNL     1       1.564   7.315   8.809  1.00  0.00     0.074 A 
ATOM     43  C   UNL     1       2.105   6.162   8.128  1.00  0.00     0.031 C 
ATOM     44  C   UNL     1       2.059  10.085   3.114  1.00  0.00     0.029 A 
ATOM     45  C   UNL     1       2.754  10.348   4.351  1.00  0.00     0.049 A 
ATOM     46  H   UNL     1       2.407   9.489   6.222  1.00  0.00     0.167 HD
ATOM     47  C   UNL     1       1.867   7.886  10.007  1.00  0.00     0.037 A 
ATOM     48  C   UNL     1       3.684  11.303   4.564  1.00  0.00     0.037 A 
ATOM     49  C   UNL     1       1.053   9.049  10.271  1.00  0.00     0.049 A 
ATOM     50  C   UNL     1       3.521  11.760   5.962  1.00  0.00     0.074 A 
ATOM     51  C   UNL     1      -0.303   9.286  10.394  1.00  0.00     0.029 A 
ATOM     52  N   UNL     1       1.624  10.284  10.075  1.00  0.00    -0.354 N 
ATOM     53  N   UNL     1       2.478  12.412   6.402  1.00  0.00    -0.248 NA
ATOM     54  C   UNL     1       4.370  11.178   6.985  1.00  0.00     0.031 C 
ATOM     55  C   UNL     1      -0.516  10.562   9.790  1.00  0.00     0.029 A 
ATOM     56  C   UNL     1       0.724  11.042   9.366  1.00  0.00     0.049 A 
ATOM     57  H   UNL     1       2.513  10.571  10.386  1.00  0.00     0.167 HD
ATOM     58  C   UNL     1       2.317  11.985   7.710  1.00  0.00     0.074 A 
ATOM     59  C   UNL     1       3.579  11.335   8.048  1.00  0.00     0.031 C 
ATOM     60  C   UNL     1       1.090  11.967   8.310  1.00  0.00     0.037 A 
BRANCH  47  61
ATOM     61  C   UNL     1       3.105   7.587  10.809  1.00  0.00     0.058 A 
ATOM     62  C   UNL     1       3.163   7.951  12.169  1.00  0.00     0.135 A 
ATOM     63  C   UNL     1       4.325   7.190  10.223  1.00  0.00     0.135 A 
ATOM     64  F   UNL     1       2.060   8.363  12.814  1.00  0.00    -0.206 F 
ATOM     65  C   UNL     1       4.361   7.968  12.884  1.00  0.00     0.059 A 
ATOM     66  C   UNL     1       5.522   7.149  10.931  1.00  0.00     0.059 A 
ATOM     67  F   UNL     1       4.422   6.920   8.915  1.00  0.00    -0.206 F 
ATOM     68  C   UNL     1       5.538   7.580  12.249  1.00  0.00     0.060 A 
BRANCH  68  69
ATOM     69  S   UNL     1       7.103   7.719  13.134  1.00  0.00     0.124 S 
ATOM     70  O   UNL     1       7.286   9.165  13.169  1.00  0.00    -0.237 OA
ATOM     71  O   UNL     1       6.791   7.083  14.410  1.00  0.00    -0.237 OA
ATOM     72  O   UNL     1       8.034   6.983  12.285  1.00  0.00    -0.744 OA
ENDBRANCH  68  69
ENDBRANCH  47  61
BRANCH  48  73
ATOM     73  C   UNL     1       4.836  11.648   3.703  1.00  0.00     0.058 A 
ATOM     74  C   UNL     1       5.592  12.807   3.937  1.00  0.00     0.135 A 
ATOM     75  C   UNL     1       5.393  10.699   2.821  1.00  0.00     0.135 A 
ATOM     76  F   UNL     1       5.133  13.758   4.764  1.00  0.00    -0.206 F 
ATOM     77  C   UNL     1       6.867  12.979   3.394  1.00  0.00     0.059 A 
ATOM     78  C   UNL     1       6.658  10.854   2.260  1.00  0.00     0.059 A 
ATOM     79  F   UNL     1       4.760   9.545   2.556  1.00  0.00    -0.206 F 
ATOM     80  C   UNL     1       7.404  11.980   2.583  1.00  0.00     0.060 A 
BRANCH  80  81
ATOM     81  S   UNL     1       9.133  12.100   2.072  1.00  0.00     0.124 S 
ATOM     82  O   UNL     1       9.099  13.231   1.152  1.00  0.00    -0.237 OA
ATOM     83  O   UNL     1       9.811  12.331   3.344  1.00  0.00    -0.237 OA
ATOM     84  O   UNL     1       9.397  10.801   1.457  1.00  0.00    -0.744 OA
ENDBRANCH  80  81
ENDBRANCH  48  73
BRANCH  60  85
ATOM     85  C   UNL     1      -0.028  12.762   7.679  1.00  0.00     0.058 A 
ATOM     86  C   UNL     1      -0.581  12.495   6.415  1.00  0.00     0.135 A 
ATOM     87  C   UNL     1      -0.661  13.748   8.454  1.00  0.00     0.135 A 
ATOM     88  F   UNL     1      -0.100  11.508   5.647  1.00  0.00    -0.206 F 
ATOM     89  C   UNL     1      -1.689  13.195   5.931  1.00  0.00     0.059 A 
ATOM     90  C   UNL     1      -1.786  14.439   8.004  1.00  0.00     0.059 A 
ATOM     91  F   UNL     1      -0.218  14.016   9.694  1.00  0.00    -0.206 F 
ATOM     92  C   UNL     1      -2.290  14.163   6.735  1.00  0.00     0.060 A 
BRANCH  92  93
ATOM     93  S   UNL     1      -3.784  14.994   6.147  1.00  0.00     0.124 S 
ATOM     94  O   UNL     1      -3.259  15.873   5.107  1.00  0.00    -0.237 OA
ATOM     95  O   UNL     1      -4.605  13.881   5.679  1.00  0.00    -0.237 OA
ATOM     96  O   UNL     1      -4.291  15.671   7.338  1.00  0.00    -0.744 OA
ENDBRANCH  92  93
ENDBRANCH  60  85
ENDBRANCH  34  35
ENDBRANCH  27  29
ENDBRANCH  26  27
ENDBRANCH  25  26
ENDBRANCH   1  25
TORSDOF 18
