REMARK SMILES COC(=O)c1nc(C)cc(N[C@@H]2C=C[C@H](C(=O)OCCOC(=O)c3ccc(-c4c5nc(c(-c6c(F)cc(S(=O)(=O)[O-])cc6F)c6ccc([nH]6)c(-c6c(F)cc(S(=O)(=O)[O-])cc6F)c6nc(c(-c7c(F)cc(S(=O)(=O)[O-])cc7F)c7ccc4[nH]7)C=C6)C=C5)cc3)C2)n1
REMARK SMILES IDX 19 1 18 2 16 3 17 4 15 5 12 6 13 7 90 8 14 9 11 10 10 12
REMARK SMILES IDX 5 13 6 14 91 15 7 16 8 17 9 18 3 19 4 20 2 21 1 22 20 23
REMARK SMILES IDX 21 24 22 25 23 26 24 27 25 28 89 29 26 30 88 31 27 32 28 33
REMARK SMILES IDX 29 34 82 35 30 36 87 37 81 38 83 39 31 40 86 41 80 42 79 43
REMARK SMILES IDX 32 45 66 46 45 47 65 48 46 49 49 50 64 51 84 52 47 53 48 54
REMARK SMILES IDX 63 56 85 57 50 58 33 59 34 60 43 61 35 62 36 63 42 64 44 65
REMARK SMILES IDX 37 66 38 67 39 68 40 69 41 70 67 71 68 72 77 73 69 74 70 75
REMARK SMILES IDX 76 76 78 77 71 78 72 79 73 80 74 81 75 82 51 83 52 84 61 85
REMARK SMILES IDX 53 86 54 87 60 88 62 89 55 90 56 91 57 92 58 93 59 94
REMARK H PARENT 11 11 83 44 49 55
REMARK Flexibility Score: inf
ROOT
ATOM      1  C   UNL     1      -6.633  -0.898   1.818  1.00  0.00     0.274 C 
ENDROOT
BRANCH   1   2
ATOM      2  O   UNL     1      -5.407  -0.263   2.227  1.00  0.00    -0.462 OA
BRANCH   2   3
ATOM      3  C   UNL     1      -4.485   0.024   1.266  1.00  0.00     0.312 C 
ATOM      4  O   UNL     1      -4.535  -0.369   0.105  1.00  0.00    -0.252 OA
BRANCH   3   5
ATOM      5  C   UNL     1      -3.281   0.770   1.847  1.00  0.00     0.124 C 
ATOM      6  C   UNL     1      -3.508   2.923   2.994  1.00  0.00     0.104 C 
ATOM      7  C   UNL     1      -2.954   3.095   1.626  1.00  0.00    -0.006 C 
ATOM      8  C   UNL     1      -3.488   1.420   3.226  1.00  0.00     0.048 C 
ATOM      9  C   UNL     1      -2.833   1.923   0.991  1.00  0.00    -0.014 C 
BRANCH   6  10
ATOM     10  N   UNL     1      -4.810   3.519   3.173  1.00  0.00    -0.364 N 
ATOM     11  H   UNL     1      -4.851   4.230   3.853  1.00  0.00     0.162 HD
BRANCH  10  12
ATOM     12  C   UNL     1      -6.020   3.245   2.533  1.00  0.00     0.131 A 
ATOM     13  C   UNL     1      -7.695   2.396   0.068  1.00  0.00     0.241 A 
ATOM     14  N   UNL     1      -9.105   3.213   0.758  1.00  0.00    -0.227 NA
ATOM     15  N   UNL     1      -6.188   2.284   1.031  1.00  0.00    -0.205 NA
ATOM     16  C   UNL     1      -8.943   4.140   2.270  1.00  0.00     0.044 A 
ATOM     17  C   UNL     1     -10.114   4.950   2.739  1.00  0.00     0.067 C 
ATOM     18  C   UNL     1      -7.377   4.258   3.125  1.00  0.00     0.070 A 
BRANCH  13  19
ATOM     19  C   UNL     1      -7.892   1.669  -1.209  1.00  0.00     0.376 C 
ATOM     20  O   UNL     1      -8.732   1.977  -2.042  1.00  0.00    -0.242 OA
BRANCH  19  21
ATOM     21  O   UNL     1      -7.102   0.572  -1.250  1.00  0.00    -0.463 OA
ATOM     22  C   UNL     1      -7.458  -0.355  -2.274  1.00  0.00     0.282 C 
ENDBRANCH  19  21
ENDBRANCH  13  19
ENDBRANCH  10  12
ENDBRANCH   6  10
ENDBRANCH   3   5
ENDBRANCH   2   3
ENDBRANCH   1   2
BRANCH   1  23
ATOM     23  C   UNL     1      -7.832  -0.125   2.380  1.00  0.00     0.275 C 
BRANCH  23  24
ATOM     24  O   UNL     1      -8.039   1.047   1.558  1.00  0.00    -0.458 OA
BRANCH  24  25
ATOM     25  C   UNL     1      -7.846   2.415   2.104  1.00  0.00     0.338 C 
ATOM     26  O   UNL     1      -8.130   2.253   3.317  1.00  0.00    -0.246 OA
BRANCH  25  27
ATOM     27  C   UNL     1      -7.197   4.135   0.972  1.00  0.00     0.060 A 
ATOM     28  C   UNL     1      -5.814   4.462   0.474  1.00  0.00     0.016 A 
ATOM     29  C   UNL     1      -7.962   5.306   0.455  1.00  0.00     0.016 A 
ATOM     30  C   UNL     1      -5.257   5.719   0.292  1.00  0.00     0.010 A 
ATOM     31  C   UNL     1      -7.455   6.581   0.181  1.00  0.00     0.010 A 
ATOM     32  C   UNL     1      -6.096   6.796   0.241  1.00  0.00    -0.014 A 
BRANCH  32  33
ATOM     33  C   UNL     1      -5.571   8.130   0.021  1.00  0.00     0.031 A 
ATOM     34  C   UNL     1      -5.696   9.131   1.115  1.00  0.00     0.074 A 
ATOM     35  C   UNL     1      -5.148   8.375  -1.226  1.00  0.00     0.049 A 
ATOM     36  N   UNL     1      -5.593  10.425   1.048  1.00  0.00    -0.248 NA
ATOM     37  C   UNL     1      -6.016   8.614   2.459  1.00  0.00     0.031 C 
ATOM     38  C   UNL     1      -5.032   7.364  -2.289  1.00  0.00     0.029 A 
ATOM     39  N   UNL     1      -4.815   9.542  -1.834  1.00  0.00    -0.354 N 
ATOM     40  C   UNL     1      -5.870  10.889   2.327  1.00  0.00     0.074 A 
ATOM     41  C   UNL     1      -6.152   9.737   3.154  1.00  0.00     0.031 C 
ATOM     42  C   UNL     1      -4.713   7.969  -3.437  1.00  0.00     0.029 A 
ATOM     43  C   UNL     1      -4.669   9.398  -3.192  1.00  0.00     0.049 A 
ATOM     44  H   UNL     1      -4.693  10.394  -1.357  1.00  0.00     0.167 HD
ATOM     45  C   UNL     1      -5.894  12.180   2.732  1.00  0.00     0.037 A 
ATOM     46  C   UNL     1      -4.586  10.343  -4.136  1.00  0.00     0.037 A 
ATOM     47  C   UNL     1      -5.629  13.261   1.814  1.00  0.00     0.049 A 
ATOM     48  C   UNL     1      -4.621  11.760  -3.662  1.00  0.00     0.074 A 
ATOM     49  C   UNL     1      -5.573  14.618   2.059  1.00  0.00     0.029 A 
ATOM     50  N   UNL     1      -5.381  13.087   0.452  1.00  0.00    -0.354 N 
ATOM     51  N   UNL     1      -4.846  12.210  -2.447  1.00  0.00    -0.248 NA
ATOM     52  C   UNL     1      -4.367  12.792  -4.663  1.00  0.00     0.031 C 
ATOM     53  C   UNL     1      -5.338  15.264   0.839  1.00  0.00     0.029 A 
ATOM     54  C   UNL     1      -5.185  14.309  -0.159  1.00  0.00     0.049 A 
ATOM     55  H   UNL     1      -5.350  12.216  -0.007  1.00  0.00     0.167 HD
ATOM     56  C   UNL     1      -4.731  13.586  -2.525  1.00  0.00     0.074 A 
ATOM     57  C   UNL     1      -4.404  13.885  -3.912  1.00  0.00     0.031 C 
ATOM     58  C   UNL     1      -4.872  14.524  -1.554  1.00  0.00     0.037 A 
BRANCH  45  59
ATOM     59  C   UNL     1      -6.239  12.474   4.169  1.00  0.00     0.058 A 
ATOM     60  C   UNL     1      -5.403  12.085   5.230  1.00  0.00     0.135 A 
ATOM     61  C   UNL     1      -7.413  13.174   4.498  1.00  0.00     0.135 A 
ATOM     62  F   UNL     1      -4.277  11.395   4.987  1.00  0.00    -0.206 F 
ATOM     63  C   UNL     1      -5.728  12.354   6.558  1.00  0.00     0.059 A 
ATOM     64  C   UNL     1      -7.745  13.479   5.818  1.00  0.00     0.059 A 
ATOM     65  F   UNL     1      -8.261  13.562   3.533  1.00  0.00    -0.206 F 
ATOM     66  C   UNL     1      -6.901  13.055   6.842  1.00  0.00     0.060 A 
BRANCH  66  67
ATOM     67  S   UNL     1      -7.300  13.402   8.569  1.00  0.00     0.124 S 
ATOM     68  O   UNL     1      -7.640  12.070   9.063  1.00  0.00    -0.237 OA
ATOM     69  O   UNL     1      -6.049  13.961   9.070  1.00  0.00    -0.237 OA
ATOM     70  O   UNL     1      -8.414  14.341   8.481  1.00  0.00    -0.744 OA
ENDBRANCH  66  67
ENDBRANCH  45  59
BRANCH  46  71
ATOM     71  C   UNL     1      -4.425   9.940  -5.551  1.00  0.00     0.058 A 
ATOM     72  C   UNL     1      -3.176  10.055  -6.173  1.00  0.00     0.135 A 
ATOM     73  C   UNL     1      -5.458   9.306  -6.264  1.00  0.00     0.135 A 
ATOM     74  F   UNL     1      -2.152  10.623  -5.517  1.00  0.00    -0.206 F 
ATOM     75  C   UNL     1      -2.957   9.577  -7.458  1.00  0.00     0.059 A 
ATOM     76  C   UNL     1      -5.257   8.796  -7.543  1.00  0.00     0.059 A 
ATOM     77  F   UNL     1      -6.657   9.122  -5.690  1.00  0.00    -0.206 F 
ATOM     78  C   UNL     1      -4.003   8.947  -8.135  1.00  0.00     0.060 A 
BRANCH  78  79
ATOM     79  S   UNL     1      -3.683   8.296  -9.787  1.00  0.00     0.124 S 
ATOM     80  O   UNL     1      -3.543   9.524 -10.561  1.00  0.00    -0.237 OA
ATOM     81  O   UNL     1      -2.459   7.529  -9.581  1.00  0.00    -0.237 OA
ATOM     82  O   UNL     1      -4.873   7.501 -10.075  1.00  0.00    -0.744 OA
ENDBRANCH  78  79
ENDBRANCH  46  71
BRANCH  58  83
ATOM     83  C   UNL     1      -4.636  15.939  -1.982  1.00  0.00     0.058 A 
ATOM     84  C   UNL     1      -5.561  16.627  -2.779  1.00  0.00     0.135 A 
ATOM     85  C   UNL     1      -3.481  16.614  -1.560  1.00  0.00     0.135 A 
ATOM     86  F   UNL     1      -6.671  16.010  -3.216  1.00  0.00    -0.206 F 
ATOM     87  C   UNL     1      -5.333  17.937  -3.171  1.00  0.00     0.059 A 
ATOM     88  C   UNL     1      -3.251  17.936  -1.911  1.00  0.00     0.059 A 
ATOM     89  F   UNL     1      -2.574  15.992  -0.790  1.00  0.00    -0.206 F 
ATOM     90  C   UNL     1      -4.177  18.584  -2.728  1.00  0.00     0.060 A 
BRANCH  90  91
ATOM     91  S   UNL     1      -3.913  20.298  -3.216  1.00  0.00     0.124 S 
ATOM     92  O   UNL     1      -3.559  20.149  -4.624  1.00  0.00    -0.237 OA
ATOM     93  O   UNL     1      -5.215  20.900  -2.947  1.00  0.00    -0.237 OA
ATOM     94  O   UNL     1      -2.832  20.737  -2.339  1.00  0.00    -0.744 OA
ENDBRANCH  90  91
ENDBRANCH  58  83
ENDBRANCH  32  33
ENDBRANCH  25  27
ENDBRANCH  24  25
ENDBRANCH  23  24
ENDBRANCH   1  23
TORSDOF 18
