REMARK SMILES O=C(CNc1nc(-c2ccccc2)c(-c2ccccc2)s1)OCCOC(=O)c1ccc(-c2c3nc(c(-c4c(F)cc(S(=O)(=O)[O-])cc4F)c4ccc([nH]4)c(-c4c(F)cc(S(=O)(=O)[O-])cc4F)c4nc(c(-c5c(F)cc(S(=O)(=O)[O-])cc5F)c5ccc2[nH]5)C=C4)C=C3)cc1
REMARK SMILES IDX 23 1 22 2 2 3 1 4 3 5 4 6 5 8 6 9 21 10 7 11 14 12 8 13 9 14
REMARK SMILES IDX 13 15 10 16 12 17 11 18 15 19 16 20 20 21 17 22 19 23 18 24
REMARK SMILES IDX 24 25 25 26 26 27 27 28 28 29 29 30 93 31 30 32 92 33 31 34
REMARK SMILES IDX 32 35 33 36 86 37 34 38 91 39 85 40 87 41 35 42 90 43 84 44
REMARK SMILES IDX 83 45 36 47 70 48 49 49 69 50 50 51 53 52 68 53 88 54 51 55
REMARK SMILES IDX 52 56 67 58 89 59 54 60 37 61 38 62 47 63 39 64 40 65 46 66
REMARK SMILES IDX 48 67 41 68 42 69 43 70 44 71 45 72 71 73 72 74 81 75 73 76
REMARK SMILES IDX 74 77 80 78 82 79 75 80 76 81 77 82 78 83 79 84 55 85 56 86
REMARK SMILES IDX 65 87 57 88 58 89 64 90 66 91 59 92 60 93 61 94 62 95 63 96
REMARK H PARENT 4 7 87 46 53 57
REMARK Flexibility Score: inf
ROOT
ATOM      1  C   UNL     1       4.361   0.752  -0.504  1.00  0.00     0.274 C 
ENDROOT
BRANCH   1   2
ATOM      2  O   UNL     1       3.009   0.326  -0.773  1.00  0.00    -0.461 OA
BRANCH   2   3
ATOM      3  C   UNL     1       2.484  -0.896  -0.504  1.00  0.00     0.325 C 
ATOM      4  O   UNL     1       1.362  -1.177  -0.927  1.00  0.00    -0.250 OA
BRANCH   3   5
ATOM      5  C   UNL     1       3.289  -1.913   0.302  1.00  0.00     0.238 C 
BRANCH   5   6
ATOM      6  N   UNL     1       4.367  -2.501  -0.473  1.00  0.00    -0.351 N 
ATOM      7  H   UNL     1       4.168  -2.927  -1.338  1.00  0.00     0.163 HD
BRANCH   6   8
ATOM      8  C   UNL     1       5.635  -2.471  -0.022  1.00  0.00     0.184 A 
ATOM      9  N   UNL     1       6.003  -2.173   1.203  1.00  0.00    -0.220 NA
ATOM     10  S   UNL     1       6.921  -2.712  -1.132  1.00  0.00    -0.096 S 
ATOM     11  C   UNL     1       7.385  -2.094   1.285  1.00  0.00     0.091 A 
ATOM     12  C   UNL     1       8.053  -2.289   0.087  1.00  0.00     0.064 A 
BRANCH  11  13
ATOM     13  C   UNL     1       8.061  -1.872   2.558  1.00  0.00     0.002 A 
ATOM     14  C   UNL     1       8.988  -0.834   2.723  1.00  0.00     0.010 A 
ATOM     15  C   UNL     1       7.846  -2.768   3.611  1.00  0.00     0.010 A 
ATOM     16  C   UNL     1       9.730  -0.730   3.902  1.00  0.00     0.001 A 
ATOM     17  C   UNL     1       8.592  -2.666   4.789  1.00  0.00     0.001 A 
ATOM     18  C   UNL     1       9.542  -1.654   4.929  1.00  0.00     0.000 A 
ENDBRANCH  11  13
BRANCH  12  19
ATOM     19  C   UNL     1       9.471  -2.255  -0.248  1.00  0.00    -0.006 A 
ATOM     20  C   UNL     1       9.972  -1.262  -1.102  1.00  0.00     0.009 A 
ATOM     21  C   UNL     1      10.347  -3.202   0.292  1.00  0.00     0.009 A 
ATOM     22  C   UNL     1      11.328  -1.229  -1.424  1.00  0.00     0.001 A 
ATOM     23  C   UNL     1      11.703  -3.169  -0.033  1.00  0.00     0.001 A 
ATOM     24  C   UNL     1      12.192  -2.186  -0.894  1.00  0.00     0.000 A 
ENDBRANCH  12  19
ENDBRANCH   6   8
ENDBRANCH   5   6
ENDBRANCH   3   5
ENDBRANCH   2   3
ENDBRANCH   1   2
BRANCH   1  25
ATOM     25  C   UNL     1       4.478   1.611   0.754  1.00  0.00     0.275 C 
BRANCH  25  26
ATOM     26  O   UNL     1       4.040   0.881   1.907  1.00  0.00    -0.458 OA
BRANCH  26  27
ATOM     27  C   UNL     1       2.744   1.077   2.249  1.00  0.00     0.338 C 
ATOM     28  O   UNL     1       1.980   1.891   1.756  1.00  0.00    -0.246 OA
BRANCH  27  29
ATOM     29  C   UNL     1       2.316   0.024   3.195  1.00  0.00     0.060 A 
ATOM     30  C   UNL     1       1.004  -0.451   3.083  1.00  0.00     0.016 A 
ATOM     31  C   UNL     1       3.175  -0.501   4.168  1.00  0.00     0.016 A 
ATOM     32  C   UNL     1       0.527  -1.398   3.986  1.00  0.00     0.010 A 
ATOM     33  C   UNL     1       2.696  -1.455   5.071  1.00  0.00     0.010 A 
ATOM     34  C   UNL     1       1.356  -1.873   5.012  1.00  0.00    -0.014 A 
BRANCH  34  35
ATOM     35  C   UNL     1       0.756  -2.661   6.115  1.00  0.00     0.031 A 
ATOM     36  C   UNL     1       0.367  -1.945   7.381  1.00  0.00     0.074 A 
ATOM     37  C   UNL     1       0.509  -3.976   5.979  1.00  0.00     0.049 A 
ATOM     38  N   UNL     1      -0.260  -2.402   8.434  1.00  0.00    -0.248 NA
ATOM     39  C   UNL     1       0.737  -0.523   7.473  1.00  0.00     0.031 C 
ATOM     40  C   UNL     1       0.836  -4.782   4.804  1.00  0.00     0.029 A 
ATOM     41  N   UNL     1      -0.084  -4.863   6.842  1.00  0.00    -0.354 N 
ATOM     42  C   UNL     1      -0.370  -1.325   9.305  1.00  0.00     0.074 A 
ATOM     43  C   UNL     1       0.297  -0.204   8.680  1.00  0.00     0.031 C 
ATOM     44  C   UNL     1       0.431  -6.047   5.017  1.00  0.00     0.029 A 
ATOM     45  C   UNL     1      -0.176  -6.140   6.344  1.00  0.00     0.049 A 
ATOM     46  H   UNL     1      -0.414  -4.608   7.734  1.00  0.00     0.167 HD
ATOM     47  C   UNL     1      -0.987  -1.267  10.509  1.00  0.00     0.037 A 
ATOM     48  C   UNL     1      -0.700  -7.253   6.895  1.00  0.00     0.037 A 
ATOM     49  C   UNL     1      -1.648  -2.382  11.133  1.00  0.00     0.049 A 
ATOM     50  C   UNL     1      -1.352  -7.173   8.253  1.00  0.00     0.074 A 
ATOM     51  C   UNL     1      -2.326  -2.417  12.338  1.00  0.00     0.029 A 
ATOM     52  N   UNL     1      -1.704  -3.663  10.605  1.00  0.00    -0.354 N 
ATOM     53  N   UNL     1      -1.507  -6.132   9.037  1.00  0.00    -0.248 NA
ATOM     54  C   UNL     1      -1.917  -8.418   8.792  1.00  0.00     0.031 C 
ATOM     55  C   UNL     1      -2.758  -3.730  12.559  1.00  0.00     0.029 A 
ATOM     56  C   UNL     1      -2.388  -4.501  11.469  1.00  0.00     0.049 A 
ATOM     57  H   UNL     1      -1.316  -3.936   9.742  1.00  0.00     0.167 HD
ATOM     58  C   UNL     1      -2.222  -6.588  10.140  1.00  0.00     0.074 A 
ATOM     59  C   UNL     1      -2.470  -7.998   9.922  1.00  0.00     0.031 C 
ATOM     60  C   UNL     1      -2.642  -5.900  11.232  1.00  0.00     0.037 A 
BRANCH  47  61
ATOM     61  C   UNL     1      -0.960   0.049  11.233  1.00  0.00     0.058 A 
ATOM     62  C   UNL     1      -1.727   1.143  10.801  1.00  0.00     0.135 A 
ATOM     63  C   UNL     1      -0.166   0.215  12.379  1.00  0.00     0.135 A 
ATOM     64  F   UNL     1      -2.487   1.042   9.699  1.00  0.00    -0.206 F 
ATOM     65  C   UNL     1      -1.685   2.366  11.462  1.00  0.00     0.059 A 
ATOM     66  C   UNL     1      -0.128   1.423  13.070  1.00  0.00     0.059 A 
ATOM     67  F   UNL     1       0.589  -0.798  12.832  1.00  0.00    -0.206 F 
ATOM     68  C   UNL     1      -0.879   2.497  12.594  1.00  0.00     0.060 A 
BRANCH  68  69
ATOM     69  S   UNL     1      -0.826   4.092  13.438  1.00  0.00     0.124 S 
ATOM     70  O   UNL     1      -0.002   4.877  12.524  1.00  0.00    -0.237 OA
ATOM     71  O   UNL     1      -2.236   4.463  13.497  1.00  0.00    -0.237 OA
ATOM     72  O   UNL     1      -0.211   3.775  14.723  1.00  0.00    -0.744 OA
ENDBRANCH  68  69
ENDBRANCH  47  61
BRANCH  48  73
ATOM     73  C   UNL     1      -0.663  -8.541   6.153  1.00  0.00     0.058 A 
ATOM     74  C   UNL     1      -1.833  -9.108   5.627  1.00  0.00     0.135 A 
ATOM     75  C   UNL     1       0.541  -9.239   5.972  1.00  0.00     0.135 A 
ATOM     76  F   UNL     1      -3.010  -8.483   5.784  1.00  0.00    -0.206 F 
ATOM     77  C   UNL     1      -1.817 -10.332   4.966  1.00  0.00     0.059 A 
ATOM     78  C   UNL     1       0.586 -10.454   5.295  1.00  0.00     0.059 A 
ATOM     79  F   UNL     1       1.689  -8.735   6.448  1.00  0.00    -0.206 F 
ATOM     80  C   UNL     1      -0.601 -10.999   4.806  1.00  0.00     0.060 A 
BRANCH  80  81
ATOM     81  S   UNL     1      -0.584 -12.572   3.918  1.00  0.00     0.124 S 
ATOM     82  O   UNL     1      -1.162 -13.473   4.907  1.00  0.00    -0.237 OA
ATOM     83  O   UNL     1      -1.417 -12.278   2.756  1.00  0.00    -0.237 OA
ATOM     84  O   UNL     1       0.832 -12.776   3.628  1.00  0.00    -0.744 OA
ENDBRANCH  80  81
ENDBRANCH  48  73
BRANCH  60  85
ATOM     85  C   UNL     1      -3.458  -6.646  12.252  1.00  0.00     0.058 A 
ATOM     86  C   UNL     1      -2.884  -7.593  13.114  1.00  0.00     0.135 A 
ATOM     87  C   UNL     1      -4.830  -6.377  12.395  1.00  0.00     0.135 A 
ATOM     88  F   UNL     1      -1.578  -7.890  13.018  1.00  0.00    -0.206 F 
ATOM     89  C   UNL     1      -3.647  -8.271  14.061  1.00  0.00     0.059 A 
ATOM     90  C   UNL     1      -5.606  -7.022  13.352  1.00  0.00     0.059 A 
ATOM     91  F   UNL     1      -5.426  -5.469  11.606  1.00  0.00    -0.206 F 
ATOM     92  C   UNL     1      -5.008  -7.980  14.171  1.00  0.00     0.060 A 
BRANCH  92  93
ATOM     93  S   UNL     1      -5.987  -8.850  15.414  1.00  0.00     0.124 S 
ATOM     94  O   UNL     1      -6.170 -10.153  14.784  1.00  0.00    -0.237 OA
ATOM     95  O   UNL     1      -5.107  -8.828  16.579  1.00  0.00    -0.237 OA
ATOM     96  O   UNL     1      -7.191  -8.033  15.531  1.00  0.00    -0.744 OA
ENDBRANCH  92  93
ENDBRANCH  60  85
ENDBRANCH  34  35
ENDBRANCH  27  29
ENDBRANCH  26  27
ENDBRANCH  25  26
ENDBRANCH   1  25
TORSDOF 18
