REMARK SMILES CC[C@@](C)([NH2+]Cc1ccc(C(N)=O)cc1F)C(=O)OCCOC(=O)c1ccc(-c2c3nc(c(-c4c(F)cc(S(=O)(=O)[O-])cc4F)c4ccc([nH]4)c(-c4c(F)cc(S(=O)(=O)[O-])cc4F)c4nc(c(-c5c(F)cc(S(=O)(=O)[O-])cc5F)c5ccc2[nH]5)C=C4)C=C3)cc1
REMARK SMILES IDX 20 1 19 2 17 3 18 4 3 5 4 6 2 7 1 8 5 9 6 12 7 13 8 14 15 15
REMARK SMILES IDX 9 16 14 17 16 18 10 19 11 20 12 21 13 22 21 25 22 26 23 27
REMARK SMILES IDX 24 28 25 29 26 30 90 31 27 32 89 33 28 34 29 35 30 36 83 37
REMARK SMILES IDX 31 38 88 39 82 40 84 41 32 42 87 43 81 44 80 45 33 47 67 48
REMARK SMILES IDX 46 49 66 50 47 51 50 52 65 53 85 54 48 55 49 56 64 58 86 59
REMARK SMILES IDX 51 60 34 61 35 62 44 63 36 64 37 65 43 66 45 67 38 68 39 69
REMARK SMILES IDX 40 70 41 71 42 72 68 73 69 74 78 75 70 76 71 77 77 78 79 79
REMARK SMILES IDX 72 80 73 81 74 82 75 83 76 84 52 85 53 86 62 87 54 88 55 89
REMARK SMILES IDX 61 90 63 91 56 92 57 93 58 94 59 95 60 96
REMARK H PARENT 5 10 5 11 12 23 12 24 84 46 50 57
REMARK Flexibility Score: inf
ROOT
ATOM      1  C   UNL     1       4.340  -2.512   1.343  1.00  0.00     0.274 C 
ENDROOT
BRANCH   1   2
ATOM      2  O   UNL     1       2.927  -2.609   1.060  1.00  0.00    -0.457 OA
BRANCH   2   3
ATOM      3  C   UNL     1       2.134  -1.673   1.660  1.00  0.00     0.367 C 
ATOM      4  O   UNL     1       2.579  -0.672   2.213  1.00  0.00    -0.245 OA
BRANCH   3   5
ATOM      5  C   UNL     1       0.610  -2.000   1.550  1.00  0.00     0.191 C 
ATOM      6  C   UNL     1      -0.193  -1.315   2.682  1.00  0.00     0.092 C 
BRANCH   5   7
ATOM      7  C   UNL     1       0.069  -1.417   0.209  1.00  0.00     0.077 C 
ATOM      8  C   UNL     1       0.146   0.107   0.087  1.00  0.00     0.011 C 
ENDBRANCH   5   7
BRANCH   5   9
ATOM      9  N   UNL     1       0.312  -3.469   1.481  1.00  0.00    -0.329 N 
ATOM     10  H   UNL     1       0.495  -3.763   0.522  1.00  0.00     0.347 HD
ATOM     11  H   UNL     1      -0.650  -3.530   1.814  1.00  0.00     0.347 HD
BRANCH   9  12
ATOM     12  C   UNL     1       1.033  -4.404   2.356  1.00  0.00     0.301 C 
BRANCH  12  13
ATOM     13  C   UNL     1       0.761  -4.223   3.823  1.00  0.00     0.042 A 
ATOM     14  C   UNL     1      -0.405  -4.746   4.399  1.00  0.00     0.013 A 
ATOM     15  C   UNL     1       1.587  -3.400   4.599  1.00  0.00     0.132 A 
ATOM     16  C   UNL     1      -0.783  -4.360   5.687  1.00  0.00     0.014 A 
ATOM     17  C   UNL     1       1.198  -2.973   5.861  1.00  0.00     0.053 A 
ATOM     18  F   UNL     1       2.734  -2.933   4.093  1.00  0.00    -0.206 F 
ATOM     19  C   UNL     1      -0.003  -3.436   6.397  1.00  0.00     0.042 A 
BRANCH  19  20
ATOM     20  C   UNL     1      -0.467  -2.851   7.675  1.00  0.00     0.248 C 
ATOM     21  N   UNL     1      -1.191  -3.658   8.503  1.00  0.00    -0.366 N 
ATOM     22  O   UNL     1      -0.205  -1.697   7.983  1.00  0.00    -0.270 OA
ATOM     23  H   UNL     1      -1.392  -4.584   8.236  1.00  0.00     0.159 HD
ATOM     24  H   UNL     1      -1.513  -3.314   9.367  1.00  0.00     0.159 HD
ENDBRANCH  19  20
ENDBRANCH  12  13
ENDBRANCH   9  12
ENDBRANCH   5   9
ENDBRANCH   3   5
ENDBRANCH   2   3
ENDBRANCH   1   2
BRANCH   1  25
ATOM     25  C   UNL     1       5.123  -3.239   0.252  1.00  0.00     0.275 C 
BRANCH  25  26
ATOM     26  O   UNL     1       4.949  -2.489  -0.959  1.00  0.00    -0.458 OA
BRANCH  26  27
ATOM     27  C   UNL     1       4.225  -3.078  -1.932  1.00  0.00     0.338 C 
ATOM     28  O   UNL     1       3.979  -4.269  -2.075  1.00  0.00    -0.246 OA
BRANCH  27  29
ATOM     29  C   UNL     1       3.664  -2.003  -2.758  1.00  0.00     0.060 A 
ATOM     30  C   UNL     1       2.798  -1.096  -2.148  1.00  0.00     0.016 A 
ATOM     31  C   UNL     1       3.953  -1.896  -4.114  1.00  0.00     0.016 A 
ATOM     32  C   UNL     1       2.176  -0.106  -2.896  1.00  0.00     0.010 A 
ATOM     33  C   UNL     1       3.398  -0.839  -4.845  1.00  0.00     0.010 A 
ATOM     34  C   UNL     1       2.500   0.065  -4.244  1.00  0.00    -0.014 A 
BRANCH  34  35
ATOM     35  C   UNL     1       1.910   1.190  -5.019  1.00  0.00     0.031 A 
ATOM     36  C   UNL     1       1.106   0.902  -6.255  1.00  0.00     0.074 A 
ATOM     37  C   UNL     1       2.099   2.467  -4.625  1.00  0.00     0.049 A 
ATOM     38  N   UNL     1       0.754   1.714  -7.215  1.00  0.00    -0.248 NA
ATOM     39  C   UNL     1       0.641  -0.484  -6.438  1.00  0.00     0.031 C 
ATOM     40  C   UNL     1       2.779   2.890  -3.397  1.00  0.00     0.029 A 
ATOM     41  N   UNL     1       1.745   3.653  -5.225  1.00  0.00    -0.354 N 
ATOM     42  C   UNL     1       0.081   0.932  -8.144  1.00  0.00     0.074 A 
ATOM     43  C   UNL     1       0.052  -0.418  -7.625  1.00  0.00     0.031 C 
ATOM     44  C   UNL     1       2.787   4.229  -3.331  1.00  0.00     0.029 A 
ATOM     45  C   UNL     1       2.216   4.764  -4.561  1.00  0.00     0.049 A 
ATOM     46  H   UNL     1       1.209   3.703  -6.048  1.00  0.00     0.167 HD
ATOM     47  C   UNL     1      -0.451   1.315  -9.327  1.00  0.00     0.037 A 
ATOM     48  C   UNL     1       2.261   6.060  -4.930  1.00  0.00     0.037 A 
ATOM     49  C   UNL     1      -0.461   2.674  -9.801  1.00  0.00     0.049 A 
ATOM     50  C   UNL     1       1.740   6.449  -6.285  1.00  0.00     0.074 A 
ATOM     51  C   UNL     1      -0.985   3.165 -10.984  1.00  0.00     0.029 A 
ATOM     52  N   UNL     1       0.066   3.757  -9.115  1.00  0.00    -0.354 N 
ATOM     53  N   UNL     1       1.171   5.693  -7.193  1.00  0.00    -0.248 NA
ATOM     54  C   UNL     1       1.898   7.855  -6.685  1.00  0.00     0.031 C 
ATOM     55  C   UNL     1      -0.740   4.540 -11.031  1.00  0.00     0.029 A 
ATOM     56  C   UNL     1      -0.099   4.911  -9.860  1.00  0.00     0.049 A 
ATOM     57  H   UNL     1       0.493   3.712  -8.229  1.00  0.00     0.167 HD
ATOM     58  C   UNL     1       0.904   6.529  -8.270  1.00  0.00     0.074 A 
ATOM     59  C   UNL     1       1.354   7.853  -7.895  1.00  0.00     0.031 C 
ATOM     60  C   UNL     1       0.347   6.223  -9.465  1.00  0.00     0.037 A 
BRANCH  47  61
ATOM     61  C   UNL     1      -1.039   0.266 -10.224  1.00  0.00     0.058 A 
ATOM     62  C   UNL     1      -0.354  -0.121 -11.387  1.00  0.00     0.135 A 
ATOM     63  C   UNL     1      -2.319  -0.263 -10.007  1.00  0.00     0.135 A 
ATOM     64  F   UNL     1       0.878   0.349 -11.634  1.00  0.00    -0.206 F 
ATOM     65  C   UNL     1      -0.935  -0.967 -12.325  1.00  0.00     0.059 A 
ATOM     66  C   UNL     1      -2.913  -1.127 -10.924  1.00  0.00     0.059 A 
ATOM     67  F   UNL     1      -3.003   0.058  -8.897  1.00  0.00    -0.206 F 
ATOM     68  C   UNL     1      -2.221  -1.454 -12.091  1.00  0.00     0.060 A 
BRANCH  68  69
ATOM     69  S   UNL     1      -2.970  -2.530 -13.333  1.00  0.00     0.124 S 
ATOM     70  O   UNL     1      -3.198  -1.603 -14.435  1.00  0.00    -0.237 OA
ATOM     71  O   UNL     1      -1.925  -3.527 -13.545  1.00  0.00    -0.237 OA
ATOM     72  O   UNL     1      -4.172  -3.027 -12.669  1.00  0.00    -0.744 OA
ENDBRANCH  68  69
ENDBRANCH  47  61
BRANCH  48  73
ATOM     73  C   UNL     1       2.919   7.060  -4.045  1.00  0.00     0.058 A 
ATOM     74  C   UNL     1       4.303   7.014  -3.805  1.00  0.00     0.135 A 
ATOM     75  C   UNL     1       2.182   8.072  -3.414  1.00  0.00     0.135 A 
ATOM     76  F   UNL     1       5.056   6.066  -4.384  1.00  0.00    -0.206 F 
ATOM     77  C   UNL     1       4.926   7.912  -2.948  1.00  0.00     0.059 A 
ATOM     78  C   UNL     1       2.790   9.003  -2.574  1.00  0.00     0.059 A 
ATOM     79  F   UNL     1       0.862   8.172  -3.628  1.00  0.00    -0.206 F 
ATOM     80  C   UNL     1       4.161   8.903  -2.335  1.00  0.00     0.060 A 
BRANCH  80  81
ATOM     81  S   UNL     1       4.993  10.075  -1.241  1.00  0.00     0.124 S 
ATOM     82  O   UNL     1       5.231   9.252  -0.060  1.00  0.00    -0.237 OA
ATOM     83  O   UNL     1       6.177  10.433  -2.015  1.00  0.00    -0.237 OA
ATOM     84  O   UNL     1       4.008  11.140  -1.080  1.00  0.00    -0.744 OA
ENDBRANCH  80  81
ENDBRANCH  48  73
BRANCH  60  85
ATOM     85  C   UNL     1       0.173   7.330 -10.463  1.00  0.00     0.058 A 
ATOM     86  C   UNL     1      -1.103   7.845 -10.739  1.00  0.00     0.135 A 
ATOM     87  C   UNL     1       1.252   7.789 -11.232  1.00  0.00     0.135 A 
ATOM     88  F   UNL     1      -2.166   7.434 -10.030  1.00  0.00    -0.206 F 
ATOM     89  C   UNL     1      -1.309   8.751 -11.771  1.00  0.00     0.059 A 
ATOM     90  C   UNL     1       1.072   8.712 -12.257  1.00  0.00     0.059 A 
ATOM     91  F   UNL     1       2.493   7.334 -10.993  1.00  0.00    -0.206 F 
ATOM     92  C   UNL     1      -0.217   9.168 -12.534  1.00  0.00     0.060 A 
BRANCH  92  93
ATOM     93  S   UNL     1      -0.510  10.313 -13.898  1.00  0.00     0.124 S 
ATOM     94  O   UNL     1      -1.214   9.466 -14.854  1.00  0.00    -0.237 OA
ATOM     95  O   UNL     1      -1.312  11.353 -13.261  1.00  0.00    -0.237 OA
ATOM     96  O   UNL     1       0.835  10.723 -14.292  1.00  0.00    -0.744 OA
ENDBRANCH  92  93
ENDBRANCH  60  85
ENDBRANCH  34  35
ENDBRANCH  27  29
ENDBRANCH  26  27
ENDBRANCH  25  26
ENDBRANCH   1  25
TORSDOF 19
