REMARK SMILES O=C(OCCOC(=O)c1ccc(-c2c3nc(c(-c4c(F)cc(S(=O)(=O)[O-])cc4F)c4ccc([nH]4)c(-c4c(F)cc(S(=O)(=O)[O-])cc4F)c4nc(c(-c5c(F)cc(S(=O)(=O)[O-])cc5F)c5ccc2[nH]5)C=C4)C=C3)cc1)C1=Cc2c(cc(Cl)c(Cl)c2Cl)O[C@H]1C(F)(F)F
REMARK SMILES IDX 5 1 4 2 3 3 2 4 1 5 75 6 76 7 87 8 77 9 86 10 78 11 84 12
REMARK SMILES IDX 79 13 82 14 85 15 80 16 83 17 81 18 88 19 89 20 90 21 91 22
REMARK SMILES IDX 6 23 7 24 8 25 9 26 10 27 74 28 11 29 73 30 12 31 13 32
REMARK SMILES IDX 14 33 67 34 15 35 72 36 66 37 68 38 16 39 71 40 65 41 64 42
REMARK SMILES IDX 17 44 51 45 30 46 50 47 31 48 34 49 49 50 69 51 32 52 33 53
REMARK SMILES IDX 48 55 70 56 35 57 18 58 19 59 28 60 20 61 21 62 27 63 29 64
REMARK SMILES IDX 22 65 23 66 24 67 25 68 26 69 52 70 53 71 62 72 54 73 55 74
REMARK SMILES IDX 61 75 63 76 56 77 57 78 58 79 59 80 60 81 36 82 37 83 46 84
REMARK SMILES IDX 38 85 39 86 45 87 47 88 40 89 41 90 42 91 43 92 44 93
REMARK H PARENT 68 43 34 54
REMARK Flexibility Score: inf
ROOT
ATOM      1  C   UNL     1       2.965   1.456  -2.600  1.00  0.00     0.275 C 
ENDROOT
BRANCH   1   2
ATOM      2  C   UNL     1       2.770   0.023  -2.084  1.00  0.00     0.275 C 
BRANCH   2   3
ATOM      3  O   UNL     1       2.103  -0.070  -0.808  1.00  0.00    -0.459 OA
BRANCH   3   4
ATOM      4  C   UNL     1       2.616   0.017   0.436  1.00  0.00     0.338 C 
ATOM      5  O   UNL     1       1.899  -0.263   1.395  1.00  0.00    -0.246 OA
BRANCH   4   6
ATOM      6  C   UNL     1       4.019   0.426   0.709  1.00  0.00     0.087 C 
ATOM      7  C   UNL     1       4.941   0.740  -0.220  1.00  0.00     0.029 C 
ATOM      8  C   UNL     1       4.490   0.000   2.096  1.00  0.00     0.316 C 
ATOM      9  C   UNL     1       5.976  -0.322  -0.312  1.00  0.00     0.038 A 
ATOM     10  O   UNL     1       5.819  -0.610   2.088  1.00  0.00    -0.475 OA
ATOM     11  C   UNL     1       6.291  -1.009   0.865  1.00  0.00     0.131 A 
ATOM     12  C   UNL     1       6.578  -0.705  -1.526  1.00  0.00     0.072 A 
ATOM     13  C   UNL     1       7.135  -2.112   0.831  1.00  0.00     0.069 A 
ATOM     14  C   UNL     1       7.372  -1.862  -1.578  1.00  0.00     0.079 A 
ATOM     15  Cl  UNL     1       6.360   0.270  -2.946  1.00  0.00    -0.082 Cl
ATOM     16  C   UNL     1       7.637  -2.565  -0.393  1.00  0.00     0.064 A 
ATOM     17  Cl  UNL     1       7.985  -2.440  -3.099  1.00  0.00    -0.081 Cl
ATOM     18  Cl  UNL     1       8.583  -4.013  -0.372  1.00  0.00    -0.083 Cl
BRANCH   8  19
ATOM     19  C   UNL     1       4.446   1.191   3.067  1.00  0.00     0.430 C 
ATOM     20  F   UNL     1       3.227   1.770   3.109  1.00  0.00    -0.167 F 
ATOM     21  F   UNL     1       4.760   0.812   4.327  1.00  0.00    -0.167 F 
ATOM     22  F   UNL     1       5.332   2.151   2.699  1.00  0.00    -0.167 F 
ENDBRANCH   8  19
ENDBRANCH   4   6
ENDBRANCH   3   4
ENDBRANCH   2   3
ENDBRANCH   1   2
BRANCH   1  23
ATOM     23  O   UNL     1       2.814   2.426  -1.564  1.00  0.00    -0.458 OA
BRANCH  23  24
ATOM     24  C   UNL     1       1.514   2.709  -1.306  1.00  0.00     0.338 C 
ATOM     25  O   UNL     1       0.556   2.384  -1.990  1.00  0.00    -0.246 OA
BRANCH  24  26
ATOM     26  C   UNL     1       1.406   3.312   0.033  1.00  0.00     0.060 A 
ATOM     27  C   UNL     1       0.252   3.016   0.760  1.00  0.00     0.016 A 
ATOM     28  C   UNL     1       2.388   4.160   0.561  1.00  0.00     0.016 A 
ATOM     29  C   UNL     1       0.020   3.659   1.966  1.00  0.00     0.010 A 
ATOM     30  C   UNL     1       2.166   4.783   1.791  1.00  0.00     0.010 A 
ATOM     31  C   UNL     1       0.947   4.589   2.458  1.00  0.00    -0.014 A 
BRANCH  31  32
ATOM     32  C   UNL     1       0.504   5.475   3.558  1.00  0.00     0.031 A 
ATOM     33  C   UNL     1       0.071   6.877   3.223  1.00  0.00     0.074 A 
ATOM     34  C   UNL     1       0.338   4.974   4.794  1.00  0.00     0.049 A 
ATOM     35  N   UNL     1      -0.573   7.742   3.962  1.00  0.00    -0.248 NA
ATOM     36  C   UNL     1       0.396   7.370   1.873  1.00  0.00     0.031 C 
ATOM     37  C   UNL     1       0.728   3.628   5.218  1.00  0.00     0.029 A 
ATOM     38  N   UNL     1      -0.236   5.525   5.909  1.00  0.00    -0.354 N 
ATOM     39  C   UNL     1      -0.762   8.859   3.155  1.00  0.00     0.074 A 
ATOM     40  C   UNL     1      -0.096   8.598   1.901  1.00  0.00     0.031 C 
ATOM     41  C   UNL     1       0.360   3.450   6.498  1.00  0.00     0.029 A 
ATOM     42  C   UNL     1      -0.285   4.668   6.982  1.00  0.00     0.049 A 
ATOM     43  H   UNL     1      -0.580   6.447   5.939  1.00  0.00     0.167 HD
ATOM     44  C   UNL     1      -1.464   9.985   3.423  1.00  0.00     0.037 A 
ATOM     45  C   UNL     1      -0.808   4.848   8.210  1.00  0.00     0.037 A 
ATOM     46  C   UNL     1      -2.108  10.239   4.683  1.00  0.00     0.049 A 
ATOM     47  C   UNL     1      -1.541   6.132   8.502  1.00  0.00     0.074 A 
ATOM     48  C   UNL     1      -2.834  11.349   5.074  1.00  0.00     0.029 A 
ATOM     49  N   UNL     1      -2.095   9.367   5.763  1.00  0.00    -0.354 N 
ATOM     50  N   UNL     1      -1.760   7.158   7.711  1.00  0.00    -0.248 NA
ATOM     51  C   UNL     1      -2.121   6.274   9.843  1.00  0.00     0.031 C 
ATOM     52  C   UNL     1      -3.220  11.168   6.407  1.00  0.00     0.029 A 
ATOM     53  C   UNL     1      -2.784   9.921   6.829  1.00  0.00     0.049 A 
ATOM     54  H   UNL     1      -1.661   8.483   5.770  1.00  0.00     0.167 HD
ATOM     55  C   UNL     1      -2.521   8.056   8.453  1.00  0.00     0.074 A 
ATOM     56  C   UNL     1      -2.749   7.436   9.743  1.00  0.00     0.031 C 
ATOM     57  C   UNL     1      -2.988   9.283   8.106  1.00  0.00     0.037 A 
BRANCH  44  58
ATOM     58  C   UNL     1      -1.565  11.015   2.330  1.00  0.00     0.058 A 
ATOM     59  C   UNL     1      -2.324  10.782   1.169  1.00  0.00     0.135 A 
ATOM     60  C   UNL     1      -0.913  12.252   2.444  1.00  0.00     0.135 A 
ATOM     61  F   UNL     1      -2.949   9.606   0.995  1.00  0.00    -0.206 F 
ATOM     62  C   UNL     1      -2.411  11.727   0.152  1.00  0.00     0.059 A 
ATOM     63  C   UNL     1      -1.010  13.224   1.451  1.00  0.00     0.059 A 
ATOM     64  F   UNL     1      -0.168  12.527   3.526  1.00  0.00    -0.206 F 
ATOM     65  C   UNL     1      -1.751  12.947   0.303  1.00  0.00     0.060 A 
BRANCH  65  66
ATOM     66  S   UNL     1      -1.881  14.165  -1.022  1.00  0.00     0.124 S 
ATOM     67  O   UNL     1      -1.079  13.543  -2.071  1.00  0.00    -0.237 OA
ATOM     68  O   UNL     1      -3.320  14.207  -1.266  1.00  0.00    -0.237 OA
ATOM     69  O   UNL     1      -1.313  15.373  -0.433  1.00  0.00    -0.744 OA
ENDBRANCH  65  66
ENDBRANCH  44  58
BRANCH  45  70
ATOM     70  C   UNL     1      -0.662   3.789   9.246  1.00  0.00     0.058 A 
ATOM     71  C   UNL     1      -1.766   3.083   9.746  1.00  0.00     0.135 A 
ATOM     72  C   UNL     1       0.602   3.476   9.772  1.00  0.00     0.135 A 
ATOM     73  F   UNL     1      -2.997   3.344   9.280  1.00  0.00    -0.206 F 
ATOM     74  C   UNL     1      -1.628   2.130  10.752  1.00  0.00     0.059 A 
ATOM     75  C   UNL     1       0.770   2.506  10.755  1.00  0.00     0.059 A 
ATOM     76  F   UNL     1       1.695   4.110   9.319  1.00  0.00    -0.206 F 
ATOM     77  C   UNL     1      -0.355   1.850  11.252  1.00  0.00     0.060 A 
BRANCH  77  78
ATOM     78  S   UNL     1      -0.182   0.604  12.547  1.00  0.00     0.124 S 
ATOM     79  O   UNL     1      -0.755   1.293  13.697  1.00  0.00    -0.237 OA
ATOM     80  O   UNL     1      -0.966  -0.505  12.011  1.00  0.00    -0.237 OA
ATOM     81  O   UNL     1       1.259   0.374  12.602  1.00  0.00    -0.744 OA
ENDBRANCH  77  78
ENDBRANCH  45  70
BRANCH  57  82
ATOM     82  C   UNL     1      -3.804  10.020   9.134  1.00  0.00     0.058 A 
ATOM     83  C   UNL     1      -3.226  10.531  10.306  1.00  0.00     0.135 A 
ATOM     84  C   UNL     1      -5.178  10.234   8.933  1.00  0.00     0.135 A 
ATOM     85  F   UNL     1      -1.917  10.355  10.547  1.00  0.00    -0.206 F 
ATOM     86  C   UNL     1      -3.990  11.184  11.268  1.00  0.00     0.059 A 
ATOM     87  C   UNL     1      -5.954  10.916   9.864  1.00  0.00     0.059 A 
ATOM     88  F   UNL     1      -5.778   9.784   7.820  1.00  0.00    -0.206 F 
ATOM     89  C   UNL     1      -5.354  11.367  11.039  1.00  0.00     0.060 A 
BRANCH  89  90
ATOM     90  S   UNL     1      -6.335  12.212  12.297  1.00  0.00     0.124 S 
ATOM     91  O   UNL     1      -6.429  11.187  13.331  1.00  0.00    -0.237 OA
ATOM     92  O   UNL     1      -5.501  13.365  12.621  1.00  0.00    -0.237 OA
ATOM     93  O   UNL     1      -7.582  12.522  11.604  1.00  0.00    -0.744 OA
ENDBRANCH  89  90
ENDBRANCH  57  82
ENDBRANCH  31  32
ENDBRANCH  24  26
ENDBRANCH  23  24
ENDBRANCH   1  23
TORSDOF 15
