REMARK SMILES C=CCN(CC(=O)OCCOC(=O)c1ccc(-c2c3nc(c(-c4c(F)cc(S(=O)(=O)[O-])cc4F)c4ccc([nH]4)c(-c4c(F)cc(S(=O)(=O)[O-])cc4F)c4nc(c(-c5c(F)cc(S(=O)(=O)[O-])cc5F)c5ccc2[nH]5)C=C4)C=C3)cc1)C(=O)[C@@H]1[C@H](C)[C@H](C)O[C@@H]1C
REMARK SMILES IDX 9 1 8 2 6 3 7 4 5 5 4 6 3 7 2 8 1 9 80 10 81 11 82 12 83 13
REMARK SMILES IDX 88 14 84 15 85 16 87 17 89 18 86 19 10 20 11 21 12 22 13 23
REMARK SMILES IDX 14 24 15 25 79 26 16 27 78 28 17 29 18 30 19 31 72 32 20 33
REMARK SMILES IDX 77 34 71 35 73 36 21 37 76 38 70 39 69 40 22 42 56 43 35 44
REMARK SMILES IDX 55 45 36 46 39 47 54 48 74 49 37 50 38 51 53 53 75 54 40 55
REMARK SMILES IDX 23 56 24 57 33 58 25 59 26 60 32 61 34 62 27 63 28 64 29 65
REMARK SMILES IDX 30 66 31 67 57 68 58 69 67 70 59 71 60 72 66 73 68 74 61 75
REMARK SMILES IDX 62 76 63 77 64 78 65 79 41 80 42 81 51 82 43 83 44 84 50 85
REMARK SMILES IDX 52 86 45 87 46 88 47 89 48 90 49 91
REMARK H PARENT 73 41 39 52
REMARK Flexibility Score: inf
ROOT
ATOM      1  C   UNL     1      -5.893   2.399   0.169  1.00  0.00     0.274 C 
ENDROOT
BRANCH   1   2
ATOM      2  O   UNL     1      -4.472   2.140   0.076  1.00  0.00    -0.461 OA
BRANCH   2   3
ATOM      3  C   UNL     1      -3.874   2.550  -1.071  1.00  0.00     0.325 C 
ATOM      4  O   UNL     1      -4.474   3.044  -2.022  1.00  0.00    -0.250 OA
BRANCH   3   5
ATOM      5  C   UNL     1      -2.344   2.485  -1.057  1.00  0.00     0.242 C 
BRANCH   5   6
ATOM      6  N   UNL     1      -1.606   1.698  -0.064  1.00  0.00    -0.328 N 
BRANCH   6   7
ATOM      7  C   UNL     1      -1.515   0.267  -0.330  1.00  0.00     0.147 C 
BRANCH   7   8
ATOM      8  C   UNL     1      -0.214   0.021  -1.052  1.00  0.00    -0.014 C 
ATOM      9  C   UNL     1       0.887  -0.477  -0.471  1.00  0.00     0.006 C 
ENDBRANCH   7   8
ENDBRANCH   6   7
BRANCH   6  10
ATOM     10  C   UNL     1      -0.931   2.164   1.062  1.00  0.00     0.229 C 
ATOM     11  O   UNL     1      -0.573   1.353   1.927  1.00  0.00    -0.274 OA
BRANCH  10  12
ATOM     12  C   UNL     1      -0.684   3.657   1.298  1.00  0.00     0.113 C 
ATOM     13  C   UNL     1      -0.170   4.611   0.225  1.00  0.00     0.030 C 
ATOM     14  C   UNL     1       0.230   3.969   2.497  1.00  0.00     0.128 C 
ATOM     15  C   UNL     1       0.882   4.043  -0.720  1.00  0.00     0.011 C 
ATOM     16  C   UNL     1       0.240   5.828   1.066  1.00  0.00     0.119 C 
ATOM     17  O   UNL     1       0.556   5.370   2.386  1.00  0.00    -0.374 OA
ATOM     18  C   UNL     1       1.572   3.252   2.615  1.00  0.00     0.039 C 
ATOM     19  C   UNL     1       1.377   6.675   0.528  1.00  0.00     0.039 C 
ENDBRANCH  10  12
ENDBRANCH   6  10
ENDBRANCH   5   6
ENDBRANCH   3   5
ENDBRANCH   2   3
ENDBRANCH   1   2
BRANCH   1  20
ATOM     20  C   UNL     1      -6.218   3.564   1.114  1.00  0.00     0.275 C 
BRANCH  20  21
ATOM     21  O   UNL     1      -5.798   4.845   0.584  1.00  0.00    -0.458 OA
BRANCH  21  22
ATOM     22  C   UNL     1      -4.548   5.173   0.930  1.00  0.00     0.338 C 
ATOM     23  O   UNL     1      -3.779   4.476   1.581  1.00  0.00    -0.246 OA
BRANCH  22  24
ATOM     24  C   UNL     1      -4.111   6.486   0.445  1.00  0.00     0.060 A 
ATOM     25  C   UNL     1      -3.283   6.546  -0.682  1.00  0.00     0.016 A 
ATOM     26  C   UNL     1      -4.254   7.607   1.274  1.00  0.00     0.016 A 
ATOM     27  C   UNL     1      -2.539   7.699  -0.928  1.00  0.00     0.010 A 
ATOM     28  C   UNL     1      -3.542   8.777   0.990  1.00  0.00     0.010 A 
ATOM     29  C   UNL     1      -2.646   8.823  -0.088  1.00  0.00    -0.014 A 
BRANCH  29  30
ATOM     30  C   UNL     1      -1.827  10.036  -0.369  1.00  0.00     0.031 A 
ATOM     31  C   UNL     1      -0.689  10.453   0.528  1.00  0.00     0.074 A 
ATOM     32  C   UNL     1      -2.079  10.743  -1.487  1.00  0.00     0.049 A 
ATOM     33  N   UNL     1       0.155  11.444   0.374  1.00  0.00    -0.248 NA
ATOM     34  C   UNL     1      -0.454   9.652   1.738  1.00  0.00     0.031 C 
ATOM     35  C   UNL     1      -3.137  10.440  -2.451  1.00  0.00     0.029 A 
ATOM     36  N   UNL     1      -1.459  11.851  -2.008  1.00  0.00    -0.354 N 
ATOM     37  C   UNL     1       1.042  11.365   1.442  1.00  0.00     0.074 A 
ATOM     38  C   UNL     1       0.609  10.253   2.262  1.00  0.00     0.031 C 
ATOM     39  C   UNL     1      -3.079  11.324  -3.458  1.00  0.00     0.029 A 
ATOM     40  C   UNL     1      -2.014  12.286  -3.186  1.00  0.00     0.049 A 
ATOM     41  H   UNL     1      -0.690  12.291  -1.578  1.00  0.00     0.167 HD
ATOM     42  C   UNL     1       2.129  12.132   1.703  1.00  0.00     0.037 A 
ATOM     43  C   UNL     1      -1.727  13.354  -3.954  1.00  0.00     0.037 A 
ATOM     44  C   UNL     1       2.553  13.256   0.906  1.00  0.00     0.049 A 
ATOM     45  C   UNL     1      -0.625  14.285  -3.553  1.00  0.00     0.074 A 
ATOM     46  C   UNL     1       3.670  14.059   1.071  1.00  0.00     0.029 A 
ATOM     47  N   UNL     1       1.866  13.753  -0.190  1.00  0.00    -0.354 N 
ATOM     48  N   UNL     1       0.215  14.178  -2.553  1.00  0.00    -0.248 NA
ATOM     49  C   UNL     1      -0.446  15.494  -4.368  1.00  0.00     0.031 C 
ATOM     50  C   UNL     1       3.633  15.070   0.101  1.00  0.00     0.029 A 
ATOM     51  C   UNL     1       2.508  14.879  -0.682  1.00  0.00     0.049 A 
ATOM     52  H   UNL     1       1.043  13.364  -0.564  1.00  0.00     0.167 HD
ATOM     53  C   UNL     1       1.017  15.309  -2.610  1.00  0.00     0.074 A 
ATOM     54  C   UNL     1       0.573  16.082  -3.754  1.00  0.00     0.031 C 
ATOM     55  C   UNL     1       2.032  15.670  -1.788  1.00  0.00     0.037 A 
BRANCH  42  56
ATOM     56  C   UNL     1       2.957  11.781   2.905  1.00  0.00     0.058 A 
ATOM     57  C   UNL     1       3.920  10.761   2.847  1.00  0.00     0.135 A 
ATOM     58  C   UNL     1       2.845  12.514   4.096  1.00  0.00     0.135 A 
ATOM     59  F   UNL     1       4.061  10.029   1.731  1.00  0.00    -0.206 F 
ATOM     60  C   UNL     1       4.744  10.478   3.933  1.00  0.00     0.059 A 
ATOM     61  C   UNL     1       3.664  12.254   5.191  1.00  0.00     0.059 A 
ATOM     62  F   UNL     1       1.938  13.498   4.200  1.00  0.00    -0.206 F 
ATOM     63  C   UNL     1       4.608  11.230   5.101  1.00  0.00     0.060 A 
BRANCH  63  64
ATOM     64  S   UNL     1       5.705  10.876   6.493  1.00  0.00     0.124 S 
ATOM     65  O   UNL     1       5.123   9.645   7.019  1.00  0.00    -0.237 OA
ATOM     66  O   UNL     1       7.004  10.735   5.843  1.00  0.00    -0.237 OA
ATOM     67  O   UNL     1       5.561  12.052   7.346  1.00  0.00    -0.744 OA
ENDBRANCH  63  64
ENDBRANCH  42  56
BRANCH  43  68
ATOM     68  C   UNL     1      -2.552  13.610  -5.158  1.00  0.00     0.058 A 
ATOM     69  C   UNL     1      -2.071  13.321  -6.441  1.00  0.00     0.135 A 
ATOM     70  C   UNL     1      -3.874  14.064  -5.032  1.00  0.00     0.135 A 
ATOM     71  F   UNL     1      -0.810  12.894  -6.606  1.00  0.00    -0.206 F 
ATOM     72  C   UNL     1      -2.884  13.448  -7.563  1.00  0.00     0.059 A 
ATOM     73  C   UNL     1      -4.710  14.181  -6.135  1.00  0.00     0.059 A 
ATOM     74  F   UNL     1      -4.377  14.342  -3.819  1.00  0.00    -0.206 F 
ATOM     75  C   UNL     1      -4.206  13.867  -7.397  1.00  0.00     0.060 A 
BRANCH  75  76
ATOM     76  S   UNL     1      -5.311  13.904  -8.826  1.00  0.00     0.124 S 
ATOM     77  O   UNL     1      -5.084  15.251  -9.337  1.00  0.00    -0.237 OA
ATOM     78  O   UNL     1      -4.802  12.813  -9.652  1.00  0.00    -0.237 OA
ATOM     79  O   UNL     1      -6.622  13.664  -8.229  1.00  0.00    -0.744 OA
ENDBRANCH  75  76
ENDBRANCH  43  68
BRANCH  55  80
ATOM     80  C   UNL     1       2.706  16.979  -2.076  1.00  0.00     0.058 A 
ATOM     81  C   UNL     1       2.116  18.193  -1.692  1.00  0.00     0.135 A 
ATOM     82  C   UNL     1       3.942  17.026  -2.737  1.00  0.00     0.135 A 
ATOM     83  F   UNL     1       0.928  18.198  -1.066  1.00  0.00    -0.206 F 
ATOM     84  C   UNL     1       2.719  19.414  -1.974  1.00  0.00     0.059 A 
ATOM     85  C   UNL     1       4.570  18.236  -3.018  1.00  0.00     0.059 A 
ATOM     86  F   UNL     1       4.547  15.892  -3.122  1.00  0.00    -0.206 F 
ATOM     87  C   UNL     1       3.943  19.426  -2.646  1.00  0.00     0.060 A 
BRANCH  87  88
ATOM     88  S   UNL     1       4.726  21.011  -3.012  1.00  0.00     0.124 S 
ATOM     89  O   UNL     1       4.039  21.399  -4.240  1.00  0.00    -0.237 OA
ATOM     90  O   UNL     1       4.408  21.808  -1.831  1.00  0.00    -0.237 OA
ATOM     91  O   UNL     1       6.135  20.661  -3.162  1.00  0.00    -0.744 OA
ENDBRANCH  87  88
ENDBRANCH  55  80
ENDBRANCH  29  30
ENDBRANCH  22  24
ENDBRANCH  21  22
ENDBRANCH  20  21
ENDBRANCH   1  20
TORSDOF 19
