REMARK SMILES Cc1cc2c(c(C)c1Cl)C=C(C(=O)OCCOC(=O)c1ccc(-c3c4nc(c(-c5c(F)cc(S(=O)(=O)[O-])cc5F)c5ccc([nH]5)c(-c5c(F)cc(S(=O)(=O)[O-])cc5F)c5nc(c(-c6c(F)cc(S(=O)(=O)[O-])cc6F)c6ccc3[nH]6)C=C5)C=C4)cc1)[C@H](C(F)(F)F)O2
REMARK SMILES IDX 16 1 15 2 14 3 12 4 13 5 11 6 1 7 2 8 3 9 8 10 4 11 6 12
REMARK SMILES IDX 9 13 5 14 91 15 7 16 10 17 86 18 87 19 88 20 89 21 90 22
REMARK SMILES IDX 17 23 18 24 19 25 20 26 21 27 85 28 22 29 84 30 23 31 24 32
REMARK SMILES IDX 25 33 78 34 26 35 83 36 77 37 79 38 27 39 82 40 76 41 75 42
REMARK SMILES IDX 28 44 62 45 41 46 61 47 42 48 45 49 60 50 80 51 43 52 44 53
REMARK SMILES IDX 59 55 81 56 46 57 29 58 30 59 39 60 31 61 32 62 38 63 40 64
REMARK SMILES IDX 33 65 34 66 35 67 36 68 37 69 63 70 64 71 73 72 65 73 66 74
REMARK SMILES IDX 72 75 74 76 67 77 68 78 69 79 70 80 71 81 47 82 48 83 57 84
REMARK SMILES IDX 49 85 50 86 56 87 58 88 51 89 52 90 53 91 54 92 55 93
REMARK H PARENT 79 43 45 54
REMARK Flexibility Score: inf
ROOT
ATOM      1  C   UNL     1       0.209  -9.190   4.847  1.00  0.00     0.275 C 
ENDROOT
BRANCH   1   2
ATOM      2  C   UNL     1      -0.204  -9.204   3.377  1.00  0.00     0.275 C 
BRANCH   2   3
ATOM      3  O   UNL     1       0.233  -7.994   2.724  1.00  0.00    -0.459 OA
BRANCH   3   4
ATOM      4  C   UNL     1      -0.724  -7.076   2.458  1.00  0.00     0.338 C 
ATOM      5  O   UNL     1      -1.915  -7.199   2.664  1.00  0.00    -0.246 OA
BRANCH   4   6
ATOM      6  C   UNL     1      -0.112  -5.843   1.921  1.00  0.00     0.087 C 
ATOM      7  C   UNL     1       1.210   0.093  -0.343  1.00  0.00     0.046 C 
ATOM      8  C   UNL     1       0.745  -1.090   0.464  1.00  0.00    -0.028 A 
ATOM      9  C   UNL     1       1.144  -2.361   0.021  1.00  0.00     0.052 A 
ATOM     10  C   UNL     1      -0.083  -0.994   1.600  1.00  0.00     0.047 A 
ATOM     11  C   UNL     1       0.718  -3.515   0.671  1.00  0.00     0.128 A 
ATOM     12  C   UNL     1      -0.520  -2.157   2.278  1.00  0.00    -0.021 A 
ATOM     13  Cl  UNL     1      -0.585   0.577   2.148  1.00  0.00    -0.084 Cl
ATOM     14  C   UNL     1      -0.131  -3.427   1.777  1.00  0.00     0.022 A 
ATOM     15  O   UNL     1       1.137  -4.694   0.117  1.00  0.00    -0.475 OA
ATOM     16  C   UNL     1      -1.378  -2.073   3.521  1.00  0.00     0.047 C 
ATOM     17  C   UNL     1      -0.644  -4.681   2.325  1.00  0.00     0.027 C 
ATOM     18  C   UNL     1       0.966  -5.922   0.879  1.00  0.00     0.316 C 
BRANCH  18  19
ATOM     19  C   UNL     1       2.334  -6.419   1.383  1.00  0.00     0.430 C 
ATOM     20  F   UNL     1       3.338  -6.023   0.559  1.00  0.00    -0.167 F 
ATOM     21  F   UNL     1       2.632  -5.973   2.621  1.00  0.00    -0.167 F 
ATOM     22  F   UNL     1       2.392  -7.774   1.403  1.00  0.00    -0.167 F 
ENDBRANCH  18  19
ENDBRANCH   4   6
ENDBRANCH   3   4
ENDBRANCH   2   3
ENDBRANCH   1   2
BRANCH   1  23
ATOM     23  O   UNL     1      -0.504  -8.144   5.528  1.00  0.00    -0.458 OA
BRANCH  23  24
ATOM     24  C   UNL     1       0.253  -7.189   6.114  1.00  0.00     0.338 C 
ATOM     25  O   UNL     1       1.470  -7.149   6.189  1.00  0.00    -0.246 OA
BRANCH  24  26
ATOM     26  C   UNL     1      -0.626  -6.143   6.665  1.00  0.00     0.060 A 
ATOM     27  C   UNL     1      -1.517  -5.486   5.822  1.00  0.00     0.016 A 
ATOM     28  C   UNL     1      -0.500  -5.744   7.994  1.00  0.00     0.016 A 
ATOM     29  C   UNL     1      -2.211  -4.368   6.278  1.00  0.00     0.010 A 
ATOM     30  C   UNL     1      -1.285  -4.688   8.479  1.00  0.00     0.010 A 
ATOM     31  C   UNL     1      -2.125  -3.958   7.618  1.00  0.00    -0.014 A 
BRANCH  31  32
ATOM     32  C   UNL     1      -2.895  -2.766   8.089  1.00  0.00     0.031 A 
ATOM     33  C   UNL     1      -2.191  -1.600   8.745  1.00  0.00     0.074 A 
ATOM     34  C   UNL     1      -4.229  -2.697   7.887  1.00  0.00     0.049 A 
ATOM     35  N   UNL     1      -2.707  -0.540   9.315  1.00  0.00    -0.248 NA
ATOM     36  C   UNL     1      -0.720  -1.634   8.778  1.00  0.00     0.031 C 
ATOM     37  C   UNL     1      -5.042  -3.730   7.239  1.00  0.00     0.029 A 
ATOM     38  N   UNL     1      -5.136  -1.704   8.172  1.00  0.00    -0.354 N 
ATOM     39  C   UNL     1      -1.634   0.189   9.818  1.00  0.00     0.074 A 
ATOM     40  C   UNL     1      -0.435  -0.553   9.494  1.00  0.00     0.031 C 
ATOM     41  C   UNL     1      -6.297  -3.282   7.095  1.00  0.00     0.029 A 
ATOM     42  C   UNL     1      -6.412  -1.976   7.731  1.00  0.00     0.049 A 
ATOM     43  H   UNL     1      -4.896  -0.876   8.646  1.00  0.00     0.167 HD
ATOM     44  C   UNL     1      -1.645   1.370  10.483  1.00  0.00     0.037 A 
ATOM     45  C   UNL     1      -7.558  -1.274   7.846  1.00  0.00     0.037 A 
ATOM     46  C   UNL     1      -2.834   2.139  10.750  1.00  0.00     0.049 A 
ATOM     47  C   UNL     1      -7.548   0.025   8.601  1.00  0.00     0.074 A 
ATOM     48  C   UNL     1      -2.946   3.341  11.430  1.00  0.00     0.029 A 
ATOM     49  N   UNL     1      -4.110   1.802  10.325  1.00  0.00    -0.354 N 
ATOM     50  N   UNL     1      -6.533   0.650   9.146  1.00  0.00    -0.248 NA
ATOM     51  C   UNL     1      -8.842   0.698   8.787  1.00  0.00     0.031 C 
ATOM     52  C   UNL     1      -4.293   3.716  11.438  1.00  0.00     0.029 A 
ATOM     53  C   UNL     1      -5.014   2.769  10.730  1.00  0.00     0.049 A 
ATOM     54  H   UNL     1      -4.339   0.993   9.812  1.00  0.00     0.167 HD
ATOM     55  C   UNL     1      -7.063   1.791   9.736  1.00  0.00     0.074 A 
ATOM     56  C   UNL     1      -8.486   1.781   9.466  1.00  0.00     0.031 C 
ATOM     57  C   UNL     1      -6.427   2.752  10.447  1.00  0.00     0.037 A 
BRANCH  44  58
ATOM     58  C   UNL     1      -0.334   1.908  10.992  1.00  0.00     0.058 A 
ATOM     59  C   UNL     1       0.615   2.483  10.133  1.00  0.00     0.135 A 
ATOM     60  C   UNL     1      -0.055   1.910  12.369  1.00  0.00     0.135 A 
ATOM     61  F   UNL     1       0.406   2.494   8.807  1.00  0.00    -0.206 F 
ATOM     62  C   UNL     1       1.801   3.026  10.618  1.00  0.00     0.059 A 
ATOM     63  C   UNL     1       1.113   2.470  12.879  1.00  0.00     0.059 A 
ATOM     64  F   UNL     1      -0.929   1.376  13.236  1.00  0.00    -0.206 F 
ATOM     65  C   UNL     1       2.040   3.017  11.994  1.00  0.00     0.060 A 
BRANCH  65  66
ATOM     66  S   UNL     1       3.575   3.743  12.609  1.00  0.00     0.124 S 
ATOM     67  O   UNL     1       4.558   2.751  12.184  1.00  0.00    -0.237 OA
ATOM     68  O   UNL     1       3.620   5.021  11.907  1.00  0.00    -0.237 OA
ATOM     69  O   UNL     1       3.358   3.830  14.050  1.00  0.00    -0.744 OA
ENDBRANCH  65  66
ENDBRANCH  44  58
BRANCH  45  70
ATOM     70  C   UNL     1      -8.813  -1.801   7.246  1.00  0.00     0.058 A 
ATOM     71  C   UNL     1      -9.394  -1.177   6.132  1.00  0.00     0.135 A 
ATOM     72  C   UNL     1      -9.434  -2.957   7.744  1.00  0.00     0.135 A 
ATOM     73  F   UNL     1      -8.847  -0.060   5.627  1.00  0.00    -0.206 F 
ATOM     74  C   UNL     1     -10.542  -1.683   5.529  1.00  0.00     0.059 A 
ATOM     75  C   UNL     1     -10.566  -3.498   7.142  1.00  0.00     0.059 A 
ATOM     76  F   UNL     1      -8.913  -3.597   8.802  1.00  0.00    -0.206 F 
ATOM     77  C   UNL     1     -11.115  -2.850   6.037  1.00  0.00     0.060 A 
BRANCH  77  78
ATOM     78  S   UNL     1     -12.558  -3.545   5.200  1.00  0.00     0.124 S 
ATOM     79  O   UNL     1     -13.612  -2.632   5.626  1.00  0.00    -0.237 OA
ATOM     80  O   UNL     1     -12.169  -3.462   3.796  1.00  0.00    -0.237 OA
ATOM     81  O   UNL     1     -12.637  -4.899   5.741  1.00  0.00    -0.744 OA
ENDBRANCH  77  78
ENDBRANCH  45  70
BRANCH  57  82
ATOM     82  C   UNL     1      -7.253   3.890  10.973  1.00  0.00     0.058 A 
ATOM     83  C   UNL     1      -8.066   3.740  12.105  1.00  0.00     0.135 A 
ATOM     84  C   UNL     1      -7.161   5.165  10.390  1.00  0.00     0.135 A 
ATOM     85  F   UNL     1      -8.193   2.539  12.692  1.00  0.00    -0.206 F 
ATOM     86  C   UNL     1      -8.764   4.816  12.643  1.00  0.00     0.059 A 
ATOM     87  C   UNL     1      -7.835   6.259  10.923  1.00  0.00     0.059 A 
ATOM     88  F   UNL     1      -6.391   5.359   9.308  1.00  0.00    -0.206 F 
ATOM     89  C   UNL     1      -8.636   6.073  12.050  1.00  0.00     0.060 A 
BRANCH  89  90
ATOM     90  S   UNL     1      -9.498   7.472  12.798  1.00  0.00     0.124 S 
ATOM     91  O   UNL     1     -10.884   7.191  12.440  1.00  0.00    -0.237 OA
ATOM     92  O   UNL     1      -9.166   7.322  14.212  1.00  0.00    -0.237 OA
ATOM     93  O   UNL     1      -8.902   8.631  12.140  1.00  0.00    -0.744 OA
ENDBRANCH  89  90
ENDBRANCH  57  82
ENDBRANCH  31  32
ENDBRANCH  24  26
ENDBRANCH  23  24
ENDBRANCH   1  23
TORSDOF 15
