REMARK SMILES CC[C@](C)([NH2+]CC(=O)NC[C@H]1CCCO1)C(=O)OCCOC(=O)c1ccc(-c2c3nc(c(-c4c(F)cc(S(=O)(=O)[O-])cc4F)c4ccc([nH]4)c(-c4c(F)cc(S(=O)(=O)[O-])cc4F)c4nc(c(-c5c(F)cc(S(=O)(=O)[O-])cc5F)c5ccc2[nH]5)C=C4)C=C3)cc1
REMARK SMILES IDX 19 1 18 2 16 3 17 4 3 5 4 6 2 7 1 8 5 9 6 12 7 13 8 14 9 15
REMARK SMILES IDX 10 17 11 18 12 19 15 20 13 21 14 22 20 23 21 24 22 25 23 26
REMARK SMILES IDX 24 27 25 28 89 29 26 30 88 31 27 32 28 33 29 34 82 35 30 36
REMARK SMILES IDX 87 37 81 38 83 39 31 40 86 41 80 42 79 43 32 45 66 46 45 47
REMARK SMILES IDX 65 48 46 49 49 50 64 51 84 52 47 53 48 54 63 56 85 57 50 58
REMARK SMILES IDX 33 59 34 60 43 61 35 62 36 63 42 64 44 65 37 66 38 67 39 68
REMARK SMILES IDX 40 69 41 70 67 71 68 72 77 73 69 74 70 75 76 76 78 77 71 78
REMARK SMILES IDX 72 79 73 80 74 81 75 82 51 83 52 84 61 85 53 86 54 87 60 88
REMARK SMILES IDX 62 89 55 90 56 91 57 92 58 93 59 94
REMARK H PARENT 5 10 5 11 9 16 83 44 49 55
REMARK Flexibility Score: inf
ROOT
ATOM      1  C   UNL     1      -0.045   0.194   1.823  1.00  0.00     0.274 C 
ENDROOT
BRANCH   1   2
ATOM      2  O   UNL     1       0.544   1.130   0.898  1.00  0.00    -0.457 OA
BRANCH   2   3
ATOM      3  C   UNL     1       0.473   0.832  -0.436  1.00  0.00     0.367 C 
ATOM      4  O   UNL     1      -0.269  -0.034  -0.875  1.00  0.00    -0.245 OA
BRANCH   3   5
ATOM      5  C   UNL     1       1.440   1.715  -1.298  1.00  0.00     0.191 C 
ATOM      6  C   UNL     1       0.613   2.960  -1.678  1.00  0.00     0.092 C 
BRANCH   5   7
ATOM      7  C   UNL     1       1.873   1.038  -2.627  1.00  0.00     0.077 C 
ATOM      8  C   UNL     1       2.877   1.799  -3.494  1.00  0.00     0.011 C 
ENDBRANCH   5   7
BRANCH   5   9
ATOM      9  N   UNL     1       2.621   2.120  -0.492  1.00  0.00    -0.325 N 
ATOM     10  H   UNL     1       2.304   2.804   0.195  1.00  0.00     0.347 HD
ATOM     11  H   UNL     1       3.296   2.470  -1.173  1.00  0.00     0.347 HD
BRANCH   9  12
ATOM     12  C   UNL     1       3.339   1.055   0.240  1.00  0.00     0.362 C 
BRANCH  12  13
ATOM     13  C   UNL     1       4.177   0.111  -0.615  1.00  0.00     0.275 C 
ATOM     14  O   UNL     1       5.261   0.483  -1.077  1.00  0.00    -0.269 OA
ATOM     15  N   UNL     1       3.800  -1.177  -0.867  1.00  0.00    -0.349 N 
ATOM     16  H   UNL     1       4.514  -1.712  -1.283  1.00  0.00     0.163 HD
BRANCH  15  17
ATOM     17  C   UNL     1       2.556  -1.944  -0.653  1.00  0.00     0.148 C 
BRANCH  17  18
ATOM     18  C   UNL     1       2.037  -2.569  -1.986  1.00  0.00     0.137 C 
ATOM     19  C   UNL     1       1.507  -3.989  -1.866  1.00  0.00     0.036 C 
ATOM     20  O   UNL     1       0.945  -1.810  -2.532  1.00  0.00    -0.376 OA
ATOM     21  C   UNL     1       0.027  -3.796  -1.654  1.00  0.00     0.031 C 
ATOM     22  C   UNL     1      -0.258  -2.593  -2.520  1.00  0.00     0.160 C 
ENDBRANCH  17  18
ENDBRANCH  15  17
ENDBRANCH  12  13
ENDBRANCH   9  12
ENDBRANCH   5   9
ENDBRANCH   3   5
ENDBRANCH   2   3
ENDBRANCH   1   2
BRANCH   1  23
ATOM     23  C   UNL     1      -1.181   0.846   2.596  1.00  0.00     0.275 C 
BRANCH  23  24
ATOM     24  O   UNL     1      -2.285   1.062   1.708  1.00  0.00    -0.458 OA
BRANCH  24  25
ATOM     25  C   UNL     1      -2.347   2.299   1.173  1.00  0.00     0.338 C 
ATOM     26  O   UNL     1      -1.685   3.283   1.470  1.00  0.00    -0.246 OA
BRANCH  25  27
ATOM     27  C   UNL     1      -3.309   2.276   0.073  1.00  0.00     0.060 A 
ATOM     28  C   UNL     1      -2.878   1.844  -1.181  1.00  0.00     0.016 A 
ATOM     29  C   UNL     1      -4.597   2.767   0.256  1.00  0.00     0.016 A 
ATOM     30  C   UNL     1      -3.712   1.944  -2.281  1.00  0.00     0.010 A 
ATOM     31  C   UNL     1      -5.456   2.822  -0.842  1.00  0.00     0.010 A 
ATOM     32  C   UNL     1      -5.008   2.434  -2.119  1.00  0.00    -0.014 A 
BRANCH  32  33
ATOM     33  C   UNL     1      -5.863   2.628  -3.307  1.00  0.00     0.031 A 
ATOM     34  C   UNL     1      -6.233   4.023  -3.711  1.00  0.00     0.074 A 
ATOM     35  C   UNL     1      -6.271   1.565  -4.024  1.00  0.00     0.049 A 
ATOM     36  N   UNL     1      -7.130   4.422  -4.570  1.00  0.00    -0.248 NA
ATOM     37  C   UNL     1      -5.502   5.116  -3.048  1.00  0.00     0.031 C 
ATOM     38  C   UNL     1      -5.893   0.173  -3.767  1.00  0.00     0.029 A 
ATOM     39  N   UNL     1      -7.095   1.490  -5.116  1.00  0.00    -0.354 N 
ATOM     40  C   UNL     1      -7.120   5.810  -4.504  1.00  0.00     0.074 A 
ATOM     41  C   UNL     1      -6.117   6.185  -3.531  1.00  0.00     0.031 C 
ATOM     42  C   UNL     1      -6.476  -0.616  -4.682  1.00  0.00     0.029 A 
ATOM     43  C   UNL     1      -7.331   0.202  -5.534  1.00  0.00     0.049 A 
ATOM     44  H   UNL     1      -7.480   2.281  -5.558  1.00  0.00     0.167 HD
ATOM     45  C   UNL     1      -7.894   6.682  -5.190  1.00  0.00     0.037 A 
ATOM     46  C   UNL     1      -8.184  -0.265  -6.465  1.00  0.00     0.037 A 
ATOM     47  C   UNL     1      -8.850   6.277  -6.187  1.00  0.00     0.049 A 
ATOM     48  C   UNL     1      -9.049   0.719  -7.199  1.00  0.00     0.074 A 
ATOM     49  C   UNL     1      -9.696   7.065  -6.944  1.00  0.00     0.029 A 
ATOM     50  N   UNL     1      -9.070   4.962  -6.576  1.00  0.00    -0.354 N 
ATOM     51  N   UNL     1      -9.097   2.025  -7.074  1.00  0.00    -0.248 NA
ATOM     52  C   UNL     1      -9.990   0.171  -8.183  1.00  0.00     0.031 C 
ATOM     53  C   UNL     1     -10.449   6.224  -7.771  1.00  0.00     0.029 A 
ATOM     54  C   UNL     1     -10.044   4.915  -7.557  1.00  0.00     0.049 A 
ATOM     55  H   UNL     1      -8.603   4.178  -6.207  1.00  0.00     0.167 HD
ATOM     56  C   UNL     1     -10.069   2.458  -7.966  1.00  0.00     0.074 A 
ATOM     57  C   UNL     1     -10.570   1.274  -8.639  1.00  0.00     0.031 C 
ATOM     58  C   UNL     1     -10.515   3.716  -8.205  1.00  0.00     0.037 A 
BRANCH  45  59
ATOM     59  C   UNL     1      -7.776   8.139  -4.845  1.00  0.00     0.058 A 
ATOM     60  C   UNL     1      -6.666   8.911  -5.221  1.00  0.00     0.135 A 
ATOM     61  C   UNL     1      -8.802   8.775  -4.126  1.00  0.00     0.135 A 
ATOM     62  F   UNL     1      -5.645   8.347  -5.886  1.00  0.00    -0.206 F 
ATOM     63  C   UNL     1      -6.567  10.256  -4.878  1.00  0.00     0.059 A 
ATOM     64  C   UNL     1      -8.735  10.124  -3.793  1.00  0.00     0.059 A 
ATOM     65  F   UNL     1      -9.881   8.081  -3.732  1.00  0.00    -0.206 F 
ATOM     66  C   UNL     1      -7.606  10.854  -4.162  1.00  0.00     0.060 A 
BRANCH  66  67
ATOM     67  S   UNL     1      -7.469  12.601  -3.725  1.00  0.00     0.124 S 
ATOM     68  O   UNL     1      -6.503  12.553  -2.632  1.00  0.00    -0.237 OA
ATOM     69  O   UNL     1      -6.990  13.198  -4.968  1.00  0.00    -0.237 OA
ATOM     70  O   UNL     1      -8.831  12.963  -3.345  1.00  0.00    -0.744 OA
ENDBRANCH  66  67
ENDBRANCH  45  59
BRANCH  46  71
ATOM     71  C   UNL     1      -8.289  -1.728  -6.703  1.00  0.00     0.058 A 
ATOM     72  C   UNL     1      -7.816  -2.306  -7.889  1.00  0.00     0.135 A 
ATOM     73  C   UNL     1      -8.823  -2.585  -5.726  1.00  0.00     0.135 A 
ATOM     74  F   UNL     1      -7.306  -1.529  -8.857  1.00  0.00    -0.206 F 
ATOM     75  C   UNL     1      -7.867  -3.681  -8.101  1.00  0.00     0.059 A 
ATOM     76  C   UNL     1      -8.861  -3.964  -5.904  1.00  0.00     0.059 A 
ATOM     77  F   UNL     1      -9.277  -2.084  -4.567  1.00  0.00    -0.206 F 
ATOM     78  C   UNL     1      -8.386  -4.503  -7.098  1.00  0.00     0.060 A 
BRANCH  78  79
ATOM     79  S   UNL     1      -8.377  -6.292  -7.345  1.00  0.00     0.124 S 
ATOM     80  O   UNL     1      -9.497  -6.467  -8.262  1.00  0.00    -0.237 OA
ATOM     81  O   UNL     1      -7.049  -6.521  -7.907  1.00  0.00    -0.237 OA
ATOM     82  O   UNL     1      -8.575  -6.817  -5.997  1.00  0.00    -0.744 OA
ENDBRANCH  78  79
ENDBRANCH  46  71
BRANCH  58  83
ATOM     83  C   UNL     1     -11.579   3.871  -9.252  1.00  0.00     0.058 A 
ATOM     84  C   UNL     1     -12.914   3.529  -8.995  1.00  0.00     0.135 A 
ATOM     85  C   UNL     1     -11.263   4.411 -10.508  1.00  0.00     0.135 A 
ATOM     86  F   UNL     1     -13.261   3.002  -7.810  1.00  0.00    -0.206 F 
ATOM     87  C   UNL     1     -13.902   3.701  -9.958  1.00  0.00     0.059 A 
ATOM     88  C   UNL     1     -12.238   4.612 -11.478  1.00  0.00     0.059 A 
ATOM     89  F   UNL     1      -9.999   4.761 -10.796  1.00  0.00    -0.206 F 
ATOM     90  C   UNL     1     -13.553   4.243 -11.197  1.00  0.00     0.060 A 
BRANCH  90  91
ATOM     91  S   UNL     1     -14.848   4.490 -12.430  1.00  0.00     0.124 S 
ATOM     92  O   UNL     1     -15.050   3.130 -12.918  1.00  0.00    -0.237 OA
ATOM     93  O   UNL     1     -15.938   5.046 -11.634  1.00  0.00    -0.237 OA
ATOM     94  O   UNL     1     -14.238   5.416 -13.379  1.00  0.00    -0.744 OA
ENDBRANCH  90  91
ENDBRANCH  58  83
ENDBRANCH  32  33
ENDBRANCH  25  27
ENDBRANCH  24  25
ENDBRANCH  23  24
ENDBRANCH   1  23
TORSDOF 20
