REMARK SMILES Cc1cccc(C[N@@H+](C)C[C@]2(C(=O)OCCOC(=O)c3ccc(-c4c5nc(c(-c6c(F)cc(S(=O)(=O)[O-])cc6F)c6ccc([nH]6)c(-c6c(F)cc(S(=O)(=O)[O-])cc6F)c6nc(c(-c7c(F)cc(S(=O)(=O)[O-])cc7F)c7ccc4[nH]7)C=C6)C=C5)cc3)CCOC2)n1
REMARK SMILES IDX 15 1 14 2 12 3 13 4 11 5 86 6 89 7 87 8 88 9 10 10 8 11 9 12
REMARK SMILES IDX 7 14 6 15 1 16 2 17 3 18 90 19 4 20 5 21 16 22 17 23 18 24
REMARK SMILES IDX 19 25 20 26 21 27 85 28 22 29 84 30 23 31 24 32 25 33 78 34
REMARK SMILES IDX 26 35 83 36 77 37 79 38 27 39 82 40 76 41 75 42 28 44 62 45
REMARK SMILES IDX 41 46 61 47 42 48 45 49 60 50 80 51 43 52 44 53 59 55 81 56
REMARK SMILES IDX 46 57 29 58 30 59 39 60 31 61 32 62 38 63 40 64 33 65 34 66
REMARK SMILES IDX 35 67 36 68 37 69 63 70 64 71 73 72 65 73 66 74 72 75 74 76
REMARK SMILES IDX 67 77 68 78 69 79 70 80 71 81 47 82 48 83 57 84 49 85 50 86
REMARK SMILES IDX 56 87 58 88 51 89 52 90 53 91 54 92 55 93
REMARK H PARENT 8 13 79 43 45 54
REMARK Flexibility Score: inf
ROOT
ATOM      1  C   UNL     1      -5.138   2.646  -0.450  1.00  0.00     0.274 C 
ENDROOT
BRANCH   1   2
ATOM      2  O   UNL     1      -4.991   2.752   0.992  1.00  0.00    -0.461 OA
BRANCH   2   3
ATOM      3  C   UNL     1      -5.092   1.601   1.738  1.00  0.00     0.320 C 
ATOM      4  O   UNL     1      -5.516   0.538   1.301  1.00  0.00    -0.251 OA
BRANCH   3   5
ATOM      5  C   UNL     1      -4.455   1.770   3.119  1.00  0.00     0.142 C 
ATOM      6  C   UNL     1      -4.901   3.076   3.777  1.00  0.00     0.055 C 
ATOM      7  C   UNL     1      -5.047   0.787   4.138  1.00  0.00     0.185 C 
ATOM      8  C   UNL     1      -4.689   2.810   5.247  1.00  0.00     0.161 C 
ATOM      9  O   UNL     1      -4.981   1.420   5.434  1.00  0.00    -0.380 OA
BRANCH   5  10
ATOM     10  C   UNL     1      -2.918   1.492   3.103  1.00  0.00     0.283 C 
BRANCH  10  11
ATOM     11  N   UNL     1      -2.055   2.128   2.108  1.00  0.00    -0.331 N 
ATOM     12  C   UNL     1      -2.212   3.579   2.124  1.00  0.00     0.333 C 
ATOM     13  H   UNL     1      -1.071   2.014   2.354  1.00  0.00     0.348 HD
BRANCH  11  14
ATOM     14  C   UNL     1      -2.129   1.428   0.807  1.00  0.00     0.319 C 
BRANCH  14  15
ATOM     15  C   UNL     1      -1.440   0.080   0.693  1.00  0.00     0.095 A 
ATOM     16  C   UNL     1       2.027  -1.085   0.337  1.00  0.00     0.067 C 
ATOM     17  C   UNL     1       0.532  -1.105   0.405  1.00  0.00     0.038 A 
ATOM     18  C   UNL     1      -0.165  -2.267   0.093  1.00  0.00     0.023 A 
ATOM     19  N   UNL     1      -0.086   0.066   0.688  1.00  0.00    -0.252 NA
ATOM     20  C   UNL     1      -1.553  -2.240   0.102  1.00  0.00     0.004 A 
ATOM     21  C   UNL     1      -2.203  -1.052   0.405  1.00  0.00     0.030 A 
ENDBRANCH  14  15
ENDBRANCH  11  14
ENDBRANCH  10  11
ENDBRANCH   5  10
ENDBRANCH   3   5
ENDBRANCH   2   3
ENDBRANCH   1   2
BRANCH   1  22
ATOM     22  C   UNL     1      -4.417   3.808  -1.190  1.00  0.00     0.275 C 
BRANCH  22  23
ATOM     23  O   UNL     1      -2.966   3.753  -1.110  1.00  0.00    -0.458 OA
BRANCH  23  24
ATOM     24  C   UNL     1      -2.294   4.729  -1.809  1.00  0.00     0.338 C 
ATOM     25  O   UNL     1      -2.842   5.577  -2.502  1.00  0.00    -0.246 OA
BRANCH  24  26
ATOM     26  C   UNL     1      -0.799   4.682  -1.631  1.00  0.00     0.060 A 
ATOM     27  C   UNL     1      -0.235   4.006  -0.562  1.00  0.00     0.016 A 
ATOM     28  C   UNL     1       0.086   5.371  -2.462  1.00  0.00     0.016 A 
ATOM     29  C   UNL     1       1.118   3.992  -0.269  1.00  0.00     0.010 A 
ATOM     30  C   UNL     1       1.482   5.344  -2.208  1.00  0.00     0.010 A 
ATOM     31  C   UNL     1       2.005   4.652  -1.101  1.00  0.00    -0.014 A 
BRANCH  31  32
ATOM     32  C   UNL     1       3.429   4.674  -0.681  1.00  0.00     0.031 A 
ATOM     33  C   UNL     1       4.000   5.939  -0.115  1.00  0.00     0.074 A 
ATOM     34  C   UNL     1       4.139   3.530  -0.600  1.00  0.00     0.049 A 
ATOM     35  N   UNL     1       5.236   6.222   0.196  1.00  0.00    -0.248 NA
ATOM     36  C   UNL     1       3.045   7.025   0.160  1.00  0.00     0.031 C 
ATOM     37  C   UNL     1       3.619   2.196  -0.908  1.00  0.00     0.029 A 
ATOM     38  N   UNL     1       5.427   3.290  -0.185  1.00  0.00    -0.354 N 
ATOM     39  C   UNL     1       5.221   7.540   0.631  1.00  0.00     0.074 A 
ATOM     40  C   UNL     1       3.846   7.986   0.598  1.00  0.00     0.031 C 
ATOM     41  C   UNL     1       4.562   1.282  -0.631  1.00  0.00     0.029 A 
ATOM     42  C   UNL     1       5.782   1.960  -0.220  1.00  0.00     0.049 A 
ATOM     43  H   UNL     1       6.039   4.002   0.110  1.00  0.00     0.167 HD
ATOM     44  C   UNL     1       6.278   8.311   0.980  1.00  0.00     0.037 A 
ATOM     45  C   UNL     1       6.968   1.358   0.002  1.00  0.00     0.037 A 
ATOM     46  C   UNL     1       7.631   7.823   1.018  1.00  0.00     0.049 A 
ATOM     47  C   UNL     1       8.148   2.239   0.307  1.00  0.00     0.074 A 
ATOM     48  C   UNL     1       8.806   8.526   1.209  1.00  0.00     0.029 A 
ATOM     49  N   UNL     1       7.982   6.486   0.874  1.00  0.00    -0.354 N 
ATOM     50  N   UNL     1       8.171   3.536   0.510  1.00  0.00    -0.248 NA
ATOM     51  C   UNL     1       9.467   1.596   0.357  1.00  0.00     0.031 C 
ATOM     52  C   UNL     1       9.870   7.617   1.147  1.00  0.00     0.029 A 
ATOM     53  C   UNL     1       9.355   6.343   0.960  1.00  0.00     0.049 A 
ATOM     54  H   UNL     1       7.346   5.748   0.732  1.00  0.00     0.167 HD
ATOM     55  C   UNL     1       9.506   3.870   0.688  1.00  0.00     0.074 A 
ATOM     56  C   UNL     1      10.257   2.630   0.613  1.00  0.00     0.031 C 
ATOM     57  C   UNL     1      10.066   5.091   0.872  1.00  0.00     0.037 A 
BRANCH  44  58
ATOM     58  C   UNL     1       6.008   9.772   1.197  1.00  0.00     0.058 A 
ATOM     59  C   UNL     1       5.396  10.268   2.357  1.00  0.00     0.135 A 
ATOM     60  C   UNL     1       6.324  10.689   0.180  1.00  0.00     0.135 A 
ATOM     61  F   UNL     1       5.042   9.432   3.346  1.00  0.00    -0.206 F 
ATOM     62  C   UNL     1       5.077  11.619   2.489  1.00  0.00     0.059 A 
ATOM     63  C   UNL     1       6.034  12.044   0.298  1.00  0.00     0.059 A 
ATOM     64  F   UNL     1       6.898  10.265  -0.957  1.00  0.00    -0.206 F 
ATOM     65  C   UNL     1       5.391  12.497   1.448  1.00  0.00     0.060 A 
BRANCH  65  66
ATOM     66  S   UNL     1       4.934  14.237   1.605  1.00  0.00     0.124 S 
ATOM     67  O   UNL     1       3.492  14.180   1.382  1.00  0.00    -0.237 OA
ATOM     68  O   UNL     1       5.352  14.551   2.967  1.00  0.00    -0.237 OA
ATOM     69  O   UNL     1       5.705  14.887   0.550  1.00  0.00    -0.744 OA
ENDBRANCH  65  66
ENDBRANCH  44  58
BRANCH  45  70
ATOM     70  C   UNL     1       7.116  -0.119  -0.158  1.00  0.00     0.058 A 
ATOM     71  C   UNL     1       7.465  -0.947   0.921  1.00  0.00     0.135 A 
ATOM     72  C   UNL     1       6.892  -0.742  -1.399  1.00  0.00     0.135 A 
ATOM     73  F   UNL     1       7.716  -0.410   2.125  1.00  0.00    -0.206 F 
ATOM     74  C   UNL     1       7.577  -2.330   0.779  1.00  0.00     0.059 A 
ATOM     75  C   UNL     1       6.963  -2.122  -1.557  1.00  0.00     0.059 A 
ATOM     76  F   UNL     1       6.561  -0.006  -2.471  1.00  0.00    -0.206 F 
ATOM     77  C   UNL     1       7.315  -2.909  -0.464  1.00  0.00     0.060 A 
BRANCH  77  78
ATOM     78  S   UNL     1       7.381  -4.708  -0.632  1.00  0.00     0.124 S 
ATOM     79  O   UNL     1       8.817  -4.943  -0.719  1.00  0.00    -0.237 OA
ATOM     80  O   UNL     1       6.731  -5.160   0.594  1.00  0.00    -0.237 OA
ATOM     81  O   UNL     1       6.624  -4.955  -1.857  1.00  0.00    -0.744 OA
ENDBRANCH  77  78
ENDBRANCH  45  70
BRANCH  57  82
ATOM     82  C   UNL     1      11.559   5.134   0.999  1.00  0.00     0.058 A 
ATOM     83  C   UNL     1      12.388   5.003  -0.126  1.00  0.00     0.135 A 
ATOM     84  C   UNL     1      12.161   5.351   2.246  1.00  0.00     0.135 A 
ATOM     85  F   UNL     1      11.855   4.786  -1.338  1.00  0.00    -0.206 F 
ATOM     86  C   UNL     1      13.771   5.068  -0.014  1.00  0.00     0.059 A 
ATOM     87  C   UNL     1      13.542   5.440   2.378  1.00  0.00     0.059 A 
ATOM     88  F   UNL     1      11.406   5.489   3.348  1.00  0.00    -0.206 F 
ATOM     89  C   UNL     1      14.339   5.287   1.244  1.00  0.00     0.060 A 
BRANCH  89  90
ATOM     90  S   UNL     1      16.135   5.403   1.374  1.00  0.00     0.124 S 
ATOM     91  O   UNL     1      16.526   4.000   1.288  1.00  0.00    -0.237 OA
ATOM     92  O   UNL     1      16.481   6.231   0.223  1.00  0.00    -0.237 OA
ATOM     93  O   UNL     1      16.338   6.035   2.675  1.00  0.00    -0.744 OA
ENDBRANCH  89  90
ENDBRANCH  57  82
ENDBRANCH  31  32
ENDBRANCH  24  26
ENDBRANCH  23  24
ENDBRANCH  22  23
ENDBRANCH   1  22
TORSDOF 18
