REMARK SMILES Cc1cc(C)n([C@@H](C(=O)OCCOC(=O)c2ccc(-c3c4nc(c(-c5c(F)cc(S(=O)(=O)[O-])cc5F)c5ccc([nH]5)c(-c5c(F)cc(S(=O)(=O)[O-])cc5F)c5nc(c(-c6c(F)cc(S(=O)(=O)[O-])cc6F)c6ccc3[nH]6)C=C5)C=C4)cc2)C(C)C)n1
REMARK SMILES IDX 12 1 11 2 10 3 8 4 9 5 7 6 6 7 1 8 2 9 3 10 85 11 4 12 5 13
REMARK SMILES IDX 82 14 83 15 84 16 13 17 14 18 15 19 16 20 17 21 81 22 18 23
REMARK SMILES IDX 80 24 19 25 20 26 21 27 74 28 22 29 79 30 73 31 75 32 23 33
REMARK SMILES IDX 78 34 72 35 71 36 24 38 58 39 37 40 57 41 38 42 41 43 56 44
REMARK SMILES IDX 76 45 39 46 40 47 55 49 77 50 42 51 25 52 26 53 35 54 27 55
REMARK SMILES IDX 28 56 34 57 36 58 29 59 30 60 31 61 32 62 33 63 59 64 60 65
REMARK SMILES IDX 69 66 61 67 62 68 68 69 70 70 63 71 64 72 65 73 66 74 67 75
REMARK SMILES IDX 43 76 44 77 53 78 45 79 46 80 52 81 54 82 47 83 48 84 49 85
REMARK SMILES IDX 50 86 51 87
REMARK H PARENT 75 37 41 48
REMARK Flexibility Score: inf
ROOT
ATOM      1  C   UNL     1       2.533   1.400  -6.982  1.00  0.00     0.275 C 
ENDROOT
BRANCH   1   2
ATOM      2  C   UNL     1       2.772   2.523  -5.981  1.00  0.00     0.274 C 
BRANCH   2   3
ATOM      3  O   UNL     1       1.864   2.347  -4.877  1.00  0.00    -0.460 OA
BRANCH   3   4
ATOM      4  C   UNL     1       1.136   3.436  -4.516  1.00  0.00     0.331 C 
ATOM      5  O   UNL     1       1.360   4.567  -4.947  1.00  0.00    -0.250 OA
BRANCH   4   6
ATOM      6  C   UNL     1       0.030   3.143  -3.508  1.00  0.00     0.219 C 
BRANCH   6   7
ATOM      7  N   UNL     1       0.187   1.847  -2.820  1.00  0.00    -0.255 N 
ATOM      8  C   UNL     1       1.237   0.300   0.209  1.00  0.00     0.069 C 
ATOM      9  C   UNL     1       0.721   0.641  -1.134  1.00  0.00     0.060 A 
ATOM     10  C   UNL     1       0.102  -0.219  -2.047  1.00  0.00     0.048 A 
ATOM     11  N   UNL     1       0.795   1.889  -1.601  1.00  0.00    -0.177 NA
ATOM     12  C   UNL     1      -0.261   0.572  -3.116  1.00  0.00     0.037 A 
ATOM     13  C   UNL     1      -0.985   0.111  -4.319  1.00  0.00     0.066 C 
ENDBRANCH   6   7
BRANCH   6  14
ATOM     14  C   UNL     1      -1.420   3.483  -3.963  1.00  0.00     0.019 C 
ATOM     15  C   UNL     1      -2.359   3.541  -2.750  1.00  0.00     0.010 C 
ATOM     16  C   UNL     1      -1.545   4.804  -4.735  1.00  0.00     0.010 C 
ENDBRANCH   6  14
ENDBRANCH   4   6
ENDBRANCH   3   4
ENDBRANCH   2   3
ENDBRANCH   1   2
BRANCH   1  17
ATOM     17  O   UNL     1       1.513   1.691  -7.953  1.00  0.00    -0.458 OA
BRANCH  17  18
ATOM     18  C   UNL     1       0.237   1.663  -7.494  1.00  0.00     0.338 C 
ATOM     19  O   UNL     1      -0.206   2.265  -6.548  1.00  0.00    -0.246 OA
BRANCH  18  20
ATOM     20  C   UNL     1      -0.537   0.645  -8.229  1.00  0.00     0.060 A 
ATOM     21  C   UNL     1      -1.737   0.216  -7.653  1.00  0.00     0.016 A 
ATOM     22  C   UNL     1      -0.063   0.071  -9.411  1.00  0.00     0.016 A 
ATOM     23  C   UNL     1      -2.421  -0.842  -8.217  1.00  0.00     0.010 A 
ATOM     24  C   UNL     1      -0.782  -0.950 -10.011  1.00  0.00     0.010 A 
ATOM     25  C   UNL     1      -1.948  -1.417  -9.404  1.00  0.00    -0.014 A 
BRANCH  25  26
ATOM     26  C   UNL     1      -2.865  -2.308 -10.110  1.00  0.00     0.031 A 
ATOM     27  C   UNL     1      -4.193  -1.679 -10.365  1.00  0.00     0.074 A 
ATOM     28  C   UNL     1      -2.544  -3.508 -10.631  1.00  0.00     0.049 A 
ATOM     29  N   UNL     1      -5.338  -2.031  -9.883  1.00  0.00    -0.248 NA
ATOM     30  C   UNL     1      -4.220  -0.396 -11.090  1.00  0.00     0.031 C 
ATOM     31  C   UNL     1      -1.223  -4.131 -10.702  1.00  0.00     0.029 A 
ATOM     32  N   UNL     1      -3.333  -4.382 -11.319  1.00  0.00    -0.354 N 
ATOM     33  C   UNL     1      -6.266  -1.159 -10.445  1.00  0.00     0.074 A 
ATOM     34  C   UNL     1      -5.510  -0.071 -11.005  1.00  0.00     0.031 C 
ATOM     35  C   UNL     1      -1.261  -5.148 -11.592  1.00  0.00     0.029 A 
ATOM     36  C   UNL     1      -2.627  -5.328 -12.056  1.00  0.00     0.049 A 
ATOM     37  H   UNL     1      -4.316  -4.346 -11.297  1.00  0.00     0.167 HD
ATOM     38  C   UNL     1      -7.554  -1.546 -10.649  1.00  0.00     0.037 A 
ATOM     39  C   UNL     1      -3.122  -6.144 -13.023  1.00  0.00     0.037 A 
ATOM     40  C   UNL     1      -7.902  -2.667  -9.810  1.00  0.00     0.049 A 
ATOM     41  C   UNL     1      -4.589  -6.245 -12.804  1.00  0.00     0.074 A 
ATOM     42  C   UNL     1      -7.858  -2.915  -8.450  1.00  0.00     0.029 A 
ATOM     43  N   UNL     1      -8.038  -3.898 -10.405  1.00  0.00    -0.354 N 
ATOM     44  N   UNL     1      -5.134  -6.835 -11.775  1.00  0.00    -0.248 NA
ATOM     45  C   UNL     1      -5.449  -5.311 -13.514  1.00  0.00     0.031 C 
ATOM     46  C   UNL     1      -7.464  -4.281  -8.337  1.00  0.00     0.029 A 
ATOM     47  C   UNL     1      -7.362  -4.800  -9.628  1.00  0.00     0.049 A 
ATOM     48  H   UNL     1      -8.529  -4.094 -11.235  1.00  0.00     0.167 HD
ATOM     49  C   UNL     1      -6.215  -6.033 -11.445  1.00  0.00     0.074 A 
ATOM     50  C   UNL     1      -6.417  -5.170 -12.606  1.00  0.00     0.031 C 
ATOM     51  C   UNL     1      -6.666  -5.949 -10.159  1.00  0.00     0.037 A 
BRANCH  38  52
ATOM     52  C   UNL     1      -8.334  -1.199 -11.900  1.00  0.00     0.058 A 
ATOM     53  C   UNL     1      -9.687  -1.588 -11.990  1.00  0.00     0.135 A 
ATOM     54  C   UNL     1      -7.737  -0.796 -13.117  1.00  0.00     0.135 A 
ATOM     55  F   UNL     1     -10.357  -1.991 -10.899  1.00  0.00    -0.206 F 
ATOM     56  C   UNL     1     -10.360  -1.672 -13.209  1.00  0.00     0.059 A 
ATOM     57  C   UNL     1      -8.407  -0.818 -14.332  1.00  0.00     0.059 A 
ATOM     58  F   UNL     1      -6.447  -0.455 -13.212  1.00  0.00    -0.206 F 
ATOM     59  C   UNL     1      -9.701  -1.302 -14.377  1.00  0.00     0.060 A 
BRANCH  59  60
ATOM     60  S   UNL     1     -10.523  -1.512 -15.964  1.00  0.00     0.124 S 
ATOM     61  O   UNL     1     -10.545  -2.965 -16.085  1.00  0.00    -0.237 OA
ATOM     62  O   UNL     1     -11.810  -0.868 -15.722  1.00  0.00    -0.237 OA
ATOM     63  O   UNL     1      -9.641  -0.810 -16.891  1.00  0.00    -0.744 OA
ENDBRANCH  59  60
ENDBRANCH  38  52
BRANCH  39  64
ATOM     64  C   UNL     1      -2.480  -6.570 -14.300  1.00  0.00     0.058 A 
ATOM     65  C   UNL     1      -3.097  -7.520 -15.138  1.00  0.00     0.135 A 
ATOM     66  C   UNL     1      -1.411  -5.851 -14.872  1.00  0.00     0.135 A 
ATOM     67  F   UNL     1      -4.130  -8.249 -14.688  1.00  0.00    -0.206 F 
ATOM     68  C   UNL     1      -2.727  -7.693 -16.478  1.00  0.00     0.059 A 
ATOM     69  C   UNL     1      -1.014  -6.018 -16.198  1.00  0.00     0.059 A 
ATOM     70  F   UNL     1      -0.774  -4.889 -14.189  1.00  0.00    -0.206 F 
ATOM     71  C   UNL     1      -1.697  -6.917 -17.006  1.00  0.00     0.060 A 
BRANCH  71  72
ATOM     72  S   UNL     1      -1.344  -6.984 -18.779  1.00  0.00     0.124 S 
ATOM     73  O   UNL     1      -0.724  -8.298 -18.913  1.00  0.00    -0.237 OA
ATOM     74  O   UNL     1      -2.672  -6.842 -19.366  1.00  0.00    -0.237 OA
ATOM     75  O   UNL     1      -0.450  -5.848 -18.988  1.00  0.00    -0.744 OA
ENDBRANCH  71  72
ENDBRANCH  39  64
BRANCH  51  76
ATOM     76  C   UNL     1      -6.239  -6.997  -9.168  1.00  0.00     0.058 A 
ATOM     77  C   UNL     1      -4.914  -7.239  -8.766  1.00  0.00     0.135 A 
ATOM     78  C   UNL     1      -7.253  -7.688  -8.486  1.00  0.00     0.135 A 
ATOM     79  F   UNL     1      -3.892  -6.549  -9.293  1.00  0.00    -0.206 F 
ATOM     80  C   UNL     1      -4.612  -8.156  -7.756  1.00  0.00     0.059 A 
ATOM     81  C   UNL     1      -6.978  -8.579  -7.455  1.00  0.00     0.059 A 
ATOM     82  F   UNL     1      -8.543  -7.459  -8.785  1.00  0.00    -0.206 F 
ATOM     83  C   UNL     1      -5.653  -8.818  -7.103  1.00  0.00     0.060 A 
BRANCH  83  84
ATOM     84  S   UNL     1      -5.269  -9.941  -5.742  1.00  0.00     0.124 S 
ATOM     85  O   UNL     1      -4.663 -11.071  -6.437  1.00  0.00    -0.237 OA
ATOM     86  O   UNL     1      -4.365  -9.144  -4.918  1.00  0.00    -0.237 OA
ATOM     87  O   UNL     1      -6.574 -10.206  -5.139  1.00  0.00    -0.744 OA
ENDBRANCH  83  84
ENDBRANCH  51  76
ENDBRANCH  25  26
ENDBRANCH  18  20
ENDBRANCH  17  18
ENDBRANCH   1  17
TORSDOF 16
