REMARK SMILES Cc1c(C[NH2+]C[C@@H]2CCCO2)c(C(=O)OCCOC(=O)c2ccc(-c3c4nc(c(-c5c(F)cc(S(=O)(=O)[O-])cc5F)c5ccc([nH]5)c(-c5c(F)cc(S(=O)(=O)[O-])cc5F)c5nc(c(-c6c(F)cc(S(=O)(=O)[O-])cc6F)c6ccc3[nH]6)C=C5)C=C4)cc2)c(C)n1Cc1ccc(F)cc1
REMARK SMILES IDX 16 1 15 2 13 3 14 4 12 5 1 6 2 7 3 8 89 9 87 10 88 11 4 12
REMARK SMILES IDX 5 13 6 16 7 17 8 18 11 19 9 20 10 21 90 22 91 23 92 24 97 25
REMARK SMILES IDX 93 26 96 27 94 28 95 29 17 30 18 31 19 32 20 33 21 34 22 35
REMARK SMILES IDX 86 36 23 37 85 38 24 39 25 40 26 41 79 42 27 43 84 44 78 45
REMARK SMILES IDX 80 46 28 47 83 48 77 49 76 50 29 52 63 53 42 54 62 55 43 56
REMARK SMILES IDX 46 57 61 58 81 59 44 60 45 61 60 63 82 64 47 65 30 66 31 67
REMARK SMILES IDX 40 68 32 69 33 70 39 71 41 72 34 73 35 74 36 75 37 76 38 77
REMARK SMILES IDX 64 78 65 79 74 80 66 81 67 82 73 83 75 84 68 85 69 86 70 87
REMARK SMILES IDX 71 88 72 89 48 90 49 91 58 92 50 93 51 94 57 95 59 96 52 97
REMARK SMILES IDX 53 98 54 99 55 100 56 101
REMARK H PARENT 5 14 5 15 80 51 46 62
REMARK Flexibility Score: inf
ROOT
ATOM      1  C   UNL     1       1.292  -6.434  -3.912  1.00  0.00     0.275 C 
ENDROOT
BRANCH   1   2
ATOM      2  O   UNL     1       1.295  -5.114  -3.317  1.00  0.00    -0.458 OA
BRANCH   2   3
ATOM      3  C   UNL     1       0.065  -4.568  -3.070  1.00  0.00     0.340 C 
ATOM      4  O   UNL     1      -1.009  -5.158  -3.273  1.00  0.00    -0.246 OA
BRANCH   3   5
ATOM      5  C   UNL     1       0.132  -3.167  -2.644  1.00  0.00     0.089 A 
ATOM      6  C   UNL     1       1.115  -0.318  -0.428  1.00  0.00     0.065 C 
ATOM      7  C   UNL     1       0.630  -1.275  -1.469  1.00  0.00     0.025 A 
ATOM      8  C   UNL     1       0.815  -2.658  -1.494  1.00  0.00     0.042 A 
ATOM      9  N   UNL     1      -0.103  -0.926  -2.598  1.00  0.00    -0.343 N 
ATOM     10  C   UNL     1      -0.562  -2.094  -3.200  1.00  0.00     0.030 A 
ATOM     11  C   UNL     1      -1.592  -2.153  -4.278  1.00  0.00     0.065 C 
BRANCH   8  12
ATOM     12  C   UNL     1       1.492  -3.521  -0.460  1.00  0.00     0.300 C 
BRANCH  12  13
ATOM     13  N   UNL     1       0.422  -4.308   0.159  1.00  0.00    -0.340 N 
ATOM     14  H   UNL     1       0.003  -4.899  -0.558  1.00  0.00     0.346 HD
ATOM     15  H   UNL     1      -0.240  -3.641   0.557  1.00  0.00     0.346 HD
BRANCH  13  16
ATOM     16  C   UNL     1       0.869  -5.165   1.260  1.00  0.00     0.293 C 
BRANCH  16  17
ATOM     17  C   UNL     1       1.373  -4.498   2.559  1.00  0.00     0.173 C 
ATOM     18  C   UNL     1       0.747  -3.165   2.949  1.00  0.00     0.040 C 
ATOM     19  O   UNL     1       2.793  -4.298   2.490  1.00  0.00    -0.372 OA
ATOM     20  C   UNL     1       1.873  -2.460   3.666  1.00  0.00     0.031 C 
ATOM     21  C   UNL     1       3.113  -2.999   2.987  1.00  0.00     0.161 C 
ENDBRANCH  16  17
ENDBRANCH  13  16
ENDBRANCH  12  13
ENDBRANCH   8  12
BRANCH   9  22
ATOM     22  C   UNL     1      -0.475   0.441  -2.993  1.00  0.00     0.157 C 
BRANCH  22  23
ATOM     23  C   UNL     1       0.368   1.040  -4.104  1.00  0.00    -0.028 A 
ATOM     24  C   UNL     1       1.149   2.188  -3.869  1.00  0.00     0.008 A 
ATOM     25  C   UNL     1       0.322   0.534  -5.414  1.00  0.00     0.008 A 
ATOM     26  C   UNL     1       1.846   2.808  -4.913  1.00  0.00     0.039 A 
ATOM     27  C   UNL     1       1.022   1.149  -6.456  1.00  0.00     0.039 A 
ATOM     28  C   UNL     1       1.773   2.285  -6.198  1.00  0.00     0.123 A 
ATOM     29  F   UNL     1       2.418   2.893  -7.202  1.00  0.00    -0.207 F 
ENDBRANCH  22  23
ENDBRANCH   9  22
ENDBRANCH   3   5
ENDBRANCH   2   3
ENDBRANCH   1   2
BRANCH   1  30
ATOM     30  C   UNL     1       2.724  -6.892  -4.279  1.00  0.00     0.275 C 
BRANCH  30  31
ATOM     31  O   UNL     1       3.287  -7.935  -3.411  1.00  0.00    -0.458 OA
BRANCH  31  32
ATOM     32  C   UNL     1       4.485  -7.624  -2.810  1.00  0.00     0.338 C 
ATOM     33  O   UNL     1       4.940  -6.510  -2.740  1.00  0.00    -0.246 OA
BRANCH  32  34
ATOM     34  C   UNL     1       5.237  -8.827  -2.266  1.00  0.00     0.060 A 
ATOM     35  C   UNL     1       4.932  -9.347  -1.012  1.00  0.00     0.016 A 
ATOM     36  C   UNL     1       6.444  -9.255  -2.852  1.00  0.00     0.016 A 
ATOM     37  C   UNL     1       5.826 -10.255  -0.363  1.00  0.00     0.010 A 
ATOM     38  C   UNL     1       7.359 -10.147  -2.182  1.00  0.00     0.010 A 
ATOM     39  C   UNL     1       7.097 -10.652  -0.895  1.00  0.00    -0.014 A 
BRANCH  39  40
ATOM     40  C   UNL     1       8.216 -11.005   0.139  1.00  0.00     0.031 A 
ATOM     41  C   UNL     1       8.242  -9.848   1.083  1.00  0.00     0.074 A 
ATOM     42  C   UNL     1       9.149 -11.992   0.410  1.00  0.00     0.049 A 
ATOM     43  N   UNL     1       8.349  -8.606   0.695  1.00  0.00    -0.248 NA
ATOM     44  C   UNL     1       7.824 -10.021   2.478  1.00  0.00     0.031 C 
ATOM     45  C   UNL     1       9.400 -13.234  -0.331  1.00  0.00     0.029 A 
ATOM     46  N   UNL     1      10.105 -12.119   1.455  1.00  0.00    -0.354 N 
ATOM     47  C   UNL     1       8.390  -7.881   1.858  1.00  0.00     0.074 A 
ATOM     48  C   UNL     1       7.795  -8.745   2.863  1.00  0.00     0.031 C 
ATOM     49  C   UNL     1      10.314 -14.018   0.313  1.00  0.00     0.029 A 
ATOM     50  C   UNL     1      10.824 -13.352   1.510  1.00  0.00     0.049 A 
ATOM     51  H   UNL     1      10.262 -11.396   2.105  1.00  0.00     0.167 HD
ATOM     52  C   UNL     1       9.400  -6.983   2.030  1.00  0.00     0.037 A 
ATOM     53  C   UNL     1      11.789 -13.796   2.400  1.00  0.00     0.037 A 
ATOM     54  C   UNL     1      10.281  -7.306   3.119  1.00  0.00     0.049 A 
ATOM     55  C   UNL     1      12.319 -12.632   3.133  1.00  0.00     0.074 A 
ATOM     56  C   UNL     1      10.125  -7.747   4.418  1.00  0.00     0.029 A 
ATOM     57  N   UNL     1      11.586  -7.587   2.772  1.00  0.00    -0.354 N 
ATOM     58  N   UNL     1      13.147 -11.791   2.599  1.00  0.00    -0.248 NA
ATOM     59  C   UNL     1      12.053 -12.430   4.556  1.00  0.00     0.031 C 
ATOM     60  C   UNL     1      11.162  -8.696   4.620  1.00  0.00     0.029 A 
ATOM     61  C   UNL     1      12.025  -8.649   3.532  1.00  0.00     0.049 A 
ATOM     62  H   UNL     1      12.115  -7.108   2.095  1.00  0.00     0.167 HD
ATOM     63  C   UNL     1      13.165 -10.743   3.465  1.00  0.00     0.074 A 
ATOM     64  C   UNL     1      12.697 -11.274   4.728  1.00  0.00     0.031 C 
ATOM     65  C   UNL     1      13.034  -9.501   2.943  1.00  0.00     0.037 A 
BRANCH  52  66
ATOM     66  C   UNL     1       9.872  -6.255   0.806  1.00  0.00     0.058 A 
ATOM     67  C   UNL     1       9.677  -4.874   0.720  1.00  0.00     0.135 A 
ATOM     68  C   UNL     1      10.513  -6.894  -0.276  1.00  0.00     0.135 A 
ATOM     69  F   UNL     1       9.127  -4.204   1.747  1.00  0.00    -0.206 F 
ATOM     70  C   UNL     1      10.048  -4.160  -0.415  1.00  0.00     0.059 A 
ATOM     71  C   UNL     1      10.864  -6.208  -1.433  1.00  0.00     0.059 A 
ATOM     72  F   UNL     1      10.839  -8.194  -0.196  1.00  0.00    -0.206 F 
ATOM     73  C   UNL     1      10.617  -4.839  -1.496  1.00  0.00     0.060 A 
BRANCH  73  74
ATOM     74  S   UNL     1      10.965  -3.910  -3.005  1.00  0.00     0.124 S 
ATOM     75  O   UNL     1       9.791  -3.045  -3.116  1.00  0.00    -0.237 OA
ATOM     76  O   UNL     1      12.204  -3.225  -2.653  1.00  0.00    -0.237 OA
ATOM     77  O   UNL     1      11.062  -4.942  -4.030  1.00  0.00    -0.744 OA
ENDBRANCH  73  74
ENDBRANCH  52  66
BRANCH  53  78
ATOM     78  C   UNL     1      12.561 -15.060   2.820  1.00  0.00     0.058 A 
ATOM     79  C   UNL     1      13.894 -14.949   3.335  1.00  0.00     0.135 A 
ATOM     80  C   UNL     1      11.925 -16.266   3.143  1.00  0.00     0.135 A 
ATOM     81  F   UNL     1      14.650 -13.876   3.066  1.00  0.00    -0.206 F 
ATOM     82  C   UNL     1      14.476 -15.867   4.220  1.00  0.00     0.059 A 
ATOM     83  C   UNL     1      12.512 -17.231   4.001  1.00  0.00     0.059 A 
ATOM     84  F   UNL     1      10.674 -16.496   2.719  1.00  0.00    -0.206 F 
ATOM     85  C   UNL     1      13.761 -16.995   4.582  1.00  0.00     0.060 A 
BRANCH  85  86
ATOM     86  S   UNL     1      14.437 -18.056   5.895  1.00  0.00     0.124 S 
ATOM     87  O   UNL     1      15.692 -18.521   5.315  1.00  0.00    -0.237 OA
ATOM     88  O   UNL     1      14.564 -17.121   7.011  1.00  0.00    -0.237 OA
ATOM     89  O   UNL     1      13.410 -19.080   6.065  1.00  0.00    -0.744 OA
ENDBRANCH  85  86
ENDBRANCH  53  78
BRANCH  65  90
ATOM     90  C   UNL     1      13.759  -9.209   1.635  1.00  0.00     0.058 A 
ATOM     91  C   UNL     1      13.752  -9.997   0.460  1.00  0.00     0.135 A 
ATOM     92  C   UNL     1      14.562  -8.057   1.595  1.00  0.00     0.135 A 
ATOM     93  F   UNL     1      12.919 -11.037   0.306  1.00  0.00    -0.206 F 
ATOM     94  C   UNL     1      14.587  -9.723  -0.626  1.00  0.00     0.059 A 
ATOM     95  C   UNL     1      15.355  -7.729   0.496  1.00  0.00     0.059 A 
ATOM     96  F   UNL     1      14.577  -7.218   2.645  1.00  0.00    -0.206 F 
ATOM     97  C   UNL     1      15.401  -8.596  -0.591  1.00  0.00     0.060 A 
BRANCH  97  98
ATOM     98  S   UNL     1      16.512  -8.268  -1.978  1.00  0.00     0.124 S 
ATOM     99  O   UNL     1      17.587  -9.225  -1.731  1.00  0.00    -0.237 OA
ATOM    100  O   UNL     1      15.675  -8.552  -3.139  1.00  0.00    -0.237 OA
ATOM    101  O   UNL     1      16.880  -6.867  -1.790  1.00  0.00    -0.744 OA
ENDBRANCH  97  98
ENDBRANCH  65  90
ENDBRANCH  39  40
ENDBRANCH  32  34
ENDBRANCH  31  32
ENDBRANCH  30  31
ENDBRANCH   1  30
TORSDOF 20
