REMARK SMILES CC1=C(C)C[C@@H](C(=O)OCCOC(=O)c2ccc(-c3c4nc(c(-c5c(F)cc(S(=O)(=O)[O-])cc5F)c5ccc([nH]5)c(-c5c(F)cc(S(=O)(=O)[O-])cc5F)c5nc(c(-c6c(F)cc(S(=O)(=O)[O-])cc6F)c6ccc3[nH]6)C=C5)C=C4)cc2)[C@H](C(=O)NCc2cccnc2)C1
REMARK SMILES IDX 10 1 9 2 7 3 8 4 6 5 1 6 2 7 3 8 92 9 4 10 5 11 81 12 82 13
REMARK SMILES IDX 83 14 84 15 85 17 86 18 87 19 91 20 88 21 90 22 89 23 11 24
REMARK SMILES IDX 12 25 13 26 14 27 15 28 16 29 80 30 17 31 79 32 18 33 19 34
REMARK SMILES IDX 20 35 73 36 21 37 78 38 72 39 74 40 22 41 77 42 71 43 70 44
REMARK SMILES IDX 23 46 57 47 36 48 56 49 37 50 40 51 55 52 75 53 38 54 39 55
REMARK SMILES IDX 54 57 76 58 41 59 24 60 25 61 34 62 26 63 27 64 33 65 35 66
REMARK SMILES IDX 28 67 29 68 30 69 31 70 32 71 58 72 59 73 68 74 60 75 61 76
REMARK SMILES IDX 67 77 69 78 62 79 63 80 64 81 65 82 66 83 42 84 43 85 52 86
REMARK SMILES IDX 44 87 45 88 51 89 53 90 46 91 47 92 48 93 49 94 50 95
REMARK H PARENT 84 16 74 45 40 56
REMARK Flexibility Score: inf
ROOT
ATOM      1  C   UNL     1       2.817   0.034   5.867  1.00  0.00     0.274 C 
ENDROOT
BRANCH   1   2
ATOM      2  O   UNL     1       1.911   0.079   4.746  1.00  0.00    -0.462 OA
BRANCH   2   3
ATOM      3  C   UNL     1       0.785  -0.672   4.869  1.00  0.00     0.310 C 
ATOM      4  O   UNL     1       0.535  -1.393   5.829  1.00  0.00    -0.252 OA
BRANCH   3   5
ATOM      5  C   UNL     1      -0.109  -0.631   3.636  1.00  0.00     0.116 C 
ATOM      6  C   UNL     1       1.320  -0.015  -0.568  1.00  0.00     0.039 C 
ATOM      7  C   UNL     1       0.852  -0.312   0.835  1.00  0.00    -0.074 C 
ATOM      8  C   UNL     1       0.761  -1.553   1.352  1.00  0.00    -0.073 C 
ATOM      9  C   UNL     1       0.494   0.926   1.619  1.00  0.00     0.045 C 
ATOM     10  C   UNL     1       1.136  -2.818   0.618  1.00  0.00     0.039 C 
ATOM     11  C   UNL     1       0.289  -1.821   2.758  1.00  0.00     0.046 C 
ATOM     12  C   UNL     1      -0.182   0.752   2.979  1.00  0.00     0.097 C 
BRANCH  12  13
ATOM     13  C   UNL     1      -1.589   1.356   2.992  1.00  0.00     0.224 C 
ATOM     14  O   UNL     1      -1.814   2.376   3.650  1.00  0.00    -0.275 OA
ATOM     15  N   UNL     1      -2.644   0.854   2.314  1.00  0.00    -0.352 N 
ATOM     16  H   UNL     1      -3.477   1.360   2.449  1.00  0.00     0.163 HD
BRANCH  15  17
ATOM     17  C   UNL     1      -2.790  -0.279   1.430  1.00  0.00     0.153 C 
BRANCH  17  18
ATOM     18  C   UNL     1      -3.497  -1.445   2.060  1.00  0.00    -0.010 A 
ATOM     19  C   UNL     1      -3.176  -2.756   1.690  1.00  0.00     0.009 A 
ATOM     20  C   UNL     1      -4.544  -1.288   2.964  1.00  0.00     0.116 A 
ATOM     21  C   UNL     1      -3.854  -3.830   2.259  1.00  0.00     0.020 A 
ATOM     22  N   UNL     1      -5.227  -2.313   3.521  1.00  0.00    -0.264 NA
ATOM     23  C   UNL     1      -4.862  -3.561   3.167  1.00  0.00     0.111 A 
ENDBRANCH  17  18
ENDBRANCH  15  17
ENDBRANCH  12  13
ENDBRANCH   3   5
ENDBRANCH   2   3
ENDBRANCH   1   2
BRANCH   1  24
ATOM     24  C   UNL     1       2.596   1.190   6.848  1.00  0.00     0.275 C 
BRANCH  24  25
ATOM     25  O   UNL     1       1.306   1.115   7.479  1.00  0.00    -0.458 OA
BRANCH  25  26
ATOM     26  C   UNL     1       0.357   1.909   6.928  1.00  0.00     0.338 C 
ATOM     27  O   UNL     1       0.510   2.696   6.009  1.00  0.00    -0.246 OA
BRANCH  26  28
ATOM     28  C   UNL     1      -0.952   1.598   7.526  1.00  0.00     0.060 A 
ATOM     29  C   UNL     1      -1.911   0.970   6.728  1.00  0.00     0.016 A 
ATOM     30  C   UNL     1      -1.262   1.986   8.829  1.00  0.00     0.016 A 
ATOM     31  C   UNL     1      -3.190   0.731   7.221  1.00  0.00     0.010 A 
ATOM     32  C   UNL     1      -2.549   1.749   9.325  1.00  0.00     0.010 A 
ATOM     33  C   UNL     1      -3.522   1.132   8.519  1.00  0.00    -0.014 A 
BRANCH  33  34
ATOM     34  C   UNL     1      -4.912   0.965   9.006  1.00  0.00     0.031 A 
ATOM     35  C   UNL     1      -5.827   2.154   9.056  1.00  0.00     0.074 A 
ATOM     36  C   UNL     1      -5.355  -0.250   9.377  1.00  0.00     0.049 A 
ATOM     37  N   UNL     1      -7.036   2.247   9.547  1.00  0.00    -0.248 NA
ATOM     38  C   UNL     1      -5.312   3.406   8.478  1.00  0.00     0.031 C 
ATOM     39  C   UNL     1      -4.577  -1.488   9.313  1.00  0.00     0.029 A 
ATOM     40  N   UNL     1      -6.568  -0.641   9.883  1.00  0.00    -0.354 N 
ATOM     41  C   UNL     1      -7.420   3.569   9.357  1.00  0.00     0.074 A 
ATOM     42  C   UNL     1      -6.312   4.244   8.713  1.00  0.00     0.031 C 
ATOM     43  C   UNL     1      -5.331  -2.501   9.770  1.00  0.00     0.029 A 
ATOM     44  C   UNL     1      -6.627  -1.978  10.195  1.00  0.00     0.049 A 
ATOM     45  H   UNL     1      -7.323  -0.023  10.012  1.00  0.00     0.167 HD
ATOM     46  C   UNL     1      -8.590   4.163   9.691  1.00  0.00     0.037 A 
ATOM     47  C   UNL     1      -7.606  -2.692  10.783  1.00  0.00     0.037 A 
ATOM     48  C   UNL     1      -9.693   3.482  10.319  1.00  0.00     0.049 A 
ATOM     49  C   UNL     1      -8.880  -2.001  11.187  1.00  0.00     0.074 A 
ATOM     50  C   UNL     1     -10.915   3.998  10.713  1.00  0.00     0.029 A 
ATOM     51  N   UNL     1      -9.709   2.132  10.637  1.00  0.00    -0.354 N 
ATOM     52  N   UNL     1      -9.215  -0.741  11.042  1.00  0.00    -0.248 NA
ATOM     53  C   UNL     1      -9.903  -2.824  11.845  1.00  0.00     0.031 C 
ATOM     54  C   UNL     1     -11.661   2.965  11.291  1.00  0.00     0.029 A 
ATOM     55  C   UNL     1     -10.915   1.798  11.230  1.00  0.00     0.049 A 
ATOM     56  H   UNL     1      -8.970   1.503  10.467  1.00  0.00     0.167 HD
ATOM     57  C   UNL     1     -10.492  -0.623  11.578  1.00  0.00     0.074 A 
ATOM     58  C   UNL     1     -10.874  -1.942  12.041  1.00  0.00     0.031 C 
ATOM     59  C   UNL     1     -11.276   0.478  11.682  1.00  0.00     0.037 A 
BRANCH  46  60
ATOM     60  C   UNL     1      -8.720   5.632   9.412  1.00  0.00     0.058 A 
ATOM     61  C   UNL     1      -8.941   6.120   8.115  1.00  0.00     0.135 A 
ATOM     62  C   UNL     1      -8.636   6.564  10.459  1.00  0.00     0.135 A 
ATOM     63  F   UNL     1      -9.012   5.271   7.077  1.00  0.00    -0.206 F 
ATOM     64  C   UNL     1      -9.049   7.484   7.861  1.00  0.00     0.059 A 
ATOM     65  C   UNL     1      -8.760   7.931  10.230  1.00  0.00     0.059 A 
ATOM     66  F   UNL     1      -8.423   6.149  11.717  1.00  0.00    -0.206 F 
ATOM     67  C   UNL     1      -8.951   8.382   8.925  1.00  0.00     0.060 A 
BRANCH  67  68
ATOM     68  S   UNL     1      -9.088  10.151   8.586  1.00  0.00     0.124 S 
ATOM     69  O   UNL     1      -7.761  10.449   8.056  1.00  0.00    -0.237 OA
ATOM     70  O   UNL     1     -10.182  10.206   7.622  1.00  0.00    -0.237 OA
ATOM     71  O   UNL     1      -9.384  10.724   9.896  1.00  0.00    -0.744 OA
ENDBRANCH  67  68
ENDBRANCH  46  60
BRANCH  47  72
ATOM     72  C   UNL     1      -7.406  -4.139  11.051  1.00  0.00     0.058 A 
ATOM     73  C   UNL     1      -8.087  -5.114  10.308  1.00  0.00     0.135 A 
ATOM     74  C   UNL     1      -6.519  -4.575  12.047  1.00  0.00     0.135 A 
ATOM     75  F   UNL     1      -8.955  -4.746   9.354  1.00  0.00    -0.206 F 
ATOM     76  C   UNL     1      -7.900  -6.472  10.547  1.00  0.00     0.059 A 
ATOM     77  C   UNL     1      -6.301  -5.927  12.291  1.00  0.00     0.059 A 
ATOM     78  F   UNL     1      -5.838  -3.679  12.780  1.00  0.00    -0.206 F 
ATOM     79  C   UNL     1      -7.003  -6.869  11.541  1.00  0.00     0.060 A 
BRANCH  79  80
ATOM     80  S   UNL     1      -6.720  -8.632  11.809  1.00  0.00     0.124 S 
ATOM     81  O   UNL     1      -7.887  -9.000  12.601  1.00  0.00    -0.237 OA
ATOM     82  O   UNL     1      -6.684  -9.154  10.446  1.00  0.00    -0.237 OA
ATOM     83  O   UNL     1      -5.441  -8.661  12.514  1.00  0.00    -0.744 OA
ENDBRANCH  79  80
ENDBRANCH  47  72
BRANCH  59  84
ATOM     84  C   UNL     1     -12.632   0.298  12.301  1.00  0.00     0.058 A 
ATOM     85  C   UNL     1     -12.791   0.183  13.690  1.00  0.00     0.135 A 
ATOM     86  C   UNL     1     -13.785   0.285  11.501  1.00  0.00     0.135 A 
ATOM     87  F   UNL     1     -11.718   0.184  14.496  1.00  0.00    -0.206 F 
ATOM     88  C   UNL     1     -14.050   0.044  14.265  1.00  0.00     0.059 A 
ATOM     89  C   UNL     1     -15.054   0.165  12.056  1.00  0.00     0.059 A 
ATOM     90  F   UNL     1     -13.684   0.400  10.167  1.00  0.00    -0.206 F 
ATOM     91  C   UNL     1     -15.176   0.034  13.440  1.00  0.00     0.060 A 
BRANCH  91  92
ATOM     92  S   UNL     1     -16.810  -0.115  14.195  1.00  0.00     0.124 S 
ATOM     93  O   UNL     1     -16.882  -1.548  14.460  1.00  0.00    -0.237 OA
ATOM     94  O   UNL     1     -16.694   0.742  15.372  1.00  0.00    -0.237 OA
ATOM     95  O   UNL     1     -17.708   0.380  13.156  1.00  0.00    -0.744 OA
ENDBRANCH  91  92
ENDBRANCH  59  84
ENDBRANCH  33  34
ENDBRANCH  26  28
ENDBRANCH  25  26
ENDBRANCH  24  25
ENDBRANCH   1  24
TORSDOF 17
