REMARK SMILES CCN(Cc1ccccn1)c1nc(C)cc(C)c1C(=O)OCCOC(=O)c1ccc(-c2c3nc(c(-c4c(F)cc(S(=O)(=O)[O-])cc4F)c4ccc([nH]4)c(-c4c(F)cc(S(=O)(=O)[O-])cc4F)c4nc(c(-c5c(F)cc(S(=O)(=O)[O-])cc5F)c5ccc2[nH]5)C=C4)C=C3)cc1
REMARK SMILES IDX 22 1 21 2 19 3 20 4 18 5 11 6 12 7 13 8 16 9 14 10 15 11
REMARK SMILES IDX 17 12 3 13 2 14 1 15 4 16 5 17 6 18 10 19 7 20 9 21 8 22
REMARK SMILES IDX 23 23 24 24 25 25 26 26 27 27 28 28 92 29 29 30 91 31 30 32
REMARK SMILES IDX 31 33 32 34 85 35 33 36 90 37 84 38 86 39 34 40 89 41 83 42
REMARK SMILES IDX 82 43 35 45 69 46 48 47 68 48 49 49 52 50 67 51 87 52 50 53
REMARK SMILES IDX 51 54 66 56 88 57 53 58 36 59 37 60 46 61 38 62 39 63 45 64
REMARK SMILES IDX 47 65 40 66 41 67 42 68 43 69 44 70 70 71 71 72 80 73 72 74
REMARK SMILES IDX 73 75 79 76 81 77 74 78 75 79 76 80 77 81 78 82 54 83 55 84
REMARK SMILES IDX 64 85 56 86 57 87 63 88 65 89 58 90 59 91 60 92 61 93 62 94
REMARK H PARENT 86 44 52 55
REMARK Flexibility Score: inf
ROOT
ATOM      1  C   UNL     1       2.844  -1.878  -0.319  1.00  0.00     0.275 C 
ENDROOT
BRANCH   1   2
ATOM      2  O   UNL     1       3.340  -0.516  -0.335  1.00  0.00    -0.458 OA
BRANCH   2   3
ATOM      3  C   UNL     1       3.604   0.007  -1.566  1.00  0.00     0.342 C 
ATOM      4  O   UNL     1       3.558  -0.602  -2.624  1.00  0.00    -0.246 OA
BRANCH   3   5
ATOM      5  C   UNL     1       4.065   1.413  -1.455  1.00  0.00     0.105 A 
ATOM      6  C   UNL     1       3.205   2.516  -1.643  1.00  0.00     0.144 A 
ATOM      7  N   UNL     1       3.728   3.754  -1.762  1.00  0.00    -0.235 NA
ATOM      8  C   UNL     1       5.031   3.975  -1.519  1.00  0.00     0.040 A 
ATOM      9  C   UNL     1       5.451   1.628  -1.298  1.00  0.00    -0.031 A 
ATOM     10  C   UNL     1       5.422   5.413  -1.392  1.00  0.00     0.067 C 
ATOM     11  C   UNL     1       5.922   2.943  -1.276  1.00  0.00     0.028 A 
ATOM     12  C   UNL     1       6.412   0.489  -1.114  1.00  0.00     0.045 C 
BRANCH   6  13
ATOM     13  N   UNL     1       1.831   2.476  -1.647  1.00  0.00    -0.350 N 
BRANCH  13  14
ATOM     14  C   UNL     1       1.123   1.560  -0.794  1.00  0.00     0.115 C 
ATOM     15  C   UNL     1       0.570   0.457  -1.688  1.00  0.00     0.027 C 
ENDBRANCH  13  14
BRANCH  13  16
ATOM     16  C   UNL     1       1.024   3.489  -2.341  1.00  0.00     0.174 C 
BRANCH  16  17
ATOM     17  C   UNL     1       0.702   4.802  -1.626  1.00  0.00     0.060 A 
ATOM     18  C   UNL     1      -0.299   5.604  -2.190  1.00  0.00     0.026 A 
ATOM     19  N   UNL     1       1.421   5.216  -0.552  1.00  0.00    -0.259 NA
ATOM     20  C   UNL     1      -0.526   6.880  -1.682  1.00  0.00     0.004 A 
ATOM     21  C   UNL     1       1.187   6.465  -0.089  1.00  0.00     0.111 A 
ATOM     22  C   UNL     1       0.246   7.330  -0.623  1.00  0.00     0.020 A 
ENDBRANCH  16  17
ENDBRANCH  13  16
ENDBRANCH   6  13
ENDBRANCH   3   5
ENDBRANCH   2   3
ENDBRANCH   1   2
BRANCH   1  23
ATOM     23  C   UNL     1       2.081  -2.157   0.994  1.00  0.00     0.275 C 
BRANCH  23  24
ATOM     24  O   UNL     1       0.804  -1.476   1.011  1.00  0.00    -0.458 OA
BRANCH  24  25
ATOM     25  C   UNL     1       0.273  -1.144   2.225  1.00  0.00     0.338 C 
ATOM     26  O   UNL     1       0.752  -1.441   3.310  1.00  0.00    -0.246 OA
BRANCH  25  27
ATOM     27  C   UNL     1      -0.909  -0.234   2.059  1.00  0.00     0.060 A 
ATOM     28  C   UNL     1      -1.353   0.101   0.798  1.00  0.00     0.016 A 
ATOM     29  C   UNL     1      -1.496   0.436   3.130  1.00  0.00     0.016 A 
ATOM     30  C   UNL     1      -2.037   1.304   0.590  1.00  0.00     0.010 A 
ATOM     31  C   UNL     1      -2.396   1.511   2.902  1.00  0.00     0.010 A 
ATOM     32  C   UNL     1      -2.592   2.064   1.619  1.00  0.00    -0.014 A 
BRANCH  32  33
ATOM     33  C   UNL     1      -3.293   3.402   1.375  1.00  0.00     0.031 A 
ATOM     34  C   UNL     1      -3.297   4.465   2.471  1.00  0.00     0.074 A 
ATOM     35  C   UNL     1      -3.895   3.772   0.211  1.00  0.00     0.049 A 
ATOM     36  N   UNL     1      -4.172   5.412   2.717  1.00  0.00    -0.248 NA
ATOM     37  C   UNL     1      -2.184   4.438   3.434  1.00  0.00     0.031 C 
ATOM     38  C   UNL     1      -3.924   3.029  -1.049  1.00  0.00     0.029 A 
ATOM     39  N   UNL     1      -4.620   4.913  -0.103  1.00  0.00    -0.354 N 
ATOM     40  C   UNL     1      -3.799   5.980   3.936  1.00  0.00     0.074 A 
ATOM     41  C   UNL     1      -2.596   5.295   4.359  1.00  0.00     0.031 C 
ATOM     42  C   UNL     1      -4.519   3.753  -2.004  1.00  0.00     0.029 A 
ATOM     43  C   UNL     1      -5.136   4.909  -1.384  1.00  0.00     0.049 A 
ATOM     44  H   UNL     1      -4.753   5.657   0.527  1.00  0.00     0.167 HD
ATOM     45  C   UNL     1      -4.416   6.963   4.641  1.00  0.00     0.037 A 
ATOM     46  C   UNL     1      -6.098   5.638  -1.989  1.00  0.00     0.037 A 
ATOM     47  C   UNL     1      -5.521   7.739   4.132  1.00  0.00     0.049 A 
ATOM     48  C   UNL     1      -6.831   6.676  -1.194  1.00  0.00     0.074 A 
ATOM     49  C   UNL     1      -6.234   8.748   4.759  1.00  0.00     0.029 A 
ATOM     50  N   UNL     1      -6.043   7.625   2.851  1.00  0.00    -0.354 N 
ATOM     51  N   UNL     1      -6.631   7.054   0.044  1.00  0.00    -0.248 NA
ATOM     52  C   UNL     1      -7.951   7.354  -1.861  1.00  0.00     0.031 C 
ATOM     53  C   UNL     1      -7.212   9.213   3.871  1.00  0.00     0.029 A 
ATOM     54  C   UNL     1      -7.071   8.535   2.672  1.00  0.00     0.049 A 
ATOM     55  H   UNL     1      -5.727   6.989   2.169  1.00  0.00     0.167 HD
ATOM     56  C   UNL     1      -7.594   8.020   0.305  1.00  0.00     0.074 A 
ATOM     57  C   UNL     1      -8.364   8.184  -0.912  1.00  0.00     0.031 C 
ATOM     58  C   UNL     1      -7.822   8.703   1.453  1.00  0.00     0.037 A 
BRANCH  45  59
ATOM     59  C   UNL     1      -3.975   7.200   6.067  1.00  0.00     0.058 A 
ATOM     60  C   UNL     1      -2.741   7.769   6.413  1.00  0.00     0.135 A 
ATOM     61  C   UNL     1      -4.838   6.844   7.122  1.00  0.00     0.135 A 
ATOM     62  F   UNL     1      -1.871   8.129   5.456  1.00  0.00    -0.206 F 
ATOM     63  C   UNL     1      -2.355   7.926   7.745  1.00  0.00     0.059 A 
ATOM     64  C   UNL     1      -4.489   7.023   8.459  1.00  0.00     0.059 A 
ATOM     65  F   UNL     1      -6.041   6.308   6.860  1.00  0.00    -0.206 F 
ATOM     66  C   UNL     1      -3.233   7.540   8.761  1.00  0.00     0.060 A 
BRANCH  66  67
ATOM     67  S   UNL     1      -2.706   7.709  10.481  1.00  0.00     0.124 S 
ATOM     68  O   UNL     1      -1.732   6.628  10.594  1.00  0.00    -0.237 OA
ATOM     69  O   UNL     1      -2.157   9.061  10.510  1.00  0.00    -0.237 OA
ATOM     70  O   UNL     1      -3.941   7.521  11.237  1.00  0.00    -0.744 OA
ENDBRANCH  66  67
ENDBRANCH  45  59
BRANCH  46  71
ATOM     71  C   UNL     1      -6.518   5.310  -3.387  1.00  0.00     0.058 A 
ATOM     72  C   UNL     1      -6.295   6.203  -4.445  1.00  0.00     0.135 A 
ATOM     73  C   UNL     1      -7.117   4.075  -3.700  1.00  0.00     0.135 A 
ATOM     74  F   UNL     1      -5.753   7.406  -4.202  1.00  0.00    -0.206 F 
ATOM     75  C   UNL     1      -6.633   5.881  -5.758  1.00  0.00     0.059 A 
ATOM     76  C   UNL     1      -7.424   3.714  -5.008  1.00  0.00     0.059 A 
ATOM     77  F   UNL     1      -7.355   3.178  -2.730  1.00  0.00    -0.206 F 
ATOM     78  C   UNL     1      -7.183   4.627  -6.031  1.00  0.00     0.060 A 
BRANCH  78  79
ATOM     79  S   UNL     1      -7.527   4.180  -7.747  1.00  0.00     0.124 S 
ATOM     80  O   UNL     1      -8.703   4.992  -8.033  1.00  0.00    -0.237 OA
ATOM     81  O   UNL     1      -6.295   4.579  -8.419  1.00  0.00    -0.237 OA
ATOM     82  O   UNL     1      -7.755   2.739  -7.679  1.00  0.00    -0.744 OA
ENDBRANCH  78  79
ENDBRANCH  46  71
BRANCH  58  83
ATOM     83  C   UNL     1      -8.911   9.737   1.432  1.00  0.00     0.058 A 
ATOM     84  C   UNL     1     -10.270   9.385   1.423  1.00  0.00     0.135 A 
ATOM     85  C   UNL     1      -8.585  11.103   1.459  1.00  0.00     0.135 A 
ATOM     86  F   UNL     1     -10.633   8.094   1.380  1.00  0.00    -0.206 F 
ATOM     87  C   UNL     1     -11.269  10.353   1.424  1.00  0.00     0.059 A 
ATOM     88  C   UNL     1      -9.568  12.086   1.489  1.00  0.00     0.059 A 
ATOM     89  F   UNL     1      -7.300  11.491   1.470  1.00  0.00    -0.206 F 
ATOM     90  C   UNL     1     -10.907  11.701   1.462  1.00  0.00     0.060 A 
BRANCH  90  91
ATOM     91  S   UNL     1     -12.213  12.946   1.503  1.00  0.00     0.124 S 
ATOM     92  O   UNL     1     -12.719  12.887   0.135  1.00  0.00    -0.237 OA
ATOM     93  O   UNL     1     -13.107  12.427   2.533  1.00  0.00    -0.237 OA
ATOM     94  O   UNL     1     -11.503  14.172   1.857  1.00  0.00    -0.744 OA
ENDBRANCH  90  91
ENDBRANCH  58  83
ENDBRANCH  32  33
ENDBRANCH  25  27
ENDBRANCH  24  25
ENDBRANCH  23  24
ENDBRANCH   1  23
TORSDOF 18
