REMARK SMILES Cc1cccc(OC2(C(=O)OCCOC(=O)c3ccc(-c4c5nc(c(-c6c(F)cc(S(=O)(=O)[O-])cc6F)c6ccc([nH]6)c(-c6c(F)cc(S(=O)(=O)[O-])cc6F)c6nc(c(-c7c(F)cc(S(=O)(=O)[O-])cc7F)c7ccc4[nH]7)C=C6)C=C5)cc3)CCN(C(=O)c3cnc[nH]c3=O)CC2)c1
REMARK SMILES IDX 13 1 12 2 11 3 9 4 10 5 8 6 83 7 96 8 84 9 95 10 85 11 86 12
REMARK SMILES IDX 87 13 7 14 6 15 1 16 2 17 3 18 97 19 4 20 5 21 88 22 89 23
REMARK SMILES IDX 93 24 90 25 92 26 94 27 91 28 14 30 15 31 16 32 17 33 18 34
REMARK SMILES IDX 82 35 19 36 81 37 20 38 21 39 22 40 75 41 23 42 80 43 74 44
REMARK SMILES IDX 76 45 24 46 79 47 73 48 72 49 25 51 59 52 38 53 58 54 39 55
REMARK SMILES IDX 42 56 57 57 77 58 40 59 41 60 56 62 78 63 43 64 26 65 27 66
REMARK SMILES IDX 36 67 28 68 29 69 35 70 37 71 30 72 31 73 32 74 33 75 34 76
REMARK SMILES IDX 60 77 61 78 70 79 62 80 63 81 69 82 71 83 64 84 65 85 66 86
REMARK SMILES IDX 67 87 68 88 44 89 45 90 54 91 46 92 47 93 53 94 55 95 48 96
REMARK SMILES IDX 49 97 50 98 51 99 52 100
REMARK H PARENT 92 29 76 50 42 61
REMARK Flexibility Score: inf
ROOT
ATOM      1  C   UNL     1       1.595   4.317  -3.754  1.00  0.00     0.275 C 
ENDROOT
BRANCH   1   2
ATOM      2  C   UNL     1       0.826   5.237  -2.778  1.00  0.00     0.274 C 
BRANCH   2   3
ATOM      3  O   UNL     1       0.454   4.441  -1.659  1.00  0.00    -0.459 OA
BRANCH   3   4
ATOM      4  C   UNL     1      -0.223   4.955  -0.594  1.00  0.00     0.350 C 
ATOM      5  O   UNL     1      -0.779   6.041  -0.573  1.00  0.00    -0.247 OA
BRANCH   4   6
ATOM      6  C   UNL     1       0.140   4.069   0.617  1.00  0.00     0.209 C 
ATOM      7  C   UNL     1       1.690   4.264   0.558  1.00  0.00     0.082 C 
ATOM      8  C   UNL     1      -0.518   4.591   1.903  1.00  0.00     0.082 C 
ATOM      9  C   UNL     1       2.432   4.177   1.862  1.00  0.00     0.124 C 
ATOM     10  C   UNL     1       0.333   4.171   3.091  1.00  0.00     0.124 C 
ATOM     11  N   UNL     1       1.644   4.784   2.904  1.00  0.00    -0.338 N 
ATOM     12  C   UNL     1       1.910   6.085   3.308  1.00  0.00     0.261 C 
ATOM     13  O   UNL     1       2.583   6.890   2.674  1.00  0.00    -0.269 OA
BRANCH   6  14
ATOM     14  O   UNL     1      -0.494   2.806   0.395  1.00  0.00    -0.475 OA
BRANCH  14  15
ATOM     15  C   UNL     1      -0.057   1.552   0.667  1.00  0.00     0.121 A 
ATOM     16  C   UNL     1       2.940  -0.672   0.078  1.00  0.00     0.044 C 
ATOM     17  C   UNL     1       1.557  -0.253   0.471  1.00  0.00    -0.047 A 
ATOM     18  C   UNL     1       0.541  -1.198   0.623  1.00  0.00     0.003 A 
ATOM     19  C   UNL     1       1.249   1.114   0.533  1.00  0.00     0.050 A 
ATOM     20  C   UNL     1      -0.767  -0.774   0.832  1.00  0.00     0.004 A 
ATOM     21  C   UNL     1      -1.062   0.594   0.847  1.00  0.00     0.046 A 
ENDBRANCH  14  15
ENDBRANCH   6  14
BRANCH  12  22
ATOM     22  C   UNL     1       1.340   6.420   4.622  1.00  0.00     0.123 A 
ATOM     23  C   UNL     1       0.458   7.418   4.770  1.00  0.00     0.132 A 
ATOM     24  C   UNL     1       1.621   5.574   5.795  1.00  0.00     0.263 A 
ATOM     25  N   UNL     1      -0.220   7.690   5.937  1.00  0.00    -0.246 NA
ATOM     26  N   UNL     1       0.858   5.841   6.892  1.00  0.00    -0.312 N 
ATOM     27  O   UNL     1       2.464   4.684   5.809  1.00  0.00    -0.269 OA
ATOM     28  C   UNL     1      -0.012   6.889   6.925  1.00  0.00     0.199 A 
ATOM     29  H   UNL     1       0.938   5.260   7.683  1.00  0.00     0.171 HD
ENDBRANCH  12  22
ENDBRANCH   4   6
ENDBRANCH   3   4
ENDBRANCH   2   3
ENDBRANCH   1   2
BRANCH   1  30
ATOM     30  O   UNL     1       1.000   3.065  -4.197  1.00  0.00    -0.458 OA
BRANCH  30  31
ATOM     31  C   UNL     1       0.253   2.333  -3.304  1.00  0.00     0.338 C 
ATOM     32  O   UNL     1       0.752   1.616  -2.472  1.00  0.00    -0.246 OA
BRANCH  31  33
ATOM     33  C   UNL     1      -1.160   2.836  -3.377  1.00  0.00     0.060 A 
ATOM     34  C   UNL     1      -1.994   2.796  -2.246  1.00  0.00     0.016 A 
ATOM     35  C   UNL     1      -1.402   3.747  -4.397  1.00  0.00     0.016 A 
ATOM     36  C   UNL     1      -2.938   3.805  -2.043  1.00  0.00     0.010 A 
ATOM     37  C   UNL     1      -2.148   4.849  -4.099  1.00  0.00     0.010 A 
ATOM     38  C   UNL     1      -2.951   4.863  -2.950  1.00  0.00    -0.014 A 
BRANCH  38  39
ATOM     39  C   UNL     1      -3.996   5.866  -3.056  1.00  0.00     0.031 A 
ATOM     40  C   UNL     1      -4.000   7.054  -2.167  1.00  0.00     0.074 A 
ATOM     41  C   UNL     1      -4.772   5.584  -4.133  1.00  0.00     0.049 A 
ATOM     42  N   UNL     1      -5.017   7.489  -1.498  1.00  0.00    -0.248 NA
ATOM     43  C   UNL     1      -2.785   7.840  -1.890  1.00  0.00     0.031 C 
ATOM     44  C   UNL     1      -5.754   6.350  -4.865  1.00  0.00     0.029 A 
ATOM     45  N   UNL     1      -4.798   4.374  -4.848  1.00  0.00    -0.354 N 
ATOM     46  C   UNL     1      -4.685   8.784  -1.117  1.00  0.00     0.074 A 
ATOM     47  C   UNL     1      -3.247   8.838  -1.121  1.00  0.00     0.031 C 
ATOM     48  C   UNL     1      -6.517   5.490  -5.579  1.00  0.00     0.029 A 
ATOM     49  C   UNL     1      -6.089   4.132  -5.253  1.00  0.00     0.049 A 
ATOM     50  H   UNL     1      -4.021   3.796  -5.027  1.00  0.00     0.167 HD
ATOM     51  C   UNL     1      -5.583   9.802  -1.293  1.00  0.00     0.037 A 
ATOM     52  C   UNL     1      -6.820   3.158  -4.631  1.00  0.00     0.037 A 
ATOM     53  C   UNL     1      -6.696   9.292  -2.080  1.00  0.00     0.049 A 
ATOM     54  C   UNL     1      -7.908   3.835  -3.839  1.00  0.00     0.074 A 
ATOM     55  C   UNL     1      -6.899   9.325  -3.450  1.00  0.00     0.029 A 
ATOM     56  N   UNL     1      -7.536   8.315  -1.571  1.00  0.00    -0.354 N 
ATOM     57  N   UNL     1      -7.749   4.956  -3.184  1.00  0.00    -0.248 NA
ATOM     58  C   UNL     1      -9.294   3.388  -3.893  1.00  0.00     0.031 C 
ATOM     59  C   UNL     1      -7.880   8.361  -3.766  1.00  0.00     0.029 A 
ATOM     60  C   UNL     1      -8.212   7.692  -2.601  1.00  0.00     0.049 A 
ATOM     61  H   UNL     1      -7.636   8.098  -0.616  1.00  0.00     0.167 HD
ATOM     62  C   UNL     1      -8.988   5.442  -2.851  1.00  0.00     0.074 A 
ATOM     63  C   UNL     1      -9.916   4.412  -3.290  1.00  0.00     0.031 C 
ATOM     64  C   UNL     1      -9.210   6.683  -2.325  1.00  0.00     0.037 A 
BRANCH  51  65
ATOM     65  C   UNL     1      -5.295  11.292  -1.178  1.00  0.00     0.058 A 
ATOM     66  C   UNL     1      -5.982  12.231  -1.986  1.00  0.00     0.135 A 
ATOM     67  C   UNL     1      -4.400  11.864  -0.250  1.00  0.00     0.135 A 
ATOM     68  F   UNL     1      -6.917  11.858  -2.868  1.00  0.00    -0.206 F 
ATOM     69  C   UNL     1      -5.756  13.604  -1.935  1.00  0.00     0.059 A 
ATOM     70  C   UNL     1      -4.149  13.248  -0.185  1.00  0.00     0.059 A 
ATOM     71  F   UNL     1      -3.759  11.096   0.645  1.00  0.00    -0.206 F 
ATOM     72  C   UNL     1      -4.830  14.110  -1.039  1.00  0.00     0.060 A 
BRANCH  72  73
ATOM     73  S   UNL     1      -4.578  15.897  -1.013  1.00  0.00     0.124 S 
ATOM     74  O   UNL     1      -4.150  16.165  -2.384  1.00  0.00    -0.237 OA
ATOM     75  O   UNL     1      -5.905  16.390  -0.659  1.00  0.00    -0.237 OA
ATOM     76  O   UNL     1      -3.549  16.083   0.005  1.00  0.00    -0.744 OA
ENDBRANCH  72  73
ENDBRANCH  51  65
BRANCH  52  77
ATOM     77  C   UNL     1      -6.052   1.930  -4.228  1.00  0.00     0.058 A 
ATOM     78  C   UNL     1      -5.385   1.216  -5.250  1.00  0.00     0.135 A 
ATOM     79  C   UNL     1      -5.710   1.592  -2.909  1.00  0.00     0.135 A 
ATOM     80  F   UNL     1      -5.675   1.465  -6.538  1.00  0.00    -0.206 F 
ATOM     81  C   UNL     1      -4.346   0.325  -4.993  1.00  0.00     0.059 A 
ATOM     82  C   UNL     1      -4.678   0.679  -2.625  1.00  0.00     0.059 A 
ATOM     83  F   UNL     1      -6.304   2.203  -1.875  1.00  0.00    -0.206 F 
ATOM     84  C   UNL     1      -3.975   0.085  -3.677  1.00  0.00     0.060 A 
BRANCH  84  85
ATOM     85  S   UNL     1      -2.451  -0.853  -3.388  1.00  0.00     0.124 S 
ATOM     86  O   UNL     1      -2.889  -2.225  -3.619  1.00  0.00    -0.237 OA
ATOM     87  O   UNL     1      -1.558  -0.293  -4.399  1.00  0.00    -0.237 OA
ATOM     88  O   UNL     1      -2.134  -0.521  -2.007  1.00  0.00    -0.744 OA
ENDBRANCH  84  85
ENDBRANCH  52  77
BRANCH  64  89
ATOM     89  C   UNL     1     -10.474   7.119  -1.636  1.00  0.00     0.058 A 
ATOM     90  C   UNL     1     -11.361   6.218  -1.032  1.00  0.00     0.135 A 
ATOM     91  C   UNL     1     -10.752   8.494  -1.420  1.00  0.00     0.135 A 
ATOM     92  F   UNL     1     -11.129   4.897  -1.027  1.00  0.00    -0.206 F 
ATOM     93  C   UNL     1     -12.505   6.639  -0.368  1.00  0.00     0.059 A 
ATOM     94  C   UNL     1     -11.843   8.936  -0.686  1.00  0.00     0.059 A 
ATOM     95  F   UNL     1      -9.963   9.469  -1.897  1.00  0.00    -0.206 F 
ATOM     96  C   UNL     1     -12.740   7.999  -0.205  1.00  0.00     0.060 A 
BRANCH  96  97
ATOM     97  S   UNL     1     -14.216   8.532   0.664  1.00  0.00     0.124 S 
ATOM     98  O   UNL     1     -15.210   8.472  -0.403  1.00  0.00    -0.237 OA
ATOM     99  O   UNL     1     -14.349   7.521   1.710  1.00  0.00    -0.237 OA
ATOM    100  O   UNL     1     -13.869   9.868   1.135  1.00  0.00    -0.744 OA
ENDBRANCH  96  97
ENDBRANCH  64  89
ENDBRANCH  38  39
ENDBRANCH  31  33
ENDBRANCH  30  31
ENDBRANCH   1  30
TORSDOF 17
