REMARK SMILES CS(=O)(=O)N1C[C@@H]2C[N@H+](Cc3cccnc3N)C[C@]2(C(=O)OCCOC(=O)c2ccc(-c3c4nc(c(-c5c(F)cc(S(=O)(=O)[O-])cc5F)c5ccc([nH]5)c(-c5c(F)cc(S(=O)(=O)[O-])cc5F)c5nc(c(-c6c(F)cc(S(=O)(=O)[O-])cc6F)c6ccc3[nH]6)C=C5)C=C4)cc2)C1
REMARK SMILES IDX 23 1 22 2 20 3 21 4 19 5 5 6 6 7 94 8 7 9 8 10 18 11 9 12
REMARK SMILES IDX 2 14 1 15 3 16 4 17 10 18 11 19 12 20 16 21 13 22 15 23
REMARK SMILES IDX 14 24 17 25 24 28 25 29 26 30 27 31 28 32 29 33 93 34 30 35
REMARK SMILES IDX 92 36 31 37 32 38 33 39 86 40 34 41 91 42 85 43 87 44 35 45
REMARK SMILES IDX 90 46 84 47 83 48 36 50 70 51 49 52 69 53 50 54 53 55 68 56
REMARK SMILES IDX 88 57 51 58 52 59 67 61 89 62 54 63 37 64 38 65 47 66 39 67
REMARK SMILES IDX 40 68 46 69 48 70 41 71 42 72 43 73 44 74 45 75 71 76 72 77
REMARK SMILES IDX 81 78 73 79 74 80 80 81 82 82 75 83 76 84 77 85 78 86 79 87
REMARK SMILES IDX 55 88 56 89 65 90 57 91 58 92 64 93 66 94 59 95 60 96 61 97
REMARK SMILES IDX 62 98 63 99
REMARK H PARENT 9 13 17 26 17 27 87 49 53 60
REMARK Flexibility Score: inf
ROOT
ATOM      1  C   UNL     1      -1.001   7.447   2.883  1.00  0.00     0.274 C 
ENDROOT
BRANCH   1   2
ATOM      2  O   UNL     1       0.075   6.485   3.029  1.00  0.00    -0.461 OA
BRANCH   2   3
ATOM      3  C   UNL     1       0.279   5.673   1.943  1.00  0.00     0.319 C 
ATOM      4  O   UNL     1      -0.530   5.692   1.026  1.00  0.00    -0.251 OA
BRANCH   3   5
ATOM      5  C   UNL     1       1.560   4.695   2.086  1.00  0.00     0.140 C 
ATOM      6  N   UNL     1       1.343   2.309   1.132  1.00  0.00    -0.200 NA
ATOM      7  C   UNL     1       2.730   2.683   0.937  1.00  0.00     0.113 C 
ATOM      8  C   UNL     1       0.637   3.575   1.458  1.00  0.00     0.127 C 
ATOM      9  C   UNL     1       2.708   4.203   1.030  1.00  0.00     0.084 C 
ATOM     10  C   UNL     1       4.106   4.649   1.472  1.00  0.00     0.268 C 
ATOM     11  C   UNL     1       2.453   5.990   2.237  1.00  0.00     0.283 C 
ATOM     12  N   UNL     1       3.851   5.636   2.490  1.00  0.00    -0.330 N 
ATOM     13  H   UNL     1       4.487   6.431   2.424  1.00  0.00     0.348 HD
BRANCH   6  14
ATOM     14  S   UNL     1       0.592   1.457  -0.155  1.00  0.00     0.211 S 
ATOM     15  C   UNL     1       1.239  -0.182   0.063  1.00  0.00     0.176 C 
ATOM     16  O   UNL     1       1.100   2.014  -1.395  1.00  0.00    -0.213 OA
ATOM     17  O   UNL     1      -0.823   1.414   0.126  1.00  0.00    -0.213 OA
ENDBRANCH   6  14
BRANCH  12  18
ATOM     18  C   UNL     1       4.150   5.225   3.878  1.00  0.00     0.302 C 
BRANCH  18  19
ATOM     19  C   UNL     1       3.267   4.170   4.509  1.00  0.00     0.048 A 
ATOM     20  C   UNL     1       2.062   4.554   5.123  1.00  0.00     0.015 A 
ATOM     21  C   UNL     1       3.547   2.805   4.444  1.00  0.00     0.132 A 
ATOM     22  C   UNL     1       1.142   3.594   5.521  1.00  0.00     0.021 A 
ATOM     23  N   UNL     1       2.662   1.864   4.823  1.00  0.00    -0.239 NA
ATOM     24  C   UNL     1       1.476   2.270   5.324  1.00  0.00     0.113 A 
BRANCH  21  25
ATOM     25  N   UNL     1       4.717   2.304   3.913  1.00  0.00    -0.383 N 
ATOM     26  H   UNL     1       5.423   2.920   3.609  1.00  0.00     0.158 HD
ATOM     27  H   UNL     1       4.847   1.331   3.839  1.00  0.00     0.158 HD
ENDBRANCH  21  25
ENDBRANCH  18  19
ENDBRANCH  12  18
ENDBRANCH   3   5
ENDBRANCH   2   3
ENDBRANCH   1   2
BRANCH   1  28
ATOM     28  C   UNL     1      -0.727   8.585   1.870  1.00  0.00     0.275 C 
BRANCH  28  29
ATOM     29  O   UNL     1      -0.928   8.190   0.491  1.00  0.00    -0.458 OA
BRANCH  29  30
ATOM     30  C   UNL     1       0.186   8.107  -0.282  1.00  0.00     0.338 C 
ATOM     31  O   UNL     1       1.315   8.439   0.045  1.00  0.00    -0.246 OA
BRANCH  30  32
ATOM     32  C   UNL     1      -0.088   7.411  -1.559  1.00  0.00     0.060 A 
ATOM     33  C   UNL     1       0.361   6.095  -1.711  1.00  0.00     0.016 A 
ATOM     34  C   UNL     1      -0.659   8.069  -2.645  1.00  0.00     0.016 A 
ATOM     35  C   UNL     1       0.219   5.411  -2.915  1.00  0.00     0.010 A 
ATOM     36  C   UNL     1      -0.794   7.388  -3.865  1.00  0.00     0.010 A 
ATOM     37  C   UNL     1      -0.356   6.055  -4.010  1.00  0.00    -0.014 A 
BRANCH  37  38
ATOM     38  C   UNL     1      -0.436   5.367  -5.325  1.00  0.00     0.031 A 
ATOM     39  C   UNL     1       0.420   5.852  -6.460  1.00  0.00     0.074 A 
ATOM     40  C   UNL     1      -1.264   4.319  -5.502  1.00  0.00     0.049 A 
ATOM     41  N   UNL     1       0.357   5.558  -7.732  1.00  0.00    -0.248 NA
ATOM     42  C   UNL     1       1.489   6.803  -6.114  1.00  0.00     0.031 C 
ATOM     43  C   UNL     1      -2.072   3.692  -4.454  1.00  0.00     0.029 A 
ATOM     44  N   UNL     1      -1.580   3.608  -6.635  1.00  0.00    -0.354 N 
ATOM     45  C   UNL     1       1.342   6.322  -8.347  1.00  0.00     0.074 A 
ATOM     46  C   UNL     1       1.993   7.090  -7.307  1.00  0.00     0.031 C 
ATOM     47  C   UNL     1      -2.807   2.708  -4.997  1.00  0.00     0.029 A 
ATOM     48  C   UNL     1      -2.577   2.680  -6.438  1.00  0.00     0.049 A 
ATOM     49  H   UNL     1      -1.136   3.749  -7.502  1.00  0.00     0.167 HD
ATOM     50  C   UNL     1       1.661   6.380  -9.662  1.00  0.00     0.037 A 
ATOM     51  C   UNL     1      -3.269   1.936  -7.325  1.00  0.00     0.037 A 
ATOM     52  C   UNL     1       1.020   5.581 -10.675  1.00  0.00     0.049 A 
ATOM     53  C   UNL     1      -2.948   2.068  -8.791  1.00  0.00     0.074 A 
ATOM     54  C   UNL     1       1.270   5.554 -12.036  1.00  0.00     0.029 A 
ATOM     55  N   UNL     1       0.004   4.665 -10.437  1.00  0.00    -0.354 N 
ATOM     56  N   UNL     1      -2.044   2.822  -9.372  1.00  0.00    -0.248 NA
ATOM     57  C   UNL     1      -3.745   1.261  -9.726  1.00  0.00     0.031 C 
ATOM     58  C   UNL     1       0.370   4.662 -12.627  1.00  0.00     0.029 A 
ATOM     59  C   UNL     1      -0.400   4.087 -11.628  1.00  0.00     0.049 A 
ATOM     60  H   UNL     1      -0.373   4.458  -9.551  1.00  0.00     0.167 HD
ATOM     61  C   UNL     1      -2.145   2.560 -10.734  1.00  0.00     0.074 A 
ATOM     62  C   UNL     1      -3.193   1.573 -10.892  1.00  0.00     0.031 C 
ATOM     63  C   UNL     1      -1.433   3.087 -11.760  1.00  0.00     0.037 A 
BRANCH  50  64
ATOM     64  C   UNL     1       2.706   7.373 -10.093  1.00  0.00     0.058 A 
ATOM     65  C   UNL     1       4.069   7.202  -9.807  1.00  0.00     0.135 A 
ATOM     66  C   UNL     1       2.335   8.501 -10.846  1.00  0.00     0.135 A 
ATOM     67  F   UNL     1       4.480   6.152  -9.077  1.00  0.00    -0.206 F 
ATOM     68  C   UNL     1       5.023   8.123 -10.231  1.00  0.00     0.059 A 
ATOM     69  C   UNL     1       3.274   9.420 -11.304  1.00  0.00     0.059 A 
ATOM     70  F   UNL     1       1.045   8.717 -11.148  1.00  0.00    -0.206 F 
ATOM     71  C   UNL     1       4.616   9.229 -10.980  1.00  0.00     0.060 A 
BRANCH  71  72
ATOM     72  S   UNL     1       5.866  10.409 -11.531  1.00  0.00     0.124 S 
ATOM     73  O   UNL     1       6.220  11.067 -10.277  1.00  0.00    -0.237 OA
ATOM     74  O   UNL     1       6.890   9.538 -12.099  1.00  0.00    -0.237 OA
ATOM     75  O   UNL     1       5.151  11.241 -12.494  1.00  0.00    -0.744 OA
ENDBRANCH  71  72
ENDBRANCH  50  64
BRANCH  51  76
ATOM     76  C   UNL     1      -4.371   1.050  -6.857  1.00  0.00     0.058 A 
ATOM     77  C   UNL     1      -4.276  -0.346  -6.951  1.00  0.00     0.135 A 
ATOM     78  C   UNL     1      -5.546   1.585  -6.302  1.00  0.00     0.135 A 
ATOM     79  F   UNL     1      -3.182  -0.909  -7.487  1.00  0.00    -0.206 F 
ATOM     80  C   UNL     1      -5.307  -1.179  -6.526  1.00  0.00     0.059 A 
ATOM     81  C   UNL     1      -6.578   0.772  -5.841  1.00  0.00     0.059 A 
ATOM     82  F   UNL     1      -5.691   2.914  -6.184  1.00  0.00    -0.206 F 
ATOM     83  C   UNL     1      -6.454  -0.610  -5.969  1.00  0.00     0.060 A 
BRANCH  83  84
ATOM     84  S   UNL     1      -7.772  -1.702  -5.390  1.00  0.00     0.124 S 
ATOM     85  O   UNL     1      -8.332  -2.180  -6.649  1.00  0.00    -0.237 OA
ATOM     86  O   UNL     1      -7.034  -2.686  -4.605  1.00  0.00    -0.237 OA
ATOM     87  O   UNL     1      -8.632  -0.811  -4.616  1.00  0.00    -0.744 OA
ENDBRANCH  83  84
ENDBRANCH  51  76
BRANCH  63  88
ATOM     88  C   UNL     1      -1.718   2.575 -13.145  1.00  0.00     0.058 A 
ATOM     89  C   UNL     1      -2.873   2.946 -13.848  1.00  0.00     0.135 A 
ATOM     90  C   UNL     1      -0.772   1.776 -13.809  1.00  0.00     0.135 A 
ATOM     91  F   UNL     1      -3.813   3.700 -13.256  1.00  0.00    -0.206 F 
ATOM     92  C   UNL     1      -3.084   2.539 -15.162  1.00  0.00     0.059 A 
ATOM     93  C   UNL     1      -0.949   1.381 -15.130  1.00  0.00     0.059 A 
ATOM     94  F   UNL     1       0.354   1.400 -13.182  1.00  0.00    -0.206 F 
ATOM     95  C   UNL     1      -2.110   1.765 -15.798  1.00  0.00     0.060 A 
BRANCH  95  96
ATOM     96  S   UNL     1      -2.362   1.307 -17.526  1.00  0.00     0.124 S 
ATOM     97  O   UNL     1      -3.414   0.303 -17.415  1.00  0.00    -0.237 OA
ATOM     98  O   UNL     1      -2.757   2.575 -18.131  1.00  0.00    -0.237 OA
ATOM     99  O   UNL     1      -1.055   0.803 -17.939  1.00  0.00    -0.744 OA
ENDBRANCH  95  96
ENDBRANCH  63  88
ENDBRANCH  37  38
ENDBRANCH  30  32
ENDBRANCH  29  30
ENDBRANCH  28  29
ENDBRANCH   1  28
TORSDOF 18
