REMARK SMILES CC/C(=C/C(=O)[C@H](Cc1ccc(Cl)cc1Cl)C(=O)OCCOC(=O)c1ccc(-c2c3nc(c(-c4c(F)cc(S(=O)(=O)[O-])cc4F)c4ccc([nH]4)c(-c4c(F)cc(S(=O)(=O)[O-])cc4F)c4nc(c(-c5c(F)cc(S(=O)(=O)[O-])cc5F)c5ccc2[nH]5)C=C4)C=C3)cc1)N(C)C
REMARK SMILES IDX 20 1 19 2 17 3 18 4 7 5 5 6 6 7 4 8 3 9 2 10 1 11 91 12
REMARK SMILES IDX 92 13 93 14 8 15 9 16 10 17 15 18 11 19 14 20 16 21 12 22
REMARK SMILES IDX 13 23 21 24 22 25 23 26 24 27 25 28 26 29 90 30 27 31 89 32
REMARK SMILES IDX 28 33 29 34 30 35 83 36 31 37 88 38 82 39 84 40 32 41 87 42
REMARK SMILES IDX 81 43 80 44 33 46 67 47 46 48 66 49 47 50 50 51 65 52 85 53
REMARK SMILES IDX 48 54 49 55 64 57 86 58 51 59 34 60 35 61 44 62 36 63 37 64
REMARK SMILES IDX 43 65 45 66 38 67 39 68 40 69 41 70 42 71 68 72 69 73 78 74
REMARK SMILES IDX 70 75 71 76 77 77 79 78 72 79 73 80 74 81 75 82 76 83 52 84
REMARK SMILES IDX 53 85 62 86 54 87 55 88 61 89 63 90 56 91 57 92 58 93 59 94
REMARK SMILES IDX 60 95
REMARK H PARENT 84 45 50 56
REMARK Flexibility Score: inf
ROOT
ATOM      1  C   UNL     1       4.371   0.187   2.946  1.00  0.00     0.274 C 
ENDROOT
BRANCH   1   2
ATOM      2  O   UNL     1       3.645  -0.922   2.389  1.00  0.00    -0.461 OA
BRANCH   2   3
ATOM      3  C   UNL     1       3.569  -2.038   3.170  1.00  0.00     0.317 C 
ATOM      4  O   UNL     1       4.439  -2.348   3.972  1.00  0.00    -0.251 OA
BRANCH   3   5
ATOM      5  C   UNL     1       2.178  -2.660   3.103  1.00  0.00     0.175 C 
BRANCH   5   6
ATOM      6  C   UNL     1       2.144  -4.183   3.186  1.00  0.00     0.171 C 
ATOM      7  O   UNL     1       3.041  -4.842   3.712  1.00  0.00    -0.294 OA
BRANCH   6   8
ATOM      8  C   UNL     1       1.024  -4.948   2.581  1.00  0.00     0.069 C 
ATOM      9  C   UNL     1      -0.299  -4.731   2.723  1.00  0.00     0.016 C 
BRANCH   9  10
ATOM     10  C   UNL     1      -1.182  -5.393   1.664  1.00  0.00     0.050 C 
ATOM     11  C   UNL     1      -2.294  -6.278   2.200  1.00  0.00     0.010 C 
ENDBRANCH   9  10
BRANCH   9  12
ATOM     12  N   UNL     1      -0.904  -3.898   3.677  1.00  0.00    -0.381 N 
ATOM     13  C   UNL     1      -2.148  -3.156   3.451  1.00  0.00     0.143 C 
ATOM     14  C   UNL     1      -0.441  -3.811   5.071  1.00  0.00     0.143 C 
ENDBRANCH   9  12
ENDBRANCH   6   8
ENDBRANCH   5   6
BRANCH   5  15
ATOM     15  C   UNL     1       1.215  -1.910   2.157  1.00  0.00     0.060 C 
BRANCH  15  16
ATOM     16  C   UNL     1       0.898  -2.314   0.734  1.00  0.00    -0.028 A 
ATOM     17  C   UNL     1      -0.346  -1.837   0.258  1.00  0.00     0.007 A 
ATOM     18  C   UNL     1       1.679  -3.078  -0.142  1.00  0.00     0.045 A 
ATOM     19  C   UNL     1      -0.833  -2.184  -0.998  1.00  0.00     0.021 A 
ATOM     20  C   UNL     1       1.176  -3.456  -1.394  1.00  0.00     0.041 A 
ATOM     21  Cl  UNL     1       3.287  -3.586   0.215  1.00  0.00    -0.084 Cl
ATOM     22  C   UNL     1      -0.079  -3.018  -1.809  1.00  0.00     0.042 A 
ATOM     23  Cl  UNL     1      -0.696  -3.499  -3.340  1.00  0.00    -0.084 Cl
ENDBRANCH  15  16
ENDBRANCH   5  15
ENDBRANCH   3   5
ENDBRANCH   2   3
ENDBRANCH   1   2
BRANCH   1  24
ATOM     24  C   UNL     1       3.461   0.962   3.909  1.00  0.00     0.275 C 
BRANCH  24  25
ATOM     25  O   UNL     1       3.441   0.331   5.207  1.00  0.00    -0.458 OA
BRANCH  25  26
ATOM     26  C   UNL     1       2.251  -0.150   5.636  1.00  0.00     0.338 C 
ATOM     27  O   UNL     1       1.181  -0.103   5.054  1.00  0.00    -0.246 OA
BRANCH  26  28
ATOM     28  C   UNL     1       2.440  -0.843   6.921  1.00  0.00     0.060 A 
ATOM     29  C   UNL     1       2.554  -2.235   6.939  1.00  0.00     0.016 A 
ATOM     30  C   UNL     1       2.418  -0.121   8.116  1.00  0.00     0.016 A 
ATOM     31  C   UNL     1       2.607  -2.914   8.154  1.00  0.00     0.010 A 
ATOM     32  C   UNL     1       2.524  -0.803   9.334  1.00  0.00     0.010 A 
ATOM     33  C   UNL     1       2.602  -2.207   9.365  1.00  0.00    -0.014 A 
BRANCH  33  34
ATOM     34  C   UNL     1       2.679  -2.944  10.654  1.00  0.00     0.031 A 
ATOM     35  C   UNL     1       1.514  -2.938  11.607  1.00  0.00     0.074 A 
ATOM     36  C   UNL     1       3.795  -3.634  10.961  1.00  0.00     0.049 A 
ATOM     37  N   UNL     1       1.417  -3.471  12.798  1.00  0.00    -0.248 NA
ATOM     38  C   UNL     1       0.300  -2.235  11.165  1.00  0.00     0.031 C 
ATOM     39  C   UNL     1       4.985  -3.735  10.113  1.00  0.00     0.029 A 
ATOM     40  N   UNL     1       4.112  -4.385  12.065  1.00  0.00    -0.354 N 
ATOM     41  C   UNL     1       0.145  -3.150  13.259  1.00  0.00     0.074 A 
ATOM     42  C   UNL     1      -0.486  -2.356  12.226  1.00  0.00     0.031 C 
ATOM     43  C   UNL     1       5.892  -4.518  10.717  1.00  0.00     0.029 A 
ATOM     44  C   UNL     1       5.372  -4.933  12.016  1.00  0.00     0.049 A 
ATOM     45  H   UNL     1       3.495  -4.519  12.821  1.00  0.00     0.167 HD
ATOM     46  C   UNL     1      -0.443  -3.493  14.431  1.00  0.00     0.037 A 
ATOM     47  C   UNL     1       6.044  -5.670  12.922  1.00  0.00     0.037 A 
ATOM     48  C   UNL     1       0.183  -4.304  15.445  1.00  0.00     0.049 A 
ATOM     49  C   UNL     1       5.379  -6.015  14.226  1.00  0.00     0.074 A 
ATOM     50  C   UNL     1      -0.337  -4.717  16.660  1.00  0.00     0.029 A 
ATOM     51  N   UNL     1       1.465  -4.829  15.362  1.00  0.00    -0.354 N 
ATOM     52  N   UNL     1       4.177  -5.699  14.646  1.00  0.00    -0.248 NA
ATOM     53  C   UNL     1       6.160  -6.814  15.179  1.00  0.00     0.031 C 
ATOM     54  C   UNL     1       0.643  -5.461  17.327  1.00  0.00     0.029 A 
ATOM     55  C   UNL     1       1.757  -5.550  16.509  1.00  0.00     0.049 A 
ATOM     56  H   UNL     1       2.077  -4.707  14.600  1.00  0.00     0.167 HD
ATOM     57  C   UNL     1       4.049  -6.282  15.902  1.00  0.00     0.074 A 
ATOM     58  C   UNL     1       5.292  -6.977  16.169  1.00  0.00     0.031 C 
ATOM     59  C   UNL     1       2.997  -6.244  16.756  1.00  0.00     0.037 A 
BRANCH  46  60
ATOM     60  C   UNL     1      -1.831  -2.974  14.691  1.00  0.00     0.058 A 
ATOM     61  C   UNL     1      -2.951  -3.478  14.013  1.00  0.00     0.135 A 
ATOM     62  C   UNL     1      -2.046  -1.977  15.657  1.00  0.00     0.135 A 
ATOM     63  F   UNL     1      -2.801  -4.421  13.068  1.00  0.00    -0.206 F 
ATOM     64  C   UNL     1      -4.231  -2.993  14.260  1.00  0.00     0.059 A 
ATOM     65  C   UNL     1      -3.321  -1.494  15.939  1.00  0.00     0.059 A 
ATOM     66  F   UNL     1      -1.011  -1.459  16.337  1.00  0.00    -0.206 F 
ATOM     67  C   UNL     1      -4.406  -1.997  15.223  1.00  0.00     0.060 A 
BRANCH  67  68
ATOM     68  S   UNL     1      -6.072  -1.370  15.526  1.00  0.00     0.124 S 
ATOM     69  O   UNL     1      -6.292  -0.547  14.340  1.00  0.00    -0.237 OA
ATOM     70  O   UNL     1      -6.861  -2.595  15.601  1.00  0.00    -0.237 OA
ATOM     71  O   UNL     1      -5.937  -0.637  16.781  1.00  0.00    -0.744 OA
ENDBRANCH  67  68
ENDBRANCH  46  60
BRANCH  47  72
ATOM     72  C   UNL     1       7.430  -6.121  12.627  1.00  0.00     0.058 A 
ATOM     73  C   UNL     1       7.716  -7.472  12.383  1.00  0.00     0.135 A 
ATOM     74  C   UNL     1       8.493  -5.206  12.567  1.00  0.00     0.135 A 
ATOM     75  F   UNL     1       6.735  -8.386  12.439  1.00  0.00    -0.206 F 
ATOM     76  C   UNL     1       9.009  -7.904  12.102  1.00  0.00     0.059 A 
ATOM     77  C   UNL     1       9.789  -5.610  12.262  1.00  0.00     0.059 A 
ATOM     78  F   UNL     1       8.270  -3.900  12.781  1.00  0.00    -0.206 F 
ATOM     79  C   UNL     1      10.039  -6.963  12.042  1.00  0.00     0.060 A 
BRANCH  79  80
ATOM     80  S   UNL     1      11.707  -7.525  11.634  1.00  0.00     0.124 S 
ATOM     81  O   UNL     1      12.119  -8.151  12.884  1.00  0.00    -0.237 OA
ATOM     82  O   UNL     1      11.463  -8.431  10.516  1.00  0.00    -0.237 OA
ATOM     83  O   UNL     1      12.401  -6.288  11.288  1.00  0.00    -0.744 OA
ENDBRANCH  79  80
ENDBRANCH  47  72
BRANCH  59  84
ATOM     84  C   UNL     1       3.127  -7.009  18.044  1.00  0.00     0.058 A 
ATOM     85  C   UNL     1       3.934  -6.552  19.097  1.00  0.00     0.135 A 
ATOM     86  C   UNL     1       2.401  -8.195  18.240  1.00  0.00     0.135 A 
ATOM     87  F   UNL     1       4.654  -5.427  18.957  1.00  0.00    -0.206 F 
ATOM     88  C   UNL     1       4.036  -7.257  20.292  1.00  0.00     0.059 A 
ATOM     89  C   UNL     1       2.469  -8.903  19.436  1.00  0.00     0.059 A 
ATOM     90  F   UNL     1       1.606  -8.670  17.268  1.00  0.00    -0.206 F 
ATOM     91  C   UNL     1       3.299  -8.432  20.452  1.00  0.00     0.060 A 
BRANCH  91  92
ATOM     92  S   UNL     1       3.416  -9.324  22.018  1.00  0.00     0.124 S 
ATOM     93  O   UNL     1       4.719  -9.968  21.893  1.00  0.00    -0.237 OA
ATOM     94  O   UNL     1       3.333  -8.247  23.000  1.00  0.00    -0.237 OA
ATOM     95  O   UNL     1       2.265 -10.221  21.983  1.00  0.00    -0.744 OA
ENDBRANCH  91  92
ENDBRANCH  59  84
ENDBRANCH  33  34
ENDBRANCH  26  28
ENDBRANCH  25  26
ENDBRANCH  24  25
ENDBRANCH   1  24
TORSDOF 20
