REMARK SMILES O=C(COCCNc1nncs1)OCCOC(=O)c1ccc(-c2c3nc(c(-c4c(F)cc(S(=O)(=O)[O-])cc4F)c4ccc([nH]4)c(-c4c(F)cc(S(=O)(=O)[O-])cc4F)c4nc(c(-c5c(F)cc(S(=O)(=O)[O-])cc5F)c5ccc2[nH]5)C=C4)C=C3)cc1
REMARK SMILES IDX 14 1 13 2 2 3 1 4 3 5 4 6 5 7 6 8 7 9 8 11 9 12 12 13 10 14
REMARK SMILES IDX 11 15 15 16 16 17 17 18 18 19 19 20 20 21 84 22 21 23 83 24
REMARK SMILES IDX 22 25 23 26 24 27 77 28 25 29 82 30 76 31 78 32 26 33 81 34
REMARK SMILES IDX 75 35 74 36 27 38 61 39 40 40 60 41 41 42 44 43 59 44 79 45
REMARK SMILES IDX 42 46 43 47 58 49 80 50 45 51 28 52 29 53 38 54 30 55 31 56
REMARK SMILES IDX 37 57 39 58 32 59 33 60 34 61 35 62 36 63 62 64 63 65 72 66
REMARK SMILES IDX 64 67 65 68 71 69 73 70 66 71 67 72 68 73 69 74 70 75 46 76
REMARK SMILES IDX 47 77 56 78 48 79 49 80 55 81 57 82 50 83 51 84 52 85 53 86
REMARK SMILES IDX 54 87
REMARK H PARENT 7 10 78 37 44 48
REMARK Flexibility Score: inf
ROOT
ATOM      1  C   UNL     1       4.717   1.202  -0.293  1.00  0.00     0.274 C 
ENDROOT
BRANCH   1   2
ATOM      2  O   UNL     1       3.374   0.961  -0.755  1.00  0.00    -0.460 OA
BRANCH   2   3
ATOM      3  C   UNL     1       2.711  -0.219  -0.705  1.00  0.00     0.332 C 
ATOM      4  O   UNL     1       1.584  -0.292  -1.193  1.00  0.00    -0.250 OA
BRANCH   3   5
ATOM      5  C   UNL     1       3.372  -1.432  -0.035  1.00  0.00     0.282 C 
BRANCH   5   6
ATOM      6  O   UNL     1       3.585  -2.593  -0.822  1.00  0.00    -0.368 OA
BRANCH   6   7
ATOM      7  C   UNL     1       2.406  -3.280  -1.262  1.00  0.00     0.182 C 
BRANCH   7   8
ATOM      8  C   UNL     1       1.734  -4.142  -0.177  1.00  0.00     0.143 C 
BRANCH   8   9
ATOM      9  N   UNL     1       0.876  -3.363   0.693  1.00  0.00    -0.358 N 
ATOM     10  H   UNL     1       1.294  -2.962   1.489  1.00  0.00     0.163 HD
BRANCH   9  11
ATOM     11  C   UNL     1      -0.445  -3.135   0.513  1.00  0.00     0.205 A 
ATOM     12  N   UNL     1      -1.072  -2.156   1.133  1.00  0.00    -0.121 NA
ATOM     13  S   UNL     1      -1.504  -4.094  -0.455  1.00  0.00    -0.083 S 
ATOM     14  N   UNL     1      -2.429  -2.130   0.891  1.00  0.00    -0.145 NA
ATOM     15  C   UNL     1      -2.792  -3.118   0.107  1.00  0.00     0.204 A 
ENDBRANCH   9  11
ENDBRANCH   8   9
ENDBRANCH   7   8
ENDBRANCH   6   7
ENDBRANCH   5   6
ENDBRANCH   3   5
ENDBRANCH   2   3
ENDBRANCH   1   2
BRANCH   1  16
ATOM     16  C   UNL     1       4.727   1.743   1.136  1.00  0.00     0.275 C 
BRANCH  16  17
ATOM     17  O   UNL     1       4.184   0.778   2.056  1.00  0.00    -0.458 OA
BRANCH  17  18
ATOM     18  C   UNL     1       2.907   1.019   2.461  1.00  0.00     0.338 C 
ATOM     19  O   UNL     1       2.217   1.965   2.140  1.00  0.00    -0.246 OA
BRANCH  18  20
ATOM     20  C   UNL     1       2.413  -0.123   3.269  1.00  0.00     0.060 A 
ATOM     21  C   UNL     1       1.064  -0.472   3.153  1.00  0.00     0.016 A 
ATOM     22  C   UNL     1       3.243  -0.831   4.146  1.00  0.00     0.016 A 
ATOM     23  C   UNL     1       0.532  -1.494   3.942  1.00  0.00     0.010 A 
ATOM     24  C   UNL     1       2.708  -1.857   4.936  1.00  0.00     0.010 A 
ATOM     25  C   UNL     1       1.341  -2.171   4.863  1.00  0.00    -0.014 A 
BRANCH  25  26
ATOM     26  C   UNL     1       0.711  -3.066   5.867  1.00  0.00     0.031 A 
ATOM     27  C   UNL     1       0.334  -2.491   7.207  1.00  0.00     0.074 A 
ATOM     28  C   UNL     1       0.442  -4.356   5.594  1.00  0.00     0.049 A 
ATOM     29  N   UNL     1      -0.301  -3.053   8.203  1.00  0.00    -0.248 NA
ATOM     30  C   UNL     1       0.732  -1.096   7.455  1.00  0.00     0.031 C 
ATOM     31  C   UNL     1       0.746  -5.041   4.339  1.00  0.00     0.029 A 
ATOM     32  N   UNL     1      -0.155  -5.322   6.367  1.00  0.00    -0.354 N 
ATOM     33  C   UNL     1      -0.400  -2.075   9.186  1.00  0.00     0.074 A 
ATOM     34  C   UNL     1       0.288  -0.903   8.688  1.00  0.00     0.031 C 
ATOM     35  C   UNL     1       0.335  -6.319   4.430  1.00  0.00     0.029 A 
ATOM     36  C   UNL     1      -0.259  -6.544   5.748  1.00  0.00     0.049 A 
ATOM     37  H   UNL     1      -0.480  -5.154   7.282  1.00  0.00     0.167 HD
ATOM     38  C   UNL     1      -1.024  -2.136  10.387  1.00  0.00     0.037 A 
ATOM     39  C   UNL     1      -0.781  -7.706   6.190  1.00  0.00     0.037 A 
ATOM     40  C   UNL     1      -1.697  -3.302  10.894  1.00  0.00     0.049 A 
ATOM     41  C   UNL     1      -1.426  -7.766   7.553  1.00  0.00     0.074 A 
ATOM     42  C   UNL     1      -2.378  -3.450  12.090  1.00  0.00     0.029 A 
ATOM     43  N   UNL     1      -1.765  -4.524  10.242  1.00  0.00    -0.354 N 
ATOM     44  N   UNL     1      -1.577  -6.813   8.442  1.00  0.00    -0.248 NA
ATOM     45  C   UNL     1      -1.991  -9.061   7.964  1.00  0.00     0.031 C 
ATOM     46  C   UNL     1      -2.817  -4.776  12.183  1.00  0.00     0.029 A 
ATOM     47  C   UNL     1      -2.455  -5.438  11.021  1.00  0.00     0.049 A 
ATOM     48  H   UNL     1      -1.380  -4.713   9.356  1.00  0.00     0.167 HD
ATOM     49  C   UNL     1      -2.295  -7.380   9.492  1.00  0.00     0.074 A 
ATOM     50  C   UNL     1      -2.545  -8.759   9.130  1.00  0.00     0.031 C 
ATOM     51  C   UNL     1      -2.718  -6.805  10.646  1.00  0.00     0.037 A 
BRANCH  38  52
ATOM     52  C   UNL     1      -0.992  -0.901  11.241  1.00  0.00     0.058 A 
ATOM     53  C   UNL     1      -1.746   0.238  10.915  1.00  0.00     0.135 A 
ATOM     54  C   UNL     1      -0.209  -0.858  12.405  1.00  0.00     0.135 A 
ATOM     55  F   UNL     1      -2.498   0.255   9.802  1.00  0.00    -0.206 F 
ATOM     56  C   UNL     1      -1.702   1.387  11.697  1.00  0.00     0.059 A 
ATOM     57  C   UNL     1      -0.169   0.272  13.216  1.00  0.00     0.059 A 
ATOM     58  F   UNL     1       0.533  -1.919  12.760  1.00  0.00    -0.206 F 
ATOM     59  C   UNL     1      -0.906   1.395  12.844  1.00  0.00     0.060 A 
BRANCH  59  60
ATOM     60  S   UNL     1      -0.849   2.896  13.844  1.00  0.00     0.124 S 
ATOM     61  O   UNL     1      -0.019   3.766  13.016  1.00  0.00    -0.237 OA
ATOM     62  O   UNL     1      -2.257   3.266  13.938  1.00  0.00    -0.237 OA
ATOM     63  O   UNL     1      -0.238   2.449  15.092  1.00  0.00    -0.744 OA
ENDBRANCH  59  60
ENDBRANCH  38  52
BRANCH  39  64
ATOM     64  C   UNL     1      -0.750  -8.916   5.325  1.00  0.00     0.058 A 
ATOM     65  C   UNL     1      -1.926  -9.433   4.761  1.00  0.00     0.135 A 
ATOM     66  C   UNL     1       0.450  -9.596   5.072  1.00  0.00     0.135 A 
ATOM     67  F   UNL     1      -3.101  -8.825   4.984  1.00  0.00    -0.206 F 
ATOM     68  C   UNL     1      -1.918 -10.595   3.996  1.00  0.00     0.059 A 
ATOM     69  C   UNL     1       0.487 -10.748   4.291  1.00  0.00     0.059 A 
ATOM     70  F   UNL     1       1.604  -9.137   5.582  1.00  0.00    -0.206 F 
ATOM     71  C   UNL     1      -0.705 -11.246   3.767  1.00  0.00     0.060 A 
BRANCH  71  72
ATOM     72  S   UNL     1      -0.699 -12.735   2.744  1.00  0.00     0.124 S 
ATOM     73  O   UNL     1      -1.286 -13.716   3.649  1.00  0.00    -0.237 OA
ATOM     74  O   UNL     1      -1.528 -12.332   1.612  1.00  0.00    -0.237 OA
ATOM     75  O   UNL     1       0.716 -12.924   2.438  1.00  0.00    -0.744 OA
ENDBRANCH  71  72
ENDBRANCH  39  64
BRANCH  51  76
ATOM     76  C   UNL     1      -3.550  -7.642  11.582  1.00  0.00     0.058 A 
ATOM     77  C   UNL     1      -2.998  -8.688  12.337  1.00  0.00     0.135 A 
ATOM     78  C   UNL     1      -4.916  -7.362  11.755  1.00  0.00     0.135 A 
ATOM     79  F   UNL     1      -1.698  -9.001  12.210  1.00  0.00    -0.206 F 
ATOM     80  C   UNL     1      -3.776  -9.447  13.207  1.00  0.00     0.059 A 
ATOM     81  C   UNL     1      -5.707  -8.089  12.640  1.00  0.00     0.059 A 
ATOM     82  F   UNL     1      -5.494  -6.363  11.069  1.00  0.00    -0.206 F 
ATOM     83  C   UNL     1      -5.131  -9.142  13.350  1.00  0.00     0.060 A 
BRANCH  83  84
ATOM     84  S   UNL     1      -6.129 -10.120  14.493  1.00  0.00     0.124 S 
ATOM     85  O   UNL     1      -6.325 -11.350  13.733  1.00  0.00    -0.237 OA
ATOM     86  O   UNL     1      -5.257 -10.229  15.659  1.00  0.00    -0.237 OA
ATOM     87  O   UNL     1      -7.323  -9.303  14.687  1.00  0.00    -0.744 OA
ENDBRANCH  83  84
ENDBRANCH  51  76
ENDBRANCH  25  26
ENDBRANCH  18  20
ENDBRANCH  17  18
ENDBRANCH  16  17
ENDBRANCH   1  16
TORSDOF 19
