REMARK SMILES C/C(=N\Nc1ccccc1C(=O)OCCOC(=O)c1ccc(-c2c3nc(c(-c4c(F)cc(S(=O)(=O)[O-])cc4F)c4ccc([nH]4)c(-c4c(F)cc(S(=O)(=O)[O-])cc4F)c4nc(c(-c5c(F)cc(S(=O)(=O)[O-])cc5F)c5ccc2[nH]5)C=C4)C=C3)cc1)c1ccc(S(C)(=O)=O)cc1
REMARK SMILES IDX 14 1 13 2 11 3 12 4 10 5 5 6 6 7 7 8 9 9 8 10 4 11 3 13 1 14
REMARK SMILES IDX 2 15 85 16 86 17 94 18 87 19 93 20 88 21 89 22 90 23 91 24
REMARK SMILES IDX 92 25 15 26 16 27 17 28 18 29 19 30 20 31 84 32 21 33 83 34
REMARK SMILES IDX 22 35 23 36 24 37 77 38 25 39 82 40 76 41 78 42 26 43 81 44
REMARK SMILES IDX 75 45 74 46 27 48 61 49 40 50 60 51 41 52 44 53 59 54 79 55
REMARK SMILES IDX 42 56 43 57 58 59 80 60 45 61 28 62 29 63 38 64 30 65 31 66
REMARK SMILES IDX 37 67 39 68 32 69 33 70 34 71 35 72 36 73 62 74 63 75 72 76
REMARK SMILES IDX 64 77 65 78 71 79 73 80 66 81 67 82 68 83 69 84 70 85 46 86
REMARK SMILES IDX 47 87 56 88 48 89 49 90 55 91 57 92 50 93 51 94 52 95 53 96
REMARK SMILES IDX 54 97
REMARK H PARENT 4 12 78 47 44 58
REMARK Flexibility Score: inf
ROOT
ATOM      1  C   UNL     1      -1.963   1.577  -0.808  1.00  0.00     0.275 C 
ENDROOT
BRANCH   1   2
ATOM      2  O   UNL     1      -1.810   0.205  -0.397  1.00  0.00    -0.458 OA
BRANCH   2   3
ATOM      3  C   UNL     1      -0.673  -0.060   0.292  1.00  0.00     0.340 C 
ATOM      4  O   UNL     1       0.119   0.756   0.743  1.00  0.00    -0.246 OA
BRANCH   3   5
ATOM      5  C   UNL     1      -0.481  -1.510   0.473  1.00  0.00     0.085 A 
ATOM      6  C   UNL     1      -0.090  -2.349  -0.581  1.00  0.00     0.071 A 
ATOM      7  C   UNL     1       0.167  -3.704  -0.271  1.00  0.00     0.028 A 
ATOM      8  C   UNL     1       0.084  -4.194   1.036  1.00  0.00     0.002 A 
ATOM      9  C   UNL     1      -0.584  -2.014   1.783  1.00  0.00     0.018 A 
ATOM     10  C   UNL     1      -0.288  -3.345   2.066  1.00  0.00     0.001 A 
BRANCH   6  11
ATOM     11  N   UNL     1       0.250  -1.945  -1.894  1.00  0.00    -0.277 N 
ATOM     12  H   UNL     1       0.368  -2.650  -2.571  1.00  0.00     0.190 HD
BRANCH  11  13
ATOM     13  N   UNL     1       0.425  -0.665  -2.289  1.00  0.00    -0.180 NA
ATOM     14  C   UNL     1       2.581  -0.586  -1.005  1.00  0.00     0.069 C 
ATOM     15  C   UNL     1       1.495  -0.018  -1.905  1.00  0.00     0.065 C 
BRANCH  15  16
ATOM     16  C   UNL     1       1.682   1.396  -2.394  1.00  0.00    -0.002 A 
ATOM     17  C   UNL     1       0.673   2.001  -3.161  1.00  0.00     0.011 A 
ATOM     18  C   UNL     1       2.842   2.127  -2.103  1.00  0.00     0.011 A 
ATOM     19  C   UNL     1       0.810   3.317  -3.615  1.00  0.00     0.021 A 
ATOM     20  C   UNL     1       2.996   3.435  -2.572  1.00  0.00     0.021 A 
ATOM     21  C   UNL     1       1.981   4.022  -3.327  1.00  0.00     0.067 A 
BRANCH  21  22
ATOM     22  S   UNL     1       2.171   5.683  -3.925  1.00  0.00     0.175 S 
ATOM     23  C   UNL     1       2.017   5.531  -5.685  1.00  0.00     0.163 C 
ATOM     24  O   UNL     1       1.047   6.448  -3.436  1.00  0.00    -0.224 OA
ATOM     25  O   UNL     1       3.541   6.095  -3.658  1.00  0.00    -0.224 OA
ENDBRANCH  21  22
ENDBRANCH  15  16
ENDBRANCH  11  13
ENDBRANCH   6  11
ENDBRANCH   3   5
ENDBRANCH   2   3
ENDBRANCH   1   2
BRANCH   1  26
ATOM     26  C   UNL     1      -2.996   2.332   0.021  1.00  0.00     0.275 C 
BRANCH  26  27
ATOM     27  O   UNL     1      -2.564   2.440   1.385  1.00  0.00    -0.458 OA
BRANCH  27  28
ATOM     28  C   UNL     1      -3.148   1.559   2.222  1.00  0.00     0.338 C 
ATOM     29  O   UNL     1      -4.030   0.754   1.963  1.00  0.00    -0.246 OA
BRANCH  28  30
ATOM     30  C   UNL     1      -2.541   1.647   3.552  1.00  0.00     0.060 A 
ATOM     31  C   UNL     1      -1.313   1.028   3.767  1.00  0.00     0.016 A 
ATOM     32  C   UNL     1      -3.284   2.139   4.621  1.00  0.00     0.016 A 
ATOM     33  C   UNL     1      -0.894   0.750   5.061  1.00  0.00     0.010 A 
ATOM     34  C   UNL     1      -2.800   1.968   5.918  1.00  0.00     0.010 A 
ATOM     35  C   UNL     1      -1.633   1.218   6.153  1.00  0.00    -0.014 A 
BRANCH  35  36
ATOM     36  C   UNL     1      -1.235   0.866   7.541  1.00  0.00     0.031 A 
ATOM     37  C   UNL     1      -2.212   0.135   8.424  1.00  0.00     0.074 A 
ATOM     38  C   UNL     1      -0.015   1.196   8.006  1.00  0.00     0.049 A 
ATOM     39  N   UNL     1      -2.189  -0.038   9.720  1.00  0.00    -0.248 NA
ATOM     40  C   UNL     1      -3.383  -0.465   7.761  1.00  0.00     0.031 C 
ATOM     41  C   UNL     1       1.046   1.841   7.229  1.00  0.00     0.029 A 
ATOM     42  N   UNL     1       0.539   1.039   9.251  1.00  0.00    -0.354 N 
ATOM     43  C   UNL     1      -3.373  -0.696  10.036  1.00  0.00     0.074 A 
ATOM     44  C   UNL     1      -4.089  -0.900   8.795  1.00  0.00     0.031 C 
ATOM     45  C   UNL     1       2.126   2.005   8.006  1.00  0.00     0.029 A 
ATOM     46  C   UNL     1       1.802   1.573   9.359  1.00  0.00     0.049 A 
ATOM     47  H   UNL     1       0.077   0.589   9.995  1.00  0.00     0.167 HD
ATOM     48  C   UNL     1      -3.820  -1.081  11.255  1.00  0.00     0.037 A 
ATOM     49  C   UNL     1       2.586   1.753  10.438  1.00  0.00     0.037 A 
ATOM     50  C   UNL     1      -3.058  -0.919  12.467  1.00  0.00     0.049 A 
ATOM     51  C   UNL     1       2.065   1.338  11.783  1.00  0.00     0.074 A 
ATOM     52  C   UNL     1      -3.402  -1.276  13.758  1.00  0.00     0.029 A 
ATOM     53  N   UNL     1      -1.785  -0.368  12.530  1.00  0.00    -0.354 N 
ATOM     54  N   UNL     1       0.909   0.792  12.085  1.00  0.00    -0.248 NA
ATOM     55  C   UNL     1       2.940   1.579  12.936  1.00  0.00     0.031 C 
ATOM     56  C   UNL     1      -2.349  -0.914  14.606  1.00  0.00     0.029 A 
ATOM     57  C   UNL     1      -1.331  -0.371  13.838  1.00  0.00     0.049 A 
ATOM     58  H   UNL     1      -1.279  -0.026  11.758  1.00  0.00     0.167 HD
ATOM     59  C   UNL     1       0.922   0.616  13.463  1.00  0.00     0.074 A 
ATOM     60  C   UNL     1       2.208   1.095  13.931  1.00  0.00     0.031 C 
ATOM     61  C   UNL     1      -0.042   0.108  14.270  1.00  0.00     0.037 A 
BRANCH  48  62
ATOM     62  C   UNL     1      -5.202  -1.671  11.344  1.00  0.00     0.058 A 
ATOM     63  C   UNL     1      -5.502  -2.956  10.865  1.00  0.00     0.135 A 
ATOM     64  C   UNL     1      -6.242  -0.939  11.942  1.00  0.00     0.135 A 
ATOM     65  F   UNL     1      -4.553  -3.693  10.268  1.00  0.00    -0.206 F 
ATOM     66  C   UNL     1      -6.789  -3.482  10.950  1.00  0.00     0.059 A 
ATOM     67  C   UNL     1      -7.529  -1.456  12.061  1.00  0.00     0.059 A 
ATOM     68  F   UNL     1      -6.014   0.296  12.416  1.00  0.00    -0.206 F 
ATOM     69  C   UNL     1      -7.797  -2.724  11.548  1.00  0.00     0.060 A 
BRANCH  69  70
ATOM     70  S   UNL     1      -9.460  -3.419  11.653  1.00  0.00     0.124 S 
ATOM     71  O   UNL     1      -9.915  -3.297  10.271  1.00  0.00    -0.237 OA
ATOM     72  O   UNL     1      -9.204  -4.779  12.117  1.00  0.00    -0.237 OA
ATOM     73  O   UNL     1     -10.133  -2.549  12.613  1.00  0.00    -0.744 OA
ENDBRANCH  69  70
ENDBRANCH  48  62
BRANCH  49  74
ATOM     74  C   UNL     1       3.915   2.402  10.285  1.00  0.00     0.058 A 
ATOM     75  C   UNL     1       5.099   1.672  10.456  1.00  0.00     0.135 A 
ATOM     76  C   UNL     1       4.028   3.756   9.926  1.00  0.00     0.135 A 
ATOM     77  F   UNL     1       5.045   0.379  10.808  1.00  0.00    -0.206 F 
ATOM     78  C   UNL     1       6.349   2.259  10.280  1.00  0.00     0.059 A 
ATOM     79  C   UNL     1       5.265   4.357   9.716  1.00  0.00     0.059 A 
ATOM     80  F   UNL     1       2.925   4.496   9.737  1.00  0.00    -0.206 F 
ATOM     81  C   UNL     1       6.421   3.602   9.904  1.00  0.00     0.060 A 
BRANCH  81  82
ATOM     82  S   UNL     1       8.044   4.337   9.613  1.00  0.00     0.124 S 
ATOM     83  O   UNL     1       8.533   4.518  10.975  1.00  0.00    -0.237 OA
ATOM     84  O   UNL     1       8.714   3.306   8.826  1.00  0.00    -0.237 OA
ATOM     85  O   UNL     1       7.731   5.564   8.885  1.00  0.00    -0.744 OA
ENDBRANCH  81  82
ENDBRANCH  49  74
BRANCH  61  86
ATOM     86  C   UNL     1       0.279   0.015  15.733  1.00  0.00     0.058 A 
ATOM     87  C   UNL     1       0.290   1.149  16.558  1.00  0.00     0.135 A 
ATOM     88  C   UNL     1       0.543  -1.233  16.321  1.00  0.00     0.135 A 
ATOM     89  F   UNL     1       0.052   2.364  16.040  1.00  0.00    -0.206 F 
ATOM     90  C   UNL     1       0.576   1.054  17.915  1.00  0.00     0.059 A 
ATOM     91  C   UNL     1       0.808  -1.354  17.680  1.00  0.00     0.059 A 
ATOM     92  F   UNL     1       0.535  -2.348  15.574  1.00  0.00    -0.206 F 
ATOM     93  C   UNL     1       0.835  -0.203  18.467  1.00  0.00     0.060 A 
BRANCH  93  94
ATOM     94  S   UNL     1       1.181  -0.319  20.234  1.00  0.00     0.124 S 
ATOM     95  O   UNL     1       2.554   0.170  20.296  1.00  0.00    -0.237 OA
ATOM     96  O   UNL     1       0.168   0.559  20.811  1.00  0.00    -0.237 OA
ATOM     97  O   UNL     1       1.006  -1.740  20.521  1.00  0.00    -0.744 OA
ENDBRANCH  93  94
ENDBRANCH  61  86
ENDBRANCH  35  36
ENDBRANCH  28  30
ENDBRANCH  27  28
ENDBRANCH  26  27
ENDBRANCH   1  26
TORSDOF 18
