REMARK SMILES C[N@@H+]1CCN(C(=O)c2cc(-n3cccn3)ccc2Cl)C[C@H]1C(=O)OCCOC(=O)c1ccc(-c2c3nc(c(-c4c(F)cc(S(=O)(=O)[O-])cc4F)c4ccc([nH]4)c(-c4c(F)cc(S(=O)(=O)[O-])cc4F)c4nc(c(-c5c(F)cc(S(=O)(=O)[O-])cc5F)c5ccc2[nH]5)C=C4)C=C3)cc1
REMARK SMILES IDX 25 1 24 2 22 3 23 4 21 5 1 6 2 7 3 8 4 10 20 11 5 12 6 13
REMARK SMILES IDX 7 14 8 15 9 16 18 17 10 18 17 19 19 20 16 21 11 22 12 23
REMARK SMILES IDX 15 24 13 25 14 26 26 27 27 28 28 29 29 30 30 31 31 32 95 33
REMARK SMILES IDX 32 34 94 35 33 36 34 37 35 38 88 39 36 40 93 41 87 42 89 43
REMARK SMILES IDX 37 44 92 45 86 46 85 47 38 49 72 50 51 51 71 52 52 53 55 54
REMARK SMILES IDX 70 55 90 56 53 57 54 58 69 60 91 61 56 62 39 63 40 64 49 65
REMARK SMILES IDX 41 66 42 67 48 68 50 69 43 70 44 71 45 72 46 73 47 74 73 75
REMARK SMILES IDX 74 76 83 77 75 78 76 79 82 80 84 81 77 82 78 83 79 84 80 85
REMARK SMILES IDX 81 86 57 87 58 88 67 89 59 90 60 91 66 92 68 93 61 94 62 95
REMARK SMILES IDX 63 96 64 97 65 98
REMARK H PARENT 2 9 89 48 55 59
REMARK Flexibility Score: inf
ROOT
ATOM      1  C   UNL     1       1.272  -3.660  -2.483  1.00  0.00     0.274 C 
ENDROOT
BRANCH   1   2
ATOM      2  O   UNL     1       0.965  -2.340  -1.979  1.00  0.00    -0.458 OA
BRANCH   2   3
ATOM      3  C   UNL     1       0.526  -2.300  -0.694  1.00  0.00     0.366 C 
ATOM      4  O   UNL     1       0.403  -3.304   0.011  1.00  0.00    -0.245 OA
BRANCH   3   5
ATOM      5  C   UNL     1       0.011  -0.958  -0.199  1.00  0.00     0.314 C 
ATOM      6  C   UNL     1       1.992   0.471  -0.599  1.00  0.00     0.333 C 
ATOM      7  N   UNL     1       0.547   0.317  -0.780  1.00  0.00    -0.323 N 
ATOM      8  C   UNL     1      -0.128   1.443  -0.075  1.00  0.00     0.284 C 
ATOM      9  H   UNL     1       0.368   0.306  -1.784  1.00  0.00     0.348 HD
ATOM     10  C   UNL     1      -1.657   1.407  -0.245  1.00  0.00     0.181 C 
ATOM     11  C   UNL     1      -1.506  -1.039  -0.460  1.00  0.00     0.197 C 
ATOM     12  N   UNL     1      -2.213   0.104   0.120  1.00  0.00    -0.326 N 
BRANCH  12  13
ATOM     13  C   UNL     1      -3.374   0.038   0.867  1.00  0.00     0.255 C 
ATOM     14  O   UNL     1      -4.024   1.018   1.221  1.00  0.00    -0.269 OA
BRANCH  13  15
ATOM     15  C   UNL     1      -3.906  -1.284   1.241  1.00  0.00     0.060 A 
ATOM     16  C   UNL     1      -5.084  -1.702   0.608  1.00  0.00     0.043 A 
ATOM     17  C   UNL     1      -3.333  -2.054   2.259  1.00  0.00     0.053 A 
ATOM     18  C   UNL     1      -5.719  -2.875   1.032  1.00  0.00     0.065 A 
ATOM     19  C   UNL     1      -3.940  -3.255   2.636  1.00  0.00     0.023 A 
ATOM     20  Cl  UNL     1      -1.903  -1.577   3.097  1.00  0.00    -0.083 Cl
ATOM     21  C   UNL     1      -5.141  -3.658   2.041  1.00  0.00     0.030 A 
BRANCH  18  22
ATOM     22  N   UNL     1      -6.965  -3.236   0.459  1.00  0.00    -0.241 N 
ATOM     23  C   UNL     1      -7.938  -4.042   1.012  1.00  0.00     0.115 A 
ATOM     24  N   UNL     1      -7.348  -2.760  -0.752  1.00  0.00    -0.177 NA
ATOM     25  C   UNL     1      -8.971  -4.104   0.108  1.00  0.00     0.042 A 
ATOM     26  C   UNL     1      -8.538  -3.322  -0.972  1.00  0.00     0.135 A 
ENDBRANCH  18  22
ENDBRANCH  13  15
ENDBRANCH  12  13
ENDBRANCH   3   5
ENDBRANCH   2   3
ENDBRANCH   1   2
BRANCH   1  27
ATOM     27  C   UNL     1       2.701  -4.141  -2.205  1.00  0.00     0.275 C 
BRANCH  27  28
ATOM     28  O   UNL     1       2.963  -4.291  -0.806  1.00  0.00    -0.458 OA
BRANCH  28  29
ATOM     29  C   UNL     1       3.374  -3.130  -0.253  1.00  0.00     0.338 C 
ATOM     30  O   UNL     1       3.480  -2.058  -0.821  1.00  0.00    -0.246 OA
BRANCH  29  31
ATOM     31  C   UNL     1       3.852  -3.285   1.118  1.00  0.00     0.060 A 
ATOM     32  C   UNL     1       3.833  -2.113   1.888  1.00  0.00     0.016 A 
ATOM     33  C   UNL     1       4.788  -4.299   1.312  1.00  0.00     0.016 A 
ATOM     34  C   UNL     1       4.937  -1.817   2.654  1.00  0.00     0.010 A 
ATOM     35  C   UNL     1       5.891  -3.999   2.075  1.00  0.00     0.010 A 
ATOM     36  C   UNL     1       5.994  -2.723   2.646  1.00  0.00    -0.014 A 
BRANCH  36  37
ATOM     37  C   UNL     1       7.263  -2.294   3.204  1.00  0.00     0.031 A 
ATOM     38  C   UNL     1       7.377  -2.434   4.676  1.00  0.00     0.074 A 
ATOM     39  C   UNL     1       8.297  -2.021   2.383  1.00  0.00     0.049 A 
ATOM     40  N   UNL     1       7.757  -1.568   5.557  1.00  0.00    -0.248 NA
ATOM     41  C   UNL     1       6.898  -3.704   5.250  1.00  0.00     0.031 C 
ATOM     42  C   UNL     1       8.348  -2.206   0.926  1.00  0.00     0.029 A 
ATOM     43  N   UNL     1       9.580  -1.705   2.695  1.00  0.00    -0.354 N 
ATOM     44  C   UNL     1       7.732  -2.243   6.776  1.00  0.00     0.074 A 
ATOM     45  C   UNL     1       7.036  -3.481   6.552  1.00  0.00     0.031 C 
ATOM     46  C   UNL     1       9.642  -2.274   0.542  1.00  0.00     0.029 A 
ATOM     47  C   UNL     1      10.487  -2.043   1.702  1.00  0.00     0.049 A 
ATOM     48  H   UNL     1       9.841  -1.277   3.542  1.00  0.00     0.167 HD
ATOM     49  C   UNL     1       8.468  -1.855   7.852  1.00  0.00     0.037 A 
ATOM     50  C   UNL     1      11.812  -2.277   1.879  1.00  0.00     0.037 A 
ATOM     51  C   UNL     1       8.919  -0.497   7.738  1.00  0.00     0.049 A 
ATOM     52  C   UNL     1      12.196  -1.700   3.199  1.00  0.00     0.074 A 
ATOM     53  C   UNL     1       8.283   0.723   7.619  1.00  0.00     0.029 A 
ATOM     54  N   UNL     1      10.230  -0.270   7.393  1.00  0.00    -0.354 N 
ATOM     55  N   UNL     1      12.189  -0.425   3.485  1.00  0.00    -0.248 NA
ATOM     56  C   UNL     1      12.177  -2.590   4.353  1.00  0.00     0.031 C 
ATOM     57  C   UNL     1       9.118   1.497   6.764  1.00  0.00     0.029 A 
ATOM     58  C   UNL     1      10.221   0.710   6.432  1.00  0.00     0.049 A 
ATOM     59  H   UNL     1      11.022  -0.722   7.764  1.00  0.00     0.167 HD
ATOM     60  C   UNL     1      11.772  -0.350   4.809  1.00  0.00     0.074 A 
ATOM     61  C   UNL     1      11.869  -1.716   5.315  1.00  0.00     0.031 C 
ATOM     62  C   UNL     1      11.122   0.748   5.299  1.00  0.00     0.037 A 
BRANCH  49  63
ATOM     63  C   UNL     1       9.020  -2.823   8.866  1.00  0.00     0.058 A 
ATOM     64  C   UNL     1       9.512  -2.347  10.095  1.00  0.00     0.135 A 
ATOM     65  C   UNL     1       9.312  -4.175   8.570  1.00  0.00     0.135 A 
ATOM     66  F   UNL     1       9.311  -1.071  10.463  1.00  0.00    -0.206 F 
ATOM     67  C   UNL     1      10.284  -3.141  10.944  1.00  0.00     0.059 A 
ATOM     68  C   UNL     1      10.019  -5.002   9.431  1.00  0.00     0.059 A 
ATOM     69  F   UNL     1       9.012  -4.727   7.387  1.00  0.00    -0.206 F 
ATOM     70  C   UNL     1      10.545  -4.463  10.592  1.00  0.00     0.060 A 
BRANCH  70  71
ATOM     71  S   UNL     1      11.651  -5.456  11.609  1.00  0.00     0.124 S 
ATOM     72  O   UNL     1      12.947  -4.891  11.255  1.00  0.00    -0.237 OA
ATOM     73  O   UNL     1      11.172  -5.168  12.957  1.00  0.00    -0.237 OA
ATOM     74  O   UNL     1      11.403  -6.816  11.141  1.00  0.00    -0.744 OA
ENDBRANCH  70  71
ENDBRANCH  49  63
BRANCH  50  75
ATOM     75  C   UNL     1      12.622  -3.311   1.177  1.00  0.00     0.058 A 
ATOM     76  C   UNL     1      14.026  -3.286   1.206  1.00  0.00     0.135 A 
ATOM     77  C   UNL     1      12.038  -4.483   0.646  1.00  0.00     0.135 A 
ATOM     78  F   UNL     1      14.669  -2.235   1.736  1.00  0.00    -0.206 F 
ATOM     79  C   UNL     1      14.802  -4.359   0.747  1.00  0.00     0.059 A 
ATOM     80  C   UNL     1      12.787  -5.551   0.161  1.00  0.00     0.059 A 
ATOM     81  F   UNL     1      10.710  -4.670   0.663  1.00  0.00    -0.206 F 
ATOM     82  C   UNL     1      14.171  -5.491   0.231  1.00  0.00     0.060 A 
BRANCH  82  83
ATOM     83  S   UNL     1      15.157  -6.930  -0.246  1.00  0.00     0.124 S 
ATOM     84  O   UNL     1      15.878  -6.428  -1.411  1.00  0.00    -0.237 OA
ATOM     85  O   UNL     1      15.958  -7.163   0.951  1.00  0.00    -0.237 OA
ATOM     86  O   UNL     1      14.152  -7.952  -0.528  1.00  0.00    -0.744 OA
ENDBRANCH  82  83
ENDBRANCH  50  75
BRANCH  62  87
ATOM     87  C   UNL     1      11.085   2.001   4.462  1.00  0.00     0.058 A 
ATOM     88  C   UNL     1      10.436   2.084   3.217  1.00  0.00     0.135 A 
ATOM     89  C   UNL     1      11.540   3.204   5.024  1.00  0.00     0.135 A 
ATOM     90  F   UNL     1       9.870   1.004   2.664  1.00  0.00    -0.206 F 
ATOM     91  C   UNL     1      10.277   3.296   2.547  1.00  0.00     0.059 A 
ATOM     92  C   UNL     1      11.363   4.431   4.388  1.00  0.00     0.059 A 
ATOM     93  F   UNL     1      12.107   3.204   6.243  1.00  0.00    -0.206 F 
ATOM     94  C   UNL     1      10.736   4.468   3.144  1.00  0.00     0.060 A 
BRANCH  94  95
ATOM     95  S   UNL     1      10.414   6.047   2.328  1.00  0.00     0.124 S 
ATOM     96  O   UNL     1      11.383   6.032   1.238  1.00  0.00    -0.237 OA
ATOM     97  O   UNL     1       9.013   5.924   1.934  1.00  0.00    -0.237 OA
ATOM     98  O   UNL     1      10.670   7.031   3.378  1.00  0.00    -0.744 OA
ENDBRANCH  94  95
ENDBRANCH  62  87
ENDBRANCH  36  37
ENDBRANCH  29  31
ENDBRANCH  28  29
ENDBRANCH  27  28
ENDBRANCH   1  27
TORSDOF 17
