REMARK SMILES O=C(OCCOC(=O)c1ccc(F)c(S(=O)(=O)N2CCOc3ccccc32)c1)c1ccc(-c2c3nc(c(-c4c(F)cc(S(=O)(=O)[O-])cc4F)c4ccc([nH]4)c(-c4c(F)cc(S(=O)(=O)[O-])cc4F)c4nc(c(-c5c(F)cc(S(=O)(=O)[O-])cc5F)c5ccc2[nH]5)C=C4)C=C3)cc1
REMARK SMILES IDX 4 1 3 2 2 3 1 4 29 5 30 6 94 7 31 8 93 9 32 10 33 11 34 12
REMARK SMILES IDX 87 13 35 14 92 15 86 16 88 17 36 18 91 19 85 20 84 21 37 23
REMARK SMILES IDX 71 24 50 25 70 26 51 27 54 28 69 29 89 30 52 31 53 32 68 34
REMARK SMILES IDX 90 35 55 36 38 37 39 38 48 39 40 40 41 41 47 42 49 43 42 44
REMARK SMILES IDX 43 45 44 46 45 47 46 48 72 49 73 50 82 51 74 52 75 53 81 54
REMARK SMILES IDX 83 55 76 56 77 57 78 58 79 59 80 60 56 61 57 62 66 63 58 64
REMARK SMILES IDX 59 65 65 66 67 67 60 68 61 69 62 70 63 71 64 72 5 73 6 74
REMARK SMILES IDX 7 75 8 76 9 77 10 78 28 79 11 80 14 81 12 82 13 83 15 84
REMARK SMILES IDX 16 85 17 86 18 87 19 88 27 89 20 90 22 91 26 92 21 93 23 94
REMARK SMILES IDX 25 95 24 96
REMARK H PARENT 88 22 54 33
REMARK Flexibility Score: inf
ROOT
ATOM      1  C   UNL     1       3.936   0.017  -1.540  1.00  0.00     0.275 C 
ENDROOT
BRANCH   1   2
ATOM      2  O   UNL     1       2.910  -0.728  -0.861  1.00  0.00    -0.458 OA
BRANCH   2   3
ATOM      3  C   UNL     1       2.718  -0.972   0.457  1.00  0.00     0.338 C 
ATOM      4  O   UNL     1       1.805  -1.730   0.783  1.00  0.00    -0.246 OA
BRANCH   3   5
ATOM      5  C   UNL     1       3.477  -0.292   1.553  1.00  0.00     0.060 A 
ATOM      6  C   UNL     1       4.803   0.136   1.486  1.00  0.00     0.016 A 
ATOM      7  C   UNL     1       2.794  -0.119   2.772  1.00  0.00     0.016 A 
ATOM      8  C   UNL     1       5.409   0.780   2.569  1.00  0.00     0.010 A 
ATOM      9  C   UNL     1       3.391   0.530   3.859  1.00  0.00     0.010 A 
ATOM     10  C   UNL     1       4.710   0.978   3.763  1.00  0.00    -0.014 A 
BRANCH  10  11
ATOM     11  C   UNL     1       5.429   1.512   4.941  1.00  0.00     0.031 A 
ATOM     12  C   UNL     1       5.911   0.549   5.984  1.00  0.00     0.074 A 
ATOM     13  C   UNL     1       5.725   2.822   5.028  1.00  0.00     0.049 A 
ATOM     14  N   UNL     1       6.662   0.777   7.027  1.00  0.00    -0.248 NA
ATOM     15  C   UNL     1       5.533  -0.863   5.805  1.00  0.00     0.031 C 
ATOM     16  C   UNL     1       5.386   3.825   4.022  1.00  0.00     0.029 A 
ATOM     17  N   UNL     1       6.381   3.536   5.997  1.00  0.00    -0.354 N 
ATOM     18  C   UNL     1       6.898  -0.468   7.593  1.00  0.00     0.074 A 
ATOM     19  C   UNL     1       6.144  -1.437   6.829  1.00  0.00     0.031 C 
ATOM     20  C   UNL     1       5.786   5.035   4.447  1.00  0.00     0.029 A 
ATOM     21  C   UNL     1       6.437   4.887   5.745  1.00  0.00     0.049 A 
ATOM     22  H   UNL     1       6.775   3.121   6.798  1.00  0.00     0.167 HD
ATOM     23  C   UNL     1       7.707  -0.779   8.632  1.00  0.00     0.037 A 
ATOM     24  C   UNL     1       6.968   5.889   6.471  1.00  0.00     0.037 A 
ATOM     25  C   UNL     1       8.408   0.201   9.415  1.00  0.00     0.049 A 
ATOM     26  C   UNL     1       7.730   5.542   7.720  1.00  0.00     0.074 A 
ATOM     27  C   UNL     1       9.215   0.007  10.520  1.00  0.00     0.029 A 
ATOM     28  N   UNL     1       8.368   1.570   9.180  1.00  0.00    -0.354 N 
ATOM     29  N   UNL     1       7.965   4.356   8.231  1.00  0.00    -0.248 NA
ATOM     30  C   UNL     1       8.326   6.653   8.472  1.00  0.00     0.031 C 
ATOM     31  C   UNL     1       9.629   1.263  10.979  1.00  0.00     0.029 A 
ATOM     32  C   UNL     1       9.117   2.236  10.134  1.00  0.00     0.049 A 
ATOM     33  H   UNL     1       7.878   2.002   8.444  1.00  0.00     0.167 HD
ATOM     34  C   UNL     1       8.770   4.572   9.342  1.00  0.00     0.074 A 
ATOM     35  C   UNL     1       8.975   6.005   9.432  1.00  0.00     0.031 C 
ATOM     36  C   UNL     1       9.302   3.667  10.200  1.00  0.00     0.037 A 
BRANCH  23  37
ATOM     37  C   UNL     1       7.854  -2.236   8.961  1.00  0.00     0.058 A 
ATOM     38  C   UNL     1       7.242  -2.785  10.096  1.00  0.00     0.135 A 
ATOM     39  C   UNL     1       8.579  -3.100   8.122  1.00  0.00     0.135 A 
ATOM     40  F   UNL     1       6.526  -2.007  10.922  1.00  0.00    -0.206 F 
ATOM     41  C   UNL     1       7.335  -4.143  10.384  1.00  0.00     0.059 A 
ATOM     42  C   UNL     1       8.668  -4.464   8.380  1.00  0.00     0.059 A 
ATOM     43  F   UNL     1       9.159  -2.628   7.006  1.00  0.00    -0.206 F 
ATOM     44  C   UNL     1       8.045  -4.976   9.517  1.00  0.00     0.060 A 
BRANCH  44  45
ATOM     45  S   UNL     1       8.083  -6.749   9.858  1.00  0.00     0.124 S 
ATOM     46  O   UNL     1       8.979  -6.814  11.007  1.00  0.00    -0.237 OA
ATOM     47  O   UNL     1       6.678  -7.040  10.129  1.00  0.00    -0.237 OA
ATOM     48  O   UNL     1       8.603  -7.320   8.620  1.00  0.00    -0.744 OA
ENDBRANCH  44  45
ENDBRANCH  23  37
BRANCH  24  49
ATOM     49  C   UNL     1       6.834   7.293   5.999  1.00  0.00     0.058 A 
ATOM     50  C   UNL     1       5.591   7.947   6.029  1.00  0.00     0.135 A 
ATOM     51  C   UNL     1       7.923   7.988   5.454  1.00  0.00     0.135 A 
ATOM     52  F   UNL     1       4.514   7.324   6.530  1.00  0.00    -0.206 F 
ATOM     53  C   UNL     1       5.428   9.228   5.511  1.00  0.00     0.059 A 
ATOM     54  C   UNL     1       7.788   9.277   4.944  1.00  0.00     0.059 A 
ATOM     55  F   UNL     1       9.131   7.407   5.408  1.00  0.00    -0.206 F 
ATOM     56  C   UNL     1       6.531   9.881   4.961  1.00  0.00     0.060 A 
BRANCH  56  57
ATOM     57  S   UNL     1       6.283  11.519   4.240  1.00  0.00     0.124 S 
ATOM     58  O   UNL     1       5.425  11.206   3.100  1.00  0.00    -0.237 OA
ATOM     59  O   UNL     1       5.645  12.241   5.336  1.00  0.00    -0.237 OA
ATOM     60  O   UNL     1       7.636  11.951   3.906  1.00  0.00    -0.744 OA
ENDBRANCH  56  57
ENDBRANCH  24  49
BRANCH  36  61
ATOM     61  C   UNL     1      10.176   4.191  11.302  1.00  0.00     0.058 A 
ATOM     62  C   UNL     1      11.562   3.972  11.271  1.00  0.00     0.135 A 
ATOM     63  C   UNL     1       9.633   4.832  12.425  1.00  0.00     0.135 A 
ATOM     64  F   UNL     1      12.128   3.360  10.218  1.00  0.00    -0.206 F 
ATOM     65  C   UNL     1      12.379   4.350  12.329  1.00  0.00     0.059 A 
ATOM     66  C   UNL     1      10.436   5.242  13.485  1.00  0.00     0.059 A 
ATOM     67  F   UNL     1       8.315   5.075  12.493  1.00  0.00    -0.206 F 
ATOM     68  C   UNL     1      11.806   4.979  13.435  1.00  0.00     0.060 A 
BRANCH  68  69
ATOM     69  S   UNL     1      12.880   5.465  14.800  1.00  0.00     0.124 S 
ATOM     70  O   UNL     1      13.182   4.178  15.415  1.00  0.00    -0.237 OA
ATOM     71  O   UNL     1      13.989   6.113  14.106  1.00  0.00    -0.237 OA
ATOM     72  O   UNL     1      12.038   6.359  15.591  1.00  0.00    -0.744 OA
ENDBRANCH  68  69
ENDBRANCH  36  61
ENDBRANCH  10  11
ENDBRANCH   3   5
ENDBRANCH   2   3
ENDBRANCH   1   2
BRANCH   1  73
ATOM     73  C   UNL     1       3.676   1.518  -1.651  1.00  0.00     0.275 C 
BRANCH  73  74
ATOM     74  O   UNL     1       3.257   2.120  -0.419  1.00  0.00    -0.458 OA
BRANCH  74  75
ATOM     75  C   UNL     1       1.916   2.287  -0.275  1.00  0.00     0.338 C 
ATOM     76  O   UNL     1       1.045   1.972  -1.066  1.00  0.00    -0.246 OA
BRANCH  75  77
ATOM     77  C   UNL     1       1.645   2.830   1.073  1.00  0.00     0.061 A 
ATOM     78  C   UNL     1       2.412   3.884   1.580  1.00  0.00     0.019 A 
ATOM     79  C   UNL     1       0.638   2.247   1.855  1.00  0.00     0.041 A 
ATOM     80  C   UNL     1       2.208   4.313   2.890  1.00  0.00     0.041 A 
ATOM     81  C   UNL     1       0.475   2.659   3.187  1.00  0.00     0.124 A 
ATOM     82  C   UNL     1       1.279   3.670   3.701  1.00  0.00     0.143 A 
ATOM     83  F   UNL     1       1.217   4.054   4.980  1.00  0.00    -0.205 F 
BRANCH  81  84
ATOM     84  S   UNL     1      -0.714   1.810   4.195  1.00  0.00     0.267 S 
ATOM     85  O   UNL     1      -1.957   1.828   3.446  1.00  0.00    -0.201 OA
ATOM     86  O   UNL     1      -0.083   0.555   4.542  1.00  0.00    -0.201 OA
BRANCH  84  87
ATOM     87  N   UNL     1      -0.936   2.799   5.548  1.00  0.00    -0.259 N 
ATOM     88  C   UNL     1      -1.620   4.097   5.307  1.00  0.00     0.177 C 
ATOM     89  C   UNL     1      -1.146   2.249   6.872  1.00  0.00     0.094 A 
ATOM     90  C   UNL     1      -2.991   4.066   5.960  1.00  0.00     0.252 C 
ATOM     91  C   UNL     1      -2.057   2.882   7.744  1.00  0.00     0.143 A 
ATOM     92  C   UNL     1      -0.342   1.228   7.389  1.00  0.00     0.031 A 
ATOM     93  O   UNL     1      -2.882   3.923   7.379  1.00  0.00    -0.489 OA
ATOM     94  C   UNL     1      -2.149   2.503   9.086  1.00  0.00     0.049 A 
ATOM     95  C   UNL     1      -0.460   0.828   8.725  1.00  0.00     0.002 A 
ATOM     96  C   UNL     1      -1.355   1.470   9.576  1.00  0.00     0.004 A 
ENDBRANCH  84  87
ENDBRANCH  81  84
ENDBRANCH  75  77
ENDBRANCH  74  75
ENDBRANCH  73  74
ENDBRANCH   1  73
TORSDOF 16
