REMARK SMILES O=C(OCCOC(=O)c1cccc([C@@H]2CCC[N@H+](Cc3cccc(OCCO)c3)C2)c1)c1ccc(-c2c3nc(c(-c4c(F)cc(S(=O)(=O)[O-])cc4F)c4ccc([nH]4)c(-c4c(F)cc(S(=O)(=O)[O-])cc4F)c4nc(c(-c5c(F)cc(S(=O)(=O)[O-])cc5F)c5ccc2[nH]5)C=C4)C=C3)cc1
REMARK SMILES IDX 7 1 8 2 6 3 5 4 4 5 3 6 2 7 1 8 32 9 33 10 97 11 34 12 96 13
REMARK SMILES IDX 35 14 36 15 37 16 90 17 38 18 95 19 89 20 91 21 39 22 94 23
REMARK SMILES IDX 88 24 87 25 40 27 74 28 53 29 73 30 54 31 57 32 72 33 92 34
REMARK SMILES IDX 55 35 56 36 71 38 93 39 58 40 41 41 42 42 51 43 43 44 44 45
REMARK SMILES IDX 50 46 52 47 45 48 46 49 47 50 48 51 49 52 75 53 76 54 85 55
REMARK SMILES IDX 77 56 78 57 84 58 86 59 79 60 80 61 81 62 82 63 83 64 59 65
REMARK SMILES IDX 60 66 69 67 61 68 62 69 68 70 70 71 63 72 64 73 65 74 66 75
REMARK SMILES IDX 67 76 9 77 10 78 31 79 11 80 13 81 12 82 14 83 15 84 30 85
REMARK SMILES IDX 16 86 18 87 17 88 19 90 20 91 21 92 29 93 22 94 24 95 23 96
REMARK SMILES IDX 25 97 26 98 27 99 28 100
REMARK H PARENT 91 26 57 37 18 89 28 101
REMARK Flexibility Score: inf
ROOT
ATOM      1  C   UNL     1       2.187  -1.382   1.540  1.00  0.00     0.338 C 
ATOM      2  O   UNL     1       1.325  -0.620   1.911  1.00  0.00    -0.246 OA
ENDROOT
BRANCH   1   3
ATOM      3  O   UNL     1       3.531  -1.156   1.490  1.00  0.00    -0.458 OA
BRANCH   3   4
ATOM      4  C   UNL     1       3.955   0.099   2.026  1.00  0.00     0.275 C 
BRANCH   4   5
ATOM      5  C   UNL     1       4.138   1.183   0.966  1.00  0.00     0.275 C 
BRANCH   5   6
ATOM      6  O   UNL     1       3.021   1.338   0.073  1.00  0.00    -0.458 OA
BRANCH   6   7
ATOM      7  C   UNL     1       2.674   0.706  -1.070  1.00  0.00     0.338 C 
ATOM      8  O   UNL     1       1.630   1.062  -1.621  1.00  0.00    -0.246 OA
BRANCH   7   9
ATOM      9  C   UNL     1       3.424  -0.430  -1.710  1.00  0.00     0.060 A 
ATOM     10  C   UNL     1       4.744  -0.807  -1.468  1.00  0.00     0.016 A 
ATOM     11  C   UNL     1       2.709  -1.181  -2.667  1.00  0.00     0.016 A 
ATOM     12  C   UNL     1       5.309  -1.922  -2.111  1.00  0.00     0.010 A 
ATOM     13  C   UNL     1       3.249  -2.329  -3.261  1.00  0.00     0.010 A 
ATOM     14  C   UNL     1       4.548  -2.736  -2.958  1.00  0.00    -0.014 A 
BRANCH  14  15
ATOM     15  C   UNL     1       5.028  -4.042  -3.492  1.00  0.00     0.031 A 
ATOM     16  C   UNL     1       5.747  -4.124  -4.776  1.00  0.00     0.074 A 
ATOM     17  C   UNL     1       5.124  -5.124  -2.701  1.00  0.00     0.049 A 
ATOM     18  N   UNL     1       6.476  -5.112  -5.212  1.00  0.00    -0.248 NA
ATOM     19  C   UNL     1       5.800  -2.902  -5.581  1.00  0.00     0.031 C 
ATOM     20  C   UNL     1       5.446  -4.906  -1.319  1.00  0.00     0.029 A 
ATOM     21  N   UNL     1       5.276  -6.492  -2.869  1.00  0.00    -0.354 N 
ATOM     22  C   UNL     1       7.128  -4.619  -6.317  1.00  0.00     0.074 A 
ATOM     23  C   UNL     1       6.677  -3.255  -6.510  1.00  0.00     0.031 C 
ATOM     24  C   UNL     1       5.847  -6.079  -0.844  1.00  0.00     0.029 A 
ATOM     25  C   UNL     1       5.415  -7.188  -1.658  1.00  0.00     0.049 A 
ATOM     26  H   UNL     1       5.287  -6.931  -3.750  1.00  0.00     0.167 HD
ATOM     27  C   UNL     1       8.048  -5.249  -7.073  1.00  0.00     0.037 A 
ATOM     28  C   UNL     1       5.020  -8.487  -1.380  1.00  0.00     0.037 A 
ATOM     29  C   UNL     1       8.498  -6.594  -6.869  1.00  0.00     0.049 A 
ATOM     30  C   UNL     1       5.917  -9.220  -2.573  1.00  0.00     0.074 A 
ATOM     31  C   UNL     1       9.363  -7.335  -7.654  1.00  0.00     0.029 A 
ATOM     32  N   UNL     1       8.102  -7.404  -5.819  1.00  0.00    -0.354 N 
ATOM     33  N   UNL     1       6.691  -8.695  -3.529  1.00  0.00    -0.248 NA
ATOM     34  C   UNL     1       6.115 -10.649  -2.547  1.00  0.00     0.031 C 
ATOM     35  C   UNL     1       9.426  -8.627  -7.122  1.00  0.00     0.029 A 
ATOM     36  C   UNL     1       8.635  -8.668  -5.984  1.00  0.00     0.049 A 
ATOM     37  H   UNL     1       7.529  -7.123  -5.070  1.00  0.00     0.167 HD
ATOM     38  C   UNL     1       7.472  -9.735  -4.079  1.00  0.00     0.074 A 
ATOM     39  C   UNL     1       7.164 -10.898  -3.307  1.00  0.00     0.031 C 
ATOM     40  C   UNL     1       8.343  -9.784  -5.127  1.00  0.00     0.037 A 
BRANCH  27  41
ATOM     41  C   UNL     1       8.539  -4.508  -8.258  1.00  0.00     0.058 A 
ATOM     42  C   UNL     1       9.546  -3.541  -8.163  1.00  0.00     0.135 A 
ATOM     43  C   UNL     1       7.978  -4.790  -9.511  1.00  0.00     0.135 A 
ATOM     44  F   UNL     1      10.074  -3.223  -6.970  1.00  0.00    -0.206 F 
ATOM     45  C   UNL     1       9.988  -2.868  -9.291  1.00  0.00     0.059 A 
ATOM     46  C   UNL     1       8.416  -4.142 -10.651  1.00  0.00     0.059 A 
ATOM     47  F   UNL     1       6.994  -5.695  -9.623  1.00  0.00    -0.206 F 
ATOM     48  C   UNL     1       9.418  -3.180 -10.529  1.00  0.00     0.060 A 
BRANCH  48  49
ATOM     49  S   UNL     1      10.019  -2.318 -11.990  1.00  0.00     0.124 S 
ATOM     50  O   UNL     1       9.459  -0.985 -11.789  1.00  0.00    -0.237 OA
ATOM     51  O   UNL     1      11.466  -2.429 -11.840  1.00  0.00    -0.237 OA
ATOM     52  O   UNL     1       9.445  -3.081 -13.094  1.00  0.00    -0.744 OA
ENDBRANCH  48  49
ENDBRANCH  27  41
BRANCH  28  53
ATOM     53  C   UNL     1       4.223  -9.298   0.029  1.00  0.00     0.058 A 
ATOM     54  C   UNL     1       4.638  -9.780   1.362  1.00  0.00     0.135 A 
ATOM     55  C   UNL     1       2.843  -9.597   0.021  1.00  0.00     0.135 A 
ATOM     56  F   UNL     1       5.720  -9.467   2.044  1.00  0.00    -0.206 F 
ATOM     57  C   UNL     1       4.038 -10.645   2.288  1.00  0.00     0.059 A 
ATOM     58  C   UNL     1       2.124 -10.425   1.030  1.00  0.00     0.059 A 
ATOM     59  F   UNL     1       2.094  -9.139  -0.992  1.00  0.00    -0.206 F 
ATOM     60  C   UNL     1       2.774 -11.036   2.103  1.00  0.00     0.060 A 
BRANCH  60  61
ATOM     61  S   UNL     1       2.170 -12.225   3.320  1.00  0.00     0.124 S 
ATOM     62  O   UNL     1       2.655 -13.491   2.776  1.00  0.00    -0.237 OA
ATOM     63  O   UNL     1       2.813 -11.807   4.567  1.00  0.00    -0.237 OA
ATOM     64  O   UNL     1       0.728 -12.027   3.280  1.00  0.00    -0.744 OA
ENDBRANCH  60  61
ENDBRANCH  28  53
BRANCH  40  65
ATOM     65  C   UNL     1       8.980 -11.124  -5.487  1.00  0.00     0.058 A 
ATOM     66  C   UNL     1       8.197 -12.200  -5.946  1.00  0.00     0.135 A 
ATOM     67  C   UNL     1      10.373 -11.329  -5.446  1.00  0.00     0.135 A 
ATOM     68  F   UNL     1       6.864 -12.071  -6.038  1.00  0.00    -0.206 F 
ATOM     69  C   UNL     1       8.753 -13.432  -6.286  1.00  0.00     0.059 A 
ATOM     70  C   UNL     1      10.957 -12.545  -5.821  1.00  0.00     0.059 A 
ATOM     71  F   UNL     1      11.193 -10.339  -5.058  1.00  0.00    -0.206 F 
ATOM     72  C   UNL     1      10.135 -13.598  -6.220  1.00  0.00     0.060 A 
BRANCH  72  73
ATOM     73  S   UNL     1      10.835 -15.196  -6.698  1.00  0.00     0.124 S 
ATOM     74  O   UNL     1      10.475 -16.031  -5.557  1.00  0.00    -0.237 OA
ATOM     75  O   UNL     1      10.130 -15.489  -7.942  1.00  0.00    -0.237 OA
ATOM     76  O   UNL     1      12.260 -14.915  -6.845  1.00  0.00    -0.744 OA
ENDBRANCH  72  73
ENDBRANCH  40  65
ENDBRANCH  14  15
ENDBRANCH   7   9
ENDBRANCH   6   7
ENDBRANCH   5   6
ENDBRANCH   4   5
ENDBRANCH   3   4
ENDBRANCH   1   3
BRANCH   1  77
ATOM     77  C   UNL     1       1.946  -2.734   1.001  1.00  0.00     0.060 A 
ATOM     78  C   UNL     1       1.135  -2.880  -0.121  1.00  0.00     0.016 A 
ATOM     79  C   UNL     1       2.552  -3.845   1.616  1.00  0.00     0.020 A 
ATOM     80  C   UNL     1       0.996  -4.149  -0.676  1.00  0.00     0.001 A 
ATOM     81  C   UNL     1       2.392  -5.143   1.109  1.00  0.00    -0.038 A 
ATOM     82  C   UNL     1       1.623  -5.264  -0.074  1.00  0.00     0.004 A 
BRANCH  81  83
ATOM     83  C   UNL     1       3.080  -6.377   1.787  1.00  0.00     0.074 C 
ATOM     84  C   UNL     1       3.110  -6.380   3.307  1.00  0.00     0.020 C 
ATOM     85  C   UNL     1       4.557  -6.546   1.287  1.00  0.00     0.270 C 
ATOM     86  C   UNL     1       4.500  -5.974   3.819  1.00  0.00     0.062 C 
ATOM     87  N   UNL     1       5.665  -7.308   1.970  1.00  0.00    -0.331 N 
ATOM     88  C   UNL     1       5.674  -6.915   3.378  1.00  0.00     0.262 C 
ATOM     89  H   UNL     1       5.364  -8.221   1.628  1.00  0.00     0.348 HD
BRANCH  87  90
ATOM     90  C   UNL     1       7.142  -7.911   1.370  1.00  0.00     0.299 C 
BRANCH  90  91
ATOM     91  C   UNL     1       7.636  -9.539   1.111  1.00  0.00     0.010 A 
ATOM     92  C   UNL     1       8.591 -10.180   1.883  1.00  0.00     0.010 A 
ATOM     93  C   UNL     1       6.950 -10.457   0.255  1.00  0.00     0.056 A 
ATOM     94  C   UNL     1       8.655 -11.611   1.904  1.00  0.00     0.004 A 
ATOM     95  C   UNL     1       6.800 -11.870   0.391  1.00  0.00     0.119 A 
ATOM     96  C   UNL     1       7.714 -12.446   1.241  1.00  0.00     0.046 A 
BRANCH  95  97
ATOM     97  O   UNL     1       5.518 -12.433   0.275  1.00  0.00    -0.491 OA
BRANCH  97  98
ATOM     98  C   UNL     1       4.902 -13.110  -0.865  1.00  0.00     0.257 C 
BRANCH  98  99
ATOM     99  C   UNL     1       3.499 -12.526  -1.302  1.00  0.00     0.197 C 
BRANCH  99 100
ATOM    100  O   UNL     1       3.542 -11.347  -2.107  1.00  0.00    -0.393 OA
ATOM    101  H   UNL     1       3.946 -10.624  -1.601  1.00  0.00     0.210 HD
ENDBRANCH  99 100
ENDBRANCH  98  99
ENDBRANCH  97  98
ENDBRANCH  95  97
ENDBRANCH  90  91
ENDBRANCH  87  90
ENDBRANCH  81  83
ENDBRANCH   1  77
TORSDOF 21
