REMARK SMILES CC[C@@H]1CCC[C@@](Cc2ccccn2)(C(=O)OCCOC(=O)c2ccc(-c3c4nc(c(-c5c(F)cc(S(=O)(=O)[O-])cc5F)c5ccc([nH]5)c(-c5c(F)cc(S(=O)(=O)[O-])cc5F)c5nc(c(-c6c(F)cc(S(=O)(=O)[O-])cc6F)c6ccc3[nH]6)C=C5)C=C4)cc2)C1
REMARK SMILES IDX 19 1 18 2 17 3 15 4 16 5 7 6 3 7 4 8 89 9 5 10 6 11 2 12
REMARK SMILES IDX 1 13 8 14 9 15 10 16 14 17 11 18 13 19 12 20 20 21 21 22
REMARK SMILES IDX 22 23 23 24 24 25 88 26 25 27 87 28 26 29 27 30 28 31 81 32
REMARK SMILES IDX 29 33 86 34 80 35 82 36 30 37 85 38 79 39 78 40 31 42 65 43
REMARK SMILES IDX 44 44 64 45 45 46 48 47 63 48 83 49 46 50 47 51 62 53 84 54
REMARK SMILES IDX 49 55 32 56 33 57 42 58 34 59 35 60 41 61 43 62 36 63 37 64
REMARK SMILES IDX 38 65 39 66 40 67 66 68 67 69 76 70 68 71 69 72 75 73 77 74
REMARK SMILES IDX 70 75 71 76 72 77 73 78 74 79 50 80 51 81 60 82 52 83 53 84
REMARK SMILES IDX 59 85 61 86 54 87 55 88 56 89 57 90 58 91
REMARK H PARENT 82 41 48 52
REMARK Flexibility Score: inf
ROOT
ATOM      1  C   UNL     1       1.119  -2.305  -6.958  1.00  0.00     0.275 C 
ENDROOT
BRANCH   1   2
ATOM      2  C   UNL     1       2.480  -2.780  -6.460  1.00  0.00     0.274 C 
BRANCH   2   3
ATOM      3  O   UNL     1       2.438  -3.074  -5.047  1.00  0.00    -0.462 OA
BRANCH   3   4
ATOM      4  C   UNL     1       3.009  -2.159  -4.216  1.00  0.00     0.312 C 
ATOM      5  O   UNL     1       3.451  -1.078  -4.595  1.00  0.00    -0.252 OA
BRANCH   4   6
ATOM      6  C   UNL     1       3.205  -2.677  -2.783  1.00  0.00     0.074 C 
ATOM      7  C   UNL     1       1.227  -1.507  -1.550  1.00  0.00    -0.010 C 
ATOM      8  C   UNL     1       0.630  -2.876  -1.222  1.00  0.00     0.003 C 
ATOM      9  C   UNL     1       2.750  -1.591  -1.762  1.00  0.00     0.022 C 
ATOM     10  C   UNL     1       0.969  -3.877  -2.315  1.00  0.00     0.001 C 
ATOM     11  C   UNL     1       2.480  -4.013  -2.484  1.00  0.00     0.019 C 
BRANCH   7  12
ATOM     12  C   UNL     1       0.829  -0.438  -0.511  1.00  0.00     0.000 C 
ATOM     13  C   UNL     1       1.277  -0.686   0.921  1.00  0.00     0.004 C 
ENDBRANCH   7  12
BRANCH   6  14
ATOM     14  C   UNL     1       4.753  -2.846  -2.637  1.00  0.00     0.075 C 
BRANCH  14  15
ATOM     15  C   UNL     1       5.333  -3.986  -3.442  1.00  0.00     0.041 A 
ATOM     16  C   UNL     1       5.668  -3.827  -4.785  1.00  0.00     0.024 A 
ATOM     17  N   UNL     1       5.424  -5.182  -2.811  1.00  0.00    -0.261 NA
ATOM     18  C   UNL     1       6.068  -4.942  -5.514  1.00  0.00     0.003 A 
ATOM     19  C   UNL     1       5.831  -6.242  -3.537  1.00  0.00     0.111 A 
ATOM     20  C   UNL     1       6.148  -6.177  -4.882  1.00  0.00     0.020 A 
ENDBRANCH  14  15
ENDBRANCH   6  14
ENDBRANCH   4   6
ENDBRANCH   3   4
ENDBRANCH   2   3
ENDBRANCH   1   2
BRANCH   1  21
ATOM     21  O   UNL     1       0.811  -1.061  -6.316  1.00  0.00    -0.458 OA
BRANCH  21  22
ATOM     22  C   UNL     1      -0.475  -0.886  -5.931  1.00  0.00     0.338 C 
ATOM     23  O   UNL     1      -1.420  -1.596  -6.229  1.00  0.00    -0.246 OA
BRANCH  22  24
ATOM     24  C   UNL     1      -0.571   0.279  -5.014  1.00  0.00     0.060 A 
ATOM     25  C   UNL     1       0.543   0.732  -4.311  1.00  0.00     0.016 A 
ATOM     26  C   UNL     1      -1.816   0.853  -4.751  1.00  0.00     0.016 A 
ATOM     27  C   UNL     1       0.390   1.636  -3.260  1.00  0.00     0.010 A 
ATOM     28  C   UNL     1      -1.943   1.843  -3.763  1.00  0.00     0.010 A 
ATOM     29  C   UNL     1      -0.855   2.203  -2.949  1.00  0.00    -0.014 A 
BRANCH  29  30
ATOM     30  C   UNL     1      -1.030   3.076  -1.738  1.00  0.00     0.031 A 
ATOM     31  C   UNL     1      -2.162   2.822  -0.761  1.00  0.00     0.074 A 
ATOM     32  C   UNL     1      -0.167   4.075  -1.449  1.00  0.00     0.049 A 
ATOM     33  N   UNL     1      -2.630   3.599   0.185  1.00  0.00    -0.248 NA
ATOM     34  C   UNL     1      -2.878   1.542  -0.879  1.00  0.00     0.031 C 
ATOM     35  C   UNL     1       1.009   4.448  -2.236  1.00  0.00     0.029 A 
ATOM     36  N   UNL     1      -0.134   4.950  -0.386  1.00  0.00    -0.354 N 
ATOM     37  C   UNL     1      -3.756   2.956   0.692  1.00  0.00     0.074 A 
ATOM     38  C   UNL     1      -3.883   1.708  -0.030  1.00  0.00     0.031 C 
ATOM     39  C   UNL     1       1.695   5.400  -1.588  1.00  0.00     0.029 A 
ATOM     40  C   UNL     1       0.945   5.804  -0.404  1.00  0.00     0.049 A 
ATOM     41  H   UNL     1      -0.819   4.964   0.321  1.00  0.00     0.167 HD
ATOM     42  C   UNL     1      -4.611   3.371   1.659  1.00  0.00     0.037 A 
ATOM     43  C   UNL     1       1.281   6.831   0.401  1.00  0.00     0.037 A 
ATOM     44  C   UNL     1      -4.416   4.546   2.472  1.00  0.00     0.049 A 
ATOM     45  C   UNL     1       0.361   7.237   1.514  1.00  0.00     0.074 A 
ATOM     46  C   UNL     1      -5.225   5.038   3.484  1.00  0.00     0.029 A 
ATOM     47  N   UNL     1      -3.314   5.384   2.405  1.00  0.00    -0.354 N 
ATOM     48  N   UNL     1      -0.785   6.709   1.869  1.00  0.00    -0.248 NA
ATOM     49  C   UNL     1       0.762   8.405   2.312  1.00  0.00     0.031 C 
ATOM     50  C   UNL     1      -4.616   6.179   4.023  1.00  0.00     0.029 A 
ATOM     51  C   UNL     1      -3.414   6.378   3.366  1.00  0.00     0.049 A 
ATOM     52  H   UNL     1      -2.570   5.287   1.769  1.00  0.00     0.167 HD
ATOM     53  C   UNL     1      -1.252   7.492   2.918  1.00  0.00     0.074 A 
ATOM     54  C   UNL     1      -0.246   8.504   3.167  1.00  0.00     0.031 C 
ATOM     55  C   UNL     1      -2.419   7.391   3.599  1.00  0.00     0.037 A 
BRANCH  42  56
ATOM     56  C   UNL     1      -5.868   2.574   1.878  1.00  0.00     0.058 A 
ATOM     57  C   UNL     1      -5.874   1.343   2.548  1.00  0.00     0.135 A 
ATOM     58  C   UNL     1      -7.104   3.096   1.456  1.00  0.00     0.135 A 
ATOM     59  F   UNL     1      -4.721   0.790   2.956  1.00  0.00    -0.206 F 
ATOM     60  C   UNL     1      -7.059   0.648   2.779  1.00  0.00     0.059 A 
ATOM     61  C   UNL     1      -8.302   2.431   1.697  1.00  0.00     0.059 A 
ATOM     62  F   UNL     1      -7.155   4.272   0.811  1.00  0.00    -0.206 F 
ATOM     63  C   UNL     1      -8.268   1.200   2.350  1.00  0.00     0.060 A 
BRANCH  63  64
ATOM     64  S   UNL     1      -9.803   0.307   2.679  1.00  0.00     0.124 S 
ATOM     65  O   UNL     1      -9.768  -0.721   1.643  1.00  0.00    -0.237 OA
ATOM     66  O   UNL     1      -9.607  -0.165   4.046  1.00  0.00    -0.237 OA
ATOM     67  O   UNL     1     -10.832   1.329   2.516  1.00  0.00    -0.744 OA
ENDBRANCH  63  64
ENDBRANCH  42  56
BRANCH  43  68
ATOM     68  C   UNL     1       2.534   7.588   0.138  1.00  0.00     0.058 A 
ATOM     69  C   UNL     1       3.640   7.471   0.992  1.00  0.00     0.135 A 
ATOM     70  C   UNL     1       2.662   8.408  -0.994  1.00  0.00     0.135 A 
ATOM     71  F   UNL     1       3.557   6.715   2.098  1.00  0.00    -0.206 F 
ATOM     72  C   UNL     1       4.835   8.131   0.727  1.00  0.00     0.059 A 
ATOM     73  C   UNL     1       3.855   9.053  -1.295  1.00  0.00     0.059 A 
ATOM     74  F   UNL     1       1.633   8.546  -1.844  1.00  0.00    -0.206 F 
ATOM     75  C   UNL     1       4.936   8.911  -0.426  1.00  0.00     0.060 A 
BRANCH  75  76
ATOM     76  S   UNL     1       6.519   9.680  -0.834  1.00  0.00     0.124 S 
ATOM     77  O   UNL     1       6.467  10.898  -0.035  1.00  0.00    -0.237 OA
ATOM     78  O   UNL     1       7.481   8.671  -0.398  1.00  0.00    -0.237 OA
ATOM     79  O   UNL     1       6.433   9.864  -2.280  1.00  0.00    -0.744 OA
ENDBRANCH  75  76
ENDBRANCH  43  68
BRANCH  55  80
ATOM     80  C   UNL     1      -2.659   8.401   4.684  1.00  0.00     0.058 A 
ATOM     81  C   UNL     1      -3.008   9.727   4.384  1.00  0.00     0.135 A 
ATOM     82  C   UNL     1      -2.522   8.047   6.035  1.00  0.00     0.135 A 
ATOM     83  F   UNL     1      -3.147  10.117   3.107  1.00  0.00    -0.206 F 
ATOM     84  C   UNL     1      -3.168  10.680   5.385  1.00  0.00     0.059 A 
ATOM     85  C   UNL     1      -2.696   8.979   7.053  1.00  0.00     0.059 A 
ATOM     86  F   UNL     1      -2.200   6.788   6.375  1.00  0.00    -0.206 F 
ATOM     87  C   UNL     1      -2.997  10.299   6.717  1.00  0.00     0.060 A 
BRANCH  87  88
ATOM     88  S   UNL     1      -3.174  11.546   8.011  1.00  0.00     0.124 S 
ATOM     89  O   UNL     1      -1.885  12.225   7.940  1.00  0.00    -0.237 OA
ATOM     90  O   UNL     1      -4.324  12.319   7.552  1.00  0.00    -0.237 OA
ATOM     91  O   UNL     1      -3.402  10.752   9.215  1.00  0.00    -0.744 OA
ENDBRANCH  87  88
ENDBRANCH  55  80
ENDBRANCH  29  30
ENDBRANCH  22  24
ENDBRANCH  21  22
ENDBRANCH   1  21
TORSDOF 17
