REMARK SMILES CCc1noc(C[N@@H+]2CC[C@H](Cc3cccc(C(=O)OCCOC(=O)c4ccc(-c5c6nc(c(-c7c(F)cc(S(=O)(=O)[O-])cc7F)c7ccc([nH]7)c(-c7c(F)cc(S(=O)(=O)[O-])cc7F)c7nc(c(-c8c(F)cc(S(=O)(=O)[O-])cc8F)c8ccc5[nH]8)C=C7)C=C6)cc4)c3)C2)n1
REMARK SMILES IDX 21 1 20 2 18 3 19 4 17 5 13 6 14 7 92 8 15 9 16 10 12 11
REMARK SMILES IDX 11 12 8 13 9 14 93 15 10 17 7 18 6 19 3 20 4 21 94 22 5 23
REMARK SMILES IDX 2 24 1 25 22 26 23 27 24 28 25 29 26 30 27 31 91 32 28 33
REMARK SMILES IDX 90 34 29 35 30 36 31 37 84 38 32 39 89 40 83 41 85 42 33 43
REMARK SMILES IDX 88 44 82 45 81 46 34 48 68 49 47 50 67 51 48 52 51 53 66 54
REMARK SMILES IDX 86 55 49 56 50 57 65 59 87 60 52 61 35 62 36 63 45 64 37 65
REMARK SMILES IDX 38 66 44 67 46 68 39 69 40 70 41 71 42 72 43 73 69 74 70 75
REMARK SMILES IDX 79 76 71 77 72 78 78 79 80 80 73 81 74 82 75 83 76 84 77 85
REMARK SMILES IDX 53 86 54 87 63 88 55 89 56 90 62 91 64 92 57 93 58 94 59 95
REMARK SMILES IDX 60 96 61 97
REMARK H PARENT 8 16 85 47 51 58
REMARK Flexibility Score: inf
ROOT
ATOM      1  C   UNL     1       9.609  -3.040  -2.174  1.00  0.00     0.275 C 
ENDROOT
BRANCH   1   2
ATOM      2  O   UNL     1       8.309  -2.429  -2.136  1.00  0.00    -0.458 OA
BRANCH   2   3
ATOM      3  C   UNL     1       7.246  -3.268  -2.188  1.00  0.00     0.338 C 
ATOM      4  O   UNL     1       7.288  -4.480  -2.331  1.00  0.00    -0.246 OA
BRANCH   3   5
ATOM      5  C   UNL     1       5.985  -2.518  -1.962  1.00  0.00     0.060 A 
ATOM      6  C   UNL     1       4.709  -0.465  -1.987  1.00  0.00    -0.047 A 
ATOM      7  C   UNL     1       3.588  -1.170  -1.532  1.00  0.00     0.004 A 
ATOM      8  C   UNL     1       5.924  -1.136  -2.146  1.00  0.00     0.019 A 
ATOM      9  C   UNL     1       3.649  -2.540  -1.310  1.00  0.00     0.001 A 
ATOM     10  C   UNL     1       4.831  -3.219  -1.581  1.00  0.00     0.016 A 
BRANCH   6  11
ATOM     11  C   UNL     1       4.567   0.955  -2.469  1.00  0.00     0.045 C 
BRANCH  11  12
ATOM     12  C   UNL     1       4.756   1.038  -3.994  1.00  0.00     0.054 C 
ATOM     13  N   UNL     1       3.372   2.091  -5.675  1.00  0.00    -0.327 N 
ATOM     14  C   UNL     1       3.586   0.695  -6.061  1.00  0.00     0.263 C 
ATOM     15  C   UNL     1       4.313   2.380  -4.582  1.00  0.00     0.266 C 
ATOM     16  H   UNL     1       3.560   2.701  -6.470  1.00  0.00     0.348 HD
ATOM     17  C   UNL     1       3.980  -0.018  -4.788  1.00  0.00     0.071 C 
BRANCH  13  18
ATOM     18  C   UNL     1       1.967   2.418  -5.352  1.00  0.00     0.364 C 
BRANCH  18  19
ATOM     19  C   UNL     1       1.359   1.834  -4.116  1.00  0.00     0.281 A 
ATOM     20  C   UNL     1       0.564   1.365  -2.234  1.00  0.00     0.171 A 
ATOM     21  N   UNL     1       0.199   0.321  -2.991  1.00  0.00    -0.062 NA
ATOM     22  N   UNL     1       1.282   2.330  -2.898  1.00  0.00    -0.191 NA
ATOM     23  O   UNL     1       0.724   0.632  -4.247  1.00  0.00    -0.333 OA
BRANCH  20  24
ATOM     24  C   UNL     1       0.138   1.518  -0.817  1.00  0.00     0.078 C 
ATOM     25  C   UNL     1       0.669   0.446   0.121  1.00  0.00     0.012 C 
ENDBRANCH  20  24
ENDBRANCH  18  19
ENDBRANCH  13  18
ENDBRANCH  11  12
ENDBRANCH   6  11
ENDBRANCH   3   5
ENDBRANCH   2   3
ENDBRANCH   1   2
BRANCH   1  26
ATOM     26  C   UNL     1      10.229  -3.095  -0.776  1.00  0.00     0.275 C 
BRANCH  26  27
ATOM     27  O   UNL     1       9.537  -4.036   0.067  1.00  0.00    -0.458 OA
BRANCH  27  28
ATOM     28  C   UNL     1       8.636  -3.482   0.911  1.00  0.00     0.338 C 
ATOM     29  O   UNL     1       8.395  -2.294   1.055  1.00  0.00    -0.246 OA
BRANCH  28  30
ATOM     30  C   UNL     1       7.845  -4.525   1.579  1.00  0.00     0.060 A 
ATOM     31  C   UNL     1       6.582  -4.784   1.061  1.00  0.00     0.016 A 
ATOM     32  C   UNL     1       8.228  -5.090   2.791  1.00  0.00     0.016 A 
ATOM     33  C   UNL     1       5.649  -5.517   1.782  1.00  0.00     0.010 A 
ATOM     34  C   UNL     1       7.314  -5.899   3.485  1.00  0.00     0.010 A 
ATOM     35  C   UNL     1       5.997  -6.078   3.013  1.00  0.00    -0.014 A 
BRANCH  35  36
ATOM     36  C   UNL     1       4.952  -6.751   3.838  1.00  0.00     0.031 A 
ATOM     37  C   UNL     1       4.633  -6.228   5.216  1.00  0.00     0.074 A 
ATOM     38  C   UNL     1       4.253  -7.796   3.351  1.00  0.00     0.049 A 
ATOM     39  N   UNL     1       3.875  -6.746   6.149  1.00  0.00    -0.248 NA
ATOM     40  C   UNL     1       5.271  -4.960   5.601  1.00  0.00     0.031 C 
ATOM     41  C   UNL     1       4.412  -8.374   2.015  1.00  0.00     0.029 A 
ATOM     42  N   UNL     1       3.264  -8.560   3.924  1.00  0.00    -0.354 N 
ATOM     43  C   UNL     1       3.993  -5.902   7.248  1.00  0.00     0.074 A 
ATOM     44  C   UNL     1       4.917  -4.854   6.873  1.00  0.00     0.031 C 
ATOM     45  C   UNL     1       3.543  -9.384   1.865  1.00  0.00     0.029 A 
ATOM     46  C   UNL     1       2.825  -9.585   3.119  1.00  0.00     0.049 A 
ATOM     47  H   UNL     1       2.905  -8.390   4.825  1.00  0.00     0.167 HD
ATOM     48  C   UNL     1       3.384  -5.988   8.457  1.00  0.00     0.037 A 
ATOM     49  C   UNL     1       1.980 -10.604   3.371  1.00  0.00     0.037 A 
ATOM     50  C   UNL     1       2.433  -7.014   8.806  1.00  0.00     0.049 A 
ATOM     51  C   UNL     1       1.336 -10.705   4.724  1.00  0.00     0.074 A 
ATOM     52  C   UNL     1       1.748  -7.187   9.996  1.00  0.00     0.029 A 
ATOM     53  N   UNL     1       2.026  -8.040   7.962  1.00  0.00    -0.354 N 
ATOM     54  N   UNL     1       1.489  -9.926   5.769  1.00  0.00    -0.248 NA
ATOM     55  C   UNL     1       0.407 -11.822   4.936  1.00  0.00     0.031 C 
ATOM     56  C   UNL     1       0.969  -8.344   9.890  1.00  0.00     0.029 A 
ATOM     57  C   UNL     1       1.114  -8.857   8.611  1.00  0.00     0.049 A 
ATOM     58  H   UNL     1       2.341  -8.168   7.038  1.00  0.00     0.167 HD
ATOM     59  C   UNL     1       0.659 -10.445   6.757  1.00  0.00     0.074 A 
ATOM     60  C   UNL     1      -0.003 -11.598   6.177  1.00  0.00     0.031 C 
ATOM     61  C   UNL     1       0.461 -10.004   8.025  1.00  0.00     0.037 A 
BRANCH  48  62
ATOM     62  C   UNL     1       3.774  -4.972   9.502  1.00  0.00     0.058 A 
ATOM     63  C   UNL     1       3.462  -3.608   9.379  1.00  0.00     0.135 A 
ATOM     64  C   UNL     1       4.502  -5.371  10.636  1.00  0.00     0.135 A 
ATOM     65  F   UNL     1       2.778  -3.164   8.312  1.00  0.00    -0.206 F 
ATOM     66  C   UNL     1       3.912  -2.670  10.304  1.00  0.00     0.059 A 
ATOM     67  C   UNL     1       4.929  -4.455  11.594  1.00  0.00     0.059 A 
ATOM     68  F   UNL     1       4.823  -6.662  10.815  1.00  0.00    -0.206 F 
ATOM     69  C   UNL     1       4.654  -3.103  11.404  1.00  0.00     0.060 A 
BRANCH  69  70
ATOM     70  S   UNL     1       5.277  -1.871  12.567  1.00  0.00     0.124 S 
ATOM     71  O   UNL     1       6.349  -1.254  11.790  1.00  0.00    -0.237 OA
ATOM     72  O   UNL     1       4.103  -1.036  12.799  1.00  0.00    -0.237 OA
ATOM     73  O   UNL     1       5.711  -2.669  13.709  1.00  0.00    -0.744 OA
ENDBRANCH  69  70
ENDBRANCH  48  62
BRANCH  49  74
ATOM     74  C   UNL     1       1.732 -11.621   2.313  1.00  0.00     0.058 A 
ATOM     75  C   UNL     1       0.500 -11.700   1.649  1.00  0.00     0.135 A 
ATOM     76  C   UNL     1       2.754 -12.493   1.899  1.00  0.00     0.135 A 
ATOM     77  F   UNL     1      -0.512 -10.899   2.016  1.00  0.00    -0.206 F 
ATOM     78  C   UNL     1       0.291 -12.598   0.606  1.00  0.00     0.059 A 
ATOM     79  C   UNL     1       2.579 -13.377   0.840  1.00  0.00     0.059 A 
ATOM     80  F   UNL     1       3.956 -12.451   2.496  1.00  0.00    -0.206 F 
ATOM     81  C   UNL     1       1.343 -13.422   0.200  1.00  0.00     0.060 A 
BRANCH  81  82
ATOM     82  S   UNL     1       1.091 -14.511  -1.220  1.00  0.00     0.124 S 
ATOM     83  O   UNL     1       0.190 -15.515  -0.666  1.00  0.00    -0.237 OA
ATOM     84  O   UNL     1       0.509 -13.602  -2.202  1.00  0.00    -0.237 OA
ATOM     85  O   UNL     1       2.440 -14.976  -1.530  1.00  0.00    -0.744 OA
ENDBRANCH  81  82
ENDBRANCH  49  74
BRANCH  61  86
ATOM     86  C   UNL     1      -0.552 -10.740   8.862  1.00  0.00     0.058 A 
ATOM     87  C   UNL     1      -0.319 -12.036   9.349  1.00  0.00     0.135 A 
ATOM     88  C   UNL     1      -1.764 -10.120   9.209  1.00  0.00     0.135 A 
ATOM     89  F   UNL     1       0.820 -12.678   9.044  1.00  0.00    -0.206 F 
ATOM     90  C   UNL     1      -1.265 -12.704  10.120  1.00  0.00     0.059 A 
ATOM     91  C   UNL     1      -2.710 -10.757  10.005  1.00  0.00     0.059 A 
ATOM     92  F   UNL     1      -2.035  -8.877   8.780  1.00  0.00    -0.206 F 
ATOM     93  C   UNL     1      -2.459 -12.056  10.443  1.00  0.00     0.060 A 
BRANCH  93  94
ATOM     94  S   UNL     1      -3.673 -12.927  11.456  1.00  0.00     0.124 S 
ATOM     95  O   UNL     1      -4.193 -13.910  10.511  1.00  0.00    -0.237 OA
ATOM     96  O   UNL     1      -2.852 -13.461  12.538  1.00  0.00    -0.237 OA
ATOM     97  O   UNL     1      -4.608 -11.876  11.846  1.00  0.00    -0.744 OA
ENDBRANCH  93  94
ENDBRANCH  61  86
ENDBRANCH  35  36
ENDBRANCH  28  30
ENDBRANCH  27  28
ENDBRANCH  26  27
ENDBRANCH   1  26
TORSDOF 19
