REMARK SMILES Cc1nn(C)c(=O)c(C(=O)N2CCCC[C@H]2C(=O)OCCOC(=O)c2ccc(-c3c4nc(c(-c5c(F)cc(S(=O)(=O)[O-])cc5F)c5ccc([nH]5)c(-c5c(F)cc(S(=O)(=O)[O-])cc5F)c5nc(c(-c6c(F)cc(S(=O)(=O)[O-])cc6F)c6ccc3[nH]6)C=C5)C=C4)cc2)c1C
REMARK SMILES IDX 21 1 20 2 19 3 17 4 18 5 16 6 11 7 12 8 13 9 15 10 14 11
REMARK SMILES IDX 9 12 10 13 8 14 1 15 2 16 3 17 91 18 4 19 92 20 5 21 6 22
REMARK SMILES IDX 7 23 22 24 23 25 24 26 25 27 26 28 90 29 27 30 89 31 28 32
REMARK SMILES IDX 29 33 30 34 83 35 31 36 88 37 82 38 84 39 32 40 87 41 81 42
REMARK SMILES IDX 80 43 33 45 67 46 46 47 66 48 47 49 50 50 65 51 85 52 48 53
REMARK SMILES IDX 49 54 64 56 86 57 51 58 34 59 35 60 44 61 36 62 37 63 43 64
REMARK SMILES IDX 45 65 38 66 39 67 40 68 41 69 42 70 68 71 69 72 78 73 70 74
REMARK SMILES IDX 71 75 77 76 79 77 72 78 73 79 74 80 75 81 76 82 52 83 53 84
REMARK SMILES IDX 62 85 54 86 55 87 61 88 63 89 56 90 57 91 58 92 59 93 60 94
REMARK H PARENT 84 44 50 55
REMARK Flexibility Score: inf
ROOT
ATOM      1  C   UNL     1       2.524   2.267  -3.817  1.00  0.00     0.275 C 
ENDROOT
BRANCH   1   2
ATOM      2  C   UNL     1       3.439   3.028  -2.849  1.00  0.00     0.274 C 
BRANCH   2   3
ATOM      3  O   UNL     1       2.678   3.445  -1.696  1.00  0.00    -0.461 OA
BRANCH   3   4
ATOM      4  C   UNL     1       2.403   4.758  -1.492  1.00  0.00     0.328 C 
ATOM      5  O   UNL     1       2.870   5.648  -2.188  1.00  0.00    -0.250 OA
BRANCH   4   6
ATOM      6  C   UNL     1       1.432   4.947  -0.267  1.00  0.00     0.195 C 
ATOM      7  N   UNL     1       2.101   4.760   1.041  1.00  0.00    -0.325 N 
ATOM      8  C   UNL     1       3.193   5.719   1.268  1.00  0.00     0.121 C 
ATOM      9  C   UNL     1       2.708   7.170   1.216  1.00  0.00     0.022 C 
ATOM     10  C   UNL     1       0.814   6.369  -0.235  1.00  0.00     0.037 C 
ATOM     11  C   UNL     1       1.865   7.463  -0.020  1.00  0.00     0.005 C 
BRANCH   7  12
ATOM     12  C   UNL     1       1.514   4.194   2.178  1.00  0.00     0.260 C 
ATOM     13  O   UNL     1       1.758   4.694   3.282  1.00  0.00    -0.269 OA
BRANCH  12  14
ATOM     14  C   UNL     1       0.707   2.904   2.166  1.00  0.00     0.111 A 
ATOM     15  C   UNL     1       0.354  -0.599   0.700  1.00  0.00     0.069 C 
ATOM     16  C   UNL     1       0.269   0.552   1.685  1.00  0.00     0.062 A 
ATOM     17  N   UNL     1      -0.377   0.317   2.776  1.00  0.00    -0.175 NA
ATOM     18  C   UNL     1       0.963   1.839   1.377  1.00  0.00    -0.010 A 
ATOM     19  N   UNL     1      -0.548   1.357   3.637  1.00  0.00    -0.232 N 
ATOM     20  C   UNL     1       1.969   1.745   0.293  1.00  0.00     0.047 C 
ATOM     21  C   UNL     1      -1.221   1.010   4.877  1.00  0.00     0.178 C 
ATOM     22  C   UNL     1      -0.238   2.682   3.329  1.00  0.00     0.279 A 
ATOM     23  O   UNL     1      -0.684   3.624   3.982  1.00  0.00    -0.267 OA
ENDBRANCH  12  14
ENDBRANCH   7  12
ENDBRANCH   4   6
ENDBRANCH   3   4
ENDBRANCH   2   3
ENDBRANCH   1   2
BRANCH   1  24
ATOM     24  O   UNL     1       1.754   3.185  -4.614  1.00  0.00    -0.458 OA
BRANCH  24  25
ATOM     25  C   UNL     1       0.584   3.580  -4.060  1.00  0.00     0.338 C 
ATOM     26  O   UNL     1       0.071   3.149  -3.041  1.00  0.00    -0.246 OA
BRANCH  25  27
ATOM     27  C   UNL     1       0.159   4.831  -4.708  1.00  0.00     0.060 A 
ATOM     28  C   UNL     1       0.169   5.960  -3.897  1.00  0.00     0.016 A 
ATOM     29  C   UNL     1      -0.247   4.929  -6.034  1.00  0.00     0.016 A 
ATOM     30  C   UNL     1      -0.232   7.196  -4.367  1.00  0.00     0.010 A 
ATOM     31  C   UNL     1      -0.640   6.182  -6.527  1.00  0.00     0.010 A 
ATOM     32  C   UNL     1      -0.635   7.320  -5.694  1.00  0.00    -0.014 A 
BRANCH  32  33
ATOM     33  C   UNL     1      -1.113   8.637  -6.165  1.00  0.00     0.031 A 
ATOM     34  C   UNL     1      -2.574   8.828  -6.436  1.00  0.00     0.074 A 
ATOM     35  C   UNL     1      -0.257   9.672  -6.260  1.00  0.00     0.049 A 
ATOM     36  N   UNL     1      -3.186   9.838  -6.990  1.00  0.00    -0.248 NA
ATOM     37  C   UNL     1      -3.464   7.732  -6.021  1.00  0.00     0.031 C 
ATOM     38  C   UNL     1       1.160   9.633  -5.891  1.00  0.00     0.029 A 
ATOM     39  N   UNL     1      -0.457  10.961  -6.681  1.00  0.00    -0.354 N 
ATOM     40  C   UNL     1      -4.528   9.484  -7.035  1.00  0.00     0.074 A 
ATOM     41  C   UNL     1      -4.641   8.167  -6.447  1.00  0.00     0.031 C 
ATOM     42  C   UNL     1       1.697  10.848  -6.087  1.00  0.00     0.029 A 
ATOM     43  C   UNL     1       0.687  11.724  -6.671  1.00  0.00     0.049 A 
ATOM     44  H   UNL     1      -1.334  11.308  -6.962  1.00  0.00     0.167 HD
ATOM     45  C   UNL     1      -5.565  10.197  -7.534  1.00  0.00     0.037 A 
ATOM     46  C   UNL     1       0.904  12.973  -7.126  1.00  0.00     0.037 A 
ATOM     47  C   UNL     1      -5.424  11.515  -8.098  1.00  0.00     0.049 A 
ATOM     48  C   UNL     1      -0.239  13.717  -7.756  1.00  0.00     0.074 A 
ATOM     49  C   UNL     1      -6.391  12.313  -8.681  1.00  0.00     0.029 A 
ATOM     50  N   UNL     1      -4.235  12.233  -8.137  1.00  0.00    -0.354 N 
ATOM     51  N   UNL     1      -1.486  13.333  -7.904  1.00  0.00    -0.248 NA
ATOM     52  C   UNL     1       0.051  15.048  -8.300  1.00  0.00     0.031 C 
ATOM     53  C   UNL     1      -5.778  13.497  -9.108  1.00  0.00     0.029 A 
ATOM     54  C   UNL     1      -4.440  13.460  -8.745  1.00  0.00     0.049 A 
ATOM     55  H   UNL     1      -3.373  11.915  -7.785  1.00  0.00     0.167 HD
ATOM     56  C   UNL     1      -2.134  14.379  -8.549  1.00  0.00     0.074 A 
ATOM     57  C   UNL     1      -1.141  15.418  -8.750  1.00  0.00     0.031 C 
ATOM     58  C   UNL     1      -3.430  14.473  -8.938  1.00  0.00     0.037 A 
BRANCH  45  59
ATOM     59  C   UNL     1      -6.912   9.530  -7.554  1.00  0.00     0.058 A 
ATOM     60  C   UNL     1      -7.655   9.307  -6.385  1.00  0.00     0.135 A 
ATOM     61  C   UNL     1      -7.455   9.083  -8.770  1.00  0.00     0.135 A 
ATOM     62  F   UNL     1      -7.171   9.689  -5.193  1.00  0.00    -0.206 F 
ATOM     63  C   UNL     1      -8.872   8.631  -6.415  1.00  0.00     0.059 A 
ATOM     64  C   UNL     1      -8.683   8.430  -8.827  1.00  0.00     0.059 A 
ATOM     65  F   UNL     1      -6.784   9.263  -9.918  1.00  0.00    -0.206 F 
ATOM     66  C   UNL     1      -9.374   8.190  -7.641  1.00  0.00     0.060 A 
BRANCH  66  67
ATOM     67  S   UNL     1     -10.936   7.285  -7.662  1.00  0.00     0.124 S 
ATOM     68  O   UNL     1     -10.538   6.007  -7.079  1.00  0.00    -0.237 OA
ATOM     69  O   UNL     1     -11.794   8.121  -6.830  1.00  0.00    -0.237 OA
ATOM     70  O   UNL     1     -11.287   7.244  -9.079  1.00  0.00    -0.744 OA
ENDBRANCH  66  67
ENDBRANCH  45  59
BRANCH  46  71
ATOM     71  C   UNL     1       2.266  13.562  -7.027  1.00  0.00     0.058 A 
ATOM     72  C   UNL     1       2.544  14.597  -6.125  1.00  0.00     0.135 A 
ATOM     73  C   UNL     1       3.336  13.046  -7.778  1.00  0.00     0.135 A 
ATOM     74  F   UNL     1       1.554  15.135  -5.396  1.00  0.00    -0.206 F 
ATOM     75  C   UNL     1       3.836  15.085  -5.952  1.00  0.00     0.059 A 
ATOM     76  C   UNL     1       4.640  13.500  -7.606  1.00  0.00     0.059 A 
ATOM     77  F   UNL     1       3.124  12.050  -8.654  1.00  0.00    -0.206 F 
ATOM     78  C   UNL     1       4.881  14.518  -6.685  1.00  0.00     0.060 A 
BRANCH  78  79
ATOM     79  S   UNL     1       6.568  15.081  -6.369  1.00  0.00     0.124 S 
ATOM     80  O   UNL     1       6.546  16.420  -6.944  1.00  0.00    -0.237 OA
ATOM     81  O   UNL     1       6.644  15.012  -4.913  1.00  0.00    -0.237 OA
ATOM     82  O   UNL     1       7.388  14.103  -7.078  1.00  0.00    -0.744 OA
ENDBRANCH  78  79
ENDBRANCH  46  71
BRANCH  58  83
ATOM     83  C   UNL     1      -3.854  15.754  -9.599  1.00  0.00     0.058 A 
ATOM     84  C   UNL     1      -3.492  16.056 -10.920  1.00  0.00     0.135 A 
ATOM     85  C   UNL     1      -4.679  16.663  -8.917  1.00  0.00     0.135 A 
ATOM     86  F   UNL     1      -2.700  15.222 -11.612  1.00  0.00    -0.206 F 
ATOM     87  C   UNL     1      -3.916  17.229 -11.537  1.00  0.00     0.059 A 
ATOM     88  C   UNL     1      -5.135  17.828  -9.523  1.00  0.00     0.059 A 
ATOM     89  F   UNL     1      -5.063  16.412  -7.655  1.00  0.00    -0.206 F 
ATOM     90  C   UNL     1      -4.739  18.108 -10.829  1.00  0.00     0.060 A 
BRANCH  90  91
ATOM     91  S   UNL     1      -5.303  19.612 -11.651  1.00  0.00     0.124 S 
ATOM     92  O   UNL     1      -4.082  20.412 -11.670  1.00  0.00    -0.237 OA
ATOM     93  O   UNL     1      -5.752  19.111 -12.946  1.00  0.00    -0.237 OA
ATOM     94  O   UNL     1      -6.362  20.103 -10.774  1.00  0.00    -0.744 OA
ENDBRANCH  90  91
ENDBRANCH  58  83
ENDBRANCH  32  33
ENDBRANCH  25  27
ENDBRANCH  24  25
ENDBRANCH   1  24
TORSDOF 16
