REMARK SMILES CN(C)C(=O)c1ccc2c(c1)N(CC(=O)OCCOC(=O)c1ccc(-c3c4nc(c(-c5c(F)cc(S(=O)(=O)[O-])cc5F)c5ccc([nH]5)c(-c5c(F)cc(S(=O)(=O)[O-])cc5F)c5nc(c(-c6c(F)cc(S(=O)(=O)[O-])cc6F)c6ccc3[nH]6)C=C5)C=C4)cc1)C(=O)[C@@H]1CCCCN21
REMARK SMILES IDX 18 1 17 2 16 3 14 4 15 5 13 6 12 7 6 8 7 9 11 10 8 11 10 12
REMARK SMILES IDX 9 13 95 14 88 15 90 16 94 17 89 18 91 19 93 20 92 21 4 22
REMARK SMILES IDX 1 23 2 24 3 25 5 26 19 27 20 28 21 29 22 30 23 31 87 32
REMARK SMILES IDX 24 33 86 34 25 35 26 36 27 37 80 38 28 39 85 40 79 41 81 42
REMARK SMILES IDX 29 43 84 44 78 45 77 46 30 48 64 49 43 50 63 51 44 52 47 53
REMARK SMILES IDX 62 54 82 55 45 56 46 57 61 59 83 60 48 61 31 62 32 63 41 64
REMARK SMILES IDX 33 65 34 66 40 67 42 68 35 69 36 70 37 71 38 72 39 73 65 74
REMARK SMILES IDX 66 75 75 76 67 77 68 78 74 79 76 80 69 81 70 82 71 83 72 84
REMARK SMILES IDX 73 85 49 86 50 87 59 88 51 89 52 90 58 91 60 92 53 93 54 94
REMARK SMILES IDX 55 95 56 96 57 97
REMARK H PARENT 81 47 47 58
REMARK Flexibility Score: inf
ROOT
ATOM      1  C   UNL     1      -2.991   3.023  -2.246  1.00  0.00     0.275 C 
ENDROOT
BRANCH   1   2
ATOM      2  C   UNL     1      -3.611   4.340  -1.765  1.00  0.00     0.274 C 
BRANCH   2   3
ATOM      3  O   UNL     1      -3.181   4.734  -0.444  1.00  0.00    -0.461 OA
BRANCH   3   4
ATOM      4  C   UNL     1      -4.017   4.351   0.556  1.00  0.00     0.326 C 
ATOM      5  O   UNL     1      -5.024   3.666   0.382  1.00  0.00    -0.250 OA
BRANCH   4   6
ATOM      6  C   UNL     1      -3.584   4.752   1.962  1.00  0.00     0.248 C 
BRANCH   6   7
ATOM      7  N   UNL     1      -2.492   5.686   2.194  1.00  0.00    -0.297 N 
ATOM      8  C   UNL     1       0.587   3.559   2.272  1.00  0.00     0.042 A 
ATOM      9  C   UNL     1       1.576   4.502   2.503  1.00  0.00     0.016 A 
ATOM     10  C   UNL     1      -0.756   3.938   2.241  1.00  0.00     0.042 A 
ATOM     11  C   UNL     1       1.210   5.836   2.693  1.00  0.00     0.029 A 
ATOM     12  C   UNL     1      -1.132   5.282   2.388  1.00  0.00     0.069 A 
ATOM     13  C   UNL     1      -0.135   6.264   2.664  1.00  0.00     0.062 A 
ATOM     14  N   UNL     1      -0.481   7.594   2.914  1.00  0.00    -0.358 N 
ATOM     15  C   UNL     1      -2.844   7.027   2.263  1.00  0.00     0.250 C 
ATOM     16  C   UNL     1      -1.907   7.890   3.110  1.00  0.00     0.172 C 
ATOM     17  C   UNL     1       0.499   8.673   3.042  1.00  0.00     0.117 C 
ATOM     18  O   UNL     1      -3.919   7.448   1.828  1.00  0.00    -0.272 OA
ATOM     19  C   UNL     1      -2.194   9.370   2.870  1.00  0.00     0.035 C 
ATOM     20  C   UNL     1       0.050   9.834   3.935  1.00  0.00     0.022 C 
ATOM     21  C   UNL     1      -1.427  10.200   3.880  1.00  0.00     0.004 C 
BRANCH   8  22
ATOM     22  C   UNL     1       0.953   2.143   2.073  1.00  0.00     0.253 C 
ATOM     23  C   UNL     1       2.018   0.398   0.722  1.00  0.00     0.146 C 
ATOM     24  N   UNL     1       1.593   1.776   0.891  1.00  0.00    -0.345 N 
ATOM     25  C   UNL     1       1.776   2.646  -0.263  1.00  0.00     0.146 C 
ATOM     26  O   UNL     1       0.676   1.367   2.983  1.00  0.00    -0.269 OA
ENDBRANCH   8  22
ENDBRANCH   6   7
ENDBRANCH   4   6
ENDBRANCH   3   4
ENDBRANCH   2   3
ENDBRANCH   1   2
BRANCH   1  27
ATOM     27  O   UNL     1      -3.175   1.947  -1.307  1.00  0.00    -0.458 OA
BRANCH  27  28
ATOM     28  C   UNL     1      -2.123   1.783  -0.479  1.00  0.00     0.338 C 
ATOM     29  O   UNL     1      -1.100   2.453  -0.484  1.00  0.00    -0.246 OA
BRANCH  28  30
ATOM     30  C   UNL     1      -2.334   0.709   0.499  1.00  0.00     0.060 A 
ATOM     31  C   UNL     1      -1.603  -0.472   0.381  1.00  0.00     0.016 A 
ATOM     32  C   UNL     1      -3.097   0.957   1.641  1.00  0.00     0.016 A 
ATOM     33  C   UNL     1      -1.662  -1.420   1.405  1.00  0.00     0.010 A 
ATOM     34  C   UNL     1      -3.086   0.050   2.698  1.00  0.00     0.010 A 
ATOM     35  C   UNL     1      -2.404  -1.166   2.571  1.00  0.00    -0.014 A 
BRANCH  35  36
ATOM     36  C   UNL     1      -2.570  -2.232   3.588  1.00  0.00     0.031 A 
ATOM     37  C   UNL     1      -3.887  -2.953   3.672  1.00  0.00     0.074 A 
ATOM     38  C   UNL     1      -1.550  -2.590   4.390  1.00  0.00     0.049 A 
ATOM     39  N   UNL     1      -4.186  -4.051   4.315  1.00  0.00    -0.248 NA
ATOM     40  C   UNL     1      -5.019  -2.360   2.939  1.00  0.00     0.031 C 
ATOM     41  C   UNL     1      -0.249  -1.924   4.461  1.00  0.00     0.029 A 
ATOM     42  N   UNL     1      -1.446  -3.622   5.290  1.00  0.00    -0.354 N 
ATOM     43  C   UNL     1      -5.521  -4.301   4.025  1.00  0.00     0.074 A 
ATOM     44  C   UNL     1      -6.003  -3.196   3.231  1.00  0.00     0.031 C 
ATOM     45  C   UNL     1       0.537  -2.588   5.328  1.00  0.00     0.029 A 
ATOM     46  C   UNL     1      -0.200  -3.732   5.862  1.00  0.00     0.049 A 
ATOM     47  H   UNL     1      -2.193  -4.227   5.506  1.00  0.00     0.167 HD
ATOM     48  C   UNL     1      -6.267  -5.383   4.343  1.00  0.00     0.037 A 
ATOM     49  C   UNL     1       0.297  -4.673   6.689  1.00  0.00     0.037 A 
ATOM     50  C   UNL     1      -5.793  -6.480   5.134  1.00  0.00     0.049 A 
ATOM     51  C   UNL     1      -0.564  -5.849   7.072  1.00  0.00     0.074 A 
ATOM     52  C   UNL     1      -6.448  -7.649   5.472  1.00  0.00     0.029 A 
ATOM     53  N   UNL     1      -4.539  -6.532   5.724  1.00  0.00    -0.354 N 
ATOM     54  N   UNL     1      -1.784  -6.138   6.686  1.00  0.00    -0.248 NA
ATOM     55  C   UNL     1       0.025  -6.837   7.989  1.00  0.00     0.031 C 
ATOM     56  C   UNL     1      -5.597  -8.399   6.292  1.00  0.00     0.029 A 
ATOM     57  C   UNL     1      -4.407  -7.703   6.445  1.00  0.00     0.049 A 
ATOM     58  H   UNL     1      -3.846  -5.838   5.641  1.00  0.00     0.167 HD
ATOM     59  C   UNL     1      -2.099  -7.349   7.292  1.00  0.00     0.074 A 
ATOM     60  C   UNL     1      -0.942  -7.741   8.071  1.00  0.00     0.031 C 
ATOM     61  C   UNL     1      -3.241  -8.074   7.207  1.00  0.00     0.037 A 
BRANCH  48  62
ATOM     62  C   UNL     1      -7.656  -5.430   3.781  1.00  0.00     0.058 A 
ATOM     63  C   UNL     1      -7.867  -5.709   2.420  1.00  0.00     0.135 A 
ATOM     64  C   UNL     1      -8.775  -5.165   4.582  1.00  0.00     0.135 A 
ATOM     65  F   UNL     1      -6.825  -5.946   1.609  1.00  0.00    -0.206 F 
ATOM     66  C   UNL     1      -9.141  -5.688   1.865  1.00  0.00     0.059 A 
ATOM     67  C   UNL     1     -10.061  -5.156   4.051  1.00  0.00     0.059 A 
ATOM     68  F   UNL     1      -8.622  -4.883   5.886  1.00  0.00    -0.206 F 
ATOM     69  C   UNL     1     -10.231  -5.400   2.687  1.00  0.00     0.060 A 
BRANCH  69  70
ATOM     70  S   UNL     1     -11.875  -5.343   1.945  1.00  0.00     0.124 S 
ATOM     71  O   UNL     1     -11.840  -4.054   1.260  1.00  0.00    -0.237 OA
ATOM     72  O   UNL     1     -11.873  -6.519   1.080  1.00  0.00    -0.237 OA
ATOM     73  O   UNL     1     -12.769  -5.418   3.096  1.00  0.00    -0.744 OA
ENDBRANCH  69  70
ENDBRANCH  48  62
BRANCH  49  74
ATOM     74  C   UNL     1       1.705  -4.586   7.156  1.00  0.00     0.058 A 
ATOM     75  C   UNL     1       2.695  -5.409   6.599  1.00  0.00     0.135 A 
ATOM     76  C   UNL     1       2.088  -3.688   8.162  1.00  0.00     0.135 A 
ATOM     77  F   UNL     1       2.374  -6.289   5.639  1.00  0.00    -0.206 F 
ATOM     78  C   UNL     1       4.016  -5.353   7.032  1.00  0.00     0.059 A 
ATOM     79  C   UNL     1       3.406  -3.605   8.603  1.00  0.00     0.059 A 
ATOM     80  F   UNL     1       1.176  -2.879   8.723  1.00  0.00    -0.206 F 
ATOM     81  C   UNL     1       4.362  -4.448   8.037  1.00  0.00     0.060 A 
BRANCH  81  82
ATOM     82  S   UNL     1       6.088  -4.361   8.567  1.00  0.00     0.124 S 
ATOM     83  O   UNL     1       6.212  -5.576   9.363  1.00  0.00    -0.237 OA
ATOM     84  O   UNL     1       6.803  -4.357   7.295  1.00  0.00    -0.237 OA
ATOM     85  O   UNL     1       6.147  -3.108   9.314  1.00  0.00    -0.744 OA
ENDBRANCH  81  82
ENDBRANCH  49  74
BRANCH  61  86
ATOM     86  C   UNL     1      -3.312  -9.365   7.967  1.00  0.00     0.058 A 
ATOM     87  C   UNL     1      -3.599  -9.380   9.339  1.00  0.00     0.135 A 
ATOM     88  C   UNL     1      -3.224 -10.594   7.294  1.00  0.00     0.135 A 
ATOM     89  F   UNL     1      -3.687  -8.229  10.024  1.00  0.00    -0.206 F 
ATOM     90  C   UNL     1      -3.809 -10.574  10.020  1.00  0.00     0.059 A 
ATOM     91  C   UNL     1      -3.447 -11.799   7.952  1.00  0.00     0.059 A 
ATOM     92  F   UNL     1      -2.961 -10.627   5.978  1.00  0.00    -0.206 F 
ATOM     93  C   UNL     1      -3.742 -11.778   9.315  1.00  0.00     0.060 A 
BRANCH  93  94
ATOM     94  S   UNL     1      -4.118 -13.314  10.187  1.00  0.00     0.124 S 
ATOM     95  O   UNL     1      -2.885 -13.539  10.933  1.00  0.00    -0.237 OA
ATOM     96  O   UNL     1      -5.284 -12.947  10.986  1.00  0.00    -0.237 OA
ATOM     97  O   UNL     1      -4.381 -14.261   9.107  1.00  0.00    -0.744 OA
ENDBRANCH  93  94
ENDBRANCH  61  86
ENDBRANCH  35  36
ENDBRANCH  28  30
ENDBRANCH  27  28
ENDBRANCH   1  27
TORSDOF 16
