REMARK SMILES CCn1cc(Br)cc1C(=O)N[C@@H]1C=C[C@@H](C(=O)OCCOC(=O)c2ccc(-c3c4nc(c(-c5c(F)cc(S(=O)(=O)[O-])cc5F)c5ccc([nH]5)c(-c5c(F)cc(S(=O)(=O)[O-])cc5F)c5nc(c(-c6c(F)cc(S(=O)(=O)[O-])cc6F)c6ccc3[nH]6)C=C5)C=C4)cc2)C1
REMARK SMILES IDX 19 1 18 2 16 3 17 4 15 5 12 6 13 7 90 8 14 9 11 10 9 11
REMARK SMILES IDX 10 12 8 14 3 15 4 16 5 17 7 18 6 19 2 20 1 21 20 22 21 23
REMARK SMILES IDX 22 24 23 25 24 26 25 27 89 28 26 29 88 30 27 31 28 32 29 33
REMARK SMILES IDX 82 34 30 35 87 36 81 37 83 38 31 39 86 40 80 41 79 42 32 44
REMARK SMILES IDX 66 45 45 46 65 47 46 48 49 49 64 50 84 51 47 52 48 53 63 55
REMARK SMILES IDX 85 56 50 57 33 58 34 59 43 60 35 61 36 62 42 63 44 64 37 65
REMARK SMILES IDX 38 66 39 67 40 68 41 69 67 70 68 71 77 72 69 73 70 74 76 75
REMARK SMILES IDX 78 76 71 77 72 78 73 79 74 80 75 81 51 82 52 83 61 84 53 85
REMARK SMILES IDX 54 86 60 87 62 88 55 89 56 90 57 91 58 92 59 93
REMARK H PARENT 11 13 83 43 49 54
REMARK Flexibility Score: inf
ROOT
ATOM      1  C   UNL     1      -3.655  -0.357   3.445  1.00  0.00     0.274 C 
ENDROOT
BRANCH   1   2
ATOM      2  O   UNL     1      -2.560  -1.054   2.820  1.00  0.00    -0.462 OA
BRANCH   2   3
ATOM      3  C   UNL     1      -2.716  -1.397   1.510  1.00  0.00     0.312 C 
ATOM      4  O   UNL     1      -3.795  -1.397   0.924  1.00  0.00    -0.252 OA
BRANCH   3   5
ATOM      5  C   UNL     1      -1.401  -1.798   0.826  1.00  0.00     0.124 C 
ATOM      6  C   UNL     1       0.861  -2.306   1.696  1.00  0.00     0.106 C 
ATOM      7  C   UNL     1       0.134  -3.531   1.238  1.00  0.00    -0.006 C 
ATOM      8  C   UNL     1      -0.136  -1.199   1.439  1.00  0.00     0.048 C 
ATOM      9  C   UNL     1      -1.115  -3.266   0.831  1.00  0.00    -0.014 C 
BRANCH   6  10
ATOM     10  N   UNL     1       2.119  -2.147   1.021  1.00  0.00    -0.345 N 
ATOM     11  C   UNL     1       3.060  -1.144   1.014  1.00  0.00     0.268 C 
ATOM     12  O   UNL     1       4.112  -1.455   0.444  1.00  0.00    -0.268 OA
ATOM     13  H   UNL     1       2.355  -2.911   0.446  1.00  0.00     0.164 HD
BRANCH  11  14
ATOM     14  C   UNL     1       2.840   0.224   1.481  1.00  0.00     0.108 A 
ATOM     15  N   UNL     1       2.232   0.780   2.606  1.00  0.00    -0.343 N 
ATOM     16  C   UNL     1       2.220   2.159   2.502  1.00  0.00     0.102 A 
ATOM     17  C   UNL     1       2.978   2.503   1.423  1.00  0.00     0.036 A 
ATOM     18  C   UNL     1       3.391   1.320   0.800  1.00  0.00     0.049 A 
ATOM     19  Br  UNL     1       3.436   4.229   0.871  1.00  0.00    -0.049 Br
BRANCH  15  20
ATOM     20  C   UNL     1       1.876   0.140   3.863  1.00  0.00     0.119 C 
ATOM     21  C   UNL     1       0.539   0.590   4.451  1.00  0.00     0.027 C 
ENDBRANCH  15  20
ENDBRANCH  11  14
ENDBRANCH   6  10
ENDBRANCH   3   5
ENDBRANCH   2   3
ENDBRANCH   1   2
BRANCH   1  22
ATOM     22  C   UNL     1      -3.437   1.155   3.449  1.00  0.00     0.275 C 
BRANCH  22  23
ATOM     23  O   UNL     1      -3.593   1.751   2.157  1.00  0.00    -0.458 OA
BRANCH  23  24
ATOM     24  C   UNL     1      -2.440   1.841   1.457  1.00  0.00     0.338 C 
ATOM     25  O   UNL     1      -1.465   1.131   1.588  1.00  0.00    -0.246 OA
BRANCH  24  26
ATOM     26  C   UNL     1      -2.358   3.087   0.701  1.00  0.00     0.060 A 
ATOM     27  C   UNL     1      -1.153   3.333   0.029  1.00  0.00     0.016 A 
ATOM     28  C   UNL     1      -3.321   4.082   0.891  1.00  0.00     0.016 A 
ATOM     29  C   UNL     1      -0.852   4.626  -0.333  1.00  0.00     0.010 A 
ATOM     30  C   UNL     1      -3.015   5.375   0.535  1.00  0.00     0.010 A 
ATOM     31  C   UNL     1      -1.763   5.639  -0.018  1.00  0.00    -0.014 A 
BRANCH  31  32
ATOM     32  C   UNL     1      -1.454   6.980  -0.466  1.00  0.00     0.031 A 
ATOM     33  C   UNL     1      -1.598   7.105  -1.935  1.00  0.00     0.074 A 
ATOM     34  C   UNL     1      -1.204   8.002   0.370  1.00  0.00     0.049 A 
ATOM     35  N   UNL     1      -0.655   7.142  -2.816  1.00  0.00    -0.248 NA
ATOM     36  C   UNL     1      -2.943   6.914  -2.505  1.00  0.00     0.031 C 
ATOM     37  C   UNL     1      -1.339   8.038   1.828  1.00  0.00     0.029 A 
ATOM     38  N   UNL     1      -0.857   9.280   0.066  1.00  0.00    -0.354 N 
ATOM     39  C   UNL     1      -1.306   7.246  -4.039  1.00  0.00     0.074 A 
ATOM     40  C   UNL     1      -2.667   6.841  -3.808  1.00  0.00     0.031 C 
ATOM     41  C   UNL     1      -1.307   9.326   2.246  1.00  0.00     0.029 A 
ATOM     42  C   UNL     1      -1.011  10.184   1.111  1.00  0.00     0.049 A 
ATOM     43  H   UNL     1      -0.524   9.544  -0.822  1.00  0.00     0.167 HD
ATOM     44  C   UNL     1      -0.762   7.957  -5.062  1.00  0.00     0.037 A 
ATOM     45  C   UNL     1      -0.970  11.537   1.000  1.00  0.00     0.037 A 
ATOM     46  C   UNL     1       0.630   8.235  -4.815  1.00  0.00     0.049 A 
ATOM     47  C   UNL     1      -0.246  11.839  -0.265  1.00  0.00     0.074 A 
ATOM     48  C   UNL     1       1.775   7.482  -4.666  1.00  0.00     0.029 A 
ATOM     49  N   UNL     1       0.908   9.473  -4.290  1.00  0.00    -0.354 N 
ATOM     50  N   UNL     1       1.012  11.554  -0.471  1.00  0.00    -0.248 NA
ATOM     51  C   UNL     1      -1.036  12.054  -1.468  1.00  0.00     0.031 C 
ATOM     52  C   UNL     1       2.557   8.174  -3.694  1.00  0.00     0.029 A 
ATOM     53  C   UNL     1       1.884   9.346  -3.339  1.00  0.00     0.049 A 
ATOM     54  H   UNL     1       0.475  10.317  -4.555  1.00  0.00     0.167 HD
ATOM     55  C   UNL     1       1.073  11.134  -1.793  1.00  0.00     0.074 A 
ATOM     56  C   UNL     1      -0.192  11.566  -2.381  1.00  0.00     0.031 C 
ATOM     57  C   UNL     1       2.016  10.231  -2.199  1.00  0.00     0.037 A 
BRANCH  44  58
ATOM     58  C   UNL     1      -1.575   8.772  -6.042  1.00  0.00     0.058 A 
ATOM     59  C   UNL     1      -0.935   9.328  -7.168  1.00  0.00     0.135 A 
ATOM     60  C   UNL     1      -2.876   9.262  -5.779  1.00  0.00     0.135 A 
ATOM     61  F   UNL     1       0.313   8.957  -7.495  1.00  0.00    -0.206 F 
ATOM     62  C   UNL     1      -1.524  10.328  -7.942  1.00  0.00     0.059 A 
ATOM     63  C   UNL     1      -3.503  10.213  -6.572  1.00  0.00     0.059 A 
ATOM     64  F   UNL     1      -3.568   8.924  -4.685  1.00  0.00    -0.206 F 
ATOM     65  C   UNL     1      -2.807  10.768  -7.631  1.00  0.00     0.060 A 
BRANCH  65  66
ATOM     66  S   UNL     1      -3.547  12.101  -8.587  1.00  0.00     0.124 S 
ATOM     67  O   UNL     1      -2.724  13.236  -8.190  1.00  0.00    -0.237 OA
ATOM     68  O   UNL     1      -3.369  11.625  -9.954  1.00  0.00    -0.237 OA
ATOM     69  O   UNL     1      -4.929  12.125  -8.114  1.00  0.00    -0.744 OA
ENDBRANCH  65  66
ENDBRANCH  44  58
BRANCH  45  70
ATOM     70  C   UNL     1      -1.870  12.530   1.656  1.00  0.00     0.058 A 
ATOM     71  C   UNL     1      -1.603  13.911   1.590  1.00  0.00     0.135 A 
ATOM     72  C   UNL     1      -3.160  12.172   2.099  1.00  0.00     0.135 A 
ATOM     73  F   UNL     1      -0.410  14.345   1.157  1.00  0.00    -0.206 F 
ATOM     74  C   UNL     1      -2.571  14.877   1.894  1.00  0.00     0.059 A 
ATOM     75  C   UNL     1      -4.137  13.117   2.414  1.00  0.00     0.059 A 
ATOM     76  F   UNL     1      -3.544  10.888   2.149  1.00  0.00    -0.206 F 
ATOM     77  C   UNL     1      -3.845  14.469   2.286  1.00  0.00     0.060 A 
BRANCH  77  78
ATOM     78  S   UNL     1      -5.150  15.702   2.515  1.00  0.00     0.124 S 
ATOM     79  O   UNL     1      -4.707  16.388   3.724  1.00  0.00    -0.237 OA
ATOM     80  O   UNL     1      -5.070  16.471   1.278  1.00  0.00    -0.237 OA
ATOM     81  O   UNL     1      -6.357  14.893   2.666  1.00  0.00    -0.744 OA
ENDBRANCH  77  78
ENDBRANCH  45  70
BRANCH  57  82
ATOM     82  C   UNL     1       3.212  10.007  -1.308  1.00  0.00     0.058 A 
ATOM     83  C   UNL     1       3.176   9.430  -0.026  1.00  0.00     0.135 A 
ATOM     84  C   UNL     1       4.477  10.273  -1.854  1.00  0.00     0.135 A 
ATOM     85  F   UNL     1       2.013   9.063   0.533  1.00  0.00    -0.206 F 
ATOM     86  C   UNL     1       4.346   9.165   0.693  1.00  0.00     0.059 A 
ATOM     87  C   UNL     1       5.655   9.988  -1.172  1.00  0.00     0.059 A 
ATOM     88  F   UNL     1       4.581  10.773  -3.096  1.00  0.00    -0.206 F 
ATOM     89  C   UNL     1       5.583   9.447   0.109  1.00  0.00     0.060 A 
BRANCH  89  90
ATOM     90  S   UNL     1       7.101   9.060   1.009  1.00  0.00     0.124 S 
ATOM     91  O   UNL     1       7.081  10.047   2.084  1.00  0.00    -0.237 OA
ATOM     92  O   UNL     1       6.887   7.675   1.416  1.00  0.00    -0.237 OA
ATOM     93  O   UNL     1       8.149   9.252   0.009  1.00  0.00    -0.744 OA
ENDBRANCH  89  90
ENDBRANCH  57  82
ENDBRANCH  31  32
ENDBRANCH  24  26
ENDBRANCH  23  24
ENDBRANCH  22  23
ENDBRANCH   1  22
TORSDOF 17
