REMARK SMILES Cc1noc(C)c1CNC(=O)C[C@](C)(C(=O)OCCOC(=O)c1ccc(-c2c3nc(c(-c4c(F)cc(S(=O)(=O)[O-])cc4F)c4ccc([nH]4)c(-c4c(F)cc(S(=O)(=O)[O-])cc4F)c4nc(c(-c5c(F)cc(S(=O)(=O)[O-])cc5F)c5ccc2[nH]5)C=C4)C=C3)cc1)C(C)C
REMARK SMILES IDX 18 1 17 2 15 3 16 4 13 5 14 6 12 7 10 8 9 9 11 11 8 12 7 13
REMARK SMILES IDX 1 14 2 15 3 16 4 17 5 18 6 19 89 20 90 21 91 22 19 23 20 24
REMARK SMILES IDX 21 25 22 26 23 27 24 28 88 29 25 30 87 31 26 32 27 33 28 34
REMARK SMILES IDX 81 35 29 36 86 37 80 38 82 39 30 40 85 41 79 42 78 43 31 45
REMARK SMILES IDX 65 46 44 47 64 48 45 49 48 50 63 51 83 52 46 53 47 54 62 56
REMARK SMILES IDX 84 57 49 58 32 59 33 60 42 61 34 62 35 63 41 64 43 65 36 66
REMARK SMILES IDX 37 67 38 68 39 69 40 70 66 71 67 72 76 73 68 74 69 75 75 76
REMARK SMILES IDX 77 77 70 78 71 79 72 80 73 81 74 82 50 83 51 84 60 85 52 86
REMARK SMILES IDX 53 87 59 88 61 89 54 90 55 91 56 92 57 93 58 94
REMARK H PARENT 9 10 82 44 48 55
REMARK Flexibility Score: inf
ROOT
ATOM      1  C   UNL     1      -3.026   4.124   4.696  1.00  0.00     0.274 C 
ENDROOT
BRANCH   1   2
ATOM      2  O   UNL     1      -2.567   4.170   3.328  1.00  0.00    -0.462 OA
BRANCH   2   3
ATOM      3  C   UNL     1      -2.674   3.027   2.589  1.00  0.00     0.312 C 
ATOM      4  O   UNL     1      -3.244   2.015   2.977  1.00  0.00    -0.252 OA
BRANCH   3   5
ATOM      5  C   UNL     1      -1.965   3.148   1.217  1.00  0.00     0.076 C 
ATOM      6  C   UNL     1      -0.812   4.171   1.380  1.00  0.00     0.024 C 
BRANCH   5   7
ATOM      7  C   UNL     1      -1.399   1.706   0.922  1.00  0.00     0.118 C 
BRANCH   7   8
ATOM      8  C   UNL     1      -1.089   1.333  -0.526  1.00  0.00     0.221 C 
ATOM      9  N   UNL     1      -2.050   0.845  -1.377  1.00  0.00    -0.352 N 
ATOM     10  H   UNL     1      -1.804   0.852  -2.330  1.00  0.00     0.163 HD
ATOM     11  O   UNL     1       0.052   1.498  -0.967  1.00  0.00    -0.275 OA
BRANCH   9  12
ATOM     12  C   UNL     1      -3.373   0.320  -1.087  1.00  0.00     0.157 C 
BRANCH  12  13
ATOM     13  C   UNL     1      -4.372   0.457  -2.208  1.00  0.00     0.037 A 
ATOM     14  C   UNL     1      -4.470   2.965  -3.186  1.00  0.00     0.071 C 
ATOM     15  C   UNL     1      -4.845   1.543  -3.035  1.00  0.00     0.086 A 
ATOM     16  N   UNL     1      -5.845   1.152  -3.833  1.00  0.00    -0.085 NA
ATOM     17  O   UNL     1      -6.057  -0.166  -3.574  1.00  0.00    -0.361 OA
ATOM     18  C   UNL     1      -5.188  -0.587  -2.631  1.00  0.00     0.138 A 
ATOM     19  C   UNL     1      -5.318  -2.011  -2.276  1.00  0.00     0.091 C 
ENDBRANCH  12  13
ENDBRANCH   9  12
ENDBRANCH   7   8
ENDBRANCH   5   7
BRANCH   5  20
ATOM     20  C   UNL     1      -2.940   3.596   0.081  1.00  0.00     0.000 C 
ATOM     21  C   UNL     1      -3.993   4.651   0.429  1.00  0.00     0.008 C 
ATOM     22  C   UNL     1      -2.194   4.028  -1.204  1.00  0.00     0.008 C 
ENDBRANCH   5  20
ENDBRANCH   3   5
ENDBRANCH   2   3
ENDBRANCH   1   2
BRANCH   1  23
ATOM     23  C   UNL     1      -4.377   4.816   4.832  1.00  0.00     0.275 C 
BRANCH  23  24
ATOM     24  O   UNL     1      -5.356   4.033   4.134  1.00  0.00    -0.458 OA
BRANCH  24  25
ATOM     25  C   UNL     1      -6.222   4.726   3.361  1.00  0.00     0.338 C 
ATOM     26  O   UNL     1      -6.332   5.937   3.295  1.00  0.00    -0.246 OA
BRANCH  25  27
ATOM     27  C   UNL     1      -7.030   3.787   2.552  1.00  0.00     0.060 A 
ATOM     28  C   UNL     1      -6.474   2.622   2.013  1.00  0.00     0.016 A 
ATOM     29  C   UNL     1      -8.344   4.133   2.245  1.00  0.00     0.016 A 
ATOM     30  C   UNL     1      -7.209   1.838   1.123  1.00  0.00     0.010 A 
ATOM     31  C   UNL     1      -9.107   3.295   1.429  1.00  0.00     0.010 A 
ATOM     32  C   UNL     1      -8.546   2.146   0.842  1.00  0.00    -0.014 A 
BRANCH  32  33
ATOM     33  C   UNL     1      -9.379   1.303  -0.062  1.00  0.00     0.031 A 
ATOM     34  C   UNL     1     -10.093   1.941  -1.227  1.00  0.00     0.074 A 
ATOM     35  C   UNL     1      -9.560  -0.011   0.184  1.00  0.00     0.049 A 
ATOM     36  N   UNL     1     -11.131   1.514  -1.898  1.00  0.00    -0.248 NA
ATOM     37  C   UNL     1      -9.587   3.250  -1.670  1.00  0.00     0.031 C 
ATOM     38  C   UNL     1      -8.901  -0.784   1.239  1.00  0.00     0.029 A 
ATOM     39  N   UNL     1     -10.387  -0.927  -0.424  1.00  0.00    -0.354 N 
ATOM     40  C   UNL     1     -11.436   2.522  -2.807  1.00  0.00     0.074 A 
ATOM     41  C   UNL     1     -10.479   3.587  -2.593  1.00  0.00     0.031 C 
ATOM     42  C   UNL     1      -9.344  -2.050   1.203  1.00  0.00     0.029 A 
ATOM     43  C   UNL     1     -10.393  -2.155   0.196  1.00  0.00     0.049 A 
ATOM     44  H   UNL     1     -10.922  -0.723  -1.225  1.00  0.00     0.167 HD
ATOM     45  C   UNL     1     -12.426   2.553  -3.732  1.00  0.00     0.037 A 
ATOM     46  C   UNL     1     -11.199  -3.222   0.035  1.00  0.00     0.037 A 
ATOM     47  C   UNL     1     -13.334   1.460  -3.975  1.00  0.00     0.049 A 
ATOM     48  C   UNL     1     -12.319  -3.155  -0.967  1.00  0.00     0.074 A 
ATOM     49  C   UNL     1     -14.380   1.392  -4.880  1.00  0.00     0.029 A 
ATOM     50  N   UNL     1     -13.282   0.230  -3.335  1.00  0.00    -0.354 N 
ATOM     51  N   UNL     1     -12.664  -2.161  -1.750  1.00  0.00    -0.248 NA
ATOM     52  C   UNL     1     -13.171  -4.345  -1.093  1.00  0.00     0.031 C 
ATOM     53  C   UNL     1     -14.976   0.132  -4.770  1.00  0.00     0.029 A 
ATOM     54  C   UNL     1     -14.274  -0.602  -3.828  1.00  0.00     0.049 A 
ATOM     55  H   UNL     1     -12.636  -0.015  -2.634  1.00  0.00     0.167 HD
ATOM     56  C   UNL     1     -13.759  -2.615  -2.477  1.00  0.00     0.074 A 
ATOM     57  C   UNL     1     -14.010  -3.976  -2.051  1.00  0.00     0.031 C 
ATOM     58  C   UNL     1     -14.494  -1.963  -3.410  1.00  0.00     0.037 A 
BRANCH  45  59
ATOM     59  C   UNL     1     -12.600   3.805  -4.548  1.00  0.00     0.058 A 
ATOM     60  C   UNL     1     -11.704   4.155  -5.570  1.00  0.00     0.135 A 
ATOM     61  C   UNL     1     -13.724   4.626  -4.356  1.00  0.00     0.135 A 
ATOM     62  F   UNL     1     -10.605   3.416  -5.786  1.00  0.00    -0.206 F 
ATOM     63  C   UNL     1     -11.911   5.278  -6.365  1.00  0.00     0.059 A 
ATOM     64  C   UNL     1     -13.965   5.739  -5.158  1.00  0.00     0.059 A 
ATOM     65  F   UNL     1     -14.614   4.340  -3.393  1.00  0.00    -0.206 F 
ATOM     66  C   UNL     1     -13.047   6.061  -6.156  1.00  0.00     0.060 A 
BRANCH  66  67
ATOM     67  S   UNL     1     -13.319   7.494  -7.221  1.00  0.00     0.124 S 
ATOM     68  O   UNL     1     -12.307   8.422  -6.726  1.00  0.00    -0.237 OA
ATOM     69  O   UNL     1     -13.079   6.945  -8.552  1.00  0.00    -0.237 OA
ATOM     70  O   UNL     1     -14.702   7.869  -6.942  1.00  0.00    -0.744 OA
ENDBRANCH  66  67
ENDBRANCH  45  59
BRANCH  46  71
ATOM     71  C   UNL     1     -11.024  -4.423   0.896  1.00  0.00     0.058 A 
ATOM     72  C   UNL     1     -10.580  -5.640   0.360  1.00  0.00     0.135 A 
ATOM     73  C   UNL     1     -11.301  -4.376   2.272  1.00  0.00     0.135 A 
ATOM     74  F   UNL     1     -10.311  -5.737  -0.951  1.00  0.00    -0.206 F 
ATOM     75  C   UNL     1     -10.434  -6.774   1.153  1.00  0.00     0.059 A 
ATOM     76  C   UNL     1     -11.131  -5.487   3.091  1.00  0.00     0.059 A 
ATOM     77  F   UNL     1     -11.714  -3.232   2.838  1.00  0.00    -0.206 F 
ATOM     78  C   UNL     1     -10.712  -6.686   2.518  1.00  0.00     0.060 A 
BRANCH  78  79
ATOM     79  S   UNL     1     -10.482  -8.151   3.549  1.00  0.00     0.124 S 
ATOM     80  O   UNL     1     -11.668  -8.930   3.217  1.00  0.00    -0.237 OA
ATOM     81  O   UNL     1      -9.212  -8.678   3.058  1.00  0.00    -0.237 OA
ATOM     82  O   UNL     1     -10.441  -7.603   4.902  1.00  0.00    -0.744 OA
ENDBRANCH  78  79
ENDBRANCH  46  71
BRANCH  58  83
ATOM     83  C   UNL     1     -15.599  -2.730  -4.079  1.00  0.00     0.058 A 
ATOM     84  C   UNL     1     -16.806  -3.011  -3.422  1.00  0.00     0.135 A 
ATOM     85  C   UNL     1     -15.462  -3.149  -5.412  1.00  0.00     0.135 A 
ATOM     86  F   UNL     1     -16.983  -2.640  -2.144  1.00  0.00    -0.206 F 
ATOM     87  C   UNL     1     -17.834  -3.700  -4.058  1.00  0.00     0.059 A 
ATOM     88  C   UNL     1     -16.486  -3.817  -6.075  1.00  0.00     0.059 A 
ATOM     89  F   UNL     1     -14.329  -2.898  -6.087  1.00  0.00    -0.206 F 
ATOM     90  C   UNL     1     -17.664  -4.098  -5.386  1.00  0.00     0.060 A 
BRANCH  90  91
ATOM     91  S   UNL     1     -19.018  -4.963  -6.210  1.00  0.00     0.124 S 
ATOM     92  O   UNL     1     -18.938  -6.285  -5.599  1.00  0.00    -0.237 OA
ATOM     93  O   UNL     1     -20.177  -4.160  -5.834  1.00  0.00    -0.237 OA
ATOM     94  O   UNL     1     -18.651  -4.901  -7.622  1.00  0.00    -0.744 OA
ENDBRANCH  90  91
ENDBRANCH  58  83
ENDBRANCH  32  33
ENDBRANCH  25  27
ENDBRANCH  24  25
ENDBRANCH  23  24
ENDBRANCH   1  23
TORSDOF 19
