REMARK SMILES O=C(Nc1ccc(C(=O)OCCOC(=O)c2ccc(-c3c4nc(c(-c5c(F)cc(S(=O)(=O)[O-])cc5F)c5ccc([nH]5)c(-c5c(F)cc(S(=O)(=O)[O-])cc5F)c5nc(c(-c6c(F)cc(S(=O)(=O)[O-])cc6F)c6ccc3[nH]6)C=C5)C=C4)cc2)cc1)c1cc(F)cc(Br)c1
REMARK SMILES IDX 12 1 11 2 10 3 8 4 9 5 7 6 4 7 5 8 83 9 6 10 82 11 3 12 1 13
REMARK SMILES IDX 2 14 84 16 85 17 91 18 86 19 89 20 87 21 88 22 90 23 13 24
REMARK SMILES IDX 14 25 15 26 16 27 17 28 81 29 18 30 80 31 19 32 20 33 21 34
REMARK SMILES IDX 74 35 22 36 79 37 73 38 75 39 23 40 78 41 72 42 71 43 24 45
REMARK SMILES IDX 58 46 37 47 57 48 38 49 41 50 56 51 76 52 39 53 40 54 55 56
REMARK SMILES IDX 77 57 42 58 25 59 26 60 35 61 27 62 28 63 34 64 36 65 29 66
REMARK SMILES IDX 30 67 31 68 32 69 33 70 59 71 60 72 69 73 61 74 62 75 68 76
REMARK SMILES IDX 70 77 63 78 64 79 65 80 66 81 67 82 43 83 44 84 53 85 45 86
REMARK SMILES IDX 46 87 52 88 54 89 47 90 48 91 49 92 50 93 51 94
REMARK H PARENT 3 15 75 44 41 55
REMARK Flexibility Score: inf
ROOT
ATOM      1  C   UNL     1      11.256   1.728  -1.328  1.00  0.00     0.275 C 
ENDROOT
BRANCH   1   2
ATOM      2  C   UNL     1      10.552   0.426  -0.937  1.00  0.00     0.275 C 
BRANCH   2   3
ATOM      3  O   UNL     1       9.126   0.506  -1.146  1.00  0.00    -0.458 OA
BRANCH   3   4
ATOM      4  C   UNL     1       8.396   0.744  -0.028  1.00  0.00     0.338 C 
ATOM      5  O   UNL     1       8.830   0.858   1.105  1.00  0.00    -0.246 OA
BRANCH   4   6
ATOM      6  C   UNL     1       6.955   0.901  -0.335  1.00  0.00     0.060 A 
ATOM      7  C   UNL     1       4.165   0.962  -0.454  1.00  0.00     0.041 A 
ATOM      8  C   UNL     1       4.833   1.935   0.271  1.00  0.00     0.027 A 
ATOM      9  C   UNL     1       4.893   0.063  -1.251  1.00  0.00     0.027 A 
ATOM     10  C   UNL     1       6.217   1.857   0.377  1.00  0.00     0.018 A 
ATOM     11  C   UNL     1       6.292   0.033  -1.198  1.00  0.00     0.018 A 
BRANCH   7  12
ATOM     12  N   UNL     1       2.786   0.848  -0.220  1.00  0.00    -0.322 N 
ATOM     13  O   UNL     1       0.837  -0.292   0.081  1.00  0.00    -0.269 OA
ATOM     14  C   UNL     1       2.059  -0.308  -0.016  1.00  0.00     0.255 C 
ATOM     15  H   UNL     1       2.277   1.690  -0.200  1.00  0.00     0.170 HD
BRANCH  14  16
ATOM     16  C   UNL     1       2.772  -1.594   0.157  1.00  0.00     0.044 A 
ATOM     17  C   UNL     1       3.809  -1.730   1.089  1.00  0.00     0.053 A 
ATOM     18  C   UNL     1       2.438  -2.647  -0.698  1.00  0.00     0.029 A 
ATOM     19  C   UNL     1       4.571  -2.891   1.079  1.00  0.00     0.125 A 
ATOM     20  C   UNL     1       3.210  -3.805  -0.678  1.00  0.00     0.021 A 
ATOM     21  F   UNL     1       5.620  -2.999   1.904  1.00  0.00    -0.207 F 
ATOM     22  C   UNL     1       4.291  -3.926   0.194  1.00  0.00     0.055 A 
ATOM     23  Br  UNL     1       2.821  -5.204  -1.887  1.00  0.00    -0.051 Br
ENDBRANCH  14  16
ENDBRANCH   7  12
ENDBRANCH   4   6
ENDBRANCH   3   4
ENDBRANCH   2   3
ENDBRANCH   1   2
BRANCH   1  24
ATOM     24  O   UNL     1      10.927   2.795  -0.417  1.00  0.00    -0.458 OA
BRANCH  24  25
ATOM     25  C   UNL     1      10.043   3.698  -0.898  1.00  0.00     0.338 C 
ATOM     26  O   UNL     1       9.532   3.708  -2.008  1.00  0.00    -0.246 OA
BRANCH  25  27
ATOM     27  C   UNL     1       9.643   4.662   0.139  1.00  0.00     0.060 A 
ATOM     28  C   UNL     1       8.701   4.237   1.060  1.00  0.00     0.016 A 
ATOM     29  C   UNL     1       9.952   6.015   0.047  1.00  0.00     0.016 A 
ATOM     30  C   UNL     1       7.914   5.163   1.734  1.00  0.00     0.010 A 
ATOM     31  C   UNL     1       9.283   6.936   0.873  1.00  0.00     0.010 A 
ATOM     32  C   UNL     1       8.204   6.534   1.682  1.00  0.00    -0.014 A 
BRANCH  32  33
ATOM     33  C   UNL     1       7.361   7.502   2.460  1.00  0.00     0.031 A 
ATOM     34  C   UNL     1       6.750   8.720   1.798  1.00  0.00     0.074 A 
ATOM     35  C   UNL     1       7.090   7.266   3.764  1.00  0.00     0.049 A 
ATOM     36  N   UNL     1       6.099   9.719   2.345  1.00  0.00    -0.248 NA
ATOM     37  C   UNL     1       6.902   8.845   0.340  1.00  0.00     0.031 C 
ATOM     38  C   UNL     1       7.593   6.129   4.544  1.00  0.00     0.029 A 
ATOM     39  N   UNL     1       6.312   7.952   4.668  1.00  0.00    -0.354 N 
ATOM     40  C   UNL     1       5.811  10.607   1.312  1.00  0.00     0.074 A 
ATOM     41  C   UNL     1       6.378  10.040   0.107  1.00  0.00     0.031 C 
ATOM     42  C   UNL     1       7.057   6.154   5.770  1.00  0.00     0.029 A 
ATOM     43  C   UNL     1       6.276   7.374   5.918  1.00  0.00     0.049 A 
ATOM     44  H   UNL     1       5.826   8.778   4.442  1.00  0.00     0.167 HD
ATOM     45  C   UNL     1       5.132  11.781   1.359  1.00  0.00     0.037 A 
ATOM     46  C   UNL     1       5.733   7.791   7.077  1.00  0.00     0.037 A 
ATOM     47  C   UNL     1       4.526  12.320   2.553  1.00  0.00     0.049 A 
ATOM     48  C   UNL     1       5.010   9.106   7.109  1.00  0.00     0.074 A 
ATOM     49  C   UNL     1       3.815  13.500   2.700  1.00  0.00     0.029 A 
ATOM     50  N   UNL     1       4.542  11.711   3.799  1.00  0.00    -0.354 N 
ATOM     51  N   UNL     1       4.797   9.952   6.129  1.00  0.00    -0.248 NA
ATOM     52  C   UNL     1       4.464   9.530   8.404  1.00  0.00     0.031 C 
ATOM     53  C   UNL     1       3.439  13.625   4.042  1.00  0.00     0.029 A 
ATOM     54  C   UNL     1       3.865  12.496   4.721  1.00  0.00     0.049 A 
ATOM     55  H   UNL     1       4.970  10.848   4.000  1.00  0.00     0.167 HD
ATOM     56  C   UNL     1       4.088  11.007   6.690  1.00  0.00     0.074 A 
ATOM     57  C   UNL     1       3.874  10.672   8.083  1.00  0.00     0.031 C 
ATOM     58  C   UNL     1       3.664  12.156   6.108  1.00  0.00     0.037 A 
BRANCH  45  59
ATOM     59  C   UNL     1       5.013  12.584   0.086  1.00  0.00     0.058 A 
ATOM     60  C   UNL     1       4.198  12.174  -0.981  1.00  0.00     0.135 A 
ATOM     61  C   UNL     1       5.678  13.816  -0.041  1.00  0.00     0.135 A 
ATOM     62  F   UNL     1       3.550  10.999  -0.924  1.00  0.00    -0.206 F 
ATOM     63  C   UNL     1       4.062  12.944  -2.133  1.00  0.00     0.059 A 
ATOM     64  C   UNL     1       5.533  14.617  -1.172  1.00  0.00     0.059 A 
ATOM     65  F   UNL     1       6.470  14.262   0.947  1.00  0.00    -0.206 F 
ATOM     66  C   UNL     1       4.730  14.166  -2.218  1.00  0.00     0.060 A 
BRANCH  66  67
ATOM     67  S   UNL     1       4.524  15.162  -3.711  1.00  0.00     0.124 S 
ATOM     68  O   UNL     1       5.266  14.375  -4.691  1.00  0.00    -0.237 OA
ATOM     69  O   UNL     1       3.075  15.177  -3.877  1.00  0.00    -0.237 OA
ATOM     70  O   UNL     1       5.125  16.443  -3.353  1.00  0.00    -0.744 OA
ENDBRANCH  66  67
ENDBRANCH  45  59
BRANCH  46  71
ATOM     71  C   UNL     1       5.915   6.987   8.318  1.00  0.00     0.058 A 
ATOM     72  C   UNL     1       4.829   6.379   8.964  1.00  0.00     0.135 A 
ATOM     73  C   UNL     1       7.190   6.807   8.882  1.00  0.00     0.135 A 
ATOM     74  F   UNL     1       3.588   6.527   8.474  1.00  0.00    -0.206 F 
ATOM     75  C   UNL     1       4.995   5.641  10.132  1.00  0.00     0.059 A 
ATOM     76  C   UNL     1       7.387   6.040  10.024  1.00  0.00     0.059 A 
ATOM     77  F   UNL     1       8.268   7.354   8.297  1.00  0.00    -0.206 F 
ATOM     78  C   UNL     1       6.280   5.474  10.652  1.00  0.00     0.060 A 
BRANCH  78  79
ATOM     79  S   UNL     1       6.494   4.483  12.146  1.00  0.00     0.124 S 
ATOM     80  O   UNL     1       5.974   5.382  13.170  1.00  0.00    -0.237 OA
ATOM     81  O   UNL     1       5.680   3.308  11.854  1.00  0.00    -0.237 OA
ATOM     82  O   UNL     1       7.934   4.245  12.187  1.00  0.00    -0.744 OA
ENDBRANCH  78  79
ENDBRANCH  46  71
BRANCH  58  83
ATOM     83  C   UNL     1       2.902  13.116   6.980  1.00  0.00     0.058 A 
ATOM     84  C   UNL     1       3.527  13.829   8.016  1.00  0.00     0.135 A 
ATOM     85  C   UNL     1       1.526  13.315   6.787  1.00  0.00     0.135 A 
ATOM     86  F   UNL     1       4.840  13.672   8.248  1.00  0.00    -0.206 F 
ATOM     87  C   UNL     1       2.805  14.663   8.863  1.00  0.00     0.059 A 
ATOM     88  C   UNL     1       0.790  14.171   7.601  1.00  0.00     0.059 A 
ATOM     89  F   UNL     1       0.879  12.669   5.804  1.00  0.00    -0.206 F 
ATOM     90  C   UNL     1       1.435  14.822   8.652  1.00  0.00     0.060 A 
BRANCH  90  91
ATOM     91  S   UNL     1       0.505  15.892   9.769  1.00  0.00     0.124 S 
ATOM     92  O   UNL     1       0.441  15.072  10.974  1.00  0.00    -0.237 OA
ATOM     93  O   UNL     1       1.357  17.074   9.851  1.00  0.00    -0.237 OA
ATOM     94  O   UNL     1      -0.763  16.088   9.074  1.00  0.00    -0.744 OA
ENDBRANCH  90  91
ENDBRANCH  58  83
ENDBRANCH  32  33
ENDBRANCH  25  27
ENDBRANCH  24  25
ENDBRANCH   1  24
TORSDOF 16
