REMARK SMILES COc1ccc([C@@H]2C(C#N)=C(N)N3C(=O)[C@H](CC(=O)OCCOC(=O)c4ccc(-c5c6nc(c(-c7c(F)cc(S(=O)(=O)[O-])cc7F)c7ccc([nH]7)c(-c7c(F)cc(S(=O)(=O)[O-])cc7F)c7nc(c(-c8c(F)cc(S(=O)(=O)[O-])cc8F)c8ccc5[nH]8)C=C7)C=C6)cc4)SC3=C2C#N)cc1
REMARK SMILES IDX 21 1 20 2 18 3 19 4 17 5 16 6 7 7 8 8 94 9 11 10 93 11 13 12
REMARK SMILES IDX 92 13 14 14 15 15 6 16 3 17 4 18 98 19 5 20 97 21 2 22 1 23
REMARK SMILES IDX 9 24 10 25 95 26 96 27 12 28 22 31 23 32 24 33 25 34 26 35
REMARK SMILES IDX 27 36 91 37 28 38 90 39 29 40 30 41 31 42 84 43 32 44 89 45
REMARK SMILES IDX 83 46 85 47 33 48 88 49 82 50 81 51 34 53 68 54 47 55 67 56
REMARK SMILES IDX 48 57 51 58 66 59 86 60 49 61 50 62 65 64 87 65 52 66 35 67
REMARK SMILES IDX 36 68 45 69 37 70 38 71 44 72 46 73 39 74 40 75 41 76 42 77
REMARK SMILES IDX 43 78 69 79 70 80 79 81 71 82 72 83 78 84 80 85 73 86 74 87
REMARK SMILES IDX 75 88 76 89 77 90 53 91 54 92 63 93 55 94 56 95 62 96 64 97
REMARK SMILES IDX 57 98 58 99 59 100 60 101 61 102
REMARK H PARENT 12 29 12 30 85 52 51 63
REMARK Flexibility Score: inf
ROOT
ATOM      1  C   UNL     1       7.734  -1.271  12.296  1.00  0.00     0.274 C 
ENDROOT
BRANCH   1   2
ATOM      2  O   UNL     1       7.077  -1.500  11.038  1.00  0.00    -0.462 OA
BRANCH   2   3
ATOM      3  C   UNL     1       7.288  -2.676  10.405  1.00  0.00     0.307 C 
ATOM      4  O   UNL     1       8.019  -3.568  10.810  1.00  0.00    -0.252 OA
BRANCH   3   5
ATOM      5  C   UNL     1       6.544  -2.759   9.088  1.00  0.00     0.147 C 
BRANCH   5   6
ATOM      6  C   UNL     1       5.184  -2.082   9.147  1.00  0.00     0.154 C 
ATOM      7  C   UNL     1       1.985   0.439   6.307  1.00  0.00     0.107 C 
ATOM      8  C   UNL     1       3.056   1.423   6.729  1.00  0.00     0.083 C 
ATOM      9  C   UNL     1       2.356  -0.982   6.677  1.00  0.00     0.073 C 
ATOM     10  C   UNL     1       4.101   1.103   7.519  1.00  0.00     0.126 C 
ATOM     11  C   UNL     1       3.429  -1.206   7.455  1.00  0.00     0.099 C 
ATOM     12  N   UNL     1       4.255  -0.213   7.944  1.00  0.00    -0.258 N 
ATOM     13  S   UNL     1       3.995  -2.772   7.940  1.00  0.00    -0.093 SA
ATOM     14  C   UNL     1       5.292  -0.612   8.791  1.00  0.00     0.247 C 
ATOM     15  O   UNL     1       6.173   0.133   9.217  1.00  0.00    -0.273 OA
BRANCH   7  16
ATOM     16  C   UNL     1       1.596   0.580   4.832  1.00  0.00    -0.034 A 
ATOM     17  C   UNL     1       0.814   0.797   2.134  1.00  0.00     0.118 A 
ATOM     18  C   UNL     1      -0.100   1.058   3.153  1.00  0.00     0.047 A 
ATOM     19  C   UNL     1       2.127   0.459   2.458  1.00  0.00     0.047 A 
ATOM     20  C   UNL     1       0.281   0.942   4.492  1.00  0.00     0.008 A 
ATOM     21  C   UNL     1       2.517   0.347   3.798  1.00  0.00     0.008 A 
BRANCH  17  22
ATOM     22  O   UNL     1       0.340   0.950   0.860  1.00  0.00    -0.497 OA
ATOM     23  C   UNL     1       0.876   0.033  -0.089  1.00  0.00     0.278 C 
ENDBRANCH  17  22
ENDBRANCH   7  16
BRANCH   8  24
ATOM     24  C   UNL     1       3.011   2.823   6.137  1.00  0.00     0.100 C 
ATOM     25  N   UNL     1       2.973   3.983   5.646  1.00  0.00    -0.193 NA
ENDBRANCH   8  24
BRANCH   9  26
ATOM     26  C   UNL     1       1.531  -2.044   6.190  1.00  0.00     0.098 C 
ATOM     27  N   UNL     1       0.847  -2.873   5.763  1.00  0.00    -0.193 NA
ENDBRANCH   9  26
BRANCH  10  28
ATOM     28  N   UNL     1       5.024   2.047   7.894  1.00  0.00    -0.384 N 
ATOM     29  H   UNL     1       4.922   2.980   7.597  1.00  0.00     0.158 HD
ATOM     30  H   UNL     1       5.788   1.791   8.459  1.00  0.00     0.158 HD
ENDBRANCH  10  28
ENDBRANCH   5   6
ENDBRANCH   3   5
ENDBRANCH   2   3
ENDBRANCH   1   2
BRANCH   1  31
ATOM     31  C   UNL     1       6.727  -1.377  13.438  1.00  0.00     0.275 C 
BRANCH  31  32
ATOM     32  O   UNL     1       6.252  -2.730  13.562  1.00  0.00    -0.458 OA
BRANCH  32  33
ATOM     33  C   UNL     1       5.064  -2.983  12.967  1.00  0.00     0.338 C 
ATOM     34  O   UNL     1       4.325  -2.186  12.416  1.00  0.00    -0.246 OA
BRANCH  33  35
ATOM     35  C   UNL     1       4.822  -4.431  12.965  1.00  0.00     0.060 A 
ATOM     36  C   UNL     1       4.932  -5.134  11.762  1.00  0.00     0.016 A 
ATOM     37  C   UNL     1       4.405  -5.071  14.130  1.00  0.00     0.016 A 
ATOM     38  C   UNL     1       4.606  -6.486  11.715  1.00  0.00     0.010 A 
ATOM     39  C   UNL     1       4.098  -6.432  14.085  1.00  0.00     0.010 A 
ATOM     40  C   UNL     1       4.181  -7.146  12.875  1.00  0.00    -0.014 A 
BRANCH  40  41
ATOM     41  C   UNL     1       3.784  -8.574  12.823  1.00  0.00     0.031 A 
ATOM     42  C   UNL     1       2.342  -8.956  13.011  1.00  0.00     0.074 A 
ATOM     43  C   UNL     1       4.719  -9.522  12.622  1.00  0.00     0.049 A 
ATOM     44  N   UNL     1       1.808 -10.144  13.115  1.00  0.00    -0.248 NA
ATOM     45  C   UNL     1       1.375  -7.851  13.104  1.00  0.00     0.031 C 
ATOM     46  C   UNL     1       6.143  -9.269  12.396  1.00  0.00     0.029 A 
ATOM     47  N   UNL     1       4.614 -10.890  12.588  1.00  0.00    -0.354 N 
ATOM     48  C   UNL     1       0.447  -9.933  13.307  1.00  0.00     0.074 A 
ATOM     49  C   UNL     1       0.242  -8.501  13.332  1.00  0.00     0.031 C 
ATOM     50  C   UNL     1       6.778 -10.443  12.249  1.00  0.00     0.029 A 
ATOM     51  C   UNL     1       5.820 -11.529  12.426  1.00  0.00     0.049 A 
ATOM     52  H   UNL     1       3.757 -11.367  12.673  1.00  0.00     0.167 HD
ATOM     53  C   UNL     1      -0.538 -10.853  13.443  1.00  0.00     0.037 A 
ATOM     54  C   UNL     1       6.123 -12.842  12.451  1.00  0.00     0.037 A 
ATOM     55  C   UNL     1      -0.320 -12.277  13.405  1.00  0.00     0.049 A 
ATOM     56  C   UNL     1       5.019 -13.843  12.665  1.00  0.00     0.074 A 
ATOM     57  C   UNL     1      -1.253 -13.294  13.511  1.00  0.00     0.029 A 
ATOM     58  N   UNL     1       0.918 -12.887  13.255  1.00  0.00    -0.354 N 
ATOM     59  N   UNL     1       3.735 -13.632  12.834  1.00  0.00    -0.248 NA
ATOM     60  C   UNL     1       5.404 -15.260  12.695  1.00  0.00     0.031 C 
ATOM     61  C   UNL     1      -0.574 -14.516  13.482  1.00  0.00     0.029 A 
ATOM     62  C   UNL     1       0.776 -14.265  13.294  1.00  0.00     0.049 A 
ATOM     63  H   UNL     1       1.772 -12.411  13.139  1.00  0.00     0.167 HD
ATOM     64  C   UNL     1       3.156 -14.889  12.962  1.00  0.00     0.074 A 
ATOM     65  C   UNL     1       4.228 -15.855  12.838  1.00  0.00     0.031 C 
ATOM     66  C   UNL     1       1.854 -15.215  13.162  1.00  0.00     0.037 A 
BRANCH  53  67
ATOM     67  C   UNL     1      -1.939 -10.351  13.676  1.00  0.00     0.058 A 
ATOM     68  C   UNL     1      -2.674  -9.702  12.671  1.00  0.00     0.135 A 
ATOM     69  C   UNL     1      -2.570 -10.557  14.915  1.00  0.00     0.135 A 
ATOM     70  F   UNL     1      -2.117  -9.463  11.473  1.00  0.00    -0.206 F 
ATOM     71  C   UNL     1      -3.971  -9.249  12.894  1.00  0.00     0.059 A 
ATOM     72  C   UNL     1      -3.877 -10.140  15.150  1.00  0.00     0.059 A 
ATOM     73  F   UNL     1      -1.916 -11.172  15.913  1.00  0.00    -0.206 F 
ATOM     74  C   UNL     1      -4.564  -9.474  14.137  1.00  0.00     0.060 A 
BRANCH  74  75
ATOM     75  S   UNL     1      -6.248  -8.881  14.410  1.00  0.00     0.124 S 
ATOM     76  O   UNL     1      -6.043  -7.437  14.464  1.00  0.00    -0.237 OA
ATOM     77  O   UNL     1      -6.947  -9.377  13.229  1.00  0.00    -0.237 OA
ATOM     78  O   UNL     1      -6.630  -9.507  15.671  1.00  0.00    -0.744 OA
ENDBRANCH  74  75
ENDBRANCH  53  67
BRANCH  54  79
ATOM     79  C   UNL     1       7.535 -13.282  12.286  1.00  0.00     0.058 A 
ATOM     80  C   UNL     1       7.947 -13.985  11.145  1.00  0.00     0.135 A 
ATOM     81  C   UNL     1       8.504 -13.000  13.263  1.00  0.00     0.135 A 
ATOM     82  F   UNL     1       7.057 -14.287  10.187  1.00  0.00    -0.206 F 
ATOM     83  C   UNL     1       9.262 -14.407  10.983  1.00  0.00     0.059 A 
ATOM     84  C   UNL     1       9.832 -13.385  13.110  1.00  0.00     0.059 A 
ATOM     85  F   UNL     1       8.167 -12.320  14.370  1.00  0.00    -0.206 F 
ATOM     86  C   UNL     1      10.199 -14.098  11.970  1.00  0.00     0.060 A 
BRANCH  86  87
ATOM     87  S   UNL     1      11.913 -14.612  11.728  1.00  0.00     0.124 S 
ATOM     88  O   UNL     1      11.817 -16.055  11.913  1.00  0.00    -0.237 OA
ATOM     89  O   UNL     1      12.178 -14.159  10.366  1.00  0.00    -0.237 OA
ATOM     90  O   UNL     1      12.633 -13.888  12.772  1.00  0.00    -0.744 OA
ENDBRANCH  86  87
ENDBRANCH  54  79
BRANCH  66  91
ATOM     91  C   UNL     1       1.507 -16.679  13.222  1.00  0.00     0.058 A 
ATOM     92  C   UNL     1       1.865 -17.482  14.315  1.00  0.00     0.135 A 
ATOM     93  C   UNL     1       0.758 -17.272  12.191  1.00  0.00     0.135 A 
ATOM     94  F   UNL     1       2.587 -16.969  15.324  1.00  0.00    -0.206 F 
ATOM     95  C   UNL     1       1.515 -18.828  14.374  1.00  0.00     0.059 A 
ATOM     96  C   UNL     1       0.369 -18.606  12.244  1.00  0.00     0.059 A 
ATOM     97  F   UNL     1       0.380 -16.547  11.126  1.00  0.00    -0.206 F 
ATOM     98  C   UNL     1       0.763 -19.380  13.334  1.00  0.00     0.060 A 
BRANCH  98  99
ATOM     99  S   UNL     1       0.284 -21.117  13.442  1.00  0.00     0.124 S 
ATOM    100  O   UNL     1       1.557 -21.789  13.200  1.00  0.00    -0.237 OA
ATOM    101  O   UNL     1      -0.235 -21.213  14.803  1.00  0.00    -0.237 OA
ATOM    102  O   UNL     1      -0.712 -21.262  12.385  1.00  0.00    -0.744 OA
ENDBRANCH  98  99
ENDBRANCH  66  91
ENDBRANCH  40  41
ENDBRANCH  33  35
ENDBRANCH  32  33
ENDBRANCH  31  32
ENDBRANCH   1  31
TORSDOF 20
