REMARK SMILES CC1(C)[C@H](O)CC[C@@]2(C)[C@@H]1CC[C@@]1(C)Oc3oc(C(=O)OCCOC(=O)c4ccc(-c5c6nc(c(-c7c(F)cc(S(=O)(=O)[O-])cc7F)c7ccc([nH]7)c(-c7c(F)cc(S(=O)(=O)[O-])cc7F)c7nc(c(-c8c(F)cc(S(=O)(=O)[O-])cc8F)c8ccc5[nH]8)C=C7)C=C6)cc4)cc(=O)c3C[C@@H]21
REMARK SMILES IDX 23 1 22 2 21 3 19 4 20 5 18 6 1 7 2 8 4 9 10 10 3 11 6 12
REMARK SMILES IDX 8 13 11 14 7 15 98 16 9 17 12 18 13 19 97 20 15 21 14 22
REMARK SMILES IDX 96 23 16 24 94 25 17 26 93 27 95 28 5 29 24 31 25 32 26 33
REMARK SMILES IDX 27 34 28 35 92 36 29 37 91 38 30 39 31 40 32 41 85 42 33 43
REMARK SMILES IDX 90 44 84 45 86 46 34 47 89 48 83 49 82 50 35 52 69 53 48 54
REMARK SMILES IDX 68 55 49 56 52 57 67 58 87 59 50 60 51 61 66 63 88 64 53 65
REMARK SMILES IDX 36 66 37 67 46 68 38 69 39 70 45 71 47 72 40 73 41 74 42 75
REMARK SMILES IDX 43 76 44 77 70 78 71 79 80 80 72 81 73 82 79 83 81 84 74 85
REMARK SMILES IDX 75 86 76 87 77 88 78 89 54 90 55 91 64 92 56 93 57 94 63 95
REMARK SMILES IDX 65 96 58 97 59 98 60 99 61 100 62 101
REMARK H PARENT 5 30 86 51 52 62
REMARK Flexibility Score: inf
ROOT
ATOM      1  C   UNL     1      -5.187  -7.552  -8.259  1.00  0.00     0.275 C 
ENDROOT
BRANCH   1   2
ATOM      2  C   UNL     1      -3.737  -7.144  -8.519  1.00  0.00     0.275 C 
BRANCH   2   3
ATOM      3  O   UNL     1      -3.391  -6.024  -7.695  1.00  0.00    -0.456 OA
BRANCH   3   4
ATOM      4  C   UNL     1      -3.589  -4.804  -8.265  1.00  0.00     0.374 C 
ATOM      5  O   UNL     1      -3.871  -4.593  -9.439  1.00  0.00    -0.242 OA
BRANCH   4   6
ATOM      6  C   UNL     1      -3.270  -3.750  -7.290  1.00  0.00     0.219 A 
ATOM      7  C   UNL     1      -0.132   1.268   0.318  1.00  0.00     0.014 C 
ATOM      8  C   UNL     1      -0.171   1.461  -1.225  1.00  0.00    -0.006 C 
ATOM      9  C   UNL     1       0.624   0.076  -1.745  1.00  0.00     0.120 C 
ATOM     10  C   UNL     1      -1.881   1.557  -1.926  1.00  0.00     0.004 C 
ATOM     11  C   UNL     1       0.771   2.661  -1.499  1.00  0.00     0.014 C 
ATOM     12  C   UNL     1       0.748   0.103  -3.236  1.00  0.00     0.033 C 
ATOM     13  C   UNL     1      -1.859   0.220  -2.619  1.00  0.00    -0.022 C 
ATOM     14  C   UNL     1      -2.620   2.444  -3.067  1.00  0.00     0.009 C 
ATOM     15  C   UNL     1      -0.546   0.732  -3.571  1.00  0.00     0.010 C 
ATOM     16  C   UNL     1      -2.763  -0.528  -3.595  1.00  0.00     0.044 C 
ATOM     17  C   UNL     1      -2.204  -0.653  -1.348  1.00  0.00     0.012 C 
ATOM     18  C   UNL     1      -3.456   1.693  -4.340  1.00  0.00     0.049 C 
ATOM     19  C   UNL     1      -3.932   0.183  -4.191  1.00  0.00     0.113 C 
ATOM     20  C   UNL     1      -1.814  -1.078  -4.624  1.00  0.00     0.055 C 
ATOM     21  O   UNL     1      -4.405  -0.631  -5.407  1.00  0.00    -0.458 OA
ATOM     22  C   UNL     1      -5.137   0.191  -3.212  1.00  0.00     0.057 C 
ATOM     23  C   UNL     1      -2.408  -1.962  -5.543  1.00  0.00     0.081 A 
ATOM     24  C   UNL     1      -3.671  -1.790  -5.896  1.00  0.00     0.292 A 
ATOM     25  C   UNL     1      -1.421  -2.841  -6.172  1.00  0.00     0.192 A 
ATOM     26  O   UNL     1      -4.161  -2.728  -6.841  1.00  0.00    -0.418 OA
ATOM     27  C   UNL     1      -1.959  -3.823  -7.049  1.00  0.00     0.107 A 
ATOM     28  O   UNL     1      -0.211  -2.746  -6.006  1.00  0.00    -0.289 OA
BRANCH   9  29
ATOM     29  O   UNL     1       1.894  -0.201  -1.182  1.00  0.00    -0.393 OA
ATOM     30  H   UNL     1       2.526   0.480  -1.459  1.00  0.00     0.210 HD
ENDBRANCH   9  29
ENDBRANCH   4   6
ENDBRANCH   3   4
ENDBRANCH   2   3
ENDBRANCH   1   2
BRANCH   1  31
ATOM     31  O   UNL     1      -6.099  -6.482  -8.581  1.00  0.00    -0.458 OA
BRANCH  31  32
ATOM     32  C   UNL     1      -6.399  -5.659  -7.543  1.00  0.00     0.338 C 
ATOM     33  O   UNL     1      -6.031  -5.766  -6.393  1.00  0.00    -0.246 OA
BRANCH  32  34
ATOM     34  C   UNL     1      -7.190  -4.511  -8.017  1.00  0.00     0.060 A 
ATOM     35  C   UNL     1      -6.546  -3.345  -8.429  1.00  0.00     0.016 A 
ATOM     36  C   UNL     1      -8.570  -4.526  -7.875  1.00  0.00     0.016 A 
ATOM     37  C   UNL     1      -7.234  -2.158  -8.579  1.00  0.00     0.010 A 
ATOM     38  C   UNL     1      -9.287  -3.357  -8.137  1.00  0.00     0.010 A 
ATOM     39  C   UNL     1      -8.616  -2.162  -8.453  1.00  0.00    -0.014 A 
BRANCH  39  40
ATOM     40  C   UNL     1      -9.345  -0.893  -8.618  1.00  0.00     0.031 A 
ATOM     41  C   UNL     1     -10.038  -0.293  -7.437  1.00  0.00     0.074 A 
ATOM     42  C   UNL     1      -9.346  -0.286  -9.819  1.00  0.00     0.049 A 
ATOM     43  N   UNL     1     -10.868   0.712  -7.397  1.00  0.00    -0.248 NA
ATOM     44  C   UNL     1      -9.768  -0.909  -6.126  1.00  0.00     0.031 C 
ATOM     45  C   UNL     1      -8.612  -0.743 -11.003  1.00  0.00     0.029 A 
ATOM     46  N   UNL     1      -9.989   0.845 -10.243  1.00  0.00    -0.354 N 
ATOM     47  C   UNL     1     -11.246   0.832  -6.067  1.00  0.00     0.074 A 
ATOM     48  C   UNL     1     -10.572  -0.216  -5.333  1.00  0.00     0.031 C 
ATOM     49  C   UNL     1      -8.851   0.098 -12.020  1.00  0.00     0.029 A 
ATOM     50  C   UNL     1      -9.809   1.105 -11.580  1.00  0.00     0.049 A 
ATOM     51  H   UNL     1     -10.529   1.416  -9.649  1.00  0.00     0.167 HD
ATOM     52  C   UNL     1     -12.081   1.744  -5.520  1.00  0.00     0.037 A 
ATOM     53  C   UNL     1     -10.391   2.025 -12.370  1.00  0.00     0.037 A 
ATOM     54  C   UNL     1     -12.723   2.786  -6.278  1.00  0.00     0.049 A 
ATOM     55  C   UNL     1     -11.393   2.961 -11.757  1.00  0.00     0.074 A 
ATOM     56  C   UNL     1     -13.595   3.761  -5.830  1.00  0.00     0.029 A 
ATOM     57  N   UNL     1     -12.559   2.991  -7.642  1.00  0.00    -0.354 N 
ATOM     58  N   UNL     1     -11.784   3.045 -10.506  1.00  0.00    -0.248 NA
ATOM     59  C   UNL     1     -12.042   3.921 -12.658  1.00  0.00     0.031 C 
ATOM     60  C   UNL     1     -14.001   4.520  -6.932  1.00  0.00     0.029 A 
ATOM     61  C   UNL     1     -13.335   4.059  -8.057  1.00  0.00     0.049 A 
ATOM     62  H   UNL     1     -11.977   2.454  -8.227  1.00  0.00     0.167 HD
ATOM     63  C   UNL     1     -12.706   4.083 -10.464  1.00  0.00     0.074 A 
ATOM     64  C   UNL     1     -12.803   4.605 -11.814  1.00  0.00     0.031 C 
ATOM     65  C   UNL     1     -13.411   4.561  -9.408  1.00  0.00     0.037 A 
BRANCH  52  66
ATOM     66  C   UNL     1     -12.370   1.640  -4.050  1.00  0.00     0.058 A 
ATOM     67  C   UNL     1     -11.406   1.957  -3.080  1.00  0.00     0.135 A 
ATOM     68  C   UNL     1     -13.647   1.262  -3.605  1.00  0.00     0.135 A 
ATOM     69  F   UNL     1     -10.161   2.299  -3.448  1.00  0.00    -0.206 F 
ATOM     70  C   UNL     1     -11.697   1.895  -1.721  1.00  0.00     0.059 A 
ATOM     71  C   UNL     1     -13.968   1.220  -2.252  1.00  0.00     0.059 A 
ATOM     72  F   UNL     1     -14.602   0.936  -4.490  1.00  0.00    -0.206 F 
ATOM     73  C   UNL     1     -12.983   1.533  -1.317  1.00  0.00     0.060 A 
BRANCH  73  74
ATOM     74  S   UNL     1     -13.347   1.488   0.450  1.00  0.00     0.124 S 
ATOM     75  O   UNL     1     -12.530   0.360   0.889  1.00  0.00    -0.237 OA
ATOM     76  O   UNL     1     -12.898   2.804   0.891  1.00  0.00    -0.237 OA
ATOM     77  O   UNL     1     -14.789   1.270   0.497  1.00  0.00    -0.744 OA
ENDBRANCH  73  74
ENDBRANCH  52  66
BRANCH  53  78
ATOM     78  C   UNL     1     -10.053   2.080 -13.816  1.00  0.00     0.058 A 
ATOM     79  C   UNL     1      -9.345   3.167 -14.346  1.00  0.00     0.135 A 
ATOM     80  C   UNL     1     -10.398   1.036 -14.691  1.00  0.00     0.135 A 
ATOM     81  F   UNL     1      -8.997   4.191 -13.552  1.00  0.00    -0.206 F 
ATOM     82  C   UNL     1      -8.998   3.224 -15.691  1.00  0.00     0.059 A 
ATOM     83  C   UNL     1     -10.037   1.056 -16.034  1.00  0.00     0.059 A 
ATOM     84  F   UNL     1     -11.065  -0.035 -14.232  1.00  0.00    -0.206 F 
ATOM     85  C   UNL     1      -9.343   2.160 -16.527  1.00  0.00     0.060 A 
BRANCH  85  86
ATOM     86  S   UNL     1      -8.842   2.228 -18.260  1.00  0.00     0.124 S 
ATOM     87  O   UNL     1      -9.674   3.314 -18.764  1.00  0.00    -0.237 OA
ATOM     88  O   UNL     1      -7.415   2.514 -18.152  1.00  0.00    -0.237 OA
ATOM     89  O   UNL     1      -9.172   0.897 -18.759  1.00  0.00    -0.744 OA
ENDBRANCH  85  86
ENDBRANCH  53  78
BRANCH  65  90
ATOM     90  C   UNL     1     -14.330   5.723  -9.662  1.00  0.00     0.058 A 
ATOM     91  C   UNL     1     -15.528   5.571 -10.376  1.00  0.00     0.135 A 
ATOM     92  C   UNL     1     -14.041   6.988  -9.124  1.00  0.00     0.135 A 
ATOM     93  F   UNL     1     -15.848   4.384 -10.917  1.00  0.00    -0.206 F 
ATOM     94  C   UNL     1     -16.399   6.638 -10.567  1.00  0.00     0.059 A 
ATOM     95  C   UNL     1     -14.913   8.060  -9.274  1.00  0.00     0.059 A 
ATOM     96  F   UNL     1     -12.913   7.184  -8.423  1.00  0.00    -0.206 F 
ATOM     97  C   UNL     1     -16.085   7.878 -10.005  1.00  0.00     0.060 A 
BRANCH  97  98
ATOM     98  S   UNL     1     -17.246   9.241 -10.230  1.00  0.00     0.124 S 
ATOM     99  O   UNL     1     -17.107   9.514 -11.656  1.00  0.00    -0.237 OA
ATOM    100  O   UNL     1     -18.511   8.640  -9.819  1.00  0.00    -0.237 OA
ATOM    101  O   UNL     1     -16.732  10.277  -9.340  1.00  0.00    -0.744 OA
ENDBRANCH  97  98
ENDBRANCH  65  90
ENDBRANCH  39  40
ENDBRANCH  32  34
ENDBRANCH  31  32
ENDBRANCH   1  31
TORSDOF 15
