REMARK SMILES Cc1c(Cl)cccc1NC(=O)C[C@H](C(=O)OCCOC(=O)c1ccc(-c2c3nc(c(-c4c(F)cc(S(=O)(=O)[O-])cc4F)c4ccc([nH]4)c(-c4c(F)cc(S(=O)(=O)[O-])cc4F)c4nc(c(-c5c(F)cc(S(=O)(=O)[O-])cc5F)c5ccc2[nH]5)C=C4)C=C3)cc1)[C@H](C)c1ccccc1
REMARK SMILES IDX 17 1 16 2 14 3 15 4 13 5 12 6 10 7 9 8 11 10 8 11 1 12 2 13
REMARK SMILES IDX 3 14 4 15 5 16 7 17 6 18 88 19 89 20 90 21 91 22 95 23 92 24
REMARK SMILES IDX 94 25 93 26 18 27 19 28 20 29 21 30 22 31 23 32 87 33 24 34
REMARK SMILES IDX 86 35 25 36 26 37 27 38 80 39 28 40 85 41 79 42 81 43 29 44
REMARK SMILES IDX 84 45 78 46 77 47 30 49 64 50 43 51 63 52 44 53 47 54 62 55
REMARK SMILES IDX 82 56 45 57 46 58 61 60 83 61 48 62 31 63 32 64 41 65 33 66
REMARK SMILES IDX 34 67 40 68 42 69 35 70 36 71 37 72 38 73 39 74 65 75 66 76
REMARK SMILES IDX 75 77 67 78 68 79 74 80 76 81 69 82 70 83 71 84 72 85 73 86
REMARK SMILES IDX 49 87 50 88 59 89 51 90 52 91 58 92 60 93 53 94 54 95 55 96
REMARK SMILES IDX 56 97 57 98
REMARK H PARENT 9 9 81 48 47 59
REMARK Flexibility Score: inf
ROOT
ATOM      1  C   UNL     1      -7.527  -2.027   1.692  1.00  0.00     0.274 C 
ENDROOT
BRANCH   1   2
ATOM      2  O   UNL     1      -6.703  -1.303   0.753  1.00  0.00    -0.462 OA
BRANCH   2   3
ATOM      3  C   UNL     1      -6.875  -1.593  -0.566  1.00  0.00     0.310 C 
ATOM      4  O   UNL     1      -7.604  -2.481  -0.986  1.00  0.00    -0.252 OA
BRANCH   3   5
ATOM      5  C   UNL     1      -6.024  -0.701  -1.478  1.00  0.00     0.116 C 
BRANCH   5   6
ATOM      6  C   UNL     1      -6.248   0.777  -1.078  1.00  0.00     0.116 C 
BRANCH   6   7
ATOM      7  C   UNL     1      -5.181   1.830  -1.224  1.00  0.00     0.225 C 
ATOM      8  N   UNL     1      -4.318   2.182  -0.228  1.00  0.00    -0.326 N 
ATOM      9  H   UNL     1      -3.790   2.991  -0.418  1.00  0.00     0.169 HD
ATOM     10  O   UNL     1      -5.033   2.397  -2.313  1.00  0.00    -0.275 OA
BRANCH   8  11
ATOM     11  C   UNL     1      -4.047   1.596   1.022  1.00  0.00     0.045 A 
ATOM     12  C   UNL     1      -1.533   1.938   0.603  1.00  0.00     0.048 C 
ATOM     13  C   UNL     1      -2.697   1.421   1.415  1.00  0.00    -0.009 A 
ATOM     14  C   UNL     1      -2.434   0.619   2.547  1.00  0.00     0.046 A 
ATOM     15  Cl  UNL     1      -0.818   0.209   3.017  1.00  0.00    -0.084 Cl
ATOM     16  C   UNL     1      -3.470   0.077   3.308  1.00  0.00     0.021 A 
ATOM     17  C   UNL     1      -5.070   1.131   1.852  1.00  0.00     0.026 A 
ATOM     18  C   UNL     1      -4.787   0.365   2.982  1.00  0.00     0.004 A 
ENDBRANCH   8  11
ENDBRANCH   6   7
ENDBRANCH   5   6
BRANCH   5  19
ATOM     19  C   UNL     1      -4.651  -1.418  -1.628  1.00  0.00     0.031 C 
ATOM     20  C   UNL     1      -3.365  -0.608  -1.545  1.00  0.00     0.013 C 
BRANCH  19  21
ATOM     21  C   UNL     1      -4.632  -2.248  -2.917  1.00  0.00    -0.044 A 
ATOM     22  C   UNL     1      -4.998  -3.602  -2.880  1.00  0.00     0.004 A 
ATOM     23  C   UNL     1      -4.265  -1.686  -4.151  1.00  0.00     0.004 A 
ATOM     24  C   UNL     1      -4.956  -4.383  -4.036  1.00  0.00     0.000 A 
ATOM     25  C   UNL     1      -4.213  -2.471  -5.303  1.00  0.00     0.000 A 
ATOM     26  C   UNL     1      -4.552  -3.820  -5.245  1.00  0.00     0.000 A 
ENDBRANCH  19  21
ENDBRANCH   5  19
ENDBRANCH   3   5
ENDBRANCH   2   3
ENDBRANCH   1   2
BRANCH   1  27
ATOM     27  C   UNL     1      -8.667  -1.146   2.205  1.00  0.00     0.275 C 
BRANCH  27  28
ATOM     28  O   UNL     1      -9.596  -0.888   1.141  1.00  0.00    -0.458 OA
BRANCH  28  29
ATOM     29  C   UNL     1      -9.631   0.380   0.673  1.00  0.00     0.338 C 
ATOM     30  O   UNL     1      -9.031   1.349   1.100  1.00  0.00    -0.246 OA
BRANCH  29  31
ATOM     31  C   UNL     1     -10.451   0.388  -0.544  1.00  0.00     0.060 A 
ATOM     32  C   UNL     1      -9.851   0.030  -1.753  1.00  0.00     0.016 A 
ATOM     33  C   UNL     1     -11.786   0.783  -0.501  1.00  0.00     0.016 A 
ATOM     34  C   UNL     1     -10.573   0.084  -2.937  1.00  0.00     0.010 A 
ATOM     35  C   UNL     1     -12.525   0.797  -1.687  1.00  0.00     0.010 A 
ATOM     36  C   UNL     1     -11.919   0.457  -2.911  1.00  0.00    -0.014 A 
BRANCH  36  37
ATOM     37  C   UNL     1     -12.686   0.521  -4.174  1.00  0.00     0.031 A 
ATOM     38  C   UNL     1     -13.094   1.856  -4.722  1.00  0.00     0.074 A 
ATOM     39  C   UNL     1     -13.004  -0.616  -4.819  1.00  0.00     0.049 A 
ATOM     40  N   UNL     1     -13.886   2.130  -5.723  1.00  0.00    -0.248 NA
ATOM     41  C   UNL     1     -12.541   3.040  -4.045  1.00  0.00     0.031 C 
ATOM     42  C   UNL     1     -12.605  -1.964  -4.404  1.00  0.00     0.029 A 
ATOM     43  N   UNL     1     -13.743  -0.823  -5.955  1.00  0.00    -0.354 N 
ATOM     44  C   UNL     1     -13.954   3.517  -5.780  1.00  0.00     0.074 A 
ATOM     45  C   UNL     1     -13.131   4.027  -4.704  1.00  0.00     0.031 C 
ATOM     46  C   UNL     1     -13.110  -2.856  -5.270  1.00  0.00     0.029 A 
ATOM     47  C   UNL     1     -13.910  -2.151  -6.265  1.00  0.00     0.049 A 
ATOM     48  H   UNL     1     -14.117  -0.090  -6.495  1.00  0.00     0.167 HD
ATOM     49  C   UNL     1     -14.646   4.288  -6.652  1.00  0.00     0.037 A 
ATOM     50  C   UNL     1     -14.658  -2.732  -7.222  1.00  0.00     0.037 A 
ATOM     51  C   UNL     1     -15.445   3.760  -7.727  1.00  0.00     0.049 A 
ATOM     52  C   UNL     1     -15.458  -1.857  -8.147  1.00  0.00     0.074 A 
ATOM     53  C   UNL     1     -16.184   4.448  -8.671  1.00  0.00     0.029 A 
ATOM     54  N   UNL     1     -15.605   2.408  -8.001  1.00  0.00    -0.354 N 
ATOM     55  N   UNL     1     -15.541  -0.548  -8.175  1.00  0.00    -0.248 NA
ATOM     56  C   UNL     1     -16.273  -2.535  -9.163  1.00  0.00     0.031 C 
ATOM     57  C   UNL     1     -16.820   3.512  -9.495  1.00  0.00     0.029 A 
ATOM     58  C   UNL     1     -16.444   2.240  -9.089  1.00  0.00     0.049 A 
ATOM     59  H   UNL     1     -15.184   1.675  -7.495  1.00  0.00     0.167 HD
ATOM     60  C   UNL     1     -16.404  -0.243  -9.220  1.00  0.00     0.074 A 
ATOM     61  C   UNL     1     -16.807  -1.506  -9.808  1.00  0.00     0.031 C 
ATOM     62  C   UNL     1     -16.827   0.970  -9.655  1.00  0.00     0.037 A 
BRANCH  49  63
ATOM     63  C   UNL     1     -14.597   5.776  -6.448  1.00  0.00     0.058 A 
ATOM     64  C   UNL     1     -13.449   6.528  -6.741  1.00  0.00     0.135 A 
ATOM     65  C   UNL     1     -15.719   6.460  -5.954  1.00  0.00     0.135 A 
ATOM     66  F   UNL     1     -12.341   5.922  -7.197  1.00  0.00    -0.206 F 
ATOM     67  C   UNL     1     -13.404   7.902  -6.522  1.00  0.00     0.059 A 
ATOM     68  C   UNL     1     -15.705   7.836  -5.750  1.00  0.00     0.059 A 
ATOM     69  F   UNL     1     -16.842   5.788  -5.653  1.00  0.00    -0.206 F 
ATOM     70  C   UNL     1     -14.537   8.546  -6.020  1.00  0.00     0.060 A 
BRANCH  70  71
ATOM     71  S   UNL     1     -14.463  10.326  -5.727  1.00  0.00     0.124 S 
ATOM     72  O   UNL     1     -13.664  10.387  -4.507  1.00  0.00    -0.237 OA
ATOM     73  O   UNL     1     -13.810  10.818  -6.936  1.00  0.00    -0.237 OA
ATOM     74  O   UNL     1     -15.865  10.704  -5.578  1.00  0.00    -0.744 OA
ENDBRANCH  70  71
ENDBRANCH  49  63
BRANCH  50  75
ATOM     75  C   UNL     1     -14.703  -4.214  -7.328  1.00  0.00     0.058 A 
ATOM     76  C   UNL     1     -14.092  -4.881  -8.399  1.00  0.00     0.135 A 
ATOM     77  C   UNL     1     -15.335  -4.994  -6.346  1.00  0.00     0.135 A 
ATOM     78  F   UNL     1     -13.485  -4.180  -9.367  1.00  0.00    -0.206 F 
ATOM     79  C   UNL     1     -14.108  -6.269  -8.496  1.00  0.00     0.059 A 
ATOM     80  C   UNL     1     -15.344  -6.384  -6.409  1.00  0.00     0.059 A 
ATOM     81  F   UNL     1     -15.925  -4.404  -5.295  1.00  0.00    -0.206 F 
ATOM     82  C   UNL     1     -14.734  -7.013  -7.493  1.00  0.00     0.060 A 
BRANCH  82  83
ATOM     83  S   UNL     1     -14.699  -8.816  -7.596  1.00  0.00     0.124 S 
ATOM     84  O   UNL     1     -15.687  -9.069  -8.638  1.00  0.00    -0.237 OA
ATOM     85  O   UNL     1     -13.309  -9.077  -7.958  1.00  0.00    -0.237 OA
ATOM     86  O   UNL     1     -15.077  -9.236  -6.250  1.00  0.00    -0.744 OA
ENDBRANCH  82  83
ENDBRANCH  50  75
BRANCH  62  87
ATOM     87  C   UNL     1     -17.751   0.987 -10.839  1.00  0.00     0.058 A 
ATOM     88  C   UNL     1     -19.103   0.633 -10.720  1.00  0.00     0.135 A 
ATOM     89  C   UNL     1     -17.287   1.410 -12.095  1.00  0.00     0.135 A 
ATOM     90  F   UNL     1     -19.591   0.214  -9.542  1.00  0.00    -0.206 F 
ATOM     91  C   UNL     1     -19.962   0.678 -11.813  1.00  0.00     0.059 A 
ATOM     92  C   UNL     1     -18.134   1.485 -13.196  1.00  0.00     0.059 A 
ATOM     93  F   UNL     1     -16.004   1.768 -12.257  1.00  0.00    -0.206 F 
ATOM     94  C   UNL     1     -19.468   1.106 -13.047  1.00  0.00     0.060 A 
BRANCH  94  95
ATOM     95  S   UNL     1     -20.599   1.194 -14.451  1.00  0.00     0.124 S 
ATOM     96  O   UNL     1     -20.721  -0.212 -14.818  1.00  0.00    -0.237 OA
ATOM     97  O   UNL     1     -21.787   1.802 -13.860  1.00  0.00    -0.237 OA
ATOM     98  O   UNL     1     -19.885   2.034 -15.409  1.00  0.00    -0.744 OA
ENDBRANCH  94  95
ENDBRANCH  62  87
ENDBRANCH  36  37
ENDBRANCH  29  31
ENDBRANCH  28  29
ENDBRANCH  27  28
ENDBRANCH   1  27
TORSDOF 19
