REMARK SMILES O=C(NCc1ccc(C(=O)OCCOC(=O)c2ccc(-c3c4nc(c(-c5c(F)cc(S(=O)(=O)[O-])cc5F)c5ccc([nH]5)c(-c5c(F)cc(S(=O)(=O)[O-])cc5F)c5nc(c(-c6c(F)cc(S(=O)(=O)[O-])cc6F)c6ccc3[nH]6)C=C5)C=C4)cc2)o1)Nc1ccc(F)c(Cl)c1
REMARK SMILES IDX 12 1 11 2 9 3 10 4 8 5 5 6 6 7 83 8 7 9 4 10 3 11 1 12 2 13
REMARK SMILES IDX 84 14 85 17 86 18 92 19 87 20 90 21 88 22 91 23 89 24 13 25
REMARK SMILES IDX 14 26 15 27 16 28 17 29 18 30 82 31 19 32 81 33 20 34 21 35
REMARK SMILES IDX 22 36 75 37 23 38 80 39 74 40 76 41 24 42 79 43 73 44 72 45
REMARK SMILES IDX 25 47 59 48 38 49 58 50 39 51 42 52 57 53 77 54 40 55 41 56
REMARK SMILES IDX 56 58 78 59 43 60 26 61 27 62 36 63 28 64 29 65 35 66 37 67
REMARK SMILES IDX 30 68 31 69 32 70 33 71 34 72 60 73 61 74 70 75 62 76 63 77
REMARK SMILES IDX 69 78 71 79 64 80 65 81 66 82 67 83 68 84 44 85 45 86 54 87
REMARK SMILES IDX 46 88 47 89 53 90 55 91 48 92 49 93 50 94 51 95 52 96
REMARK H PARENT 3 15 84 16 76 46 42 57
REMARK Flexibility Score: inf
ROOT
ATOM      1  C   UNL     1       5.793  -6.271   4.783  1.00  0.00     0.275 C 
ENDROOT
BRANCH   1   2
ATOM      2  O   UNL     1       5.894  -4.883   4.415  1.00  0.00    -0.456 OA
BRANCH   2   3
ATOM      3  C   UNL     1       6.095  -4.633   3.086  1.00  0.00     0.374 C 
ATOM      4  O   UNL     1       6.330  -5.495   2.251  1.00  0.00    -0.242 OA
BRANCH   3   5
ATOM      5  C   UNL     1       5.892  -3.228   2.809  1.00  0.00     0.211 A 
ATOM      6  C   UNL     1       5.311  -1.554   1.492  1.00  0.00     0.124 A 
ATOM      7  C   UNL     1       5.419  -1.028   2.762  1.00  0.00     0.048 A 
ATOM      8  O   UNL     1       5.669  -2.867   1.505  1.00  0.00    -0.452 OA
ATOM      9  C   UNL     1       5.784  -2.106   3.609  1.00  0.00     0.058 A 
BRANCH   6  10
ATOM     10  C   UNL     1       4.806  -1.021   0.199  1.00  0.00     0.193 C 
BRANCH  10  11
ATOM     11  N   UNL     1       3.358  -1.038   0.271  1.00  0.00    -0.331 N 
ATOM     12  O   UNL     1       1.337  -0.261   0.743  1.00  0.00    -0.248 OA
ATOM     13  C   UNL     1       2.468  -0.015   0.338  1.00  0.00     0.319 C 
ATOM     14  N   UNL     1       2.927   1.208  -0.063  1.00  0.00    -0.308 N 
ATOM     15  H   UNL     1       2.955  -1.937   0.271  1.00  0.00     0.165 HD
ATOM     16  H   UNL     1       3.797   1.221  -0.522  1.00  0.00     0.171 HD
BRANCH  14  17
ATOM     17  C   UNL     1       2.286   2.452   0.110  1.00  0.00     0.044 A 
ATOM     18  C   UNL     1       2.823   3.549  -0.578  1.00  0.00     0.029 A 
ATOM     19  C   UNL     1       1.180   2.645   0.946  1.00  0.00     0.049 A 
ATOM     20  C   UNL     1       2.255   4.818  -0.445  1.00  0.00     0.043 A 
ATOM     21  C   UNL     1       0.617   3.917   1.083  1.00  0.00     0.078 A 
ATOM     22  C   UNL     1       1.155   4.995   0.387  1.00  0.00     0.141 A 
ATOM     23  Cl  UNL     1      -0.727   4.144   2.137  1.00  0.00    -0.081 Cl
ATOM     24  F   UNL     1       0.636   6.225   0.513  1.00  0.00    -0.205 F 
ENDBRANCH  14  17
ENDBRANCH  10  11
ENDBRANCH   6  10
ENDBRANCH   3   5
ENDBRANCH   2   3
ENDBRANCH   1   2
BRANCH   1  25
ATOM     25  C   UNL     1       4.331  -6.722   4.896  1.00  0.00     0.275 C 
BRANCH  25  26
ATOM     26  O   UNL     1       3.698  -6.849   3.608  1.00  0.00    -0.458 OA
BRANCH  26  27
ATOM     27  C   UNL     1       3.052  -5.741   3.171  1.00  0.00     0.338 C 
ATOM     28  O   UNL     1       2.949  -4.679   3.763  1.00  0.00    -0.246 OA
BRANCH  27  29
ATOM     29  C   UNL     1       2.599  -5.936   1.781  1.00  0.00     0.060 A 
ATOM     30  C   UNL     1       3.016  -5.002   0.830  1.00  0.00     0.016 A 
ATOM     31  C   UNL     1       1.740  -6.975   1.418  1.00  0.00     0.016 A 
ATOM     32  C   UNL     1       2.582  -5.097  -0.489  1.00  0.00     0.010 A 
ATOM     33  C   UNL     1       1.298  -7.068   0.091  1.00  0.00     0.010 A 
ATOM     34  C   UNL     1       1.712  -6.126  -0.867  1.00  0.00    -0.014 A 
BRANCH  34  35
ATOM     35  C   UNL     1       1.215  -6.175  -2.262  1.00  0.00     0.031 A 
ATOM     36  C   UNL     1      -0.163  -5.674  -2.586  1.00  0.00     0.074 A 
ATOM     37  C   UNL     1       2.022  -6.620  -3.243  1.00  0.00     0.049 A 
ATOM     38  N   UNL     1      -0.781  -5.645  -3.738  1.00  0.00    -0.248 NA
ATOM     39  C   UNL     1      -0.947  -5.131  -1.465  1.00  0.00     0.031 C 
ATOM     40  C   UNL     1       3.394  -7.093  -3.057  1.00  0.00     0.029 A 
ATOM     41  N   UNL     1       1.807  -6.740  -4.593  1.00  0.00    -0.354 N 
ATOM     42  C   UNL     1      -2.031  -5.093  -3.483  1.00  0.00     0.074 A 
ATOM     43  C   UNL     1      -2.087  -4.814  -2.063  1.00  0.00     0.031 C 
ATOM     44  C   UNL     1       3.901  -7.444  -4.250  1.00  0.00     0.029 A 
ATOM     45  C   UNL     1       2.882  -7.252  -5.279  1.00  0.00     0.049 A 
ATOM     46  H   UNL     1       0.963  -6.482  -5.029  1.00  0.00     0.167 HD
ATOM     47  C   UNL     1      -3.036  -4.838  -4.355  1.00  0.00     0.037 A 
ATOM     48  C   UNL     1       3.023  -7.547  -6.585  1.00  0.00     0.037 A 
ATOM     49  C   UNL     1      -2.972  -5.104  -5.768  1.00  0.00     0.049 A 
ATOM     50  C   UNL     1       1.879  -7.292  -7.527  1.00  0.00     0.074 A 
ATOM     51  C   UNL     1      -3.939  -4.879  -6.733  1.00  0.00     0.029 A 
ATOM     52  N   UNL     1      -1.879  -5.654  -6.421  1.00  0.00    -0.354 N 
ATOM     53  N   UNL     1       0.699  -6.779  -7.269  1.00  0.00    -0.248 NA
ATOM     54  C   UNL     1       2.080  -7.660  -8.935  1.00  0.00     0.031 C 
ATOM     55  C   UNL     1      -3.439  -5.318  -7.965  1.00  0.00     0.029 A 
ATOM     56  C   UNL     1      -2.150  -5.788  -7.772  1.00  0.00     0.049 A 
ATOM     57  H   UNL     1      -1.033  -5.911  -5.987  1.00  0.00     0.167 HD
ATOM     58  C   UNL     1       0.023  -6.752  -8.483  1.00  0.00     0.074 A 
ATOM     59  C   UNL     1       0.929  -7.288  -9.479  1.00  0.00     0.031 C 
ATOM     60  C   UNL     1      -1.236  -6.324  -8.749  1.00  0.00     0.037 A 
BRANCH  47  61
ATOM     61  C   UNL     1      -4.304  -4.264  -3.792  1.00  0.00     0.058 A 
ATOM     62  C   UNL     1      -4.400  -2.915  -3.418  1.00  0.00     0.135 A 
ATOM     63  C   UNL     1      -5.442  -5.072  -3.639  1.00  0.00     0.135 A 
ATOM     64  F   UNL     1      -3.336  -2.105  -3.533  1.00  0.00    -0.206 F 
ATOM     65  C   UNL     1      -5.574  -2.391  -2.886  1.00  0.00     0.059 A 
ATOM     66  C   UNL     1      -6.632  -4.565  -3.127  1.00  0.00     0.059 A 
ATOM     67  F   UNL     1      -5.401  -6.369  -3.980  1.00  0.00    -0.206 F 
ATOM     68  C   UNL     1      -6.684  -3.226  -2.738  1.00  0.00     0.060 A 
BRANCH  68  69
ATOM     69  S   UNL     1      -8.203  -2.543  -2.042  1.00  0.00     0.124 S 
ATOM     70  O   UNL     1      -7.890  -2.530  -0.617  1.00  0.00    -0.237 OA
ATOM     71  O   UNL     1      -8.288  -1.236  -2.685  1.00  0.00    -0.237 OA
ATOM     72  O   UNL     1      -9.224  -3.504  -2.452  1.00  0.00    -0.744 OA
ENDBRANCH  68  69
ENDBRANCH  47  61
BRANCH  48  73
ATOM     73  C   UNL     1       4.299  -8.127  -7.077  1.00  0.00     0.058 A 
ATOM     74  C   UNL     1       5.190  -7.367  -7.846  1.00  0.00     0.135 A 
ATOM     75  C   UNL     1       4.658  -9.449  -6.771  1.00  0.00     0.135 A 
ATOM     76  F   UNL     1       4.885  -6.101  -8.171  1.00  0.00    -0.206 F 
ATOM     77  C   UNL     1       6.394  -7.896  -8.300  1.00  0.00     0.059 A 
ATOM     78  C   UNL     1       5.864  -9.995  -7.196  1.00  0.00     0.059 A 
ATOM     79  F   UNL     1       3.840 -10.213  -6.030  1.00  0.00    -0.206 F 
ATOM     80  C   UNL     1       6.723  -9.212  -7.967  1.00  0.00     0.060 A 
BRANCH  80  81
ATOM     81  S   UNL     1       8.315  -9.876  -8.504  1.00  0.00     0.124 S 
ATOM     82  O   UNL     1       8.040 -10.205  -9.897  1.00  0.00    -0.237 OA
ATOM     83  O   UNL     1       9.214  -8.748  -8.280  1.00  0.00    -0.237 OA
ATOM     84  O   UNL     1       8.518 -11.013  -7.611  1.00  0.00    -0.744 OA
ENDBRANCH  80  81
ENDBRANCH  48  73
BRANCH  60  85
ATOM     85  C   UNL     1      -1.701  -6.403 -10.174  1.00  0.00     0.058 A 
ATOM     86  C   UNL     1      -2.103  -7.620 -10.745  1.00  0.00     0.135 A 
ATOM     87  C   UNL     1      -1.789  -5.244 -10.961  1.00  0.00     0.135 A 
ATOM     88  F   UNL     1      -2.030  -8.756 -10.034  1.00  0.00    -0.206 F 
ATOM     89  C   UNL     1      -2.562  -7.688 -12.057  1.00  0.00     0.059 A 
ATOM     90  C   UNL     1      -2.261  -5.287 -12.269  1.00  0.00     0.059 A 
ATOM     91  F   UNL     1      -1.422  -4.055 -10.457  1.00  0.00    -0.206 F 
ATOM     92  C   UNL     1      -2.635  -6.516 -12.812  1.00  0.00     0.060 A 
BRANCH  92  93
ATOM     93  S   UNL     1      -3.262  -6.607 -14.503  1.00  0.00     0.124 S 
ATOM     94  O   UNL     1      -2.093  -7.103 -15.222  1.00  0.00    -0.237 OA
ATOM     95  O   UNL     1      -4.374  -7.544 -14.380  1.00  0.00    -0.237 OA
ATOM     96  O   UNL     1      -3.643  -5.229 -14.796  1.00  0.00    -0.744 OA
ENDBRANCH  92  93
ENDBRANCH  60  85
ENDBRANCH  34  35
ENDBRANCH  27  29
ENDBRANCH  26  27
ENDBRANCH  25  26
ENDBRANCH   1  25
TORSDOF 17
