REMARK SMILES O=C(CN1C(=O)/C(=C\c2cccs2)SC1=S)Nc1ccccc1C(=O)OCCOC(=O)c1ccc(-c2c3nc(c(-c4c(F)cc(S(=O)(=O)[O-])cc4F)c4ccc([nH]4)c(-c4c(F)cc(S(=O)(=O)[O-])cc4F)c4nc(c(-c5c(F)cc(S(=O)(=O)[O-])cc5F)c5ccc2[nH]5)C=C4)C=C3)cc1
REMARK SMILES IDX 27 1 26 2 24 3 25 4 23 5 18 6 19 7 20 8 22 9 21 10 17 11
REMARK SMILES IDX 1 12 2 13 3 15 4 16 5 17 15 18 6 19 7 20 14 21 16 22 8 23
REMARK SMILES IDX 9 24 10 25 13 26 11 27 12 28 28 29 29 30 30 31 31 32 32 33
REMARK SMILES IDX 33 34 97 35 34 36 96 37 35 38 36 39 37 40 90 41 38 42 95 43
REMARK SMILES IDX 89 44 91 45 39 46 94 47 88 48 87 49 40 51 74 52 53 53 73 54
REMARK SMILES IDX 54 55 57 56 72 57 92 58 55 59 56 60 71 62 93 63 58 64 41 65
REMARK SMILES IDX 42 66 51 67 43 68 44 69 50 70 52 71 45 72 46 73 47 74 48 75
REMARK SMILES IDX 49 76 75 77 76 78 85 79 77 80 78 81 84 82 86 83 79 84 80 85
REMARK SMILES IDX 81 86 82 87 83 88 59 89 60 90 69 91 61 92 62 93 68 94 70 95
REMARK SMILES IDX 63 96 64 97 65 98 66 99 67 100
REMARK H PARENT 17 14 91 50 57 61
REMARK Flexibility Score: inf
ROOT
ATOM      1  C   UNL     1       0.425   1.594   1.995  1.00  0.00     0.275 C 
ENDROOT
BRANCH   1   2
ATOM      2  O   UNL     1       1.035   1.792   0.707  1.00  0.00    -0.458 OA
BRANCH   2   3
ATOM      3  C   UNL     1       0.220   1.708  -0.384  1.00  0.00     0.340 C 
ATOM      4  O   UNL     1      -0.991   1.641  -0.374  1.00  0.00    -0.246 OA
BRANCH   3   5
ATOM      5  C   UNL     1       1.032   1.888  -1.621  1.00  0.00     0.083 A 
ATOM      6  C   UNL     1       2.351   1.427  -1.762  1.00  0.00     0.055 A 
ATOM      7  C   UNL     1       3.123   1.885  -2.841  1.00  0.00     0.027 A 
ATOM      8  C   UNL     1       2.568   2.721  -3.813  1.00  0.00     0.002 A 
ATOM      9  C   UNL     1       0.470   2.694  -2.627  1.00  0.00     0.018 A 
ATOM     10  C   UNL     1       1.237   3.113  -3.715  1.00  0.00     0.001 A 
BRANCH   6  11
ATOM     11  N   UNL     1       2.980   0.517  -0.886  1.00  0.00    -0.324 N 
ATOM     12  O   UNL     1       1.217  -0.947  -0.519  1.00  0.00    -0.273 OA
ATOM     13  C   UNL     1       2.343  -0.539  -0.247  1.00  0.00     0.244 C 
ATOM     14  H   UNL     1       3.941   0.640  -0.715  1.00  0.00     0.170 HD
BRANCH  13  15
ATOM     15  C   UNL     1       3.230  -1.281   0.751  1.00  0.00     0.227 C 
BRANCH  15  16
ATOM     16  N   UNL     1       4.086  -2.177  -0.023  1.00  0.00    -0.283 N 
ATOM     17  C   UNL     1       5.162  -1.605  -0.668  1.00  0.00     0.266 C 
ATOM     18  C   UNL     1       3.875  -3.518  -0.238  1.00  0.00     0.148 C 
ATOM     19  O   UNL     1       5.505  -0.441  -0.506  1.00  0.00    -0.268 OA
ATOM     20  C   UNL     1       5.772  -2.562  -1.625  1.00  0.00     0.081 C 
ATOM     21  S   UNL     1       5.101  -4.129  -1.352  1.00  0.00    -0.054 SA
ATOM     22  S   UNL     1       2.706  -4.500   0.427  1.00  0.00    -0.052 S 
ATOM     23  C   UNL     1       6.597  -2.278  -2.644  1.00  0.00     0.040 C 
BRANCH  23  24
ATOM     24  C   UNL     1       7.012  -0.954  -2.963  1.00  0.00     0.028 A 
ATOM     25  C   UNL     1       7.753  -0.046  -2.225  1.00  0.00     0.020 A 
ATOM     26  S   UNL     1       6.566  -0.274  -4.481  1.00  0.00    -0.144 S 
ATOM     27  C   UNL     1       7.865   1.226  -2.858  1.00  0.00     0.012 A 
ATOM     28  C   UNL     1       7.254   1.240  -4.090  1.00  0.00     0.065 A 
ENDBRANCH  23  24
ENDBRANCH  15  16
ENDBRANCH  13  15
ENDBRANCH   6  11
ENDBRANCH   3   5
ENDBRANCH   2   3
ENDBRANCH   1   2
BRANCH   1  29
ATOM     29  C   UNL     1       0.581   2.850   2.846  1.00  0.00     0.275 C 
BRANCH  29  30
ATOM     30  O   UNL     1      -0.214   3.896   2.269  1.00  0.00    -0.458 OA
BRANCH  30  31
ATOM     31  C   UNL     1       0.459   4.963   1.787  1.00  0.00     0.338 C 
ATOM     32  O   UNL     1       1.641   5.232   1.919  1.00  0.00    -0.246 OA
BRANCH  31  33
ATOM     33  C   UNL     1      -0.480   5.744   0.974  1.00  0.00     0.060 A 
ATOM     34  C   UNL     1      -0.834   5.247  -0.279  1.00  0.00     0.016 A 
ATOM     35  C   UNL     1      -0.978   6.966   1.417  1.00  0.00     0.016 A 
ATOM     36  C   UNL     1      -1.671   5.976  -1.114  1.00  0.00     0.010 A 
ATOM     37  C   UNL     1      -1.868   7.672   0.601  1.00  0.00     0.010 A 
ATOM     38  C   UNL     1      -2.215   7.189  -0.676  1.00  0.00    -0.014 A 
BRANCH  38  39
ATOM     39  C   UNL     1      -3.124   7.964  -1.562  1.00  0.00     0.031 A 
ATOM     40  C   UNL     1      -2.724   9.338  -2.023  1.00  0.00     0.074 A 
ATOM     41  C   UNL     1      -4.299   7.437  -1.960  1.00  0.00     0.049 A 
ATOM     42  N   UNL     1      -3.440  10.247  -2.632  1.00  0.00    -0.248 NA
ATOM     43  C   UNL     1      -1.336   9.747  -1.754  1.00  0.00     0.031 C 
ATOM     44  C   UNL     1      -4.780   6.093  -1.632  1.00  0.00     0.029 A 
ATOM     45  N   UNL     1      -5.304   7.967  -2.731  1.00  0.00    -0.354 N 
ATOM     46  C   UNL     1      -2.610  11.353  -2.771  1.00  0.00     0.074 A 
ATOM     47  C   UNL     1      -1.334  11.000  -2.186  1.00  0.00     0.031 C 
ATOM     48  C   UNL     1      -5.972   5.896  -2.216  1.00  0.00     0.029 A 
ATOM     49  C   UNL     1      -6.380   7.125  -2.888  1.00  0.00     0.049 A 
ATOM     50  H   UNL     1      -5.259   8.865  -3.132  1.00  0.00     0.167 HD
ATOM     51  C   UNL     1      -2.892  12.553  -3.332  1.00  0.00     0.037 A 
ATOM     52  C   UNL     1      -7.580   7.333  -3.464  1.00  0.00     0.037 A 
ATOM     53  C   UNL     1      -4.152  12.876  -3.952  1.00  0.00     0.049 A 
ATOM     54  C   UNL     1      -7.888   8.686  -4.041  1.00  0.00     0.074 A 
ATOM     55  C   UNL     1      -4.535  14.059  -4.559  1.00  0.00     0.029 A 
ATOM     56  N   UNL     1      -5.228  12.007  -4.055  1.00  0.00    -0.354 N 
ATOM     57  N   UNL     1      -7.117   9.745  -4.110  1.00  0.00    -0.248 NA
ATOM     58  C   UNL     1      -9.236   8.884  -4.591  1.00  0.00     0.031 C 
ATOM     59  C   UNL     1      -5.856  13.916  -5.001  1.00  0.00     0.029 A 
ATOM     60  C   UNL     1      -6.282  12.632  -4.702  1.00  0.00     0.049 A 
ATOM     61  H   UNL     1      -5.241  11.082  -3.718  1.00  0.00     0.167 HD
ATOM     62  C   UNL     1      -7.886  10.736  -4.708  1.00  0.00     0.074 A 
ATOM     63  C   UNL     1      -9.174  10.143  -5.005  1.00  0.00     0.031 C 
ATOM     64  C   UNL     1      -7.559  12.024  -4.979  1.00  0.00     0.037 A 
BRANCH  51  65
ATOM     65  C   UNL     1      -1.835  13.620  -3.264  1.00  0.00     0.058 A 
ATOM     66  C   UNL     1      -0.687  13.583  -4.069  1.00  0.00     0.135 A 
ATOM     67  C   UNL     1      -1.991  14.712  -2.394  1.00  0.00     0.135 A 
ATOM     68  F   UNL     1      -0.479  12.553  -4.904  1.00  0.00    -0.206 F 
ATOM     69  C   UNL     1       0.283  14.579  -3.996  1.00  0.00     0.059 A 
ATOM     70  C   UNL     1      -1.045  15.730  -2.321  1.00  0.00     0.059 A 
ATOM     71  F   UNL     1      -3.070  14.795  -1.600  1.00  0.00    -0.206 F 
ATOM     72  C   UNL     1       0.096  15.647  -3.116  1.00  0.00     0.060 A 
BRANCH  72  73
ATOM     73  S   UNL     1       1.363  16.932  -3.031  1.00  0.00     0.124 S 
ATOM     74  O   UNL     1       2.413  16.254  -2.277  1.00  0.00    -0.237 OA
ATOM     75  O   UNL     1       1.655  17.180  -4.439  1.00  0.00    -0.237 OA
ATOM     76  O   UNL     1       0.693  18.023  -2.331  1.00  0.00    -0.744 OA
ENDBRANCH  72  73
ENDBRANCH  51  65
BRANCH  52  77
ATOM     77  C   UNL     1      -8.598   6.248  -3.467  1.00  0.00     0.058 A 
ATOM     78  C   UNL     1      -8.960   5.598  -4.655  1.00  0.00     0.135 A 
ATOM     79  C   UNL     1      -9.211   5.823  -2.277  1.00  0.00     0.135 A 
ATOM     80  F   UNL     1      -8.413   5.978  -5.821  1.00  0.00    -0.206 F 
ATOM     81  C   UNL     1      -9.892   4.564  -4.666  1.00  0.00     0.059 A 
ATOM     82  C   UNL     1     -10.126   4.776  -2.258  1.00  0.00     0.059 A 
ATOM     83  F   UNL     1      -8.895   6.409  -1.112  1.00  0.00    -0.206 F 
ATOM     84  C   UNL     1     -10.466   4.157  -3.460  1.00  0.00     0.060 A 
BRANCH  84  85
ATOM     85  S   UNL     1     -11.624   2.771  -3.469  1.00  0.00     0.124 S 
ATOM     86  O   UNL     1     -12.835   3.405  -3.977  1.00  0.00    -0.237 OA
ATOM     87  O   UNL     1     -10.972   1.827  -4.371  1.00  0.00    -0.237 OA
ATOM     88  O   UNL     1     -11.665   2.361  -2.069  1.00  0.00    -0.744 OA
ENDBRANCH  84  85
ENDBRANCH  52  77
BRANCH  64  89
ATOM     89  C   UNL     1      -8.610  12.873  -5.633  1.00  0.00     0.058 A 
ATOM     90  C   UNL     1      -9.697  13.380  -4.904  1.00  0.00     0.135 A 
ATOM     91  C   UNL     1      -8.508  13.218  -6.990  1.00  0.00     0.135 A 
ATOM     92  F   UNL     1      -9.843  13.070  -3.606  1.00  0.00    -0.206 F 
ATOM     93  C   UNL     1     -10.657  14.188  -5.503  1.00  0.00     0.059 A 
ATOM     94  C   UNL     1      -9.445  14.042  -7.604  1.00  0.00     0.059 A 
ATOM     95  F   UNL     1      -7.482  12.763  -7.727  1.00  0.00    -0.206 F 
ATOM     96  C   UNL     1     -10.522  14.514  -6.854  1.00  0.00     0.060 A 
BRANCH  96  97
ATOM     97  S   UNL     1     -11.756  15.591  -7.613  1.00  0.00     0.124 S 
ATOM     98  O   UNL     1     -12.878  14.676  -7.787  1.00  0.00    -0.237 OA
ATOM     99  O   UNL     1     -11.934  16.628  -6.601  1.00  0.00    -0.237 OA
ATOM    100  O   UNL     1     -11.108  16.032  -8.845  1.00  0.00    -0.744 OA
ENDBRANCH  96  97
ENDBRANCH  64  89
ENDBRANCH  38  39
ENDBRANCH  31  33
ENDBRANCH  30  31
ENDBRANCH  29  30
ENDBRANCH   1  29
TORSDOF 18
