REMARK SMILES O=C(OCCOC(=O)[C@H](NC(=O)[C@H]1CC[C@@H](CNC(=O)[C@@H]2Cc3ccccc3C[NH2+]2)CC1)c1ccccc1)c1ccc(-c2c3nc(c(-c4c(F)cc(S(=O)(=O)[O-])cc4F)c4ccc([nH]4)c(-c4c(F)cc(S(=O)(=O)[O-])cc4F)c4nc(c(-c5c(F)cc(S(=O)(=O)[O-])cc5F)c5ccc2[nH]5)C=C4)C=C3)cc1
REMARK SMILES IDX 5 1 4 2 3 3 2 4 1 5 39 6 40 7 104 8 41 9 103 10 42 11 43 12
REMARK SMILES IDX 44 13 97 14 45 15 102 16 96 17 98 18 46 19 101 20 95 21
REMARK SMILES IDX 94 22 47 24 81 25 60 26 80 27 61 28 64 29 79 30 99 31 62 32
REMARK SMILES IDX 63 33 78 35 100 36 65 37 48 38 49 39 58 40 50 41 51 42 57 43
REMARK SMILES IDX 59 44 52 45 53 46 54 47 55 48 56 49 82 50 83 51 92 52 84 53
REMARK SMILES IDX 85 54 91 55 93 56 86 57 87 58 88 59 89 60 90 61 66 62 67 63
REMARK SMILES IDX 76 64 68 65 69 66 75 67 77 68 70 69 71 70 72 71 73 72 74 73
REMARK SMILES IDX 6 74 7 75 8 76 9 77 33 78 34 79 38 80 35 81 37 82 36 83
REMARK SMILES IDX 10 84 11 85 12 87 13 88 32 89 14 90 31 91 15 92 16 93 17 94
REMARK SMILES IDX 18 95 19 96 20 98 21 99 22 100 30 101 23 102 29 103 24 106
REMARK SMILES IDX 28 107 25 108 27 109 26 110
REMARK H PARENT 98 23 64 34 10 86 18 97 30 104 30 105
REMARK Flexibility Score: inf
ROOT
ATOM      1  C   UNL     1       6.502  -4.641  -0.930  1.00  0.00     0.274 C 
ENDROOT
BRANCH   1   2
ATOM      2  C   UNL     1       5.243  -3.777  -0.954  1.00  0.00     0.275 C 
BRANCH   2   3
ATOM      3  O   UNL     1       5.071  -3.275  -2.291  1.00  0.00    -0.458 OA
BRANCH   3   4
ATOM      4  C   UNL     1       4.332  -4.085  -3.087  1.00  0.00     0.338 C 
ATOM      5  O   UNL     1       3.323  -4.699  -2.733  1.00  0.00    -0.246 OA
BRANCH   4   6
ATOM      6  C   UNL     1       5.027  -4.311  -4.382  1.00  0.00     0.060 A 
ATOM      7  C   UNL     1       6.384  -3.991  -4.537  1.00  0.00     0.016 A 
ATOM      8  C   UNL     1       4.367  -5.006  -5.401  1.00  0.00     0.016 A 
ATOM      9  C   UNL     1       7.090  -4.420  -5.662  1.00  0.00     0.010 A 
ATOM     10  C   UNL     1       5.067  -5.407  -6.547  1.00  0.00     0.010 A 
ATOM     11  C   UNL     1       6.440  -5.141  -6.673  1.00  0.00    -0.014 A 
BRANCH  11  12
ATOM     12  C   UNL     1       7.120  -5.242  -7.987  1.00  0.00     0.031 A 
ATOM     13  C   UNL     1       6.883  -4.069  -8.887  1.00  0.00     0.074 A 
ATOM     14  C   UNL     1       7.961  -6.234  -8.350  1.00  0.00     0.049 A 
ATOM     15  N   UNL     1       7.238  -3.900 -10.126  1.00  0.00    -0.248 NA
ATOM     16  C   UNL     1       6.097  -2.953  -8.322  1.00  0.00     0.031 C 
ATOM     17  C   UNL     1       8.287  -7.406  -7.558  1.00  0.00     0.029 A 
ATOM     18  N   UNL     1       8.742  -6.400  -9.470  1.00  0.00    -0.354 N 
ATOM     19  C   UNL     1       6.643  -2.710 -10.511  1.00  0.00     0.074 A 
ATOM     20  C   UNL     1       5.939  -2.173  -9.374  1.00  0.00     0.031 C 
ATOM     21  C   UNL     1       9.281  -8.099  -8.130  1.00  0.00     0.029 A 
ATOM     22  C   UNL     1       9.572  -7.505  -9.419  1.00  0.00     0.049 A 
ATOM     23  H   UNL     1       8.713  -5.786 -10.239  1.00  0.00     0.167 HD
ATOM     24  C   UNL     1       6.656  -2.141 -11.731  1.00  0.00     0.037 A 
ATOM     25  C   UNL     1      10.431  -8.011 -10.327  1.00  0.00     0.037 A 
ATOM     26  C   UNL     1       7.396  -2.683 -12.830  1.00  0.00     0.049 A 
ATOM     27  C   UNL     1      10.469  -7.325 -11.664  1.00  0.00     0.074 A 
ATOM     28  C   UNL     1       7.472  -2.221 -14.127  1.00  0.00     0.029 A 
ATOM     29  N   UNL     1       8.206  -3.808 -12.745  1.00  0.00    -0.354 N 
ATOM     30  N   UNL     1       9.846  -6.232 -12.041  1.00  0.00    -0.248 NA
ATOM     31  C   UNL     1      11.264  -7.963 -12.720  1.00  0.00     0.031 C 
ATOM     32  C   UNL     1       8.307  -3.086 -14.837  1.00  0.00     0.029 A 
ATOM     33  C   UNL     1       8.784  -4.061 -13.971  1.00  0.00     0.049 A 
ATOM     34  H   UNL     1       8.345  -4.345 -11.932  1.00  0.00     0.167 HD
ATOM     35  C   UNL     1      10.152  -6.065 -13.382  1.00  0.00     0.074 A 
ATOM     36  C   UNL     1      11.063  -7.136 -13.737  1.00  0.00     0.031 C 
ATOM     37  C   UNL     1       9.696  -5.138 -14.258  1.00  0.00     0.037 A 
BRANCH  24  38
ATOM     38  C   UNL     1       5.776  -0.950 -11.927  1.00  0.00     0.058 A 
ATOM     39  C   UNL     1       6.079   0.303 -11.374  1.00  0.00     0.135 A 
ATOM     40  C   UNL     1       4.570  -1.090 -12.632  1.00  0.00     0.135 A 
ATOM     41  F   UNL     1       7.188   0.467 -10.636  1.00  0.00    -0.206 F 
ATOM     42  C   UNL     1       5.210   1.379 -11.509  1.00  0.00     0.059 A 
ATOM     43  C   UNL     1       3.700  -0.020 -12.802  1.00  0.00     0.059 A 
ATOM     44  F   UNL     1       4.217  -2.281 -13.140  1.00  0.00    -0.206 F 
ATOM     45  C   UNL     1       4.027   1.208 -12.231  1.00  0.00     0.060 A 
BRANCH  45  46
ATOM     46  S   UNL     1       2.929   2.625 -12.431  1.00  0.00     0.124 S 
ATOM     47  O   UNL     1       2.350   2.737 -11.096  1.00  0.00    -0.237 OA
ATOM     48  O   UNL     1       3.859   3.685 -12.809  1.00  0.00    -0.237 OA
ATOM     49  O   UNL     1       2.011   2.197 -13.481  1.00  0.00    -0.744 OA
ENDBRANCH  45  46
ENDBRANCH  24  38
BRANCH  25  50
ATOM     50  C   UNL     1      11.223  -9.258 -10.072  1.00  0.00     0.058 A 
ATOM     51  C   UNL     1      12.627  -9.260 -10.125  1.00  0.00     0.135 A 
ATOM     52  C   UNL     1      10.596 -10.492  -9.823  1.00  0.00     0.135 A 
ATOM     53  F   UNL     1      13.290  -8.120 -10.373  1.00  0.00    -0.206 F 
ATOM     54  C   UNL     1      13.372 -10.432  -9.977  1.00  0.00     0.059 A 
ATOM     55  C   UNL     1      11.318 -11.668  -9.632  1.00  0.00     0.059 A 
ATOM     56  F   UNL     1       9.257 -10.568  -9.761  1.00  0.00    -0.206 F 
ATOM     57  C   UNL     1      12.707 -11.634  -9.735  1.00  0.00     0.060 A 
BRANCH  57  58
ATOM     58  S   UNL     1      13.668 -13.153  -9.549  1.00  0.00     0.124 S 
ATOM     59  O   UNL     1      14.021 -13.448 -10.934  1.00  0.00    -0.237 OA
ATOM     60  O   UNL     1      14.767 -12.725  -8.689  1.00  0.00    -0.237 OA
ATOM     61  O   UNL     1      12.721 -14.076  -8.930  1.00  0.00    -0.744 OA
ENDBRANCH  57  58
ENDBRANCH  25  50
BRANCH  37  62
ATOM     62  C   UNL     1      10.182  -5.248 -15.666  1.00  0.00     0.058 A 
ATOM     63  C   UNL     1       9.673  -6.225 -16.533  1.00  0.00     0.135 A 
ATOM     64  C   UNL     1      11.094  -4.310 -16.172  1.00  0.00     0.135 A 
ATOM     65  F   UNL     1       8.804  -7.144 -16.084  1.00  0.00    -0.206 F 
ATOM     66  C   UNL     1      10.061  -6.273 -17.864  1.00  0.00     0.059 A 
ATOM     67  C   UNL     1      11.474  -4.324 -17.506  1.00  0.00     0.059 A 
ATOM     68  F   UNL     1      11.594  -3.353 -15.374  1.00  0.00    -0.206 F 
ATOM     69  C   UNL     1      10.955  -5.312 -18.342  1.00  0.00     0.060 A 
BRANCH  69  70
ATOM     70  S   UNL     1      11.397  -5.345 -20.089  1.00  0.00     0.124 S 
ATOM     71  O   UNL     1      12.295  -6.493 -20.142  1.00  0.00    -0.237 OA
ATOM     72  O   UNL     1      10.101  -5.521 -20.735  1.00  0.00    -0.237 OA
ATOM     73  O   UNL     1      12.026  -4.045 -20.303  1.00  0.00    -0.744 OA
ENDBRANCH  69  70
ENDBRANCH  37  62
ENDBRANCH  11  12
ENDBRANCH   4   6
ENDBRANCH   3   4
ENDBRANCH   2   3
ENDBRANCH   1   2
BRANCH   1  74
ATOM     74  O   UNL     1       6.482  -5.586  -2.020  1.00  0.00    -0.460 OA
BRANCH  74  75
ATOM     75  C   UNL     1       6.484  -6.920  -1.787  1.00  0.00     0.333 C 
ATOM     76  O   UNL     1       6.279  -7.415  -0.685  1.00  0.00    -0.249 OA
BRANCH  75  77
ATOM     77  C   UNL     1       6.680  -7.732  -3.107  1.00  0.00     0.223 C 
BRANCH  77  78
ATOM     78  C   UNL     1       5.322  -8.092  -3.766  1.00  0.00    -0.014 A 
ATOM     79  C   UNL     1       4.119  -8.053  -3.042  1.00  0.00     0.006 A 
ATOM     80  C   UNL     1       5.218  -8.444  -5.131  1.00  0.00     0.006 A 
ATOM     81  C   UNL     1       2.879  -8.200  -3.676  1.00  0.00     0.000 A 
ATOM     82  C   UNL     1       3.978  -8.556  -5.774  1.00  0.00     0.000 A 
ATOM     83  C   UNL     1       2.806  -8.408  -5.049  1.00  0.00     0.000 A 
ENDBRANCH  77  78
BRANCH  77  84
ATOM     84  N   UNL     1       7.537  -7.037  -4.100  1.00  0.00    -0.339 N 
ATOM     85  C   UNL     1       8.866  -6.723  -4.086  1.00  0.00     0.224 C 
ATOM     86  H   UNL     1       7.062  -6.751  -4.913  1.00  0.00     0.164 HD
ATOM     87  O   UNL     1       9.589  -6.955  -5.047  1.00  0.00    -0.275 OA
BRANCH  85  88
ATOM     88  C   UNL     1       9.372  -5.931  -2.928  1.00  0.00     0.078 C 
ATOM     89  C   UNL     1       9.886  -6.838  -1.835  1.00  0.00     0.014 C 
ATOM     90  C   UNL     1      10.401  -4.862  -3.306  1.00  0.00     0.014 C 
ATOM     91  C   UNL     1      10.081  -5.989  -0.594  1.00  0.00     0.006 C 
ATOM     92  C   UNL     1      10.657  -3.982  -2.081  1.00  0.00     0.006 C 
ATOM     93  C   UNL     1      11.045  -4.810  -0.841  1.00  0.00     0.008 C 
BRANCH  93  94
ATOM     94  C   UNL     1      12.500  -5.308  -0.956  1.00  0.00     0.119 C 
BRANCH  94  95
ATOM     95  N   UNL     1      13.391  -4.500  -0.144  1.00  0.00    -0.351 N 
ATOM     96  C   UNL     1      13.518  -4.541   1.220  1.00  0.00     0.278 C 
ATOM     97  H   UNL     1      13.963  -3.858  -0.622  1.00  0.00     0.163 HD
ATOM     98  O   UNL     1      14.337  -3.803   1.768  1.00  0.00    -0.268 OA
BRANCH  96  99
ATOM     99  C   UNL     1      12.663  -5.558   2.000  1.00  0.00     0.277 C 
ATOM    100  C   UNL     1      12.223  -4.979   3.355  1.00  0.00     0.111 C 
ATOM    101  N   UNL     1      13.332  -6.883   1.995  1.00  0.00    -0.332 N 
ATOM    102  C   UNL     1      11.611  -6.071   4.192  1.00  0.00    -0.033 A 
ATOM    103  C   UNL     1      13.496  -7.461   3.326  1.00  0.00     0.298 C 
ATOM    104  H   UNL     1      14.255  -6.777   1.573  1.00  0.00     0.347 HD
ATOM    105  H   UNL     1      12.735  -7.518   1.465  1.00  0.00     0.347 HD
ATOM    106  C   UNL     1      10.471  -5.877   4.973  1.00  0.00     0.004 A 
ATOM    107  C   UNL     1      12.254  -7.321   4.170  1.00  0.00     0.010 A 
ATOM    108  C   UNL     1       9.975  -6.930   5.742  1.00  0.00     0.000 A 
ATOM    109  C   UNL     1      11.759  -8.366   4.954  1.00  0.00     0.010 A 
ATOM    110  C   UNL     1      10.620  -8.169   5.736  1.00  0.00     0.001 A 
ENDBRANCH  96  99
ENDBRANCH  94  95
ENDBRANCH  93  94
ENDBRANCH  85  88
ENDBRANCH  77  84
ENDBRANCH  75  77
ENDBRANCH  74  75
ENDBRANCH   1  74
TORSDOF 20
