REMARK SMILES O=C(C[C@H](C(=O)OCCOC(=O)c1ccc(-c2c3nc(c(-c4c(F)cc(S(=O)(=O)[O-])cc4F)c4ccc([nH]4)c(-c4c(F)cc(S(=O)(=O)[O-])cc4F)c4nc(c(-c5c(F)cc(S(=O)(=O)[O-])cc5F)c5ccc2[nH]5)C=C4)C=C3)cc1)c1ccccc1)Nc1ccc(Cl)cc1Cl
REMARK SMILES IDX 8 1 7 2 5 3 6 4 4 5 3 6 2 7 1 8 85 9 86 11 87 12 92 13 88 14
REMARK SMILES IDX 91 15 93 16 89 17 90 18 79 19 80 20 84 21 81 22 83 23 82 24
REMARK SMILES IDX 9 25 10 26 11 27 12 28 13 29 14 30 78 31 15 32 77 33 16 34
REMARK SMILES IDX 17 35 18 36 71 37 19 38 76 39 70 40 72 41 20 42 75 43 69 44
REMARK SMILES IDX 68 45 21 47 55 48 34 49 54 50 35 51 38 52 53 53 73 54 36 55
REMARK SMILES IDX 37 56 52 58 74 59 39 60 22 61 23 62 32 63 24 64 25 65 31 66
REMARK SMILES IDX 33 67 26 68 27 69 28 70 29 71 30 72 56 73 57 74 66 75 58 76
REMARK SMILES IDX 59 77 65 78 67 79 60 80 61 81 62 82 63 83 64 84 40 85 41 86
REMARK SMILES IDX 50 87 42 88 43 89 49 90 51 91 44 92 45 93 46 94 47 95 48 96
REMARK H PARENT 85 10 72 46 38 57
REMARK Flexibility Score: inf
ROOT
ATOM      1  C   UNL     1       0.757   0.258  -1.894  1.00  0.00     0.274 C 
ENDROOT
BRANCH   1   2
ATOM      2  O   UNL     1       1.858   1.189  -1.843  1.00  0.00    -0.462 OA
BRANCH   2   3
ATOM      3  C   UNL     1       2.853   0.852  -0.971  1.00  0.00     0.314 C 
ATOM      4  O   UNL     1       2.850  -0.177  -0.311  1.00  0.00    -0.252 OA
BRANCH   3   5
ATOM      5  C   UNL     1       3.867   1.981  -0.802  1.00  0.00     0.138 C 
BRANCH   5   6
ATOM      6  C   UNL     1       4.906   1.708   0.307  1.00  0.00     0.120 C 
BRANCH   6   7
ATOM      7  C   UNL     1       4.373   1.069   1.581  1.00  0.00     0.225 C 
ATOM      8  O   UNL     1       4.825  -0.005   1.963  1.00  0.00    -0.275 OA
ATOM      9  N   UNL     1       3.357   1.784   2.192  1.00  0.00    -0.325 N 
ATOM     10  H   UNL     1       3.094   2.641   1.785  1.00  0.00     0.169 HD
BRANCH   9  11
ATOM     11  C   UNL     1       2.666   1.374   3.359  1.00  0.00     0.060 A 
ATOM     12  C   UNL     1       1.286   1.636   3.360  1.00  0.00     0.029 A 
ATOM     13  C   UNL     1       3.236   0.757   4.489  1.00  0.00     0.066 A 
ATOM     14  C   UNL     1       0.478   1.221   4.422  1.00  0.00     0.023 A 
ATOM     15  C   UNL     1       2.420   0.332   5.547  1.00  0.00     0.043 A 
ATOM     16  Cl  UNL     1       4.940   0.691   4.782  1.00  0.00    -0.082 Cl
ATOM     17  C   UNL     1       1.047   0.557   5.503  1.00  0.00     0.042 A 
ATOM     18  Cl  UNL     1       0.050   0.056   6.813  1.00  0.00    -0.084 Cl
ENDBRANCH   9  11
ENDBRANCH   6   7
ENDBRANCH   5   6
BRANCH   5  19
ATOM     19  C   UNL     1       4.554   2.390  -2.099  1.00  0.00    -0.033 A 
ATOM     20  C   UNL     1       5.467   1.542  -2.747  1.00  0.00     0.004 A 
ATOM     21  C   UNL     1       4.312   3.652  -2.661  1.00  0.00     0.004 A 
ATOM     22  C   UNL     1       6.114   1.937  -3.918  1.00  0.00     0.000 A 
ATOM     23  C   UNL     1       4.968   4.052  -3.830  1.00  0.00     0.000 A 
ATOM     24  C   UNL     1       5.867   3.194  -4.458  1.00  0.00     0.000 A 
ENDBRANCH   5  19
ENDBRANCH   3   5
ENDBRANCH   2   3
ENDBRANCH   1   2
BRANCH   1  25
ATOM     25  C   UNL     1       0.944  -0.811  -2.968  1.00  0.00     0.275 C 
BRANCH  25  26
ATOM     26  O   UNL     1       2.103  -1.614  -2.694  1.00  0.00    -0.458 OA
BRANCH  26  27
ATOM     27  C   UNL     1       3.081  -1.554  -3.625  1.00  0.00     0.338 C 
ATOM     28  O   UNL     1       3.064  -0.934  -4.673  1.00  0.00    -0.246 OA
BRANCH  27  29
ATOM     29  C   UNL     1       4.217  -2.402  -3.227  1.00  0.00     0.060 A 
ATOM     30  C   UNL     1       5.005  -2.067  -2.126  1.00  0.00     0.016 A 
ATOM     31  C   UNL     1       4.583  -3.461  -4.058  1.00  0.00     0.016 A 
ATOM     32  C   UNL     1       6.216  -2.725  -1.911  1.00  0.00     0.010 A 
ATOM     33  C   UNL     1       5.751  -4.176  -3.789  1.00  0.00     0.010 A 
ATOM     34  C   UNL     1       6.603  -3.789  -2.739  1.00  0.00    -0.014 A 
BRANCH  34  35
ATOM     35  C   UNL     1       7.902  -4.487  -2.544  1.00  0.00     0.031 A 
ATOM     36  C   UNL     1       8.928  -4.491  -3.649  1.00  0.00     0.074 A 
ATOM     37  C   UNL     1       8.153  -5.150  -1.397  1.00  0.00     0.049 A 
ATOM     38  N   UNL     1      10.011  -5.214  -3.771  1.00  0.00    -0.248 NA
ATOM     39  C   UNL     1       8.694  -3.571  -4.776  1.00  0.00     0.031 C 
ATOM     40  C   UNL     1       7.266  -5.202  -0.234  1.00  0.00     0.029 A 
ATOM     41  N   UNL     1       9.227  -5.922  -1.029  1.00  0.00    -0.354 N 
ATOM     42  C   UNL     1      10.554  -4.884  -5.008  1.00  0.00     0.074 A 
ATOM     43  C   UNL     1       9.688  -3.885  -5.596  1.00  0.00     0.031 C 
ATOM     44  C   UNL     1       7.832  -5.959   0.719  1.00  0.00     0.029 A 
ATOM     45  C   UNL     1       9.087  -6.502   0.210  1.00  0.00     0.049 A 
ATOM     46  H   UNL     1      10.022  -6.048  -1.597  1.00  0.00     0.167 HD
ATOM     47  C   UNL     1      11.668  -5.376  -5.599  1.00  0.00     0.037 A 
ATOM     48  C   UNL     1       9.854  -7.407   0.847  1.00  0.00     0.037 A 
ATOM     49  C   UNL     1      12.565  -6.318  -4.981  1.00  0.00     0.049 A 
ATOM     50  C   UNL     1      11.084  -7.939   0.169  1.00  0.00     0.074 A 
ATOM     51  C   UNL     1      13.748  -6.835  -5.480  1.00  0.00     0.029 A 
ATOM     52  N   UNL     1      12.385  -6.872  -3.723  1.00  0.00    -0.354 N 
ATOM     53  N   UNL     1      11.567  -7.640  -1.013  1.00  0.00    -0.248 NA
ATOM     54  C   UNL     1      11.864  -8.947   0.902  1.00  0.00     0.031 C 
ATOM     55  C   UNL     1      14.272  -7.722  -4.533  1.00  0.00     0.029 A 
ATOM     56  C   UNL     1      13.428  -7.735  -3.434  1.00  0.00     0.049 A 
ATOM     57  H   UNL     1      11.628  -6.680  -3.123  1.00  0.00     0.167 HD
ATOM     58  C   UNL     1      12.710  -8.417  -1.161  1.00  0.00     0.074 A 
ATOM     59  C   UNL     1      12.855  -9.188   0.055  1.00  0.00     0.031 C 
ATOM     60  C   UNL     1      13.559  -8.488  -2.214  1.00  0.00     0.037 A 
BRANCH  47  61
ATOM     61  C   UNL     1      11.978  -4.930  -6.998  1.00  0.00     0.058 A 
ATOM     62  C   UNL     1      12.558  -3.682  -7.269  1.00  0.00     0.135 A 
ATOM     63  C   UNL     1      11.751  -5.798  -8.079  1.00  0.00     0.135 A 
ATOM     64  F   UNL     1      12.780  -2.810  -6.274  1.00  0.00    -0.206 F 
ATOM     65  C   UNL     1      12.895  -3.306  -8.566  1.00  0.00     0.059 A 
ATOM     66  C   UNL     1      12.095  -5.450  -9.381  1.00  0.00     0.059 A 
ATOM     67  F   UNL     1      11.195  -7.003  -7.872  1.00  0.00    -0.206 F 
ATOM     68  C   UNL     1      12.659  -4.197  -9.616  1.00  0.00     0.060 A 
BRANCH  68  69
ATOM     69  S   UNL     1      13.125  -3.711 -11.292  1.00  0.00     0.124 S 
ATOM     70  O   UNL     1      12.033  -2.811 -11.648  1.00  0.00    -0.237 OA
ATOM     71  O   UNL     1      14.425  -3.078 -11.089  1.00  0.00    -0.237 OA
ATOM     72  O   UNL     1      13.157  -4.978 -12.016  1.00  0.00    -0.744 OA
ENDBRANCH  68  69
ENDBRANCH  47  61
BRANCH  48  73
ATOM     73  C   UNL     1       9.447  -7.910   2.184  1.00  0.00     0.058 A 
ATOM     74  C   UNL     1      10.144  -7.534   3.340  1.00  0.00     0.135 A 
ATOM     75  C   UNL     1       8.350  -8.774   2.329  1.00  0.00     0.135 A 
ATOM     76  F   UNL     1      11.205  -6.718   3.248  1.00  0.00    -0.206 F 
ATOM     77  C   UNL     1       9.777  -8.007   4.596  1.00  0.00     0.059 A 
ATOM     78  C   UNL     1       7.951  -9.243   3.575  1.00  0.00     0.059 A 
ATOM     79  F   UNL     1       7.645  -9.153   1.252  1.00  0.00    -0.206 F 
ATOM     80  C   UNL     1       8.680  -8.864   4.703  1.00  0.00     0.060 A 
BRANCH  80  81
ATOM     81  S   UNL     1       8.178  -9.451   6.335  1.00  0.00     0.124 S 
ATOM     82  O   UNL     1       9.086 -10.575   6.532  1.00  0.00    -0.237 OA
ATOM     83  O   UNL     1       8.416  -8.284   7.179  1.00  0.00    -0.237 OA
ATOM     84  O   UNL     1       6.773  -9.799   6.144  1.00  0.00    -0.744 OA
ENDBRANCH  80  81
ENDBRANCH  48  73
BRANCH  60  85
ATOM     85  C   UNL     1      14.732  -9.413  -2.086  1.00  0.00     0.058 A 
ATOM     86  C   UNL     1      14.594 -10.796  -2.272  1.00  0.00     0.135 A 
ATOM     87  C   UNL     1      16.014  -8.906  -1.822  1.00  0.00     0.135 A 
ATOM     88  F   UNL     1      13.386 -11.327  -2.519  1.00  0.00    -0.206 F 
ATOM     89  C   UNL     1      15.688 -11.651  -2.186  1.00  0.00     0.059 A 
ATOM     90  C   UNL     1      17.124  -9.740  -1.748  1.00  0.00     0.059 A 
ATOM     91  F   UNL     1      16.196  -7.588  -1.644  1.00  0.00    -0.206 F 
ATOM     92  C   UNL     1      16.949 -11.113  -1.923  1.00  0.00     0.060 A 
BRANCH  92  93
ATOM     93  S   UNL     1      18.373 -12.222  -1.851  1.00  0.00     0.124 S 
ATOM     94  O   UNL     1      18.252 -12.767  -0.503  1.00  0.00    -0.237 OA
ATOM     95  O   UNL     1      18.104 -13.157  -2.939  1.00  0.00    -0.237 OA
ATOM     96  O   UNL     1      19.506 -11.328  -2.069  1.00  0.00    -0.744 OA
ENDBRANCH  92  93
ENDBRANCH  60  85
ENDBRANCH  34  35
ENDBRANCH  27  29
ENDBRANCH  26  27
ENDBRANCH  25  26
ENDBRANCH   1  25
TORSDOF 18
