REMARK SMILES O=C(C[C@H]1S/C(=[NH+]\N=C\c2cc(Br)ccc2OCc2ccccc2)NC1=O)OCCOC(=O)c1ccc(-c2c3nc(c(-c4c(F)cc(S(=O)(=O)[O-])cc4F)c4ccc([nH]4)c(-c4c(F)cc(S(=O)(=O)[O-])cc4F)c4nc(c(-c5c(F)cc(S(=O)(=O)[O-])cc5F)c5ccc2[nH]5)C=C4)C=C3)cc1
REMARK SMILES IDX 28 1 2 2 1 3 3 4 4 5 5 6 26 7 6 8 25 9 27 10 7 11 8 14 9 15
REMARK SMILES IDX 10 16 11 17 16 18 12 19 15 20 13 21 14 22 17 23 18 24 19 25
REMARK SMILES IDX 20 26 24 27 21 28 23 29 22 30 29 31 30 32 31 33 32 34 33 35
REMARK SMILES IDX 34 36 35 37 99 38 36 39 98 40 37 41 38 42 39 43 92 44 40 45
REMARK SMILES IDX 97 46 91 47 93 48 41 49 96 50 90 51 89 52 42 54 76 55 55 56
REMARK SMILES IDX 75 57 56 58 59 59 74 60 94 61 57 62 58 63 73 65 95 66 60 67
REMARK SMILES IDX 43 68 44 69 53 70 45 71 46 72 52 73 54 74 47 75 48 76 49 77
REMARK SMILES IDX 50 78 51 79 77 80 78 81 87 82 79 83 80 84 86 85 88 86 81 87
REMARK SMILES IDX 82 88 83 89 84 90 85 91 61 92 62 93 71 94 63 95 64 96 70 97
REMARK SMILES IDX 72 98 65 99 66 100 67 101 68 102 69 103
REMARK H PARENT 25 12 7 13 93 53 59 64
REMARK Flexibility Score: inf
ROOT
ATOM      1  O   UNL     1       3.057  -0.616   0.806  1.00  0.00    -0.462 OA
ENDROOT
BRANCH   1   2
ATOM      2  C   UNL     1       2.765   0.690   1.018  1.00  0.00     0.307 C 
ATOM      3  O   UNL     1       2.032   1.027   1.943  1.00  0.00    -0.252 OA
BRANCH   2   4
ATOM      4  C   UNL     1       3.254   1.691   0.009  1.00  0.00     0.150 C 
BRANCH   4   5
ATOM      5  C   UNL     1       4.110   2.785   0.636  1.00  0.00     0.184 C 
ATOM      6  S   UNL     1       5.893   2.413   0.409  1.00  0.00    -0.020 SA
ATOM      7  C   UNL     1       3.907   4.053  -0.169  1.00  0.00     0.322 C 
ATOM      8  C   UNL     1       5.971   3.390  -1.028  1.00  0.00     0.337 C 
ATOM      9  N   UNL     1       4.903   4.221  -1.087  1.00  0.00    -0.202 N 
ATOM     10  O   UNL     1       2.922   4.774  -0.095  1.00  0.00    -0.246 OA
ATOM     11  N   UNL     1       6.850   3.399  -1.967  1.00  0.00    -0.142 N 
ATOM     12  H   UNL     1       4.846   4.925  -1.773  1.00  0.00     0.316 HD
ATOM     13  H   UNL     1       6.779   4.005  -2.740  1.00  0.00     0.343 HD
BRANCH  11  14
ATOM     14  N   UNL     1       7.911   2.500  -1.833  1.00  0.00    -0.093 NA
ATOM     15  C   UNL     1       8.591   2.497  -2.937  1.00  0.00     0.170 C 
BRANCH  15  16
ATOM     16  C   UNL     1       9.813   1.711  -3.119  1.00  0.00     0.040 A 
ATOM     17  C   UNL     1       9.605   0.332  -3.288  1.00  0.00     0.029 A 
ATOM     18  C   UNL     1      11.098   2.258  -3.235  1.00  0.00     0.128 A 
ATOM     19  C   UNL     1      10.682  -0.505  -3.567  1.00  0.00     0.018 A 
ATOM     20  C   UNL     1      12.171   1.380  -3.471  1.00  0.00     0.048 A 
ATOM     21  Br  UNL     1      10.391  -2.347  -3.874  1.00  0.00    -0.051 Br
ATOM     22  C   UNL     1      11.970   0.011  -3.648  1.00  0.00     0.019 A 
BRANCH  18  23
ATOM     23  O   UNL     1      11.530   3.554  -3.194  1.00  0.00    -0.488 OA
BRANCH  23  24
ATOM     24  C   UNL     1      10.639   4.670  -3.196  1.00  0.00     0.265 C 
BRANCH  24  25
ATOM     25  C   UNL     1       9.892   4.902  -4.494  1.00  0.00    -0.011 A 
ATOM     26  C   UNL     1       8.810   5.799  -4.494  1.00  0.00     0.007 A 
ATOM     27  C   UNL     1      10.188   4.207  -5.677  1.00  0.00     0.007 A 
ATOM     28  C   UNL     1       7.997   5.931  -5.620  1.00  0.00     0.000 A 
ATOM     29  C   UNL     1       9.362   4.328  -6.796  1.00  0.00     0.000 A 
ATOM     30  C   UNL     1       8.261   5.179  -6.762  1.00  0.00     0.000 A 
ENDBRANCH  24  25
ENDBRANCH  23  24
ENDBRANCH  18  23
ENDBRANCH  15  16
ENDBRANCH  11  14
ENDBRANCH   4   5
ENDBRANCH   2   4
ENDBRANCH   1   2
BRANCH   1  31
ATOM     31  C   UNL     1       4.346  -1.051   0.328  1.00  0.00     0.274 C 
BRANCH  31  32
ATOM     32  C   UNL     1       4.255  -1.765  -1.021  1.00  0.00     0.275 C 
BRANCH  32  33
ATOM     33  O   UNL     1       3.856  -0.853  -2.059  1.00  0.00    -0.458 OA
BRANCH  33  34
ATOM     34  C   UNL     1       2.532  -0.845  -2.355  1.00  0.00     0.338 C 
ATOM     35  O   UNL     1       1.683  -1.599  -1.909  1.00  0.00    -0.246 OA
BRANCH  34  36
ATOM     36  C   UNL     1       2.220   0.349  -3.175  1.00  0.00     0.060 A 
ATOM     37  C   UNL     1       1.014   1.018  -2.926  1.00  0.00     0.016 A 
ATOM     38  C   UNL     1       3.103   0.837  -4.144  1.00  0.00     0.016 A 
ATOM     39  C   UNL     1       0.691   2.175  -3.639  1.00  0.00     0.010 A 
ATOM     40  C   UNL     1       2.772   1.989  -4.866  1.00  0.00     0.010 A 
ATOM     41  C   UNL     1       1.562   2.661  -4.622  1.00  0.00    -0.014 A 
BRANCH  41  42
ATOM     42  C   UNL     1       1.200   3.849  -5.434  1.00  0.00     0.031 A 
ATOM     43  C   UNL     1       0.577   3.662  -6.788  1.00  0.00     0.074 A 
ATOM     44  C   UNL     1       1.467   5.087  -4.978  1.00  0.00     0.049 A 
ATOM     45  N   UNL     1       0.260   4.564  -7.680  1.00  0.00    -0.248 NA
ATOM     46  C   UNL     1       0.270   2.280  -7.191  1.00  0.00     0.031 C 
ATOM     47  C   UNL     1       2.042   5.402  -3.671  1.00  0.00     0.029 A 
ATOM     48  N   UNL     1       1.310   6.312  -5.579  1.00  0.00    -0.354 N 
ATOM     49  C   UNL     1      -0.284   3.865  -8.749  1.00  0.00     0.074 A 
ATOM     50  C   UNL     1      -0.237   2.459  -8.404  1.00  0.00     0.031 C 
ATOM     51  C   UNL     1       2.231   6.731  -3.585  1.00  0.00     0.029 A 
ATOM     52  C   UNL     1       1.808   7.357  -4.837  1.00  0.00     0.049 A 
ATOM     53  H   UNL     1       0.882   6.430  -6.457  1.00  0.00     0.167 HD
ATOM     54  C   UNL     1      -0.784   4.352  -9.909  1.00  0.00     0.037 A 
ATOM     55  C   UNL     1       1.934   8.663  -5.144  1.00  0.00     0.037 A 
ATOM     56  C   UNL     1      -0.840   5.749 -10.249  1.00  0.00     0.049 A 
ATOM     57  C   UNL     1       1.441   9.168  -6.477  1.00  0.00     0.074 A 
ATOM     58  C   UNL     1      -1.400   6.337 -11.371  1.00  0.00     0.029 A 
ATOM     59  N   UNL     1      -0.304   6.774  -9.487  1.00  0.00    -0.354 N 
ATOM     60  N   UNL     1       0.857   8.503  -7.444  1.00  0.00    -0.248 NA
ATOM     61  C   UNL     1       1.626  10.600  -6.761  1.00  0.00     0.031 C 
ATOM     62  C   UNL     1      -1.154   7.712 -11.313  1.00  0.00     0.029 A 
ATOM     63  C   UNL     1      -0.477   7.985 -10.136  1.00  0.00     0.049 A 
ATOM     64  H   UNL     1       0.135   6.658  -8.614  1.00  0.00     0.167 HD
ATOM     65  C   UNL     1       0.587   9.438  -8.440  1.00  0.00     0.074 A 
ATOM     66  C   UNL     1       1.061  10.717  -7.955  1.00  0.00     0.031 C 
ATOM     67  C   UNL     1      -0.001   9.253  -9.647  1.00  0.00     0.037 A 
BRANCH  54  68
ATOM     68  C   UNL     1      -1.306   3.371 -10.917  1.00  0.00     0.058 A 
ATOM     69  C   UNL     1      -2.562   2.765 -10.768  1.00  0.00     0.135 A 
ATOM     70  C   UNL     1      -0.581   3.109 -12.090  1.00  0.00     0.135 A 
ATOM     71  F   UNL     1      -3.286   2.973  -9.656  1.00  0.00    -0.206 F 
ATOM     72  C   UNL     1      -3.083   1.929 -11.749  1.00  0.00     0.059 A 
ATOM     73  C   UNL     1      -1.090   2.290 -13.093  1.00  0.00     0.059 A 
ATOM     74  F   UNL     1       0.627   3.663 -12.275  1.00  0.00    -0.206 F 
ATOM     75  C   UNL     1      -2.341   1.702 -12.911  1.00  0.00     0.060 A 
BRANCH  75  76
ATOM     76  S   UNL     1      -3.050   0.650 -14.196  1.00  0.00     0.124 S 
ATOM     77  O   UNL     1      -2.912  -0.673 -13.596  1.00  0.00    -0.237 OA
ATOM     78  O   UNL     1      -4.414   1.159 -14.300  1.00  0.00    -0.237 OA
ATOM     79  O   UNL     1      -2.199   0.906 -15.353  1.00  0.00    -0.744 OA
ENDBRANCH  75  76
ENDBRANCH  54  68
BRANCH  55  80
ATOM     80  C   UNL     1       2.603   9.592  -4.196  1.00  0.00     0.058 A 
ATOM     81  C   UNL     1       1.886  10.598  -3.533  1.00  0.00     0.135 A 
ATOM     82  C   UNL     1       3.988   9.520  -3.978  1.00  0.00     0.135 A 
ATOM     83  F   UNL     1       0.562  10.713  -3.721  1.00  0.00    -0.206 F 
ATOM     84  C   UNL     1       2.522  11.523  -2.711  1.00  0.00     0.059 A 
ATOM     85  C   UNL     1       4.643  10.420  -3.145  1.00  0.00     0.059 A 
ATOM     86  F   UNL     1       4.717   8.566  -4.578  1.00  0.00    -0.206 F 
ATOM     87  C   UNL     1       3.904  11.430  -2.531  1.00  0.00     0.060 A 
BRANCH  87  88
ATOM     88  S   UNL     1       4.730  12.631  -1.465  1.00  0.00     0.124 S 
ATOM     89  O   UNL     1       4.800  13.796  -2.339  1.00  0.00    -0.237 OA
ATOM     90  O   UNL     1       3.809  12.731  -0.337  1.00  0.00    -0.237 OA
ATOM     91  O   UNL     1       6.005  11.986  -1.167  1.00  0.00    -0.744 OA
ENDBRANCH  87  88
ENDBRANCH  55  80
BRANCH  67  92
ATOM     92  C   UNL     1      -0.176  10.455 -10.532  1.00  0.00     0.058 A 
ATOM     93  C   UNL     1       0.906  11.014 -11.228  1.00  0.00     0.135 A 
ATOM     94  C   UNL     1      -1.450  11.007 -10.746  1.00  0.00     0.135 A 
ATOM     95  F   UNL     1       2.145  10.527 -11.052  1.00  0.00    -0.206 F 
ATOM     96  C   UNL     1       0.735  12.085 -12.099  1.00  0.00     0.059 A 
ATOM     97  C   UNL     1      -1.648  12.064 -11.631  1.00  0.00     0.059 A 
ATOM     98  F   UNL     1      -2.520  10.504 -10.112  1.00  0.00    -0.206 F 
ATOM     99  C   UNL     1      -0.547  12.600 -12.298  1.00  0.00     0.060 A 
BRANCH  99 100
ATOM    100  S   UNL     1      -0.765  13.953 -13.474  1.00  0.00     0.124 S 
ATOM    101  O   UNL     1      -0.252  15.088 -12.715  1.00  0.00    -0.237 OA
ATOM    102  O   UNL     1       0.054  13.523 -14.603  1.00  0.00    -0.237 OA
ATOM    103  O   UNL     1      -2.204  13.960 -13.720  1.00  0.00    -0.744 OA
ENDBRANCH  99 100
ENDBRANCH  67  92
ENDBRANCH  41  42
ENDBRANCH  34  36
ENDBRANCH  33  34
ENDBRANCH  32  33
ENDBRANCH  31  32
ENDBRANCH   1  31
TORSDOF 20
