REMARK SMILES O=C(OCCOC(=O)C(Cl)(c1ccccc1)c1ccccc1)c1ccc(-c2c3nc(c(-c4c(F)cc(S(=O)(=O)[O-])cc4F)c4ccc([nH]4)c(-c4c(F)cc(S(=O)(=O)[O-])cc4F)c4nc(c(-c5c(F)cc(S(=O)(=O)[O-])cc5F)c5ccc2[nH]5)C=C4)C=C3)cc1
REMARK SMILES IDX 4 1 3 2 2 3 1 4 23 5 24 6 88 7 25 8 87 9 26 10 27 11 28 12
REMARK SMILES IDX 81 13 29 14 86 15 80 16 82 17 30 18 85 19 79 20 78 21 31 23
REMARK SMILES IDX 65 24 44 25 64 26 45 27 48 28 63 29 83 30 46 31 47 32 62 34
REMARK SMILES IDX 84 35 49 36 32 37 33 38 42 39 34 40 35 41 41 42 43 43 36 44
REMARK SMILES IDX 37 45 38 46 39 47 40 48 66 49 67 50 76 51 68 52 69 53 75 54
REMARK SMILES IDX 77 55 70 56 71 57 72 58 73 59 74 60 50 61 51 62 60 63 52 64
REMARK SMILES IDX 53 65 59 66 61 67 54 68 55 69 56 70 57 71 58 72 5 73 6 74
REMARK SMILES IDX 7 75 8 76 9 77 10 78 11 79 12 80 16 81 13 82 15 83 14 84
REMARK SMILES IDX 17 85 18 86 22 87 19 88 21 89 20 90
REMARK H PARENT 82 22 48 33
REMARK Flexibility Score: inf
ROOT
ATOM      1  C   UNL     1       4.104  -0.552  -1.381  1.00  0.00     0.275 C 
ENDROOT
BRANCH   1   2
ATOM      2  O   UNL     1       3.023  -0.956  -0.527  1.00  0.00    -0.458 OA
BRANCH   2   3
ATOM      3  C   UNL     1       3.080  -1.103   0.821  1.00  0.00     0.338 C 
ATOM      4  O   UNL     1       2.346  -1.928   1.365  1.00  0.00    -0.246 OA
BRANCH   3   5
ATOM      5  C   UNL     1       3.809  -0.127   1.684  1.00  0.00     0.060 A 
ATOM      6  C   UNL     1       5.108   0.345   1.468  1.00  0.00     0.016 A 
ATOM      7  C   UNL     1       3.123   0.320   2.828  1.00  0.00     0.016 A 
ATOM      8  C   UNL     1       5.673   1.309   2.312  1.00  0.00     0.010 A 
ATOM      9  C   UNL     1       3.684   1.288   3.672  1.00  0.00     0.010 A 
ATOM     10  C   UNL     1       4.963   1.800   3.412  1.00  0.00    -0.014 A 
BRANCH  10  11
ATOM     11  C   UNL     1       5.631   2.727   4.358  1.00  0.00     0.031 A 
ATOM     12  C   UNL     1       6.098   2.170   5.672  1.00  0.00     0.074 A 
ATOM     13  C   UNL     1       5.871   4.016   4.039  1.00  0.00     0.049 A 
ATOM     14  N   UNL     1       6.828   2.733   6.598  1.00  0.00    -0.248 NA
ATOM     15  C   UNL     1       5.695   0.788   5.980  1.00  0.00     0.031 C 
ATOM     16  C   UNL     1       5.464   4.679   2.801  1.00  0.00     0.029 A 
ATOM     17  N   UNL     1       6.531   5.001   4.733  1.00  0.00    -0.354 N 
ATOM     18  C   UNL     1       6.988   1.767   7.582  1.00  0.00     0.074 A 
ATOM     19  C   UNL     1       6.220   0.611   7.179  1.00  0.00     0.031 C 
ATOM     20  C   UNL     1       5.875   5.960   2.824  1.00  0.00     0.029 A 
ATOM     21  C   UNL     1       6.598   6.204   4.066  1.00  0.00     0.049 A 
ATOM     22  H   UNL     1       6.920   4.860   5.627  1.00  0.00     0.167 HD
ATOM     23  C   UNL     1       7.742   1.817   8.704  1.00  0.00     0.037 A 
ATOM     24  C   UNL     1       7.204   7.359   4.408  1.00  0.00     0.037 A 
ATOM     25  C   UNL     1       8.495   2.967   9.110  1.00  0.00     0.049 A 
ATOM     26  C   UNL     1       8.011   7.405   5.681  1.00  0.00     0.074 A 
ATOM     27  C   UNL     1       9.285   3.133  10.231  1.00  0.00     0.029 A 
ATOM     28  N   UNL     1       8.540   4.159   8.401  1.00  0.00    -0.354 N 
ATOM     29  N   UNL     1       8.221   6.454   6.560  1.00  0.00    -0.248 NA
ATOM     30  C   UNL     1       8.691   8.671   5.993  1.00  0.00     0.031 C 
ATOM     31  C   UNL     1       9.793   4.438  10.211  1.00  0.00     0.029 A 
ATOM     32  C   UNL     1       9.341   5.071   9.063  1.00  0.00     0.049 A 
ATOM     33  H   UNL     1       8.070   4.330   7.553  1.00  0.00     0.167 HD
ATOM     34  C   UNL     1       9.091   6.990   7.502  1.00  0.00     0.074 A 
ATOM     35  C   UNL     1       9.367   8.351   7.088  1.00  0.00     0.031 C 
ATOM     36  C   UNL     1       9.622   6.408   8.605  1.00  0.00     0.037 A 
BRANCH  23  37
ATOM     37  C   UNL     1       7.761   0.573   9.540  1.00  0.00     0.058 A 
ATOM     38  C   UNL     1       8.450  -0.576   9.114  1.00  0.00     0.135 A 
ATOM     39  C   UNL     1       7.005   0.489  10.718  1.00  0.00     0.135 A 
ATOM     40  F   UNL     1       9.161  -0.554   7.975  1.00  0.00    -0.206 F 
ATOM     41  C   UNL     1       8.341  -1.782   9.797  1.00  0.00     0.059 A 
ATOM     42  C   UNL     1       6.901  -0.702  11.430  1.00  0.00     0.059 A 
ATOM     43  F   UNL     1       6.321   1.556  11.160  1.00  0.00    -0.206 F 
ATOM     44  C   UNL     1       7.549  -1.838  10.944  1.00  0.00     0.060 A 
BRANCH  44  45
ATOM     45  S   UNL     1       7.349  -3.426  11.780  1.00  0.00     0.124 S 
ATOM     46  O   UNL     1       6.372  -4.085  10.918  1.00  0.00    -0.237 OA
ATOM     47  O   UNL     1       8.700  -3.977  11.741  1.00  0.00    -0.237 OA
ATOM     48  O   UNL     1       6.866  -3.050  13.105  1.00  0.00    -0.744 OA
ENDBRANCH  44  45
ENDBRANCH  23  37
BRANCH  24  49
ATOM     49  C   UNL     1       7.141   8.545   3.510  1.00  0.00     0.058 A 
ATOM     50  C   UNL     1       8.267   8.965   2.786  1.00  0.00     0.135 A 
ATOM     51  C   UNL     1       5.966   9.301   3.381  1.00  0.00     0.135 A 
ATOM     52  F   UNL     1       9.417   8.279   2.879  1.00  0.00    -0.206 F 
ATOM     53  C   UNL     1       8.242  10.106   1.990  1.00  0.00     0.059 A 
ATOM     54  C   UNL     1       5.910  10.437   2.575  1.00  0.00     0.059 A 
ATOM     55  F   UNL     1       4.855   8.939   4.041  1.00  0.00    -0.206 F 
ATOM     56  C   UNL     1       7.059  10.840   1.895  1.00  0.00     0.060 A 
BRANCH  56  57
ATOM     57  S   UNL     1       7.029  12.308   0.842  1.00  0.00     0.124 S 
ATOM     58  O   UNL     1       7.765  13.269   1.655  1.00  0.00    -0.237 OA
ATOM     59  O   UNL     1       7.707  11.837  -0.362  1.00  0.00    -0.237 OA
ATOM     60  O   UNL     1       5.603  12.574   0.682  1.00  0.00    -0.744 OA
ENDBRANCH  56  57
ENDBRANCH  24  49
BRANCH  36  61
ATOM     61  C   UNL     1      10.595   7.217   9.412  1.00  0.00     0.058 A 
ATOM     62  C   UNL     1      10.166   8.234  10.276  1.00  0.00     0.135 A 
ATOM     63  C   UNL     1      11.965   6.915   9.373  1.00  0.00     0.135 A 
ATOM     64  F   UNL     1       8.866   8.562  10.343  1.00  0.00    -0.206 F 
ATOM     65  C   UNL     1      11.067   8.935  11.070  1.00  0.00     0.059 A 
ATOM     66  C   UNL     1      12.881   7.588  10.172  1.00  0.00     0.059 A 
ATOM     67  F   UNL     1      12.421   5.942   8.567  1.00  0.00    -0.206 F 
ATOM     68  C   UNL     1      12.423   8.602  11.013  1.00  0.00     0.060 A 
BRANCH  68  69
ATOM     69  S   UNL     1      13.580   9.474  12.090  1.00  0.00     0.124 S 
ATOM     70  O   UNL     1      13.782  10.719  11.357  1.00  0.00    -0.237 OA
ATOM     71  O   UNL     1      12.828   9.587  13.337  1.00  0.00    -0.237 OA
ATOM     72  O   UNL     1      14.732   8.579  12.142  1.00  0.00    -0.744 OA
ENDBRANCH  68  69
ENDBRANCH  36  61
ENDBRANCH  10  11
ENDBRANCH   3   5
ENDBRANCH   2   3
ENDBRANCH   1   2
BRANCH   1  73
ATOM     73  C   UNL     1       3.950   0.874  -1.904  1.00  0.00     0.274 C 
BRANCH  73  74
ATOM     74  O   UNL     1       3.391   1.766  -0.926  1.00  0.00    -0.460 OA
BRANCH  74  75
ATOM     75  C   UNL     1       2.239   2.423  -1.280  1.00  0.00     0.336 C 
ATOM     76  O   UNL     1       1.685   2.257  -2.366  1.00  0.00    -0.249 OA
BRANCH  75  77
ATOM     77  C   UNL     1       1.763   3.474  -0.229  1.00  0.00     0.191 C 
ATOM     78  Cl  UNL     1       2.473   3.088   1.403  1.00  0.00    -0.096 Cl
BRANCH  77  79
ATOM     79  C   UNL     1       2.378   4.874  -0.486  1.00  0.00    -0.011 A 
ATOM     80  C   UNL     1       3.531   5.022  -1.290  1.00  0.00     0.006 A 
ATOM     81  C   UNL     1       1.993   5.995   0.283  1.00  0.00     0.006 A 
ATOM     82  C   UNL     1       4.254   6.220  -1.321  1.00  0.00     0.000 A 
ATOM     83  C   UNL     1       2.705   7.197   0.233  1.00  0.00     0.000 A 
ATOM     84  C   UNL     1       3.839   7.307  -0.563  1.00  0.00     0.000 A 
ENDBRANCH  77  79
BRANCH  77  85
ATOM     85  C   UNL     1       0.242   3.295  -0.006  1.00  0.00    -0.011 A 
ATOM     86  C   UNL     1      -0.710   4.304  -0.195  1.00  0.00     0.006 A 
ATOM     87  C   UNL     1      -0.230   2.042   0.471  1.00  0.00     0.006 A 
ATOM     88  C   UNL     1      -2.044   4.110   0.187  1.00  0.00     0.000 A 
ATOM     89  C   UNL     1      -1.560   1.845   0.839  1.00  0.00     0.000 A 
ATOM     90  C   UNL     1      -2.464   2.891   0.718  1.00  0.00     0.000 A 
ENDBRANCH  77  85
ENDBRANCH  75  77
ENDBRANCH  74  75
ENDBRANCH  73  74
ENDBRANCH   1  73
TORSDOF 16
