REMARK SMILES CC(C)C[C@@H](C[NH3+])C(=O)N1CCC(CC(=O)OCCOC(=O)c2ccc(-c3c4nc(c(-c5c(F)cc(S(=O)(=O)[O-])cc5F)c5ccc([nH]5)c(-c5c(F)cc(S(=O)(=O)[O-])cc5F)c5nc(c(-c6c(F)cc(S(=O)(=O)[O-])cc6F)c6ccc3[nH]6)C=C5)C=C4)cc2)CC1
REMARK SMILES IDX 18 1 17 2 15 3 16 4 14 5 13 6 8 7 9 8 10 9 11 10 90 11 12 12
REMARK SMILES IDX 89 13 5 14 4 15 2 16 1 17 3 18 6 19 7 20 19 24 20 25 21 26
REMARK SMILES IDX 22 27 23 28 24 29 88 30 25 31 87 32 26 33 27 34 28 35 81 36
REMARK SMILES IDX 29 37 86 38 80 39 82 40 30 41 85 42 79 43 78 44 31 46 65 47
REMARK SMILES IDX 44 48 64 49 45 50 48 51 63 52 83 53 46 54 47 55 62 57 84 58
REMARK SMILES IDX 49 59 32 60 33 61 42 62 34 63 35 64 41 65 43 66 36 67 37 68
REMARK SMILES IDX 38 69 39 70 40 71 66 72 67 73 76 74 68 75 69 76 75 77 77 78
REMARK SMILES IDX 70 79 71 80 72 81 73 82 74 83 50 84 51 85 60 86 52 87 53 88
REMARK SMILES IDX 59 89 61 90 54 91 55 92 56 93 57 94 58 95
REMARK H PARENT 7 21 7 22 7 23 82 45 48 56
REMARK Flexibility Score: inf
ROOT
ATOM      1  C   UNL     1     -10.325  -2.981   2.380  1.00  0.00     0.274 C 
ENDROOT
BRANCH   1   2
ATOM      2  O   UNL     1      -9.052  -2.321   2.252  1.00  0.00    -0.462 OA
BRANCH   2   3
ATOM      3  C   UNL     1      -8.764  -1.369   3.174  1.00  0.00     0.306 C 
ATOM      4  O   UNL     1      -9.523  -1.007   4.063  1.00  0.00    -0.252 OA
BRANCH   3   5
ATOM      5  C   UNL     1      -7.409  -0.731   2.946  1.00  0.00     0.126 C 
BRANCH   5   6
ATOM      6  C   UNL     1      -6.265  -1.700   2.598  1.00  0.00     0.003 C 
ATOM      7  C   UNL     1      -3.009  -1.662   0.133  1.00  0.00     0.231 C 
ATOM      8  O   UNL     1      -3.497  -1.333  -0.958  1.00  0.00    -0.274 OA
ATOM      9  N   UNL     1      -3.811  -2.193   1.122  1.00  0.00    -0.342 N 
ATOM     10  C   UNL     1      -5.034  -2.876   0.731  1.00  0.00     0.120 C 
ATOM     11  C   UNL     1      -3.713  -1.933   2.551  1.00  0.00     0.120 C 
ATOM     12  C   UNL     1      -6.257  -2.049   1.098  1.00  0.00     0.026 C 
ATOM     13  C   UNL     1      -4.909  -1.089   3.011  1.00  0.00     0.026 C 
BRANCH   7  14
ATOM     14  C   UNL     1      -1.475  -1.677   0.257  1.00  0.00     0.133 C 
BRANCH  14  15
ATOM     15  C   UNL     1      -0.817  -0.869   1.384  1.00  0.00     0.022 C 
BRANCH  15  16
ATOM     16  C   UNL     1       0.707  -0.649   1.238  1.00  0.00    -0.016 C 
ATOM     17  C   UNL     1       1.091   0.127  -0.022  1.00  0.00     0.007 C 
ATOM     18  C   UNL     1       1.239   0.084   2.474  1.00  0.00     0.007 C 
ENDBRANCH  15  16
ENDBRANCH  14  15
BRANCH  14  19
ATOM     19  C   UNL     1      -0.973  -3.126   0.110  1.00  0.00     0.272 C 
BRANCH  19  20
ATOM     20  N   UNL     1      -1.018  -3.922   1.334  1.00  0.00    -0.357 N 
ATOM     21  H   UNL     1      -0.401  -3.507   2.032  1.00  0.00     0.344 HD
ATOM     22  H   UNL     1      -0.713  -4.874   1.133  1.00  0.00     0.344 HD
ATOM     23  H   UNL     1      -1.973  -3.939   1.693  1.00  0.00     0.344 HD
ENDBRANCH  19  20
ENDBRANCH  14  19
ENDBRANCH   7  14
ENDBRANCH   5   6
ENDBRANCH   3   5
ENDBRANCH   2   3
ENDBRANCH   1   2
BRANCH   1  24
ATOM     24  C   UNL     1     -10.184  -4.333   3.080  1.00  0.00     0.275 C 
BRANCH  24  25
ATOM     25  O   UNL     1      -9.875  -4.166   4.476  1.00  0.00    -0.458 OA
BRANCH  25  26
ATOM     26  C   UNL     1      -8.562  -4.260   4.792  1.00  0.00     0.338 C 
ATOM     27  O   UNL     1      -7.642  -4.537   4.043  1.00  0.00    -0.246 OA
BRANCH  26  28
ATOM     28  C   UNL     1      -8.365  -3.855   6.193  1.00  0.00     0.060 A 
ATOM     29  C   UNL     1      -7.575  -2.732   6.455  1.00  0.00     0.016 A 
ATOM     30  C   UNL     1      -8.892  -4.615   7.239  1.00  0.00     0.016 A 
ATOM     31  C   UNL     1      -7.301  -2.367   7.772  1.00  0.00     0.010 A 
ATOM     32  C   UNL     1      -8.615  -4.247   8.559  1.00  0.00     0.010 A 
ATOM     33  C   UNL     1      -7.806  -3.130   8.834  1.00  0.00    -0.014 A 
BRANCH  33  34
ATOM     34  C   UNL     1      -7.444  -2.786  10.230  1.00  0.00     0.031 A 
ATOM     35  C   UNL     1      -6.432  -3.619  10.966  1.00  0.00     0.074 A 
ATOM     36  C   UNL     1      -8.014  -1.725  10.832  1.00  0.00     0.049 A 
ATOM     37  N   UNL     1      -6.019  -3.516  12.203  1.00  0.00    -0.248 NA
ATOM     38  C   UNL     1      -5.804  -4.714  10.210  1.00  0.00     0.031 C 
ATOM     39  C   UNL     1      -8.992  -0.830  10.213  1.00  0.00     0.029 A 
ATOM     40  N   UNL     1      -7.855  -1.225  12.100  1.00  0.00    -0.354 N 
ATOM     41  C   UNL     1      -5.095  -4.539  12.381  1.00  0.00     0.074 A 
ATOM     42  C   UNL     1      -5.022  -5.264  11.129  1.00  0.00     0.031 C 
ATOM     43  C   UNL     1      -9.348   0.110  11.105  1.00  0.00     0.029 A 
ATOM     44  C   UNL     1      -8.651  -0.136  12.365  1.00  0.00     0.049 A 
ATOM     45  H   UNL     1      -7.231  -1.609  12.757  1.00  0.00     0.167 HD
ATOM     46  C   UNL     1      -4.370  -4.843  13.485  1.00  0.00     0.037 A 
ATOM     47  C   UNL     1      -8.813   0.570  13.501  1.00  0.00     0.037 A 
ATOM     48  C   UNL     1      -4.438  -4.114  14.725  1.00  0.00     0.049 A 
ATOM     49  C   UNL     1      -8.019   0.195  14.723  1.00  0.00     0.074 A 
ATOM     50  C   UNL     1      -3.731  -4.335  15.895  1.00  0.00     0.029 A 
ATOM     51  N   UNL     1      -5.261  -3.021  14.958  1.00  0.00    -0.354 N 
ATOM     52  N   UNL     1      -7.143  -0.770  14.873  1.00  0.00    -0.248 NA
ATOM     53  C   UNL     1      -8.235   1.005  15.930  1.00  0.00     0.031 C 
ATOM     54  C   UNL     1      -4.151  -3.397  16.845  1.00  0.00     0.029 A 
ATOM     55  C   UNL     1      -5.090  -2.567  16.255  1.00  0.00     0.049 A 
ATOM     56  H   UNL     1      -5.876  -2.627  14.298  1.00  0.00     0.167 HD
ATOM     57  C   UNL     1      -6.688  -0.670  16.183  1.00  0.00     0.074 A 
ATOM     58  C   UNL     1      -7.377   0.456  16.780  1.00  0.00     0.031 C 
ATOM     59  C   UNL     1      -5.782  -1.442  16.833  1.00  0.00     0.037 A 
BRANCH  46  60
ATOM     60  C   UNL     1      -3.455  -6.032  13.406  1.00  0.00     0.058 A 
ATOM     61  C   UNL     1      -2.251  -5.989  12.685  1.00  0.00     0.135 A 
ATOM     62  C   UNL     1      -3.773  -7.221  14.081  1.00  0.00     0.135 A 
ATOM     63  F   UNL     1      -1.908  -4.882  12.007  1.00  0.00    -0.206 F 
ATOM     64  C   UNL     1      -1.407  -7.093  12.615  1.00  0.00     0.059 A 
ATOM     65  C   UNL     1      -2.933  -8.330  14.043  1.00  0.00     0.059 A 
ATOM     66  F   UNL     1      -4.913  -7.315  14.784  1.00  0.00    -0.206 F 
ATOM     67  C   UNL     1      -1.759  -8.261  13.294  1.00  0.00     0.060 A 
BRANCH  67  68
ATOM     68  S   UNL     1      -0.658  -9.688  13.190  1.00  0.00     0.124 S 
ATOM     69  O   UNL     1      -0.942 -10.177  11.845  1.00  0.00    -0.237 OA
ATOM     70  O   UNL     1       0.658  -9.085  13.380  1.00  0.00    -0.237 OA
ATOM     71  O   UNL     1      -1.113 -10.547  14.279  1.00  0.00    -0.744 OA
ENDBRANCH  67  68
ENDBRANCH  46  60
BRANCH  47  72
ATOM     72  C   UNL     1      -9.776   1.701  13.536  1.00  0.00     0.058 A 
ATOM     73  C   UNL     1      -9.331   3.029  13.596  1.00  0.00     0.135 A 
ATOM     74  C   UNL     1     -11.161   1.475  13.498  1.00  0.00     0.135 A 
ATOM     75  F   UNL     1      -8.016   3.294  13.644  1.00  0.00    -0.206 F 
ATOM     76  C   UNL     1     -10.223   4.095  13.627  1.00  0.00     0.059 A 
ATOM     77  C   UNL     1     -12.073   2.525  13.506  1.00  0.00     0.059 A 
ATOM     78  F   UNL     1     -11.636   0.221  13.430  1.00  0.00    -0.206 F 
ATOM     79  C   UNL     1     -11.594   3.833  13.580  1.00  0.00     0.060 A 
BRANCH  79  80
ATOM     80  S   UNL     1     -12.747   5.223  13.565  1.00  0.00     0.124 S 
ATOM     81  O   UNL     1     -12.733   5.630  14.966  1.00  0.00    -0.237 OA
ATOM     82  O   UNL     1     -12.111   6.143  12.627  1.00  0.00    -0.237 OA
ATOM     83  O   UNL     1     -13.990   4.621  13.094  1.00  0.00    -0.744 OA
ENDBRANCH  79  80
ENDBRANCH  47  72
BRANCH  59  84
ATOM     84  C   UNL     1      -5.462  -1.076  18.255  1.00  0.00     0.058 A 
ATOM     85  C   UNL     1      -6.354  -1.346  19.304  1.00  0.00     0.135 A 
ATOM     86  C   UNL     1      -4.232  -0.479  18.576  1.00  0.00     0.135 A 
ATOM     87  F   UNL     1      -7.545  -1.911  19.049  1.00  0.00    -0.206 F 
ATOM     88  C   UNL     1      -6.050  -1.014  20.620  1.00  0.00     0.059 A 
ATOM     89  C   UNL     1      -3.897  -0.158  19.888  1.00  0.00     0.059 A 
ATOM     90  F   UNL     1      -3.339  -0.209  17.611  1.00  0.00    -0.206 F 
ATOM     91  C   UNL     1      -4.819  -0.417  20.902  1.00  0.00     0.060 A 
BRANCH  91  92
ATOM     92  S   UNL     1      -4.422  -0.008  22.616  1.00  0.00     0.124 S 
ATOM     93  O   UNL     1      -5.198   1.212  22.813  1.00  0.00    -0.237 OA
ATOM     94  O   UNL     1      -4.896  -1.184  23.339  1.00  0.00    -0.237 OA
ATOM     95  O   UNL     1      -2.973   0.164  22.595  1.00  0.00    -0.744 OA
ENDBRANCH  91  92
ENDBRANCH  59  84
ENDBRANCH  33  34
ENDBRANCH  26  28
ENDBRANCH  25  26
ENDBRANCH  24  25
ENDBRANCH   1  24
TORSDOF 20
