REMARK SMILES NS(=O)(=O)c1ccc(-n2nc(NC(=O)NCCCC(=O)OCCOC(=O)c3ccc(-c4c5nc(c(-c6c(F)cc(S(=O)(=O)[O-])cc6F)c6ccc([nH]6)c(-c6c(F)cc(S(=O)(=O)[O-])cc6F)c6nc(c(-c7c(F)cc(S(=O)(=O)[O-])cc7F)c7ccc4[nH]7)C=C6)C=C5)cc3)cc2-c2ccccc2)cc1
REMARK SMILES IDX 19 1 20 2 18 3 17 4 16 5 15 6 12 7 13 8 14 10 11 12 9 13
REMARK SMILES IDX 10 14 94 15 93 16 8 17 5 18 6 19 102 20 7 21 101 22 2 23
REMARK SMILES IDX 3 24 4 25 1 26 95 29 96 30 100 31 97 32 99 33 98 34 21 35
REMARK SMILES IDX 22 36 23 37 24 38 25 39 26 40 27 41 28 42 92 43 29 44 91 45
REMARK SMILES IDX 30 46 31 47 32 48 85 49 33 50 90 51 84 52 86 53 34 54 89 55
REMARK SMILES IDX 83 56 82 57 35 59 69 60 48 61 68 62 49 63 52 64 67 65 87 66
REMARK SMILES IDX 50 67 51 68 66 70 88 71 53 72 36 73 37 74 46 75 38 76 39 77
REMARK SMILES IDX 45 78 47 79 40 80 41 81 42 82 43 83 44 84 70 85 71 86 80 87
REMARK SMILES IDX 72 88 73 89 79 90 81 91 74 92 75 93 76 94 77 95 78 96 54 97
REMARK SMILES IDX 55 98 64 99 56 100 57 101 63 102 65 103 58 104 59 105 60 106
REMARK SMILES IDX 61 107 62 108
REMARK H PARENT 12 9 15 11 1 27 1 28 86 58 52 69
REMARK Flexibility Score: inf
ROOT
ATOM      1  C   UNL     1      -1.194  -3.190   8.552  1.00  0.00     0.305 C 
ATOM      2  O   UNL     1      -1.804  -2.191   8.920  1.00  0.00    -0.252 OA
ENDROOT
BRANCH   1   3
ATOM      3  C   UNL     1      -1.892  -4.435   8.051  1.00  0.00     0.124 C 
BRANCH   3   4
ATOM      4  C   UNL     1      -1.396  -5.108   6.774  1.00  0.00     0.033 C 
BRANCH   4   5
ATOM      5  C   UNL     1       0.044  -5.615   6.719  1.00  0.00     0.118 C 
BRANCH   5   6
ATOM      6  N   UNL     1       0.386  -6.602   7.732  1.00  0.00    -0.338 N 
ATOM      7  N   UNL     1       1.858  -8.132   6.620  1.00  0.00    -0.291 N 
ATOM      8  C   UNL     1       1.141  -7.721   7.689  1.00  0.00     0.320 C 
ATOM      9  H   UNL     1       2.047  -9.098   6.607  1.00  0.00     0.173 HD
ATOM     10  O   UNL     1       1.095  -8.469   8.674  1.00  0.00    -0.248 OA
ATOM     11  H   UNL     1      -0.006  -6.419   8.616  1.00  0.00     0.165 HD
BRANCH   7  12
ATOM     12  C   UNL     1       2.370  -7.443   5.547  1.00  0.00     0.157 A 
ATOM     13  N   UNL     1       2.551  -5.879   4.190  1.00  0.00    -0.231 N 
ATOM     14  N   UNL     1       2.523  -6.122   5.510  1.00  0.00    -0.149 NA
ATOM     15  C   UNL     1       3.084  -6.948   3.485  1.00  0.00     0.076 A 
ATOM     16  C   UNL     1       2.869  -8.018   4.339  1.00  0.00     0.078 A 
BRANCH  13  17
ATOM     17  C   UNL     1       1.977  -4.711   3.662  1.00  0.00     0.065 A 
ATOM     18  C   UNL     1       1.186  -2.427   2.401  1.00  0.00     0.082 A 
ATOM     19  C   UNL     1       0.826  -3.640   1.834  1.00  0.00     0.024 A 
ATOM     20  C   UNL     1       1.835  -2.342   3.645  1.00  0.00     0.024 A 
ATOM     21  C   UNL     1       1.229  -4.795   2.473  1.00  0.00     0.030 A 
ATOM     22  C   UNL     1       2.218  -3.499   4.298  1.00  0.00     0.030 A 
BRANCH  18  23
ATOM     23  S   UNL     1       0.778  -0.945   1.568  1.00  0.00     0.238 S 
ATOM     24  O   UNL     1       1.149   0.100   2.472  1.00  0.00    -0.207 OA
ATOM     25  O   UNL     1      -0.543  -1.101   0.990  1.00  0.00    -0.207 OA
BRANCH  23  26
ATOM     26  N   UNL     1       1.871  -0.881   0.311  1.00  0.00    -0.225 NA
ATOM     27  H   UNL     1       1.708  -0.037  -0.239  1.00  0.00     0.137 HD
ATOM     28  H   UNL     1       1.754  -1.702  -0.283  1.00  0.00     0.137 HD
ENDBRANCH  23  26
ENDBRANCH  18  23
ENDBRANCH  13  17
BRANCH  15  29
ATOM     29  C   UNL     1       3.568  -6.773   2.108  1.00  0.00     0.000 A 
ATOM     30  C   UNL     1       4.419  -5.685   1.821  1.00  0.00     0.010 A 
ATOM     31  C   UNL     1       3.022  -7.497   1.045  1.00  0.00     0.010 A 
ATOM     32  C   UNL     1       4.649  -5.278   0.506  1.00  0.00     0.001 A 
ATOM     33  C   UNL     1       3.263  -7.090  -0.275  1.00  0.00     0.001 A 
ATOM     34  C   UNL     1       4.058  -5.974  -0.542  1.00  0.00     0.000 A 
ENDBRANCH  15  29
ENDBRANCH   7  12
ENDBRANCH   5   6
ENDBRANCH   4   5
ENDBRANCH   3   4
ENDBRANCH   1   3
BRANCH   1  35
ATOM     35  O   UNL     1       0.149  -3.355   8.656  1.00  0.00    -0.462 OA
BRANCH  35  36
ATOM     36  C   UNL     1       0.906  -2.204   9.078  1.00  0.00     0.274 C 
BRANCH  36  37
ATOM     37  C   UNL     1       1.376  -1.366   7.895  1.00  0.00     0.275 C 
BRANCH  37  38
ATOM     38  O   UNL     1       0.322  -0.565   7.358  1.00  0.00    -0.458 OA
BRANCH  38  39
ATOM     39  C   UNL     1      -0.379  -1.139   6.355  1.00  0.00     0.338 C 
ATOM     40  O   UNL     1      -0.383  -2.321   6.056  1.00  0.00    -0.246 OA
BRANCH  39  41
ATOM     41  C   UNL     1      -0.981  -0.103   5.508  1.00  0.00     0.060 A 
ATOM     42  C   UNL     1      -1.722  -0.538   4.410  1.00  0.00     0.016 A 
ATOM     43  C   UNL     1      -0.574   1.234   5.635  1.00  0.00     0.016 A 
ATOM     44  C   UNL     1      -1.875   0.329   3.350  1.00  0.00     0.010 A 
ATOM     45  C   UNL     1      -0.715   2.092   4.563  1.00  0.00     0.010 A 
ATOM     46  C   UNL     1      -1.259   1.594   3.388  1.00  0.00    -0.014 A 
BRANCH  46  47
ATOM     47  C   UNL     1      -1.232   2.357   2.142  1.00  0.00     0.031 A 
ATOM     48  C   UNL     1      -2.599   2.630   1.655  1.00  0.00     0.074 A 
ATOM     49  C   UNL     1      -0.108   2.765   1.513  1.00  0.00     0.049 A 
ATOM     50  N   UNL     1      -3.192   2.184   0.600  1.00  0.00    -0.248 NA
ATOM     51  C   UNL     1      -3.481   3.337   2.601  1.00  0.00     0.031 C 
ATOM     52  C   UNL     1       1.256   2.797   2.056  1.00  0.00     0.029 A 
ATOM     53  N   UNL     1       0.061   3.292   0.262  1.00  0.00    -0.354 N 
ATOM     54  C   UNL     1      -4.461   2.747   0.643  1.00  0.00     0.074 A 
ATOM     55  C   UNL     1      -4.652   3.260   1.974  1.00  0.00     0.031 C 
ATOM     56  C   UNL     1       2.079   3.430   1.199  1.00  0.00     0.029 A 
ATOM     57  C   UNL     1       1.311   3.866   0.051  1.00  0.00     0.049 A 
ATOM     58  H   UNL     1      -0.641   3.268  -0.428  1.00  0.00     0.167 HD
ATOM     59  C   UNL     1      -5.138   3.033  -0.498  1.00  0.00     0.037 A 
ATOM     60  C   UNL     1       1.669   4.760  -0.907  1.00  0.00     0.037 A 
ATOM     61  C   UNL     1      -4.670   2.251  -1.610  1.00  0.00     0.049 A 
ATOM     62  C   UNL     1       0.652   4.688  -1.988  1.00  0.00     0.074 A 
ATOM     63  C   UNL     1      -4.638   0.900  -1.891  1.00  0.00     0.029 A 
ATOM     64  N   UNL     1      -3.795   2.847  -2.484  1.00  0.00    -0.354 N 
ATOM     65  N   UNL     1       0.494   3.662  -2.780  1.00  0.00    -0.248 NA
ATOM     66  C   UNL     1      -0.507   5.559  -1.868  1.00  0.00     0.031 C 
ATOM     67  C   UNL     1      -3.436   0.699  -2.626  1.00  0.00     0.029 A 
ATOM     68  C   UNL     1      -2.818   1.938  -2.809  1.00  0.00     0.049 A 
ATOM     69  H   UNL     1      -3.858   3.769  -2.821  1.00  0.00     0.167 HD
ATOM     70  C   UNL     1      -0.883   3.512  -2.901  1.00  0.00     0.074 A 
ATOM     71  C   UNL     1      -1.442   4.761  -2.390  1.00  0.00     0.031 C 
ATOM     72  C   UNL     1      -1.450   2.292  -3.147  1.00  0.00     0.037 A 
BRANCH  59  73
ATOM     73  C   UNL     1      -5.911   4.313  -0.651  1.00  0.00     0.058 A 
ATOM     74  C   UNL     1      -6.804   4.466  -1.723  1.00  0.00     0.135 A 
ATOM     75  C   UNL     1      -5.598   5.494   0.066  1.00  0.00     0.135 A 
ATOM     76  F   UNL     1      -7.139   3.413  -2.485  1.00  0.00    -0.206 F 
ATOM     77  C   UNL     1      -7.313   5.713  -2.087  1.00  0.00     0.059 A 
ATOM     78  C   UNL     1      -6.142   6.730  -0.237  1.00  0.00     0.059 A 
ATOM     79  F   UNL     1      -4.667   5.525   1.028  1.00  0.00    -0.206 F 
ATOM     80  C   UNL     1      -6.966   6.839  -1.342  1.00  0.00     0.060 A 
BRANCH  80  81
ATOM     81  S   UNL     1      -7.530   8.464  -1.869  1.00  0.00     0.124 S 
ATOM     82  O   UNL     1      -6.767   8.649  -3.097  1.00  0.00    -0.237 OA
ATOM     83  O   UNL     1      -8.964   8.247  -2.029  1.00  0.00    -0.237 OA
ATOM     84  O   UNL     1      -7.153   9.328  -0.754  1.00  0.00    -0.744 OA
ENDBRANCH  80  81
ENDBRANCH  59  73
BRANCH  60  85
ATOM     85  C   UNL     1       2.583   5.923  -0.692  1.00  0.00     0.058 A 
ATOM     86  C   UNL     1       3.127   6.668  -1.753  1.00  0.00     0.135 A 
ATOM     87  C   UNL     1       2.780   6.468   0.597  1.00  0.00     0.135 A 
ATOM     88  F   UNL     1       2.950   6.264  -3.020  1.00  0.00    -0.206 F 
ATOM     89  C   UNL     1       3.819   7.873  -1.543  1.00  0.00     0.059 A 
ATOM     90  C   UNL     1       3.491   7.638   0.833  1.00  0.00     0.059 A 
ATOM     91  F   UNL     1       2.209   5.928   1.683  1.00  0.00    -0.206 F 
ATOM     92  C   UNL     1       3.991   8.351  -0.242  1.00  0.00     0.060 A 
BRANCH  92  93
ATOM     93  S   UNL     1       4.767   9.958   0.049  1.00  0.00     0.124 S 
ATOM     94  O   UNL     1       6.138   9.716  -0.387  1.00  0.00    -0.237 OA
ATOM     95  O   UNL     1       3.971  10.839  -0.799  1.00  0.00    -0.237 OA
ATOM     96  O   UNL     1       4.598  10.162   1.486  1.00  0.00    -0.744 OA
ENDBRANCH  92  93
ENDBRANCH  60  85
BRANCH  72  97
ATOM     97  C   UNL     1      -0.553   1.156  -3.598  1.00  0.00     0.058 A 
ATOM     98  C   UNL     1       0.529   0.647  -2.857  1.00  0.00     0.135 A 
ATOM     99  C   UNL     1      -0.912   0.447  -4.759  1.00  0.00     0.135 A 
ATOM    100  F   UNL     1       0.885   1.183  -1.681  1.00  0.00    -0.206 F 
ATOM    101  C   UNL     1       1.234  -0.488  -3.267  1.00  0.00     0.059 A 
ATOM    102  C   UNL     1      -0.259  -0.720  -5.153  1.00  0.00     0.059 A 
ATOM    103  F   UNL     1      -1.959   0.851  -5.498  1.00  0.00    -0.206 F 
ATOM    104  C   UNL     1       0.815  -1.182  -4.400  1.00  0.00     0.060 A 
BRANCH 104 105
ATOM    105  S   UNL     1       1.649  -2.726  -4.825  1.00  0.00     0.124 S 
ATOM    106  O   UNL     1       3.024  -2.287  -5.039  1.00  0.00    -0.237 OA
ATOM    107  O   UNL     1       1.426  -3.534  -3.628  1.00  0.00    -0.237 OA
ATOM    108  O   UNL     1       0.945  -3.181  -6.020  1.00  0.00    -0.744 OA
ENDBRANCH 104 105
ENDBRANCH  72  97
ENDBRANCH  46  47
ENDBRANCH  39  41
ENDBRANCH  38  39
ENDBRANCH  37  38
ENDBRANCH  36  37
ENDBRANCH  35  36
ENDBRANCH   1  35
TORSDOF 22
