REMARK SMILES C[C@@H](C(=O)OCCOC(=O)c1ccc(-c2c3nc(c(-c4c(F)cc(S(=O)(=O)[O-])cc4F)c4ccc([nH]4)c(-c4c(F)cc(S(=O)(=O)[O-])cc4F)c4nc(c(-c5c(F)cc(S(=O)(=O)[O-])cc5F)c5ccc2[nH]5)C=C4)C=C3)cc1)c1cccn(C(F)F)c1=O
REMARK SMILES IDX 7 1 6 2 5 3 3 4 4 5 2 6 1 7 77 8 78 9 85 10 79 11 81 12
REMARK SMILES IDX 86 13 80 14 82 15 83 16 84 17 8 18 9 19 10 20 11 21 12 22
REMARK SMILES IDX 76 23 13 24 75 25 14 26 15 27 16 28 69 29 17 30 74 31 68 32
REMARK SMILES IDX 70 33 18 34 73 35 67 36 66 37 19 39 53 40 32 41 52 42 33 43
REMARK SMILES IDX 36 44 51 45 71 46 34 47 35 48 50 50 72 51 37 52 20 53 21 54
REMARK SMILES IDX 30 55 22 56 23 57 29 58 31 59 24 60 25 61 26 62 27 63 28 64
REMARK SMILES IDX 54 65 55 66 64 67 56 68 57 69 63 70 65 71 58 72 59 73 60 74
REMARK SMILES IDX 61 75 62 76 38 77 39 78 48 79 40 80 41 81 47 82 49 83 42 84
REMARK SMILES IDX 43 85 44 86 45 87 46 88
REMARK H PARENT 70 38 36 49
REMARK Flexibility Score: inf
ROOT
ATOM      1  C   UNL     1       2.112   1.073   4.237  1.00  0.00     0.275 C 
ENDROOT
BRANCH   1   2
ATOM      2  C   UNL     1       2.649  -0.223   3.636  1.00  0.00     0.274 C 
BRANCH   2   3
ATOM      3  O   UNL     1       2.214  -0.355   2.267  1.00  0.00    -0.462 OA
BRANCH   3   4
ATOM      4  C   UNL     1       1.117  -1.135   2.057  1.00  0.00     0.313 C 
ATOM      5  O   UNL     1       0.555  -1.778   2.938  1.00  0.00    -0.252 OA
BRANCH   4   6
ATOM      6  C   UNL     1       0.732  -1.229   0.578  1.00  0.00     0.132 C 
ATOM      7  C   UNL     1       1.458  -0.224  -0.322  1.00  0.00     0.025 C 
BRANCH   6   8
ATOM      8  C   UNL     1      -0.783  -1.259   0.443  1.00  0.00     0.032 A 
ATOM      9  C   UNL     1      -1.481  -2.406   0.555  1.00  0.00     0.012 A 
ATOM     10  C   UNL     1      -1.555   0.009   0.186  1.00  0.00     0.259 A 
ATOM     11  C   UNL     1      -2.913  -2.447   0.421  1.00  0.00     0.019 A 
ATOM     12  N   UNL     1      -2.924  -0.122   0.018  1.00  0.00    -0.258 N 
ATOM     13  O   UNL     1      -0.977   1.091   0.152  1.00  0.00    -0.269 OA
ATOM     14  C   UNL     1      -3.585  -1.328   0.136  1.00  0.00     0.095 A 
BRANCH  12  15
ATOM     15  C   UNL     1      -3.670   1.065  -0.324  1.00  0.00     0.451 C 
ATOM     16  F   UNL     1      -3.876   1.084  -1.667  1.00  0.00    -0.185 F 
ATOM     17  F   UNL     1      -4.899   1.031   0.253  1.00  0.00    -0.185 F 
ENDBRANCH  12  15
ENDBRANCH   6   8
ENDBRANCH   4   6
ENDBRANCH   3   4
ENDBRANCH   2   3
ENDBRANCH   1   2
BRANCH   1  18
ATOM     18  O   UNL     1       0.679   1.001   4.285  1.00  0.00    -0.458 OA
BRANCH  18  19
ATOM     19  C   UNL     1       0.015   2.124   3.931  1.00  0.00     0.338 C 
ATOM     20  O   UNL     1       0.508   3.212   3.668  1.00  0.00    -0.246 OA
BRANCH  19  21
ATOM     21  C   UNL     1      -1.440   1.865   3.944  1.00  0.00     0.060 A 
ATOM     22  C   UNL     1      -1.961   0.653   3.490  1.00  0.00     0.016 A 
ATOM     23  C   UNL     1      -2.309   2.876   4.357  1.00  0.00     0.016 A 
ATOM     24  C   UNL     1      -3.340   0.487   3.365  1.00  0.00     0.010 A 
ATOM     25  C   UNL     1      -3.694   2.670   4.315  1.00  0.00     0.010 A 
ATOM     26  C   UNL     1      -4.232   1.490   3.774  1.00  0.00    -0.014 A 
BRANCH  26  27
ATOM     27  C   UNL     1      -5.706   1.329   3.576  1.00  0.00     0.031 A 
ATOM     28  C   UNL     1      -6.486   2.357   2.787  1.00  0.00     0.074 A 
ATOM     29  C   UNL     1      -6.358   0.251   4.060  1.00  0.00     0.049 A 
ATOM     30  N   UNL     1      -7.782   2.476   2.635  1.00  0.00    -0.248 NA
ATOM     31  C   UNL     1      -5.708   3.393   2.087  1.00  0.00     0.031 C 
ATOM     32  C   UNL     1      -5.745  -0.852   4.803  1.00  0.00     0.029 A 
ATOM     33  N   UNL     1      -7.685  -0.103   3.987  1.00  0.00    -0.354 N 
ATOM     34  C   UNL     1      -7.973   3.615   1.859  1.00  0.00     0.074 A 
ATOM     35  C   UNL     1      -6.663   4.160   1.580  1.00  0.00     0.031 C 
ATOM     36  C   UNL     1      -6.678  -1.778   5.071  1.00  0.00     0.029 A 
ATOM     37  C   UNL     1      -7.975  -1.297   4.606  1.00  0.00     0.049 A 
ATOM     38  H   UNL     1      -8.364   0.447   3.535  1.00  0.00     0.167 HD
ATOM     39  C   UNL     1      -9.132   4.158   1.414  1.00  0.00     0.037 A 
ATOM     40  C   UNL     1      -9.150  -1.920   4.823  1.00  0.00     0.037 A 
ATOM     41  C   UNL     1     -10.438   3.600   1.647  1.00  0.00     0.049 A 
ATOM     42  C   UNL     1     -10.428  -1.274   4.368  1.00  0.00     0.074 A 
ATOM     43  C   UNL     1     -11.669   4.091   1.245  1.00  0.00     0.029 A 
ATOM     44  N   UNL     1     -10.683   2.417   2.326  1.00  0.00    -0.354 N 
ATOM     45  N   UNL     1     -10.594  -0.152   3.709  1.00  0.00    -0.248 NA
ATOM     46  C   UNL     1     -11.680  -1.961   4.715  1.00  0.00     0.031 C 
ATOM     47  C   UNL     1     -12.661   3.219   1.706  1.00  0.00     0.029 A 
ATOM     48  C   UNL     1     -12.046   2.168   2.366  1.00  0.00     0.049 A 
ATOM     49  H   UNL     1      -9.992   1.839   2.722  1.00  0.00     0.167 HD
ATOM     50  C   UNL     1     -11.967   0.005   3.570  1.00  0.00     0.074 A 
ATOM     51  C   UNL     1     -12.587  -1.150   4.186  1.00  0.00     0.031 C 
ATOM     52  C   UNL     1     -12.653   1.022   2.992  1.00  0.00     0.037 A 
BRANCH  39  53
ATOM     53  C   UNL     1      -9.043   5.449   0.649  1.00  0.00     0.058 A 
ATOM     54  C   UNL     1      -8.622   5.489  -0.689  1.00  0.00     0.135 A 
ATOM     55  C   UNL     1      -9.418   6.658   1.257  1.00  0.00     0.135 A 
ATOM     56  F   UNL     1      -8.235   4.364  -1.310  1.00  0.00    -0.206 F 
ATOM     57  C   UNL     1      -8.557   6.688  -1.392  1.00  0.00     0.059 A 
ATOM     58  C   UNL     1      -9.380   7.865   0.567  1.00  0.00     0.059 A 
ATOM     59  F   UNL     1      -9.826   6.673   2.536  1.00  0.00    -0.206 F 
ATOM     60  C   UNL     1      -8.936   7.872  -0.755  1.00  0.00     0.060 A 
BRANCH  60  61
ATOM     61  S   UNL     1      -8.851   9.421  -1.679  1.00  0.00     0.124 S 
ATOM     62  O   UNL     1      -7.414   9.676  -1.687  1.00  0.00    -0.237 OA
ATOM     63  O   UNL     1      -9.436   9.053  -2.964  1.00  0.00    -0.237 OA
ATOM     64  O   UNL     1      -9.647  10.341  -0.873  1.00  0.00    -0.744 OA
ENDBRANCH  60  61
ENDBRANCH  39  53
BRANCH  40  65
ATOM     65  C   UNL     1      -9.173  -3.210   5.564  1.00  0.00     0.058 A 
ATOM     66  C   UNL     1      -9.479  -4.414   4.914  1.00  0.00     0.135 A 
ATOM     67  C   UNL     1      -8.860  -3.264   6.931  1.00  0.00     0.135 A 
ATOM     68  F   UNL     1      -9.802  -4.410   3.611  1.00  0.00    -0.206 F 
ATOM     69  C   UNL     1      -9.467  -5.629   5.591  1.00  0.00     0.059 A 
ATOM     70  C   UNL     1      -8.814  -4.469   7.623  1.00  0.00     0.059 A 
ATOM     71  F   UNL     1      -8.554  -2.139   7.596  1.00  0.00    -0.206 F 
ATOM     72  C   UNL     1      -9.125  -5.647   6.945  1.00  0.00     0.060 A 
BRANCH  72  73
ATOM     73  S   UNL     1      -9.020  -7.233   7.803  1.00  0.00     0.124 S 
ATOM     74  O   UNL     1     -10.420  -7.489   8.118  1.00  0.00    -0.237 OA
ATOM     75  O   UNL     1      -8.425  -8.098   6.789  1.00  0.00    -0.237 OA
ATOM     76  O   UNL     1      -8.157  -6.935   8.943  1.00  0.00    -0.744 OA
ENDBRANCH  72  73
ENDBRANCH  40  65
BRANCH  52  77
ATOM     77  C   UNL     1     -14.151   0.933   2.999  1.00  0.00     0.058 A 
ATOM     78  C   UNL     1     -14.892   1.200   4.161  1.00  0.00     0.135 A 
ATOM     79  C   UNL     1     -14.856   0.615   1.828  1.00  0.00     0.135 A 
ATOM     80  F   UNL     1     -14.263   1.502   5.308  1.00  0.00    -0.206 F 
ATOM     81  C   UNL     1     -16.281   1.136   4.167  1.00  0.00     0.059 A 
ATOM     82  C   UNL     1     -16.247   0.563   1.806  1.00  0.00     0.059 A 
ATOM     83  F   UNL     1     -14.194   0.358   0.689  1.00  0.00    -0.206 F 
ATOM     84  C   UNL     1     -16.950   0.814   2.984  1.00  0.00     0.060 A 
BRANCH  84  85
ATOM     85  S   UNL     1     -18.755   0.754   2.995  1.00  0.00     0.124 S 
ATOM     86  O   UNL     1     -19.002  -0.534   3.633  1.00  0.00    -0.237 OA
ATOM     87  O   UNL     1     -19.105   1.930   3.785  1.00  0.00    -0.237 OA
ATOM     88  O   UNL     1     -19.104   0.832   1.580  1.00  0.00    -0.744 OA
ENDBRANCH  84  85
ENDBRANCH  52  77
ENDBRANCH  26  27
ENDBRANCH  19  21
ENDBRANCH  18  19
ENDBRANCH   1  18
TORSDOF 16
