REMARK SMILES O=C(N[C@]1(C(=O)OCCOC(=O)c2ccc(-c3c4nc(c(-c5c(F)cc(S(=O)(=O)[O-])cc5F)c5ccc([nH]5)c(-c5c(F)cc(S(=O)(=O)[O-])cc5F)c5nc(c(-c6c(F)cc(S(=O)(=O)[O-])cc6F)c6ccc3[nH]6)C=C5)C=C4)cc2)CC[C@H](c2ccccc2)CC1)OCC1c2ccccc2-c2ccccc21
REMARK SMILES IDX 8 1 7 2 5 3 6 4 4 5 79 6 89 7 80 8 88 9 81 10 3 11 1 12 2 13
REMARK SMILES IDX 90 15 91 16 92 17 93 18 104 19 94 20 98 21 99 22 103 23
REMARK SMILES IDX 95 24 97 25 100 26 102 27 96 28 101 29 82 30 83 31 87 32
REMARK SMILES IDX 84 33 86 34 85 35 9 36 10 37 11 38 12 39 13 40 14 41 78 42
REMARK SMILES IDX 15 43 77 44 16 45 17 46 18 47 71 48 19 49 76 50 70 51 72 52
REMARK SMILES IDX 20 53 75 54 69 55 68 56 21 58 55 59 34 60 54 61 35 62 38 63
REMARK SMILES IDX 53 64 73 65 36 66 37 67 52 69 74 70 39 71 22 72 23 73 32 74
REMARK SMILES IDX 24 75 25 76 31 77 33 78 26 79 27 80 28 81 29 82 30 83 56 84
REMARK SMILES IDX 57 85 66 86 58 87 59 88 65 89 67 90 60 91 61 92 62 93 63 94
REMARK SMILES IDX 64 95 40 96 41 97 50 98 42 99 43 100 49 101 51 102 44 103
REMARK SMILES IDX 45 104 46 105 47 106 48 107
REMARK H PARENT 3 14 72 57 38 68
REMARK Flexibility Score: inf
ROOT
ATOM      1  C   UNL     1       6.548  -2.662  -4.029  1.00  0.00     0.274 C 
ENDROOT
BRANCH   1   2
ATOM      2  O   UNL     1       6.221  -2.197  -2.709  1.00  0.00    -0.460 OA
BRANCH   2   3
ATOM      3  C   UNL     1       5.147  -1.371  -2.598  1.00  0.00     0.332 C 
ATOM      4  O   UNL     1       4.494  -0.964  -3.555  1.00  0.00    -0.249 OA
BRANCH   3   5
ATOM      5  C   UNL     1       4.901  -0.886  -1.135  1.00  0.00     0.141 C 
ATOM      6  C   UNL     1       5.604   0.480  -1.126  1.00  0.00     0.041 C 
ATOM      7  C   UNL     1       5.384  -1.948  -0.145  1.00  0.00     0.041 C 
ATOM      8  C   UNL     1       7.059   0.479  -0.658  1.00  0.00     0.011 C 
ATOM      9  C   UNL     1       6.843  -1.841   0.301  1.00  0.00     0.011 C 
ATOM     10  C   UNL     1       7.423  -0.220   0.968  1.00  0.00     0.019 C 
BRANCH   5  11
ATOM     11  N   UNL     1       3.418  -0.768  -0.994  1.00  0.00    -0.305 N 
ATOM     12  O   UNL     1       1.393  -0.787  -0.009  1.00  0.00    -0.225 OA
ATOM     13  C   UNL     1       2.592  -0.562   0.069  1.00  0.00     0.408 C 
ATOM     14  H   UNL     1       2.937  -0.857  -1.848  1.00  0.00     0.168 HD
BRANCH  13  15
ATOM     15  O   UNL     1       3.176  -0.135   1.206  1.00  0.00    -0.449 OA
BRANCH  15  16
ATOM     16  C   UNL     1       3.306   1.285   1.228  1.00  0.00     0.248 C 
BRANCH  16  17
ATOM     17  C   UNL     1       4.568   1.663   1.999  1.00  0.00     0.088 C 
ATOM     18  C   UNL     1       5.761   0.720   1.807  1.00  0.00    -0.029 A 
ATOM     19  C   UNL     1       5.093   3.062   1.518  1.00  0.00    -0.029 A 
ATOM     20  C   UNL     1       6.142  -0.940   2.401  1.00  0.00     0.005 A 
ATOM     21  C   UNL     1       7.081   1.812   1.275  1.00  0.00    -0.014 A 
ATOM     22  C   UNL     1       6.435   3.089   1.027  1.00  0.00    -0.014 A 
ATOM     23  C   UNL     1       4.352   4.239   1.528  1.00  0.00     0.005 A 
ATOM     24  C   UNL     1       7.919  -1.489   2.473  1.00  0.00     0.000 A 
ATOM     25  C   UNL     1       8.816   1.311   1.422  1.00  0.00     0.009 A 
ATOM     26  C   UNL     1       6.977   4.227   0.452  1.00  0.00     0.009 A 
ATOM     27  C   UNL     1       4.913   5.398   0.979  1.00  0.00     0.000 A 
ATOM     28  C   UNL     1       9.248  -0.317   2.093  1.00  0.00     0.001 A 
ATOM     29  C   UNL     1       6.199   5.384   0.416  1.00  0.00     0.001 A 
ENDBRANCH  16  17
ENDBRANCH  15  16
ENDBRANCH  13  15
ENDBRANCH   5  11
BRANCH  10  30
ATOM     30  C   UNL     1       7.513   0.537   2.993  1.00  0.00    -0.045 A 
ATOM     31  C   UNL     1       7.576   1.950   3.553  1.00  0.00     0.004 A 
ATOM     32  C   UNL     1       7.376  -0.236   4.351  1.00  0.00     0.004 A 
ATOM     33  C   UNL     1       7.137   2.421   4.829  1.00  0.00     0.000 A 
ATOM     34  C   UNL     1       7.028   0.233   5.642  1.00  0.00     0.000 A 
ATOM     35  C   UNL     1       6.797   1.563   5.847  1.00  0.00     0.000 A 
ENDBRANCH  10  30
ENDBRANCH   3   5
ENDBRANCH   2   3
ENDBRANCH   1   2
BRANCH   1  36
ATOM     36  C   UNL     1       6.014  -4.075  -4.250  1.00  0.00     0.275 C 
BRANCH  36  37
ATOM     37  O   UNL     1       4.576  -4.065  -4.310  1.00  0.00    -0.458 OA
BRANCH  37  38
ATOM     38  C   UNL     1       3.948  -4.597  -3.237  1.00  0.00     0.338 C 
ATOM     39  O   UNL     1       4.466  -5.110  -2.259  1.00  0.00    -0.246 OA
BRANCH  38  40
ATOM     40  C   UNL     1       2.500  -4.362  -3.328  1.00  0.00     0.060 A 
ATOM     41  C   UNL     1       2.045  -3.079  -3.073  1.00  0.00     0.016 A 
ATOM     42  C   UNL     1       1.589  -5.402  -3.448  1.00  0.00     0.016 A 
ATOM     43  C   UNL     1       0.719  -2.842  -2.747  1.00  0.00     0.010 A 
ATOM     44  C   UNL     1       0.222  -5.125  -3.312  1.00  0.00     0.010 A 
ATOM     45  C   UNL     1      -0.229  -3.850  -2.911  1.00  0.00    -0.014 A 
BRANCH  45  46
ATOM     46  C   UNL     1      -1.674  -3.578  -2.659  1.00  0.00     0.031 A 
ATOM     47  C   UNL     1      -2.455  -4.495  -1.756  1.00  0.00     0.074 A 
ATOM     48  C   UNL     1      -2.293  -2.528  -3.240  1.00  0.00     0.049 A 
ATOM     49  N   UNL     1      -3.749  -4.646  -1.646  1.00  0.00    -0.248 NA
ATOM     50  C   UNL     1      -1.673  -5.385  -0.881  1.00  0.00     0.031 C 
ATOM     51  C   UNL     1      -1.650  -1.505  -4.072  1.00  0.00     0.029 A 
ATOM     52  N   UNL     1      -3.614  -2.146  -3.229  1.00  0.00    -0.354 N 
ATOM     53  C   UNL     1      -3.935  -5.693  -0.750  1.00  0.00     0.074 A 
ATOM     54  C   UNL     1      -2.620  -6.144  -0.349  1.00  0.00     0.031 C 
ATOM     55  C   UNL     1      -2.562  -0.604  -4.460  1.00  0.00     0.029 A 
ATOM     56  C   UNL     1      -3.875  -1.051  -4.020  1.00  0.00     0.049 A 
ATOM     57  H   UNL     1      -4.306  -2.612  -2.706  1.00  0.00     0.167 HD
ATOM     58  C   UNL     1      -5.101  -6.226  -0.311  1.00  0.00     0.037 A 
ATOM     59  C   UNL     1      -5.039  -0.504  -4.418  1.00  0.00     0.037 A 
ATOM     60  C   UNL     1      -6.397  -5.715  -0.679  1.00  0.00     0.049 A 
ATOM     61  C   UNL     1      -6.321  -1.141  -3.965  1.00  0.00     0.074 A 
ATOM     62  C   UNL     1      -7.646  -6.174  -0.299  1.00  0.00     0.029 A 
ATOM     63  N   UNL     1      -6.609  -4.613  -1.498  1.00  0.00    -0.354 N 
ATOM     64  N   UNL     1      -6.490  -2.189  -3.195  1.00  0.00    -0.248 NA
ATOM     65  C   UNL     1      -7.568  -0.538  -4.449  1.00  0.00     0.031 C 
ATOM     66  C   UNL     1      -8.612  -5.377  -0.921  1.00  0.00     0.029 A 
ATOM     67  C   UNL     1      -7.968  -4.386  -1.645  1.00  0.00     0.049 A 
ATOM     68  H   UNL     1      -5.899  -4.073  -1.912  1.00  0.00     0.167 HD
ATOM     69  C   UNL     1      -7.864  -2.362  -3.086  1.00  0.00     0.074 A 
ATOM     70  C   UNL     1      -8.478  -1.299  -3.857  1.00  0.00     0.031 C 
ATOM     71  C   UNL     1      -8.555  -3.314  -2.412  1.00  0.00     0.037 A 
BRANCH  58  72
ATOM     72  C   UNL     1      -5.029  -7.444   0.571  1.00  0.00     0.058 A 
ATOM     73  C   UNL     1      -4.564  -7.389   1.895  1.00  0.00     0.135 A 
ATOM     74  C   UNL     1      -5.451  -8.693   0.083  1.00  0.00     0.135 A 
ATOM     75  F   UNL     1      -4.131  -6.228   2.411  1.00  0.00    -0.206 F 
ATOM     76  C   UNL     1      -4.492  -8.530   2.690  1.00  0.00     0.059 A 
ATOM     77  C   UNL     1      -5.417  -9.841   0.870  1.00  0.00     0.059 A 
ATOM     78  F   UNL     1      -5.904  -8.808  -1.176  1.00  0.00    -0.206 F 
ATOM     79  C   UNL     1      -4.919  -9.752   2.168  1.00  0.00     0.060 A 
BRANCH  79  80
ATOM     80  S   UNL     1      -4.817 -11.223   3.210  1.00  0.00     0.124 S 
ATOM     81  O   UNL     1      -3.377 -11.463   3.237  1.00  0.00    -0.237 OA
ATOM     82  O   UNL     1      -5.404 -10.760   4.463  1.00  0.00    -0.237 OA
ATOM     83  O   UNL     1      -5.603 -12.214   2.481  1.00  0.00    -0.744 OA
ENDBRANCH  79  80
ENDBRANCH  58  72
BRANCH  59  84
ATOM     84  C   UNL     1      -5.035   0.662  -5.345  1.00  0.00     0.058 A 
ATOM     85  C   UNL     1      -5.471   1.926  -4.922  1.00  0.00     0.135 A 
ATOM     86  C   UNL     1      -4.564   0.544  -6.664  1.00  0.00     0.135 A 
ATOM     87  F   UNL     1      -5.941   2.091  -3.676  1.00  0.00    -0.206 F 
ATOM     88  C   UNL     1      -5.446   3.028  -5.772  1.00  0.00     0.059 A 
ATOM     89  C   UNL     1      -4.498   1.638  -7.521  1.00  0.00     0.059 A 
ATOM     90  F   UNL     1      -4.122  -0.639  -7.119  1.00  0.00    -0.206 F 
ATOM     91  C   UNL     1      -4.952   2.875  -7.069  1.00  0.00     0.060 A 
BRANCH  91  92
ATOM     92  S   UNL     1      -4.873   4.323  -8.145  1.00  0.00     0.124 S 
ATOM     93  O   UNL     1      -6.281   4.526  -8.468  1.00  0.00    -0.237 OA
ATOM     94  O   UNL     1      -4.268   5.323  -7.271  1.00  0.00    -0.237 OA
ATOM     95  O   UNL     1      -4.030   3.876  -9.250  1.00  0.00    -0.744 OA
ENDBRANCH  91  92
ENDBRANCH  59  84
BRANCH  71  96
ATOM     96  C   UNL     1     -10.053  -3.221  -2.444  1.00  0.00     0.058 A 
ATOM     97  C   UNL     1     -10.790  -3.542  -3.594  1.00  0.00     0.135 A 
ATOM     98  C   UNL     1     -10.762  -2.844  -1.292  1.00  0.00     0.135 A 
ATOM     99  F   UNL     1     -10.159  -3.897  -4.724  1.00  0.00    -0.206 F 
ATOM    100  C   UNL     1     -12.179  -3.472  -3.607  1.00  0.00     0.059 A 
ATOM    101  C   UNL     1     -12.151  -2.796  -1.274  1.00  0.00     0.059 A 
ATOM    102  F   UNL     1     -10.104  -2.534  -0.164  1.00  0.00    -0.206 F 
ATOM    103  C   UNL     1     -12.850  -3.101  -2.441  1.00  0.00     0.060 A 
BRANCH 103 104
ATOM    104  S   UNL     1     -14.654  -3.048  -2.462  1.00  0.00     0.124 S 
ATOM    105  O   UNL     1     -14.904  -1.845  -3.248  1.00  0.00    -0.237 OA
ATOM    106  O   UNL     1     -14.996  -4.311  -3.109  1.00  0.00    -0.237 OA
ATOM    107  O   UNL     1     -15.008  -2.959  -1.048  1.00  0.00    -0.744 OA
ENDBRANCH 103 104
ENDBRANCH  71  96
ENDBRANCH  45  46
ENDBRANCH  38  40
ENDBRANCH  37  38
ENDBRANCH  36  37
ENDBRANCH   1  36
TORSDOF 19
