REMARK SMILES CC(C)N(c1cc2c(cc1Cl)C=C(C(=O)OCCOC(=O)c1ccc(-c3c4nc(c(-c5c(F)cc(S(=O)(=O)[O-])cc5F)c5ccc([nH]5)c(-c5c(F)cc(S(=O)(=O)[O-])cc5F)c5nc(c(-c6c(F)cc(S(=O)(=O)[O-])cc6F)c6ccc3[nH]6)C=C5)C=C4)cc1)[C@@H](C(F)(F)F)O2)C(C)C
REMARK SMILES IDX 18 1 17 2 16 3 14 4 15 5 13 6 5 7 6 8 10 9 7 10 9 11 11 12
REMARK SMILES IDX 8 13 93 14 12 15 88 16 4 17 2 18 1 19 3 20 94 21 95 22 96 23
REMARK SMILES IDX 89 24 90 25 91 26 92 27 19 28 20 29 21 30 22 31 23 32 87 33
REMARK SMILES IDX 24 34 86 35 25 36 26 37 27 38 80 39 28 40 85 41 79 42 81 43
REMARK SMILES IDX 29 44 84 45 78 46 77 47 30 49 64 50 43 51 63 52 44 53 47 54
REMARK SMILES IDX 62 55 82 56 45 57 46 58 61 60 83 61 48 62 31 63 32 64 41 65
REMARK SMILES IDX 33 66 34 67 40 68 42 69 35 70 36 71 37 72 38 73 39 74 65 75
REMARK SMILES IDX 66 76 75 77 67 78 68 79 74 80 76 81 69 82 70 83 71 84 72 85
REMARK SMILES IDX 73 86 49 87 50 88 59 89 51 90 52 91 58 92 60 93 53 94 54 95
REMARK SMILES IDX 55 96 56 97 57 98
REMARK H PARENT 81 48 47 59
REMARK Flexibility Score: inf
ROOT
ATOM      1  C   UNL     1      -5.552   3.966   8.980  1.00  0.00     0.275 C 
ENDROOT
BRANCH   1   2
ATOM      2  C   UNL     1      -6.483   3.564   7.835  1.00  0.00     0.275 C 
BRANCH   2   3
ATOM      3  O   UNL     1      -5.763   2.915   6.763  1.00  0.00    -0.459 OA
BRANCH   3   4
ATOM      4  C   UNL     1      -5.552   3.679   5.666  1.00  0.00     0.338 C 
ATOM      5  O   UNL     1      -5.923   4.832   5.505  1.00  0.00    -0.246 OA
BRANCH   4   6
ATOM      6  C   UNL     1      -4.740   2.957   4.667  1.00  0.00     0.087 C 
ATOM      7  C   UNL     1      -1.520   1.891   0.912  1.00  0.00     0.060 A 
ATOM      8  C   UNL     1      -2.523   1.165   1.604  1.00  0.00     0.074 A 
ATOM      9  C   UNL     1      -1.271   3.213   1.347  1.00  0.00     0.065 A 
ATOM     10  C   UNL     1      -3.258   1.728   2.653  1.00  0.00     0.130 A 
ATOM     11  C   UNL     1      -1.974   3.759   2.419  1.00  0.00     0.034 A 
ATOM     12  Cl  UNL     1      -0.189   4.303   0.548  1.00  0.00    -0.082 Cl
ATOM     13  C   UNL     1      -2.976   3.025   3.052  1.00  0.00     0.019 A 
ATOM     14  O   UNL     1      -4.226   0.959   3.243  1.00  0.00    -0.475 OA
ATOM     15  C   UNL     1      -3.747   3.646   4.100  1.00  0.00     0.027 C 
ATOM     16  C   UNL     1      -5.127   1.578   4.218  1.00  0.00     0.316 C 
BRANCH   7  17
ATOM     17  N   UNL     1      -0.848   1.284  -0.169  1.00  0.00    -0.365 N 
BRANCH  17  18
ATOM     18  C   UNL     1       0.632   1.252  -0.115  1.00  0.00     0.076 C 
ATOM     19  C   UNL     1       1.178  -0.155   0.123  1.00  0.00     0.030 C 
ATOM     20  C   UNL     1       1.312   1.894  -1.322  1.00  0.00     0.030 C 
ENDBRANCH  17  18
BRANCH  17  21
ATOM     21  C   UNL     1      -1.702   0.735  -1.241  1.00  0.00     0.076 C 
ATOM     22  C   UNL     1      -1.537   1.466  -2.570  1.00  0.00     0.030 C 
ATOM     23  C   UNL     1      -1.551  -0.773  -1.408  1.00  0.00     0.030 C 
ENDBRANCH  17  21
ENDBRANCH   7  17
BRANCH  16  24
ATOM     24  C   UNL     1      -6.557   1.578   3.650  1.00  0.00     0.430 C 
ATOM     25  F   UNL     1      -6.922   0.344   3.225  1.00  0.00    -0.167 F 
ATOM     26  F   UNL     1      -7.465   1.943   4.588  1.00  0.00    -0.167 F 
ATOM     27  F   UNL     1      -6.696   2.424   2.604  1.00  0.00    -0.167 F 
ENDBRANCH  16  24
ENDBRANCH   4   6
ENDBRANCH   3   4
ENDBRANCH   2   3
ENDBRANCH   1   2
BRANCH   1  28
ATOM     28  O   UNL     1      -4.669   5.025   8.570  1.00  0.00    -0.458 OA
BRANCH  28  29
ATOM     29  C   UNL     1      -3.380   4.665   8.370  1.00  0.00     0.338 C 
ATOM     30  O   UNL     1      -2.888   3.560   8.517  1.00  0.00    -0.246 OA
BRANCH  29  31
ATOM     31  C   UNL     1      -2.632   5.812   7.837  1.00  0.00     0.060 A 
ATOM     32  C   UNL     1      -1.662   6.468   8.585  1.00  0.00     0.016 A 
ATOM     33  C   UNL     1      -2.823   6.148   6.503  1.00  0.00     0.016 A 
ATOM     34  C   UNL     1      -0.905   7.480   7.979  1.00  0.00     0.010 A 
ATOM     35  C   UNL     1      -1.965   7.036   5.863  1.00  0.00     0.010 A 
ATOM     36  C   UNL     1      -1.021   7.757   6.600  1.00  0.00    -0.014 A 
BRANCH  36  37
ATOM     37  C   UNL     1      -0.198   8.812   5.935  1.00  0.00     0.031 A 
ATOM     38  C   UNL     1      -0.856   9.925   5.145  1.00  0.00     0.074 A 
ATOM     39  C   UNL     1       1.149   8.761   6.007  1.00  0.00     0.049 A 
ATOM     40  N   UNL     1      -0.300  10.915   4.489  1.00  0.00    -0.248 NA
ATOM     41  C   UNL     1      -2.324   9.903   5.036  1.00  0.00     0.031 C 
ATOM     42  C   UNL     1       1.925   7.694   6.646  1.00  0.00     0.029 A 
ATOM     43  N   UNL     1       2.108   9.634   5.553  1.00  0.00    -0.354 N 
ATOM     44  C   UNL     1      -1.343  11.600   3.871  1.00  0.00     0.074 A 
ATOM     45  C   UNL     1      -2.555  10.871   4.163  1.00  0.00     0.031 C 
ATOM     46  C   UNL     1       3.228   8.014   6.614  1.00  0.00     0.029 A 
ATOM     47  C   UNL     1       3.389   9.285   5.916  1.00  0.00     0.049 A 
ATOM     48  H   UNL     1       1.898  10.434   5.019  1.00  0.00     0.167 HD
ATOM     49  C   UNL     1      -1.311  12.757   3.167  1.00  0.00     0.037 A 
ATOM     50  C   UNL     1       4.561   9.923   5.725  1.00  0.00     0.037 A 
ATOM     51  C   UNL     1      -0.117  13.528   2.945  1.00  0.00     0.049 A 
ATOM     52  C   UNL     1       4.569  11.241   5.002  1.00  0.00     0.074 A 
ATOM     53  C   UNL     1       0.010  14.761   2.329  1.00  0.00     0.029 A 
ATOM     54  N   UNL     1       1.154  13.149   3.349  1.00  0.00    -0.354 N 
ATOM     55  N   UNL     1       3.561  11.904   4.487  1.00  0.00    -0.248 NA
ATOM     56  C   UNL     1       5.872  11.899   4.835  1.00  0.00     0.031 C 
ATOM     57  C   UNL     1       1.364  15.114   2.336  1.00  0.00     0.029 A 
ATOM     58  C   UNL     1       2.074  14.118   2.987  1.00  0.00     0.049 A 
ATOM     59  H   UNL     1       1.371  12.314   3.823  1.00  0.00     0.167 HD
ATOM     60  C   UNL     1       4.107  13.057   3.936  1.00  0.00     0.074 A 
ATOM     61  C   UNL     1       5.529  13.017   4.208  1.00  0.00     0.031 C 
ATOM     62  C   UNL     1       3.488  14.055   3.257  1.00  0.00     0.037 A 
BRANCH  49  63
ATOM     63  C   UNL     1      -2.614  13.286   2.625  1.00  0.00     0.058 A 
ATOM     64  C   UNL     1      -3.612  13.790   3.476  1.00  0.00     0.135 A 
ATOM     65  C   UNL     1      -2.858  13.322   1.242  1.00  0.00     0.135 A 
ATOM     66  F   UNL     1      -3.439  13.768   4.808  1.00  0.00    -0.206 F 
ATOM     67  C   UNL     1      -4.817  14.277   2.981  1.00  0.00     0.059 A 
ATOM     68  C   UNL     1      -4.045  13.834   0.722  1.00  0.00     0.059 A 
ATOM     69  F   UNL     1      -1.940  12.859   0.381  1.00  0.00    -0.206 F 
ATOM     70  C   UNL     1      -5.025  14.295   1.601  1.00  0.00     0.060 A 
BRANCH  70  71
ATOM     71  S   UNL     1      -6.591  14.943   0.978  1.00  0.00     0.124 S 
ATOM     72  O   UNL     1      -7.517  13.878   1.354  1.00  0.00    -0.237 OA
ATOM     73  O   UNL     1      -6.729  16.192   1.721  1.00  0.00    -0.237 OA
ATOM     74  O   UNL     1      -6.354  15.092  -0.454  1.00  0.00    -0.744 OA
ENDBRANCH  70  71
ENDBRANCH  49  63
BRANCH  50  75
ATOM     75  C   UNL     1       5.814   9.347   6.283  1.00  0.00     0.058 A 
ATOM     76  C   UNL     1       6.430   9.924   7.403  1.00  0.00     0.135 A 
ATOM     77  C   UNL     1       6.394   8.189   5.742  1.00  0.00     0.135 A 
ATOM     78  F   UNL     1       5.917  11.036   7.951  1.00  0.00    -0.206 F 
ATOM     79  C   UNL     1       7.577   9.376   7.968  1.00  0.00     0.059 A 
ATOM     80  C   UNL     1       7.528   7.609   6.304  1.00  0.00     0.059 A 
ATOM     81  F   UNL     1       5.834   7.590   4.680  1.00  0.00    -0.206 F 
ATOM     82  C   UNL     1       8.114   8.213   7.416  1.00  0.00     0.060 A 
BRANCH  82  83
ATOM     83  S   UNL     1       9.557   7.468   8.208  1.00  0.00     0.124 S 
ATOM     84  O   UNL     1      10.609   8.416   7.856  1.00  0.00    -0.237 OA
ATOM     85  O   UNL     1       9.159   7.449   9.612  1.00  0.00    -0.237 OA
ATOM     86  O   UNL     1       9.650   6.157   7.573  1.00  0.00    -0.744 OA
ENDBRANCH  82  83
ENDBRANCH  50  75
BRANCH  62  87
ATOM     87  C   UNL     1       4.346  15.180   2.753  1.00  0.00     0.058 A 
ATOM     88  C   UNL     1       5.198  15.008   1.651  1.00  0.00     0.135 A 
ATOM     89  C   UNL     1       4.279  16.453   3.340  1.00  0.00     0.135 A 
ATOM     90  F   UNL     1       5.301  13.808   1.058  1.00  0.00    -0.206 F 
ATOM     91  C   UNL     1       5.971  16.054   1.161  1.00  0.00     0.059 A 
ATOM     92  C   UNL     1       5.024  17.521   2.851  1.00  0.00     0.059 A 
ATOM     93  F   UNL     1       3.470  16.673   4.389  1.00  0.00    -0.206 F 
ATOM     94  C   UNL     1       5.877  17.308   1.768  1.00  0.00     0.060 A 
BRANCH  94  95
ATOM     95  S   UNL     1       6.867  18.663   1.104  1.00  0.00     0.124 S 
ATOM     96  O   UNL     1       8.206  18.297   1.556  1.00  0.00    -0.237 OA
ATOM     97  O   UNL     1       6.629  18.550  -0.332  1.00  0.00    -0.237 OA
ATOM     98  O   UNL     1       6.293  19.847   1.737  1.00  0.00    -0.744 OA
ENDBRANCH  94  95
ENDBRANCH  62  87
ENDBRANCH  36  37
ENDBRANCH  29  31
ENDBRANCH  28  29
ENDBRANCH   1  28
TORSDOF 18
