REMARK SMILES COc1ccc(-c2cc(C(=O)OCCOC(=O)c3ccc(-c4c5nc(c(-c6c(F)cc(S(=O)(=O)[O-])cc6F)c6ccc([nH]6)c(-c6c(F)cc(S(=O)(=O)[O-])cc6F)c6nc(c(-c7c(F)cc(S(=O)(=O)[O-])cc7F)c7ccc4[nH]7)C=C6)C=C5)cc3)nc(=O)n2C)cc1
REMARK SMILES IDX 14 1 13 2 12 3 10 4 11 5 9 6 7 7 8 8 87 9 85 10 88 11 84 12
REMARK SMILES IDX 86 13 6 14 3 15 4 16 90 17 5 18 89 19 2 20 1 21 15 22 16 23
REMARK SMILES IDX 17 24 18 25 19 26 83 27 20 28 82 29 21 30 22 31 23 32 76 33
REMARK SMILES IDX 24 34 81 35 75 36 77 37 25 38 80 39 74 40 73 41 26 43 60 44
REMARK SMILES IDX 39 45 59 46 40 47 43 48 58 49 78 50 41 51 42 52 57 54 79 55
REMARK SMILES IDX 44 56 27 57 28 58 37 59 29 60 30 61 36 62 38 63 31 64 32 65
REMARK SMILES IDX 33 66 34 67 35 68 61 69 62 70 71 71 63 72 64 73 70 74 72 75
REMARK SMILES IDX 65 76 66 77 67 78 68 79 69 80 45 81 46 82 55 83 47 84 48 85
REMARK SMILES IDX 54 86 56 87 49 88 50 89 51 90 52 91 53 92
REMARK H PARENT 77 42 43 53
REMARK Flexibility Score: inf
ROOT
ATOM      1  C   UNL     1      -1.003   9.512  -6.138  1.00  0.00     0.275 C 
ENDROOT
BRANCH   1   2
ATOM      2  C   UNL     1       0.520   9.618  -6.058  1.00  0.00     0.275 C 
BRANCH   2   3
ATOM      3  O   UNL     1       1.158   8.356  -6.338  1.00  0.00    -0.457 OA
BRANCH   3   4
ATOM      4  C   UNL     1       1.722   7.743  -5.282  1.00  0.00     0.357 C 
ATOM      5  O   UNL     1       1.708   8.108  -4.118  1.00  0.00    -0.244 OA
BRANCH   4   6
ATOM      6  C   UNL     1       2.368   6.416  -5.662  1.00  0.00     0.156 A 
ATOM      7  C   UNL     1       2.502   4.108  -5.115  1.00  0.00     0.055 A 
ATOM      8  C   UNL     1       1.909   5.274  -4.870  1.00  0.00     0.063 A 
ATOM      9  N   UNL     1       3.495   4.028  -6.070  1.00  0.00    -0.295 N 
ATOM     10  C   UNL     1       3.899   5.159  -6.810  1.00  0.00     0.348 A 
ATOM     11  C   UNL     1       4.198   2.787  -6.351  1.00  0.00     0.155 C 
ATOM     12  N   UNL     1       3.289   6.372  -6.564  1.00  0.00    -0.186 NA
ATOM     13  O   UNL     1       4.795   5.079  -7.644  1.00  0.00    -0.246 OA
BRANCH   7  14
ATOM     14  C   UNL     1       2.066   2.983  -4.268  1.00  0.00    -0.001 A 
ATOM     15  C   UNL     1       1.110   1.048  -2.462  1.00  0.00     0.118 A 
ATOM     16  C   UNL     1       0.333   1.438  -3.554  1.00  0.00     0.047 A 
ATOM     17  C   UNL     1       2.377   1.602  -2.287  1.00  0.00     0.047 A 
ATOM     18  C   UNL     1       0.801   2.405  -4.448  1.00  0.00     0.014 A 
ATOM     19  C   UNL     1       2.851   2.570  -3.182  1.00  0.00     0.014 A 
BRANCH  15  20
ATOM     20  O   UNL     1       0.545   0.099  -1.658  1.00  0.00    -0.497 OA
ATOM     21  C   UNL     1       0.980   0.081  -0.302  1.00  0.00     0.278 C 
ENDBRANCH  15  20
ENDBRANCH   7  14
ENDBRANCH   4   6
ENDBRANCH   3   4
ENDBRANCH   2   3
ENDBRANCH   1   2
BRANCH   1  22
ATOM     22  O   UNL     1      -1.521   8.711  -5.057  1.00  0.00    -0.458 OA
BRANCH  22  23
ATOM     23  C   UNL     1      -1.854   7.450  -5.408  1.00  0.00     0.338 C 
ATOM     24  O   UNL     1      -1.750   6.942  -6.513  1.00  0.00    -0.246 OA
BRANCH  23  25
ATOM     25  C   UNL     1      -2.280   6.661  -4.243  1.00  0.00     0.060 A 
ATOM     26  C   UNL     1      -1.288   6.146  -3.420  1.00  0.00     0.016 A 
ATOM     27  C   UNL     1      -3.581   6.171  -4.160  1.00  0.00     0.016 A 
ATOM     28  C   UNL     1      -1.538   4.990  -2.682  1.00  0.00     0.010 A 
ATOM     29  C   UNL     1      -3.863   5.109  -3.288  1.00  0.00     0.010 A 
ATOM     30  C   UNL     1      -2.828   4.438  -2.610  1.00  0.00    -0.014 A 
BRANCH  30  31
ATOM     31  C   UNL     1      -3.068   3.129  -1.915  1.00  0.00     0.031 A 
ATOM     32  C   UNL     1      -3.796   2.001  -2.625  1.00  0.00     0.074 A 
ATOM     33  C   UNL     1      -2.610   2.906  -0.664  1.00  0.00     0.049 A 
ATOM     34  N   UNL     1      -4.262   0.877  -2.138  1.00  0.00    -0.248 NA
ATOM     35  C   UNL     1      -4.058   2.171  -4.064  1.00  0.00     0.031 C 
ATOM     36  C   UNL     1      -1.870   3.866   0.158  1.00  0.00     0.029 A 
ATOM     37  N   UNL     1      -2.685   1.788   0.135  1.00  0.00    -0.354 N 
ATOM     38  C   UNL     1      -4.943   0.255  -3.182  1.00  0.00     0.074 A 
ATOM     39  C   UNL     1      -4.826   1.123  -4.332  1.00  0.00     0.031 C 
ATOM     40  C   UNL     1      -1.500   3.278   1.304  1.00  0.00     0.029 A 
ATOM     41  C   UNL     1      -2.063   1.934   1.353  1.00  0.00     0.049 A 
ATOM     42  H   UNL     1      -3.142   0.961  -0.140  1.00  0.00     0.167 HD
ATOM     43  C   UNL     1      -5.605  -0.929  -3.185  1.00  0.00     0.037 A 
ATOM     44  C   UNL     1      -1.979   1.105   2.411  1.00  0.00     0.037 A 
ATOM     45  C   UNL     1      -5.632  -1.850  -2.075  1.00  0.00     0.049 A 
ATOM     46  C   UNL     1      -2.672  -0.228   2.367  1.00  0.00     0.074 A 
ATOM     47  C   UNL     1      -6.262  -3.081  -1.992  1.00  0.00     0.029 A 
ATOM     48  N   UNL     1      -4.968  -1.663  -0.873  1.00  0.00    -0.354 N 
ATOM     49  N   UNL     1      -3.383  -0.754   1.400  1.00  0.00    -0.248 NA
ATOM     50  C   UNL     1      -2.566  -1.070   3.566  1.00  0.00     0.031 C 
ATOM     51  C   UNL     1      -5.997  -3.629  -0.732  1.00  0.00     0.029 A 
ATOM     52  C   UNL     1      -5.170  -2.756  -0.046  1.00  0.00     0.049 A 
ATOM     53  H   UNL     1      -4.433  -0.870  -0.641  1.00  0.00     0.167 HD
ATOM     54  C   UNL     1      -3.804  -1.992   1.872  1.00  0.00     0.074 A 
ATOM     55  C   UNL     1      -3.244  -2.149   3.198  1.00  0.00     0.031 C 
ATOM     56  C   UNL     1      -4.597  -2.910   1.266  1.00  0.00     0.037 A 
BRANCH  43  57
ATOM     57  C   UNL     1      -6.387  -1.301  -4.418  1.00  0.00     0.058 A 
ATOM     58  C   UNL     1      -5.766  -1.723  -5.603  1.00  0.00     0.135 A 
ATOM     59  C   UNL     1      -7.793  -1.290  -4.386  1.00  0.00     0.135 A 
ATOM     60  F   UNL     1      -4.427  -1.738  -5.695  1.00  0.00    -0.206 F 
ATOM     61  C   UNL     1      -6.508  -2.102  -6.718  1.00  0.00     0.059 A 
ATOM     62  C   UNL     1      -8.555  -1.689  -5.480  1.00  0.00     0.059 A 
ATOM     63  F   UNL     1      -8.441  -0.897  -3.278  1.00  0.00    -0.206 F 
ATOM     64  C   UNL     1      -7.903  -2.082  -6.647  1.00  0.00     0.060 A 
BRANCH  64  65
ATOM     65  S   UNL     1      -8.854  -2.594  -8.095  1.00  0.00     0.124 S 
ATOM     66  O   UNL     1      -8.702  -1.434  -8.967  1.00  0.00    -0.237 OA
ATOM     67  O   UNL     1      -8.155  -3.802  -8.520  1.00  0.00    -0.237 OA
ATOM     68  O   UNL     1     -10.197  -2.805  -7.561  1.00  0.00    -0.744 OA
ENDBRANCH  64  65
ENDBRANCH  43  57
BRANCH  44  69
ATOM     69  C   UNL     1      -1.233   1.526   3.627  1.00  0.00     0.058 A 
ATOM     70  C   UNL     1      -0.026   0.907   3.983  1.00  0.00     0.135 A 
ATOM     71  C   UNL     1      -1.709   2.558   4.451  1.00  0.00     0.135 A 
ATOM     72  F   UNL     1       0.467  -0.086   3.226  1.00  0.00    -0.206 F 
ATOM     73  C   UNL     1       0.674   1.282   5.125  1.00  0.00     0.059 A 
ATOM     74  C   UNL     1      -1.010   2.974   5.578  1.00  0.00     0.059 A 
ATOM     75  F   UNL     1      -2.850   3.194   4.142  1.00  0.00    -0.206 F 
ATOM     76  C   UNL     1       0.174   2.319   5.915  1.00  0.00     0.060 A 
BRANCH  76  77
ATOM     77  S   UNL     1       1.114   2.844   7.364  1.00  0.00     0.124 S 
ATOM     78  O   UNL     1       0.750   1.819   8.335  1.00  0.00    -0.237 OA
ATOM     79  O   UNL     1       2.488   2.801   6.874  1.00  0.00    -0.237 OA
ATOM     80  O   UNL     1       0.594   4.182   7.629  1.00  0.00    -0.744 OA
ENDBRANCH  76  77
ENDBRANCH  44  69
BRANCH  56  81
ATOM     81  C   UNL     1      -4.866  -4.184   2.016  1.00  0.00     0.058 A 
ATOM     82  C   UNL     1      -5.728  -4.220   3.124  1.00  0.00     0.135 A 
ATOM     83  C   UNL     1      -4.257  -5.385   1.618  1.00  0.00     0.135 A 
ATOM     84  F   UNL     1      -6.331  -3.098   3.547  1.00  0.00    -0.206 F 
ATOM     85  C   UNL     1      -5.945  -5.395   3.836  1.00  0.00     0.059 A 
ATOM     86  C   UNL     1      -4.479  -6.576   2.301  1.00  0.00     0.059 A 
ATOM     87  F   UNL     1      -3.433  -5.406   0.558  1.00  0.00    -0.206 F 
ATOM     88  C   UNL     1      -5.309  -6.567   3.422  1.00  0.00     0.060 A 
BRANCH  88  89
ATOM     89  S   UNL     1      -5.587  -8.085   4.358  1.00  0.00     0.124 S 
ATOM     90  O   UNL     1      -4.730  -7.873   5.520  1.00  0.00    -0.237 OA
ATOM     91  O   UNL     1      -7.023  -8.042   4.612  1.00  0.00    -0.237 OA
ATOM     92  O   UNL     1      -5.151  -9.133   3.439  1.00  0.00    -0.744 OA
ENDBRANCH  88  89
ENDBRANCH  56  81
ENDBRANCH  30  31
ENDBRANCH  23  25
ENDBRANCH  22  23
ENDBRANCH   1  22
TORSDOF 16
