REMARK SMILES C#CCN(CC(=O)OCCOC(=O)c1ccc(-c2c3nc(c(-c4c(F)cc(S(=O)(=O)[O-])cc4F)c4ccc([nH]4)c(-c4c(F)cc(S(=O)(=O)[O-])cc4F)c4nc(c(-c5c(F)cc(S(=O)(=O)[O-])cc5F)c5ccc2[nH]5)C=C4)C=C3)cc1)c1ncccc1C(=O)OCC
REMARK SMILES IDX 9 1 8 2 6 3 7 4 5 5 4 6 3 7 2 8 1 9 80 10 81 11 85 12 82 13
REMARK SMILES IDX 84 14 83 15 86 16 87 17 88 18 89 19 90 20 10 21 11 22 12 23
REMARK SMILES IDX 13 24 14 25 15 26 79 27 16 28 78 29 17 30 18 31 19 32 72 33
REMARK SMILES IDX 20 34 77 35 71 36 73 37 21 38 76 39 70 40 69 41 22 43 56 44
REMARK SMILES IDX 35 45 55 46 36 47 39 48 54 49 74 50 37 51 38 52 53 54 75 55
REMARK SMILES IDX 40 56 23 57 24 58 33 59 25 60 26 61 32 62 34 63 27 64 28 65
REMARK SMILES IDX 29 66 30 67 31 68 57 69 58 70 67 71 59 72 60 73 66 74 68 75
REMARK SMILES IDX 61 76 62 77 63 78 64 79 65 80 41 81 42 82 51 83 43 84 44 85
REMARK SMILES IDX 50 86 52 87 45 88 46 89 47 90 48 91 49 92
REMARK H PARENT 73 42 39 53
REMARK Flexibility Score: inf
ROOT
ATOM      1  C   UNL     1      -6.223  -1.706   0.560  1.00  0.00     0.274 C 
ENDROOT
BRANCH   1   2
ATOM      2  O   UNL     1      -4.798  -1.506   0.530  1.00  0.00    -0.461 OA
BRANCH   2   3
ATOM      3  C   UNL     1      -4.227  -1.120   1.701  1.00  0.00     0.325 C 
ATOM      4  O   UNL     1      -4.863  -0.696   2.664  1.00  0.00    -0.250 OA
BRANCH   3   5
ATOM      5  C   UNL     1      -2.719  -1.357   1.776  1.00  0.00     0.241 C 
BRANCH   5   6
ATOM      6  N   UNL     1      -2.004  -1.276   0.512  1.00  0.00    -0.334 N 
BRANCH   6   7
ATOM      7  C   UNL     1      -1.757   0.075   0.004  1.00  0.00     0.208 C 
BRANCH   7   8
ATOM      8  C   UNL     1      -0.237   0.075   0.004  1.00  0.00    -0.085 C 
ATOM      9  C   UNL     1       1.066   0.075   0.004  1.00  0.00     0.006 C 
ENDBRANCH   7   8
ENDBRANCH   6   7
BRANCH   6  10
ATOM     10  C   UNL     1      -1.653  -2.485  -0.073  1.00  0.00     0.144 A 
ATOM     11  N   UNL     1      -2.730  -3.186  -0.510  1.00  0.00    -0.238 NA
ATOM     12  C   UNL     1      -0.378  -3.113  -0.153  1.00  0.00     0.102 A 
ATOM     13  C   UNL     1      -2.583  -4.455  -0.971  1.00  0.00     0.113 A 
ATOM     14  C   UNL     1      -0.272  -4.449  -0.600  1.00  0.00     0.021 A 
ATOM     15  C   UNL     1      -1.389  -5.134  -1.018  1.00  0.00     0.021 A 
BRANCH  12  16
ATOM     16  C   UNL     1       0.965  -2.616   0.226  1.00  0.00     0.341 C 
ATOM     17  O   UNL     1       1.360  -2.445   1.362  1.00  0.00    -0.246 OA
BRANCH  16  18
ATOM     18  O   UNL     1       1.701  -2.527  -0.934  1.00  0.00    -0.462 OA
BRANCH  18  19
ATOM     19  C   UNL     1       3.075  -2.083  -0.861  1.00  0.00     0.230 C 
ATOM     20  C   UNL     1       3.336  -1.059  -1.969  1.00  0.00     0.049 C 
ENDBRANCH  18  19
ENDBRANCH  16  18
ENDBRANCH  12  16
ENDBRANCH   6  10
ENDBRANCH   5   6
ENDBRANCH   3   5
ENDBRANCH   2   3
ENDBRANCH   1   2
BRANCH   1  21
ATOM     21  C   UNL     1      -6.528  -3.184   0.794  1.00  0.00     0.275 C 
BRANCH  21  22
ATOM     22  O   UNL     1      -5.894  -3.614   2.015  1.00  0.00    -0.458 OA
BRANCH  22  23
ATOM     23  C   UNL     1      -5.097  -4.699   1.887  1.00  0.00     0.338 C 
ATOM     24  O   UNL     1      -5.000  -5.419   0.904  1.00  0.00    -0.246 OA
BRANCH  23  25
ATOM     25  C   UNL     1      -4.308  -4.952   3.110  1.00  0.00     0.060 A 
ATOM     26  C   UNL     1      -3.699  -3.928   3.831  1.00  0.00     0.016 A 
ATOM     27  C   UNL     1      -4.037  -6.281   3.438  1.00  0.00     0.016 A 
ATOM     28  C   UNL     1      -2.682  -4.228   4.738  1.00  0.00     0.010 A 
ATOM     29  C   UNL     1      -3.133  -6.581   4.456  1.00  0.00     0.010 A 
ATOM     30  C   UNL     1      -2.409  -5.559   5.087  1.00  0.00    -0.014 A 
BRANCH  30  31
ATOM     31  C   UNL     1      -1.436  -5.887   6.163  1.00  0.00     0.031 A 
ATOM     32  C   UNL     1      -0.271  -6.811   5.908  1.00  0.00     0.074 A 
ATOM     33  C   UNL     1      -1.643  -5.381   7.396  1.00  0.00     0.049 A 
ATOM     34  N   UNL     1       0.557  -7.350   6.768  1.00  0.00    -0.248 NA
ATOM     35  C   UNL     1      -0.011  -7.195   4.511  1.00  0.00     0.031 C 
ATOM     36  C   UNL     1      -2.733  -4.472   7.765  1.00  0.00     0.029 A 
ATOM     37  N   UNL     1      -0.955  -5.557   8.568  1.00  0.00    -0.354 N 
ATOM     38  C   UNL     1       1.418  -8.152   6.025  1.00  0.00     0.074 A 
ATOM     39  C   UNL     1       0.997  -8.049   4.643  1.00  0.00     0.031 C 
ATOM     40  C   UNL     1      -2.615  -4.137   9.056  1.00  0.00     0.029 A 
ATOM     41  C   UNL     1      -1.507  -4.883   9.632  1.00  0.00     0.049 A 
ATOM     42  H   UNL     1      -0.144  -6.111   8.641  1.00  0.00     0.167 HD
ATOM     43  C   UNL     1       2.463  -8.899   6.460  1.00  0.00     0.037 A 
ATOM     44  C   UNL     1      -1.193  -4.898  10.940  1.00  0.00     0.037 A 
ATOM     45  C   UNL     1       2.880  -8.972   7.840  1.00  0.00     0.049 A 
ATOM     46  C   UNL     1      -0.064  -5.772  11.398  1.00  0.00     0.074 A 
ATOM     47  C   UNL     1       3.921  -9.701   8.390  1.00  0.00     0.029 A 
ATOM     48  N   UNL     1       2.286  -8.281   8.887  1.00  0.00    -0.354 N 
ATOM     49  N   UNL     1       0.716  -6.551  10.687  1.00  0.00    -0.248 NA
ATOM     50  C   UNL     1       0.221  -5.779  12.837  1.00  0.00     0.031 C 
ATOM     51  C   UNL     1       3.934  -9.479   9.771  1.00  0.00     0.029 A 
ATOM     52  C   UNL     1       2.932  -8.573  10.078  1.00  0.00     0.049 A 
ATOM     53  H   UNL     1       1.518  -7.671   8.797  1.00  0.00     0.167 HD
ATOM     54  C   UNL     1       1.602  -7.122  11.591  1.00  0.00     0.074 A 
ATOM     55  C   UNL     1       1.273  -6.582  12.895  1.00  0.00     0.031 C 
ATOM     56  C   UNL     1       2.594  -8.017  11.365  1.00  0.00     0.037 A 
BRANCH  43  57
ATOM     57  C   UNL     1       3.234  -9.707   5.447  1.00  0.00     0.058 A 
ATOM     58  C   UNL     1       4.097  -9.101   4.521  1.00  0.00     0.135 A 
ATOM     59  C   UNL     1       3.168 -11.111   5.452  1.00  0.00     0.135 A 
ATOM     60  F   UNL     1       4.193  -7.763   4.461  1.00  0.00    -0.206 F 
ATOM     61  C   UNL     1       4.856  -9.854   3.628  1.00  0.00     0.059 A 
ATOM     62  C   UNL     1       3.936 -11.886   4.585  1.00  0.00     0.059 A 
ATOM     63  F   UNL     1       2.362 -11.747   6.316  1.00  0.00    -0.206 F 
ATOM     64  C   UNL     1       4.771 -11.247   3.669  1.00  0.00     0.060 A 
BRANCH  64  65
ATOM     65  S   UNL     1       5.778 -12.208   2.518  1.00  0.00     0.124 S 
ATOM     66  O   UNL     1       5.103 -11.945   1.250  1.00  0.00    -0.237 OA
ATOM     67  O   UNL     1       7.095 -11.600   2.671  1.00  0.00    -0.237 OA
ATOM     68  O   UNL     1       5.660 -13.574   3.018  1.00  0.00    -0.744 OA
ENDBRANCH  64  65
ENDBRANCH  43  57
BRANCH  44  69
ATOM     69  C   UNL     1      -1.980  -4.087  11.905  1.00  0.00     0.058 A 
ATOM     70  C   UNL     1      -1.399  -3.000  12.572  1.00  0.00     0.135 A 
ATOM     71  C   UNL     1      -3.325  -4.382  12.181  1.00  0.00     0.135 A 
ATOM     72  F   UNL     1      -0.117  -2.679  12.341  1.00  0.00    -0.206 F 
ATOM     73  C   UNL     1      -2.110  -2.254  13.505  1.00  0.00     0.059 A 
ATOM     74  C   UNL     1      -4.068  -3.629  13.083  1.00  0.00     0.059 A 
ATOM     75  F   UNL     1      -3.937  -5.396  11.550  1.00  0.00    -0.206 F 
ATOM     76  C   UNL     1      -3.444  -2.580  13.757  1.00  0.00     0.060 A 
BRANCH  76  77
ATOM     77  S   UNL     1      -4.362  -1.607  14.968  1.00  0.00     0.124 S 
ATOM     78  O   UNL     1      -3.813  -2.110  16.221  1.00  0.00    -0.237 OA
ATOM     79  O   UNL     1      -3.993  -0.241  14.611  1.00  0.00    -0.237 OA
ATOM     80  O   UNL     1      -5.752  -1.963  14.699  1.00  0.00    -0.744 OA
ENDBRANCH  76  77
ENDBRANCH  44  69
BRANCH  56  81
ATOM     81  C   UNL     1       3.419  -8.424  12.553  1.00  0.00     0.058 A 
ATOM     82  C   UNL     1       2.903  -9.252  13.562  1.00  0.00     0.135 A 
ATOM     83  C   UNL     1       4.744  -7.977  12.682  1.00  0.00     0.135 A 
ATOM     84  F   UNL     1       1.638  -9.696  13.491  1.00  0.00    -0.206 F 
ATOM     85  C   UNL     1       3.658  -9.589  14.680  1.00  0.00     0.059 A 
ATOM     86  C   UNL     1       5.527  -8.328  13.776  1.00  0.00     0.059 A 
ATOM     87  F   UNL     1       5.288  -7.190  11.741  1.00  0.00    -0.206 F 
ATOM     88  C   UNL     1       4.969  -9.120  14.779  1.00  0.00     0.060 A 
BRANCH  88  89
ATOM     89  S   UNL     1       5.942  -9.571  16.230  1.00  0.00     0.124 S 
ATOM     90  O   UNL     1       5.359  -8.710  17.254  1.00  0.00    -0.237 OA
ATOM     91  O   UNL     1       5.661 -10.997  16.365  1.00  0.00    -0.237 OA
ATOM     92  O   UNL     1       7.309  -9.242  15.838  1.00  0.00    -0.744 OA
ENDBRANCH  88  89
ENDBRANCH  56  81
ENDBRANCH  30  31
ENDBRANCH  23  25
ENDBRANCH  22  23
ENDBRANCH  21  22
ENDBRANCH   1  21
TORSDOF 21
