REMARK SMILES CSCc1ccc(C(=O)Nc2cc(C)c(C(=O)OCCOC(=O)c3ccc(-c4c5nc(c(-c6c(F)cc(S(=O)(=O)[O-])cc6F)c6ccc([nH]6)c(-c6c(F)cc(S(=O)(=O)[O-])cc6F)c6nc(c(-c7c(F)cc(S(=O)(=O)[O-])cc7F)c7ccc4[nH]7)C=C6)C=C5)cc3)s2)cc1
REMARK SMILES IDX 19 1 18 2 16 3 17 4 15 5 11 6 12 7 90 8 13 9 14 10 10 11
REMARK SMILES IDX 8 12 9 13 7 15 4 16 5 17 92 18 6 19 91 20 3 21 2 22 1 23
REMARK SMILES IDX 20 24 21 25 22 26 23 27 24 28 25 29 89 30 26 31 88 32 27 33
REMARK SMILES IDX 28 34 29 35 82 36 30 37 87 38 81 39 83 40 31 41 86 42 80 43
REMARK SMILES IDX 79 44 32 46 66 47 45 48 65 49 46 50 49 51 64 52 84 53 47 54
REMARK SMILES IDX 48 55 63 57 85 58 50 59 33 60 34 61 43 62 35 63 36 64 42 65
REMARK SMILES IDX 44 66 37 67 38 68 39 69 40 70 41 71 67 72 68 73 77 74 69 75
REMARK SMILES IDX 70 76 76 77 78 78 71 79 72 80 73 81 74 82 75 83 51 84 52 85
REMARK SMILES IDX 61 86 53 87 54 88 60 89 62 90 55 91 56 92 57 93 58 94 59 95
REMARK H PARENT 10 14 83 45 49 56
REMARK Flexibility Score: inf
ROOT
ATOM      1  C   UNL     1       2.021  -4.831   2.559  1.00  0.00     0.275 C 
ENDROOT
BRANCH   1   2
ATOM      2  O   UNL     1       1.084  -4.128   3.403  1.00  0.00    -0.458 OA
BRANCH   2   3
ATOM      3  C   UNL     1       1.607  -3.240   4.304  1.00  0.00     0.348 C 
ATOM      4  O   UNL     1       2.808  -3.050   4.430  1.00  0.00    -0.245 OA
BRANCH   3   5
ATOM      5  C   UNL     1       0.550  -2.531   5.027  1.00  0.00     0.117 A 
ATOM      6  C   UNL     1      -0.610  -0.648   6.127  1.00  0.00     0.096 A 
ATOM      7  C   UNL     1      -1.435  -1.732   5.984  1.00  0.00     0.042 A 
ATOM      8  S   UNL     1       0.997  -1.035   5.787  1.00  0.00    -0.111 S 
ATOM      9  C   UNL     1      -0.802  -2.801   5.246  1.00  0.00    -0.023 A 
ATOM     10  C   UNL     1      -1.586  -3.995   4.802  1.00  0.00     0.046 C 
BRANCH   6  11
ATOM     11  N   UNL     1      -0.913   0.596   6.613  1.00  0.00    -0.314 N 
ATOM     12  C   UNL     1      -0.733   1.825   5.997  1.00  0.00     0.256 C 
ATOM     13  O   UNL     1      -0.881   2.835   6.691  1.00  0.00    -0.269 OA
ATOM     14  H   UNL     1      -1.309   0.621   7.514  1.00  0.00     0.171 HD
BRANCH  12  15
ATOM     15  C   UNL     1      -0.541   1.999   4.516  1.00  0.00     0.040 A 
ATOM     16  C   UNL     1      -0.310   2.468   1.712  1.00  0.00    -0.038 A 
ATOM     17  C   UNL     1      -0.085   3.499   2.638  1.00  0.00     0.005 A 
ATOM     18  C   UNL     1      -0.664   1.217   2.213  1.00  0.00     0.005 A 
ATOM     19  C   UNL     1      -0.201   3.268   4.021  1.00  0.00     0.014 A 
ATOM     20  C   UNL     1      -0.809   0.998   3.583  1.00  0.00     0.014 A 
BRANCH  16  21
ATOM     21  C   UNL     1      -0.046   2.700   0.244  1.00  0.00     0.104 C 
BRANCH  21  22
ATOM     22  S   UNL     1      -1.033   1.738  -0.947  1.00  0.00    -0.161 SA
ATOM     23  C   UNL     1       0.074   0.322  -1.182  1.00  0.00     0.085 C 
ENDBRANCH  21  22
ENDBRANCH  16  21
ENDBRANCH  12  15
ENDBRANCH   6  11
ENDBRANCH   3   5
ENDBRANCH   2   3
ENDBRANCH   1   2
BRANCH   1  24
ATOM     24  C   UNL     1       2.091  -4.249   1.140  1.00  0.00     0.275 C 
BRANCH  24  25
ATOM     25  O   UNL     1       2.778  -2.983   1.098  1.00  0.00    -0.458 OA
BRANCH  25  26
ATOM     26  C   UNL     1       1.976  -1.919   1.322  1.00  0.00     0.338 C 
ATOM     27  O   UNL     1       0.770  -1.953   1.517  1.00  0.00    -0.246 OA
BRANCH  26  28
ATOM     28  C   UNL     1       2.745  -0.667   1.429  1.00  0.00     0.060 A 
ATOM     29  C   UNL     1       2.519   0.093   2.571  1.00  0.00     0.016 A 
ATOM     30  C   UNL     1       3.549  -0.163   0.407  1.00  0.00     0.016 A 
ATOM     31  C   UNL     1       3.033   1.376   2.688  1.00  0.00     0.010 A 
ATOM     32  C   UNL     1       4.099   1.124   0.537  1.00  0.00     0.010 A 
ATOM     33  C   UNL     1       3.824   1.915   1.667  1.00  0.00    -0.014 A 
BRANCH  33  34
ATOM     34  C   UNL     1       4.371   3.284   1.850  1.00  0.00     0.031 A 
ATOM     35  C   UNL     1       3.855   4.451   1.055  1.00  0.00     0.074 A 
ATOM     36  C   UNL     1       5.280   3.488   2.822  1.00  0.00     0.049 A 
ATOM     37  N   UNL     1       3.995   5.732   1.285  1.00  0.00    -0.248 NA
ATOM     38  C   UNL     1       3.034   4.154  -0.124  1.00  0.00     0.031 C 
ATOM     39  C   UNL     1       5.834   2.449   3.695  1.00  0.00     0.029 A 
ATOM     40  N   UNL     1       5.902   4.636   3.236  1.00  0.00    -0.354 N 
ATOM     41  C   UNL     1       3.192   6.378   0.352  1.00  0.00     0.074 A 
ATOM     42  C   UNL     1       2.588   5.354  -0.469  1.00  0.00     0.031 C 
ATOM     43  C   UNL     1       6.728   3.005   4.525  1.00  0.00     0.029 A 
ATOM     44  C   UNL     1       6.843   4.425   4.214  1.00  0.00     0.049 A 
ATOM     45  H   UNL     1       5.695   5.526   2.869  1.00  0.00     0.167 HD
ATOM     46  C   UNL     1       3.011   7.706   0.163  1.00  0.00     0.037 A 
ATOM     47  C   UNL     1       7.729   5.276   4.763  1.00  0.00     0.037 A 
ATOM     48  C   UNL     1       3.828   8.712   0.788  1.00  0.00     0.049 A 
ATOM     49  C   UNL     1       7.700   6.718   4.338  1.00  0.00     0.074 A 
ATOM     50  C   UNL     1       3.836  10.078   0.565  1.00  0.00     0.029 A 
ATOM     51  N   UNL     1       4.853   8.447   1.685  1.00  0.00    -0.354 N 
ATOM     52  N   UNL     1       6.857   7.324   3.534  1.00  0.00    -0.248 NA
ATOM     53  C   UNL     1       8.740   7.593   4.891  1.00  0.00     0.031 C 
ATOM     54  C   UNL     1       4.938  10.618   1.238  1.00  0.00     0.029 A 
ATOM     55  C   UNL     1       5.555   9.608   1.959  1.00  0.00     0.049 A 
ATOM     56  H   UNL     1       5.052   7.563   2.070  1.00  0.00     0.167 HD
ATOM     57  C   UNL     1       7.248   8.658   3.509  1.00  0.00     0.074 A 
ATOM     58  C   UNL     1       8.396   8.769   4.386  1.00  0.00     0.031 C 
ATOM     59  C   UNL     1       6.703   9.697   2.828  1.00  0.00     0.037 A 
BRANCH  46  60
ATOM     60  C   UNL     1       1.975   8.138  -0.838  1.00  0.00     0.058 A 
ATOM     61  C   UNL     1       0.604   8.093  -0.536  1.00  0.00     0.135 A 
ATOM     62  C   UNL     1       2.352   8.647  -2.090  1.00  0.00     0.135 A 
ATOM     63  F   UNL     1       0.185   7.592   0.637  1.00  0.00    -0.206 F 
ATOM     64  C   UNL     1      -0.356   8.545  -1.440  1.00  0.00     0.059 A 
ATOM     65  C   UNL     1       1.412   9.117  -3.003  1.00  0.00     0.059 A 
ATOM     66  F   UNL     1       3.648   8.693  -2.436  1.00  0.00    -0.206 F 
ATOM     67  C   UNL     1       0.060   9.059  -2.670  1.00  0.00     0.060 A 
BRANCH  67  68
ATOM     68  S   UNL     1      -1.193   9.656  -3.827  1.00  0.00     0.124 S 
ATOM     69  O   UNL     1      -1.872   8.416  -4.191  1.00  0.00    -0.237 OA
ATOM     70  O   UNL     1      -1.962  10.582  -3.002  1.00  0.00    -0.237 OA
ATOM     71  O   UNL     1      -0.409  10.272  -4.893  1.00  0.00    -0.744 OA
ENDBRANCH  67  68
ENDBRANCH  46  60
BRANCH  47  72
ATOM     72  C   UNL     1       8.751   4.768   5.716  1.00  0.00     0.058 A 
ATOM     73  C   UNL     1       8.777   5.183   7.054  1.00  0.00     0.135 A 
ATOM     74  C   UNL     1       9.735   3.856   5.295  1.00  0.00     0.135 A 
ATOM     75  F   UNL     1       7.865   6.058   7.503  1.00  0.00    -0.206 F 
ATOM     76  C   UNL     1       9.754   4.731   7.936  1.00  0.00     0.059 A 
ATOM     77  C   UNL     1      10.700   3.366   6.165  1.00  0.00     0.059 A 
ATOM     78  F   UNL     1       9.751   3.419   4.026  1.00  0.00    -0.206 F 
ATOM     79  C   UNL     1      10.712   3.822   7.481  1.00  0.00     0.060 A 
BRANCH  79  80
ATOM     80  S   UNL     1      11.968   3.232   8.636  1.00  0.00     0.124 S 
ATOM     81  O   UNL     1      12.800   4.419   8.793  1.00  0.00    -0.237 OA
ATOM     82  O   UNL     1      11.166   2.855   9.795  1.00  0.00    -0.237 OA
ATOM     83  O   UNL     1      12.586   2.119   7.921  1.00  0.00    -0.744 OA
ENDBRANCH  79  80
ENDBRANCH  47  72
BRANCH  59  84
ATOM     84  C   UNL     1       7.322  11.053   3.026  1.00  0.00     0.058 A 
ATOM     85  C   UNL     1       8.590  11.372   2.516  1.00  0.00     0.135 A 
ATOM     86  C   UNL     1       6.609  12.062   3.693  1.00  0.00     0.135 A 
ATOM     87  F   UNL     1       9.317  10.442   1.875  1.00  0.00    -0.206 F 
ATOM     88  C   UNL     1       9.142  12.637   2.687  1.00  0.00     0.059 A 
ATOM     89  C   UNL     1       7.126  13.344   3.843  1.00  0.00     0.059 A 
ATOM     90  F   UNL     1       5.387  11.813   4.189  1.00  0.00    -0.206 F 
ATOM     91  C   UNL     1       8.400  13.618   3.349  1.00  0.00     0.060 A 
BRANCH  91  92
ATOM     92  S   UNL     1       9.113  15.265   3.531  1.00  0.00     0.124 S 
ATOM     93  O   UNL     1      10.140  15.031   4.540  1.00  0.00    -0.237 OA
ATOM     94  O   UNL     1       9.599  15.545   2.183  1.00  0.00    -0.237 OA
ATOM     95  O   UNL     1       7.981  16.080   3.964  1.00  0.00    -0.744 OA
ENDBRANCH  91  92
ENDBRANCH  59  84
ENDBRANCH  33  34
ENDBRANCH  26  28
ENDBRANCH  25  26
ENDBRANCH  24  25
ENDBRANCH   1  24
TORSDOF 18
