REMARK SMILES O=C(OCCOC(=O)[C@@H]1[C@H](C(=O)NCc2ccncc2)[C@H]2C=C[C@@H]1O2)c1ccc(-c2c3nc(c(-c4c(F)cc(S(=O)(=O)[O-])cc4F)c4ccc([nH]4)c(-c4c(F)cc(S(=O)(=O)[O-])cc4F)c4nc(c(-c5c(F)cc(S(=O)(=O)[O-])cc5F)c5ccc2[nH]5)C=C4)C=C3)cc1
REMARK SMILES IDX 4 1 3 2 2 3 1 4 26 5 27 6 91 7 28 8 90 9 29 10 30 11 31 12
REMARK SMILES IDX 84 13 32 14 89 15 83 16 85 17 33 18 88 19 82 20 81 21 34 23
REMARK SMILES IDX 68 24 47 25 67 26 48 27 51 28 66 29 86 30 49 31 50 32 65 34
REMARK SMILES IDX 87 35 52 36 35 37 36 38 45 39 37 40 38 41 44 42 46 43 39 44
REMARK SMILES IDX 40 45 41 46 42 47 43 48 69 49 70 50 79 51 71 52 72 53 78 54
REMARK SMILES IDX 80 55 73 56 74 57 75 58 76 59 77 60 53 61 54 62 63 63 55 64
REMARK SMILES IDX 56 65 62 66 64 67 57 68 58 69 59 70 60 71 61 72 5 73 6 74
REMARK SMILES IDX 7 75 8 76 9 77 10 78 24 79 21 80 23 81 25 82 22 83 11 84
REMARK SMILES IDX 12 85 13 86 14 88 15 89 16 90 20 91 17 92 19 93 18 94
REMARK H PARENT 85 22 51 33 13 87
REMARK Flexibility Score: inf
ROOT
ATOM      1  C   UNL     1       4.124  -1.825   0.580  1.00  0.00     0.275 C 
ENDROOT
BRANCH   1   2
ATOM      2  O   UNL     1       2.708  -1.613   0.529  1.00  0.00    -0.458 OA
BRANCH   2   3
ATOM      3  C   UNL     1       2.059  -0.763  -0.296  1.00  0.00     0.338 C 
ATOM      4  O   UNL     1       0.855  -0.844  -0.503  1.00  0.00    -0.246 OA
BRANCH   3   5
ATOM      5  C   UNL     1       2.797   0.254  -1.041  1.00  0.00     0.060 A 
ATOM      6  C   UNL     1       4.478  -0.090  -1.654  1.00  0.00     0.016 A 
ATOM      7  C   UNL     1       2.012   1.826  -1.639  1.00  0.00     0.016 A 
ATOM      8  C   UNL     1       5.253   0.848  -2.864  1.00  0.00     0.010 A 
ATOM      9  C   UNL     1       2.950   2.834  -2.850  1.00  0.00     0.010 A 
ATOM     10  C   UNL     1       4.504   2.259  -3.506  1.00  0.00    -0.014 A 
BRANCH  10  11
ATOM     11  C   UNL     1       5.114   2.626  -4.835  1.00  0.00     0.031 A 
ATOM     12  C   UNL     1       5.796   3.937  -4.886  1.00  0.00     0.074 A 
ATOM     13  C   UNL     1       5.176   1.770  -5.900  1.00  0.00     0.049 A 
ATOM     14  N   UNL     1       6.344   4.543  -5.896  1.00  0.00    -0.248 NA
ATOM     15  C   UNL     1       5.885   4.654  -3.607  1.00  0.00     0.031 C 
ATOM     16  C   UNL     1       4.772   0.356  -5.922  1.00  0.00     0.029 A 
ATOM     17  N   UNL     1       5.601   1.941  -7.204  1.00  0.00    -0.354 N 
ATOM     18  C   UNL     1       6.825   5.732  -5.376  1.00  0.00     0.074 A 
ATOM     19  C   UNL     1       6.447   5.786  -3.983  1.00  0.00     0.031 C 
ATOM     20  C   UNL     1       4.814  -0.151  -7.159  1.00  0.00     0.029 A 
ATOM     21  C   UNL     1       5.327   0.867  -8.043  1.00  0.00     0.049 A 
ATOM     22  H   UNL     1       6.059   2.756  -7.513  1.00  0.00     0.167 HD
ATOM     23  C   UNL     1       7.539   6.681  -6.015  1.00  0.00     0.037 A 
ATOM     24  C   UNL     1       5.478   0.698  -9.374  1.00  0.00     0.037 A 
ATOM     25  C   UNL     1       7.861   6.590  -7.409  1.00  0.00     0.049 A 
ATOM     26  C   UNL     1       6.145   1.825 -10.101  1.00  0.00     0.074 A 
ATOM     27  C   UNL     1       8.512   7.508  -8.206  1.00  0.00     0.029 A 
ATOM     28  N   UNL     1       7.524   5.509  -8.220  1.00  0.00    -0.354 N 
ATOM     29  N   UNL     1       6.571   2.962  -9.599  1.00  0.00    -0.248 NA
ATOM     30  C   UNL     1       6.383   1.664 -11.537  1.00  0.00     0.031 C 
ATOM     31  C   UNL     1       8.486   7.022  -9.516  1.00  0.00     0.029 A 
ATOM     32  C   UNL     1       7.913   5.755  -9.521  1.00  0.00     0.049 A 
ATOM     33  H   UNL     1       7.075   4.689  -7.910  1.00  0.00     0.167 HD
ATOM     34  C   UNL     1       7.159   3.643 -10.648  1.00  0.00     0.074 A 
ATOM     35  C   UNL     1       7.032   2.788 -11.816  1.00  0.00     0.031 C 
ATOM     36  C   UNL     1       7.760   4.857 -10.645  1.00  0.00     0.037 A 
BRANCH  23  37
ATOM     37  C   UNL     1       7.872   7.900  -5.207  1.00  0.00     0.058 A 
ATOM     38  C   UNL     1       8.721   7.846  -4.087  1.00  0.00     0.135 A 
ATOM     39  C   UNL     1       7.198   9.102  -5.463  1.00  0.00     0.135 A 
ATOM     40  F   UNL     1       9.348   6.702  -3.765  1.00  0.00    -0.206 F 
ATOM     41  C   UNL     1       8.835   8.921  -3.213  1.00  0.00     0.059 A 
ATOM     42  C   UNL     1       7.333  10.204  -4.628  1.00  0.00     0.059 A 
ATOM     43  F   UNL     1       6.354   9.198  -6.502  1.00  0.00    -0.206 F 
ATOM     44  C   UNL     1       8.133  10.095  -3.491  1.00  0.00     0.060 A 
BRANCH  44  45
ATOM     45  S   UNL     1       8.273  11.473  -2.338  1.00  0.00     0.124 S 
ATOM     46  O   UNL     1       7.529  10.971  -1.187  1.00  0.00    -0.237 OA
ATOM     47  O   UNL     1       9.718  11.580  -2.162  1.00  0.00    -0.237 OA
ATOM     48  O   UNL     1       7.648  12.580  -3.055  1.00  0.00    -0.744 OA
ENDBRANCH  44  45
ENDBRANCH  23  37
BRANCH  24  49
ATOM     49  C   UNL     1       5.000  -0.544 -10.071  1.00  0.00     0.058 A 
ATOM     50  C   UNL     1       5.879  -1.471 -10.655  1.00  0.00     0.135 A 
ATOM     51  C   UNL     1       3.626  -0.845 -10.144  1.00  0.00     0.135 A 
ATOM     52  F   UNL     1       7.202  -1.247 -10.628  1.00  0.00    -0.206 F 
ATOM     53  C   UNL     1       5.423  -2.636 -11.281  1.00  0.00     0.059 A 
ATOM     54  C   UNL     1       3.146  -2.011 -10.745  1.00  0.00     0.059 A 
ATOM     55  F   UNL     1       2.728  -0.008  -9.601  1.00  0.00    -0.206 F 
ATOM     56  C   UNL     1       4.053  -2.902 -11.314  1.00  0.00     0.060 A 
BRANCH  56  57
ATOM     57  S   UNL     1       3.478  -4.444 -12.070  1.00  0.00     0.124 S 
ATOM     58  O   UNL     1       3.819  -4.235 -13.473  1.00  0.00    -0.237 OA
ATOM     59  O   UNL     1       4.273  -5.443 -11.363  1.00  0.00    -0.237 OA
ATOM     60  O   UNL     1       2.050  -4.458 -11.766  1.00  0.00    -0.744 OA
ENDBRANCH  56  57
ENDBRANCH  24  49
BRANCH  36  61
ATOM     61  C   UNL     1       8.362   5.317 -11.934  1.00  0.00     0.058 A 
ATOM     62  C   UNL     1       7.569   5.761 -12.999  1.00  0.00     0.135 A 
ATOM     63  C   UNL     1       9.756   5.449 -12.032  1.00  0.00     0.135 A 
ATOM     64  F   UNL     1       6.232   5.639 -12.948  1.00  0.00    -0.206 F 
ATOM     65  C   UNL     1       8.141   6.336 -14.123  1.00  0.00     0.059 A 
ATOM     66  C   UNL     1      10.346   6.058 -13.128  1.00  0.00     0.059 A 
ATOM     67  F   UNL     1      10.549   5.041 -11.027  1.00  0.00    -0.206 F 
ATOM     68  C   UNL     1       9.528   6.499 -14.167  1.00  0.00     0.060 A 
BRANCH  68  69
ATOM     69  S   UNL     1      10.245   7.349 -15.584  1.00  0.00     0.124 S 
ATOM     70  O   UNL     1      10.033   6.373 -16.648  1.00  0.00    -0.237 OA
ATOM     71  O   UNL     1       9.433   8.559 -15.659  1.00  0.00    -0.237 OA
ATOM     72  O   UNL     1      11.636   7.556 -15.189  1.00  0.00    -0.744 OA
ENDBRANCH  68  69
ENDBRANCH  36  61
ENDBRANCH  10  11
ENDBRANCH   3   5
ENDBRANCH   2   3
ENDBRANCH   1   2
BRANCH   1  73
ATOM     73  C   UNL     1       4.479  -2.888  -0.493  1.00  0.00     0.274 C 
BRANCH  73  74
ATOM     74  O   UNL     1       4.153  -2.501  -1.879  1.00  0.00    -0.462 OA
BRANCH  74  75
ATOM     75  C   UNL     1       2.855  -2.353  -2.275  1.00  0.00     0.312 C 
ATOM     76  O   UNL     1       2.000  -3.166  -1.951  1.00  0.00    -0.252 OA
BRANCH  75  77
ATOM     77  C   UNL     1       2.609  -1.088  -3.194  1.00  0.00     0.147 C 
ATOM     78  C   UNL     1       3.012   0.702  -2.968  1.00  0.00     0.128 C 
ATOM     79  C   UNL     1       1.095  -1.062  -3.622  1.00  0.00     0.157 C 
ATOM     80  C   UNL     1       1.450   1.085  -3.780  1.00  0.00     0.155 C 
ATOM     81  C   UNL     1       0.977  -0.712  -5.072  1.00  0.00     0.004 C 
ATOM     82  O   UNL     1       0.574   0.168  -3.087  1.00  0.00    -0.365 OA
ATOM     83  C   UNL     1       1.275   0.585  -5.176  1.00  0.00     0.004 C 
BRANCH  78  84
ATOM     84  C   UNL     1       3.964   1.850  -1.340  1.00  0.00     0.227 C 
ATOM     85  O   UNL     1       5.060   2.481  -1.261  1.00  0.00    -0.275 OA
ATOM     86  N   UNL     1       3.500   2.025   0.198  1.00  0.00    -0.352 N 
ATOM     87  H   UNL     1       4.288   2.207   0.760  1.00  0.00     0.163 HD
BRANCH  86  88
ATOM     88  C   UNL     1       2.189   2.000   1.108  1.00  0.00     0.151 C 
BRANCH  88  89
ATOM     89  C   UNL     1       1.982   0.880   2.147  1.00  0.00    -0.026 A 
ATOM     90  C   UNL     1       0.871   0.005   2.079  1.00  0.00     0.025 A 
ATOM     91  C   UNL     1       2.858   0.651   3.200  1.00  0.00     0.025 A 
ATOM     92  C   UNL     1       0.885  -1.198   2.788  1.00  0.00     0.111 A 
ATOM     93  C   UNL     1       2.713  -0.513   3.962  1.00  0.00     0.111 A 
ATOM     94  N   UNL     1       1.793  -1.476   3.738  1.00  0.00    -0.265 NA
ENDBRANCH  88  89
ENDBRANCH  86  88
ENDBRANCH  78  84
ENDBRANCH  75  77
ENDBRANCH  74  75
ENDBRANCH  73  74
ENDBRANCH   1  73
TORSDOF 17
