REMARK SMILES Cc1c(CC(=O)OCCOC(=O)c2ccc(-c3c4nc(c(-c5c(F)cc(S(=O)(=O)[O-])cc5F)c5ccc([nH]5)c(-c5c(F)cc(S(=O)(=O)[O-])cc5F)c5nc(c(-c6c(F)cc(S(=O)(=O)[O-])cc6F)c6ccc3[nH]6)C=C5)C=C4)cc2)c(O)oc2cc(=O)cc(O)c1-2
REMARK SMILES IDX 9 1 8 2 7 3 5 4 6 5 4 6 3 7 1 8 2 9 89 10 79 11 82 12 87 13
REMARK SMILES IDX 81 14 83 15 86 16 84 17 85 18 80 19 88 21 10 23 11 24 12 25
REMARK SMILES IDX 13 26 14 27 78 28 15 29 77 30 16 31 17 32 18 33 71 34 19 35
REMARK SMILES IDX 76 36 70 37 72 38 20 39 75 40 69 41 68 42 21 44 55 45 34 46
REMARK SMILES IDX 54 47 35 48 38 49 53 50 73 51 36 52 37 53 52 55 74 56 39 57
REMARK SMILES IDX 22 58 23 59 32 60 24 61 25 62 31 63 33 64 26 65 27 66 28 67
REMARK SMILES IDX 29 68 30 69 56 70 57 71 66 72 58 73 59 74 65 75 67 76 60 77
REMARK SMILES IDX 61 78 62 79 63 80 64 81 40 82 41 83 50 84 42 85 43 86 49 87
REMARK SMILES IDX 51 88 44 89 45 90 46 91 47 92 48 93
REMARK H PARENT 80 20 88 22 72 43 38 54
REMARK Flexibility Score: inf
ROOT
ATOM      1  C   UNL     1      -2.917   1.314   0.957  1.00  0.00     0.275 C 
ENDROOT
BRANCH   1   2
ATOM      2  C   UNL     1      -3.414   0.607  -0.300  1.00  0.00     0.274 C 
BRANCH   2   3
ATOM      3  O   UNL     1      -2.311  -0.026  -0.979  1.00  0.00    -0.462 OA
BRANCH   3   4
ATOM      4  C   UNL     1      -1.871   0.604  -2.099  1.00  0.00     0.310 C 
ATOM      5  O   UNL     1      -2.386   1.610  -2.580  1.00  0.00    -0.252 OA
BRANCH   4   6
ATOM      6  C   UNL     1      -0.619  -0.004  -2.713  1.00  0.00     0.166 C 
BRANCH   6   7
ATOM      7  C   UNL     1      -0.183  -1.358  -2.187  1.00  0.00     0.048 A 
ATOM      8  C   UNL     1       1.708  -0.250  -0.847  1.00  0.00     0.046 C 
ATOM      9  C   UNL     1       0.869  -1.472  -1.149  1.00  0.00    -0.026 A 
ATOM     10  C   UNL     1       1.090  -2.670  -0.539  1.00  0.00     0.063 A 
ATOM     11  C   UNL     1      -0.786  -2.486  -2.625  1.00  0.00     0.286 A 
ATOM     12  C   UNL     1       0.434  -3.866  -1.090  1.00  0.00     0.146 A 
ATOM     13  C   UNL     1       1.968  -2.869   0.633  1.00  0.00     0.130 A 
ATOM     14  O   UNL     1      -0.492  -3.728  -2.107  1.00  0.00    -0.425 OA
ATOM     15  C   UNL     1       0.771  -5.097  -0.687  1.00  0.00     0.100 A 
ATOM     16  C   UNL     1       2.314  -4.095   1.046  1.00  0.00     0.099 A 
ATOM     17  C   UNL     1       1.784  -5.294   0.366  1.00  0.00     0.186 A 
ATOM     18  O   UNL     1       2.140  -6.419   0.697  1.00  0.00    -0.290 OA
BRANCH  11  19
ATOM     19  O   UNL     1      -1.760  -2.473  -3.601  1.00  0.00    -0.480 OA
ATOM     20  H   UNL     1      -2.013  -1.664  -4.001  1.00  0.00     0.297 HD
ENDBRANCH  11  19
BRANCH  13  21
ATOM     21  O   UNL     1       2.336  -1.748   1.348  1.00  0.00    -0.507 OA
ATOM     22  H   UNL     1       2.892  -1.832   2.097  1.00  0.00     0.293 HD
ENDBRANCH  13  21
ENDBRANCH   6   7
ENDBRANCH   4   6
ENDBRANCH   3   4
ENDBRANCH   2   3
ENDBRANCH   1   2
BRANCH   1  23
ATOM     23  O   UNL     1      -1.834   2.194   0.610  1.00  0.00    -0.458 OA
BRANCH  23  24
ATOM     24  C   UNL     1      -0.729   2.090   1.385  1.00  0.00     0.338 C 
ATOM     25  O   UNL     1      -0.607   1.416   2.395  1.00  0.00    -0.246 OA
BRANCH  24  26
ATOM     26  C   UNL     1       0.360   2.934   0.845  1.00  0.00     0.060 A 
ATOM     27  C   UNL     1       0.551   3.099  -0.531  1.00  0.00     0.016 A 
ATOM     28  C   UNL     1       1.269   3.495   1.744  1.00  0.00     0.016 A 
ATOM     29  C   UNL     1       1.683   3.768  -1.003  1.00  0.00     0.010 A 
ATOM     30  C   UNL     1       2.353   4.237   1.270  1.00  0.00     0.010 A 
ATOM     31  C   UNL     1       2.587   4.363  -0.108  1.00  0.00    -0.014 A 
BRANCH  31  32
ATOM     32  C   UNL     1       3.765   5.134  -0.592  1.00  0.00     0.031 A 
ATOM     33  C   UNL     1       5.162   4.716  -0.211  1.00  0.00     0.074 A 
ATOM     34  C   UNL     1       3.582   6.245  -1.334  1.00  0.00     0.049 A 
ATOM     35  N   UNL     1       6.289   5.363  -0.367  1.00  0.00    -0.248 NA
ATOM     36  C   UNL     1       5.311   3.405   0.443  1.00  0.00     0.031 C 
ATOM     37  C   UNL     1       2.287   6.760  -1.786  1.00  0.00     0.029 A 
ATOM     38  N   UNL     1       4.487   7.151  -1.829  1.00  0.00    -0.354 N 
ATOM     39  C   UNL     1       7.272   4.563   0.203  1.00  0.00     0.074 A 
ATOM     40  C   UNL     1       6.610   3.382   0.714  1.00  0.00     0.031 C 
ATOM     41  C   UNL     1       2.482   7.876  -2.504  1.00  0.00     0.029 A 
ATOM     42  C   UNL     1       3.905   8.198  -2.504  1.00  0.00     0.049 A 
ATOM     43  H   UNL     1       5.461   7.060  -1.713  1.00  0.00     0.167 HD
ATOM     44  C   UNL     1       8.605   4.793   0.290  1.00  0.00     0.037 A 
ATOM     45  C   UNL     1       4.442   9.317  -3.027  1.00  0.00     0.037 A 
ATOM     46  C   UNL     1       9.269   5.947  -0.260  1.00  0.00     0.049 A 
ATOM     47  C   UNL     1       5.918   9.561  -2.897  1.00  0.00     0.074 A 
ATOM     48  C   UNL     1      10.622   6.244  -0.253  1.00  0.00     0.029 A 
ATOM     49  N   UNL     1       8.637   6.987  -0.923  1.00  0.00    -0.354 N 
ATOM     50  N   UNL     1       6.828   8.807  -2.330  1.00  0.00    -0.248 NA
ATOM     51  C   UNL     1       6.437  10.816  -3.459  1.00  0.00     0.031 C 
ATOM     52  C   UNL     1      10.804   7.479  -0.885  1.00  0.00     0.029 A 
ATOM     53  C   UNL     1       9.569   7.934  -1.315  1.00  0.00     0.049 A 
ATOM     54  H   UNL     1       7.668   7.045  -1.090  1.00  0.00     0.167 HD
ATOM     55  C   UNL     1       8.027   9.495  -2.466  1.00  0.00     0.074 A 
ATOM     56  C   UNL     1       7.732  10.716  -3.188  1.00  0.00     0.031 C 
ATOM     57  C   UNL     1       9.261   9.148  -2.026  1.00  0.00     0.037 A 
BRANCH  44  58
ATOM     58  C   UNL     1       9.450   3.785   1.015  1.00  0.00     0.058 A 
ATOM     59  C   UNL     1       9.812   2.566   0.423  1.00  0.00     0.135 A 
ATOM     60  C   UNL     1       9.975   4.081   2.284  1.00  0.00     0.135 A 
ATOM     61  F   UNL     1       9.324   2.228  -0.781  1.00  0.00    -0.206 F 
ATOM     62  C   UNL     1      10.662   1.671   1.066  1.00  0.00     0.059 A 
ATOM     63  C   UNL     1      10.842   3.210   2.937  1.00  0.00     0.059 A 
ATOM     64  F   UNL     1       9.658   5.234   2.893  1.00  0.00    -0.206 F 
ATOM     65  C   UNL     1      11.175   2.004   2.322  1.00  0.00     0.060 A 
BRANCH  65  66
ATOM     66  S   UNL     1      12.302   0.847   3.128  1.00  0.00     0.124 S 
ATOM     67  O   UNL     1      11.386  -0.214   3.534  1.00  0.00    -0.237 OA
ATOM     68  O   UNL     1      13.226   0.508   2.050  1.00  0.00    -0.237 OA
ATOM     69  O   UNL     1      12.875   1.632   4.217  1.00  0.00    -0.744 OA
ENDBRANCH  65  66
ENDBRANCH  44  58
BRANCH  45  70
ATOM     70  C   UNL     1       3.562  10.311  -3.693  1.00  0.00     0.058 A 
ATOM     71  C   UNL     1       3.572  10.462  -5.086  1.00  0.00     0.135 A 
ATOM     72  C   UNL     1       2.670  11.103  -2.952  1.00  0.00     0.135 A 
ATOM     73  F   UNL     1       4.416   9.733  -5.833  1.00  0.00    -0.206 F 
ATOM     74  C   UNL     1       2.728  11.364  -5.725  1.00  0.00     0.059 A 
ATOM     75  C   UNL     1       1.801  11.995  -3.570  1.00  0.00     0.059 A 
ATOM     76  F   UNL     1       2.615  10.984  -1.616  1.00  0.00    -0.206 F 
ATOM     77  C   UNL     1       1.842  12.122  -4.958  1.00  0.00     0.060 A 
BRANCH  77  78
ATOM     78  S   UNL     1       0.699  13.238  -5.800  1.00  0.00     0.124 S 
ATOM     79  O   UNL     1       1.575  14.353  -6.140  1.00  0.00    -0.237 OA
ATOM     80  O   UNL     1       0.240  12.422  -6.920  1.00  0.00    -0.237 OA
ATOM     81  O   UNL     1      -0.311  13.512  -4.782  1.00  0.00    -0.744 OA
ENDBRANCH  77  78
ENDBRANCH  45  70
BRANCH  57  82
ATOM     82  C   UNL     1      10.387  10.098  -2.313  1.00  0.00     0.058 A 
ATOM     83  C   UNL     1      10.556  11.274  -1.568  1.00  0.00     0.135 A 
ATOM     84  C   UNL     1      11.335   9.803  -3.305  1.00  0.00     0.135 A 
ATOM     85  F   UNL     1       9.670  11.602  -0.614  1.00  0.00    -0.206 F 
ATOM     86  C   UNL     1      11.621  12.136  -1.805  1.00  0.00     0.059 A 
ATOM     87  C   UNL     1      12.419  10.641  -3.547  1.00  0.00     0.059 A 
ATOM     88  F   UNL     1      11.220   8.686  -4.040  1.00  0.00    -0.206 F 
ATOM     89  C   UNL     1      12.549  11.810  -2.797  1.00  0.00     0.060 A 
BRANCH  89  90
ATOM     90  S   UNL     1      13.948  12.918  -3.070  1.00  0.00     0.124 S 
ATOM     91  O   UNL     1      13.314  14.021  -3.784  1.00  0.00    -0.237 OA
ATOM     92  O   UNL     1      14.387  13.212  -1.709  1.00  0.00    -0.237 OA
ATOM     93  O   UNL     1      14.873  12.108  -3.858  1.00  0.00    -0.744 OA
ENDBRANCH  89  90
ENDBRANCH  57  82
ENDBRANCH  31  32
ENDBRANCH  24  26
ENDBRANCH  23  24
ENDBRANCH   1  23
TORSDOF 17
