REMARK SMILES O=C(CCCC(=O)OCCOC(=O)c1ccc(-c2c3nc(c(-c4c(F)cc(S(=O)(=O)[O-])cc4F)c4ccc([nH]4)c(-c4c(F)cc(S(=O)(=O)[O-])cc4F)c4nc(c(-c5c(F)cc(S(=O)(=O)[O-])cc5F)c5ccc2[nH]5)C=C4)C=C3)cc1)Nc1ccc([N+](=O)[O-])cc1
REMARK SMILES IDX 9 1 8 2 6 3 7 4 5 5 4 6 3 7 2 8 1 9 80 10 81 12 82 13 89 14
REMARK SMILES IDX 83 15 88 16 84 17 85 18 86 19 87 20 10 21 11 22 12 23 13 24
REMARK SMILES IDX 14 25 15 26 79 27 16 28 78 29 17 30 18 31 19 32 72 33 20 34
REMARK SMILES IDX 77 35 71 36 73 37 21 38 76 39 70 40 69 41 22 43 56 44 35 45
REMARK SMILES IDX 55 46 36 47 39 48 54 49 74 50 37 51 38 52 53 54 75 55 40 56
REMARK SMILES IDX 23 57 24 58 33 59 25 60 26 61 32 62 34 63 27 64 28 65 29 66
REMARK SMILES IDX 30 67 31 68 57 69 58 70 67 71 59 72 60 73 66 74 68 75 61 76
REMARK SMILES IDX 62 77 63 78 64 79 65 80 41 81 42 82 51 83 43 84 44 85 50 86
REMARK SMILES IDX 52 87 45 88 46 89 47 90 48 91 49 92
REMARK H PARENT 80 11 73 42 39 53
REMARK Flexibility Score: inf
ROOT
ATOM      1  C   UNL     1       6.117  -1.828  -0.821  1.00  0.00     0.274 C 
ENDROOT
BRANCH   1   2
ATOM      2  O   UNL     1       5.149  -0.778  -0.611  1.00  0.00    -0.462 OA
BRANCH   2   3
ATOM      3  C   UNL     1       5.404   0.132   0.356  1.00  0.00     0.305 C 
ATOM      4  O   UNL     1       6.336   0.062   1.146  1.00  0.00    -0.252 OA
BRANCH   3   5
ATOM      5  C   UNL     1       4.352   1.227   0.440  1.00  0.00     0.123 C 
BRANCH   5   6
ATOM      6  C   UNL     1       3.342   1.364  -0.703  1.00  0.00     0.022 C 
BRANCH   6   7
ATOM      7  C   UNL     1       2.432   0.177  -1.047  1.00  0.00     0.101 C 
BRANCH   7   8
ATOM      8  C   UNL     1       1.526  -0.324   0.068  1.00  0.00     0.224 C 
ATOM      9  O   UNL     1       0.305  -0.246  -0.028  1.00  0.00    -0.275 OA
ATOM     10  N   UNL     1       2.215  -0.846   1.145  1.00  0.00    -0.326 N 
ATOM     11  H   UNL     1       3.193  -0.911   1.054  1.00  0.00     0.169 HD
BRANCH  10  12
ATOM     12  C   UNL     1       1.664  -1.292   2.354  1.00  0.00     0.041 A 
ATOM     13  C   UNL     1       2.462  -1.185   3.502  1.00  0.00     0.033 A 
ATOM     14  C   UNL     1       0.384  -1.840   2.445  1.00  0.00     0.033 A 
ATOM     15  C   UNL     1       1.970  -1.588   4.745  1.00  0.00     0.088 A 
ATOM     16  C   UNL     1      -0.099  -2.292   3.675  1.00  0.00     0.088 A 
ATOM     17  C   UNL     1       0.692  -2.152   4.823  1.00  0.00     0.269 A 
BRANCH  17  18
ATOM     18  N   UNL     1       0.178  -2.608   6.118  1.00  0.00     0.062 N 
ATOM     19  O   UNL     1       0.791  -2.260   7.137  1.00  0.00    -0.258 OA
ATOM     20  O   UNL     1      -0.836  -3.321   6.116  1.00  0.00    -0.258 OA
ENDBRANCH  17  18
ENDBRANCH  10  12
ENDBRANCH   7   8
ENDBRANCH   6   7
ENDBRANCH   5   6
ENDBRANCH   3   5
ENDBRANCH   2   3
ENDBRANCH   1   2
BRANCH   1  21
ATOM     21  C   UNL     1       6.930  -1.574  -2.093  1.00  0.00     0.275 C 
BRANCH  21  22
ATOM     22  O   UNL     1       7.821  -0.458  -1.923  1.00  0.00    -0.458 OA
BRANCH  22  23
ATOM     23  C   UNL     1       7.301   0.742  -2.272  1.00  0.00     0.338 C 
ATOM     24  O   UNL     1       6.205   0.958  -2.758  1.00  0.00    -0.246 OA
BRANCH  23  25
ATOM     25  C   UNL     1       8.195   1.812  -1.810  1.00  0.00     0.060 A 
ATOM     26  C   UNL     1       7.770   2.589  -0.732  1.00  0.00     0.016 A 
ATOM     27  C   UNL     1       9.383   2.109  -2.475  1.00  0.00     0.016 A 
ATOM     28  C   UNL     1       8.510   3.688  -0.323  1.00  0.00     0.010 A 
ATOM     29  C   UNL     1      10.140   3.207  -2.052  1.00  0.00     0.010 A 
ATOM     30  C   UNL     1       9.698   4.011  -0.984  1.00  0.00    -0.014 A 
BRANCH  30  31
ATOM     31  C   UNL     1      10.430   5.236  -0.591  1.00  0.00     0.031 A 
ATOM     32  C   UNL     1      10.422   6.425  -1.508  1.00  0.00     0.074 A 
ATOM     33  C   UNL     1      11.046   5.294   0.605  1.00  0.00     0.049 A 
ATOM     34  N   UNL     1      11.089   7.544  -1.413  1.00  0.00    -0.248 NA
ATOM     35  C   UNL     1       9.546   6.344  -2.689  1.00  0.00     0.031 C 
ATOM     36  C   UNL     1      11.054   4.224   1.605  1.00  0.00     0.029 A 
ATOM     37  N   UNL     1      11.780   6.296   1.184  1.00  0.00    -0.354 N 
ATOM     38  C   UNL     1      10.738   8.290  -2.531  1.00  0.00     0.074 A 
ATOM     39  C   UNL     1       9.804   7.494  -3.297  1.00  0.00     0.031 C 
ATOM     40  C   UNL     1      11.759   4.628   2.675  1.00  0.00     0.029 A 
ATOM     41  C   UNL     1      12.298   5.959   2.412  1.00  0.00     0.049 A 
ATOM     42  H   UNL     1      11.923   7.174   0.761  1.00  0.00     0.167 HD
ATOM     43  C   UNL     1      11.157   9.528  -2.880  1.00  0.00     0.037 A 
ATOM     44  C   UNL     1      13.143   6.633   3.215  1.00  0.00     0.037 A 
ATOM     45  C   UNL     1      12.069  10.318  -2.095  1.00  0.00     0.049 A 
ATOM     46  C   UNL     1      13.636   7.986   2.776  1.00  0.00     0.074 A 
ATOM     47  C   UNL     1      12.587  11.570  -2.374  1.00  0.00     0.029 A 
ATOM     48  N   UNL     1      12.586   9.935  -0.865  1.00  0.00    -0.354 N 
ATOM     49  N   UNL     1      13.345   8.654   1.685  1.00  0.00    -0.248 NA
ATOM     50  C   UNL     1      14.580   8.671   3.669  1.00  0.00     0.031 C 
ATOM     51  C   UNL     1      13.436  11.935  -1.323  1.00  0.00     0.029 A 
ATOM     52  C   UNL     1      13.416  10.927  -0.373  1.00  0.00     0.049 A 
ATOM     53  H   UNL     1      12.390   9.085  -0.410  1.00  0.00     0.167 HD
ATOM     54  C   UNL     1      14.053   9.847   1.772  1.00  0.00     0.074 A 
ATOM     55  C   UNL     1      14.775   9.815   3.027  1.00  0.00     0.031 C 
ATOM     56  C   UNL     1      14.107  10.876   0.890  1.00  0.00     0.037 A 
BRANCH  43  57
ATOM     57  C   UNL     1      10.656  10.098  -4.176  1.00  0.00     0.058 A 
ATOM     58  C   UNL     1       9.348  10.588  -4.309  1.00  0.00     0.135 A 
ATOM     59  C   UNL     1      11.510  10.197  -5.286  1.00  0.00     0.135 A 
ATOM     60  F   UNL     1       8.484  10.495  -3.285  1.00  0.00    -0.206 F 
ATOM     61  C   UNL     1       8.900  11.149  -5.501  1.00  0.00     0.059 A 
ATOM     62  C   UNL     1      11.090  10.773  -6.482  1.00  0.00     0.059 A 
ATOM     63  F   UNL     1      12.768   9.736  -5.214  1.00  0.00    -0.206 F 
ATOM     64  C   UNL     1       9.780  11.239  -6.582  1.00  0.00     0.060 A 
BRANCH  64  65
ATOM     65  S   UNL     1       9.193  11.990  -8.115  1.00  0.00     0.124 S 
ATOM     66  O   UNL     1       8.329  10.938  -8.642  1.00  0.00    -0.237 OA
ATOM     67  O   UNL     1       8.511  13.188  -7.635  1.00  0.00    -0.237 OA
ATOM     68  O   UNL     1      10.420  12.230  -8.867  1.00  0.00    -0.744 OA
ENDBRANCH  64  65
ENDBRANCH  43  57
BRANCH  44  69
ATOM     69  C   UNL     1      13.617   6.026   4.486  1.00  0.00     0.058 A 
ATOM     70  C   UNL     1      13.239   6.553   5.730  1.00  0.00     0.135 A 
ATOM     71  C   UNL     1      14.477   4.916   4.481  1.00  0.00     0.135 A 
ATOM     72  F   UNL     1      12.424   7.617   5.787  1.00  0.00    -0.206 F 
ATOM     73  C   UNL     1      13.719   6.021   6.922  1.00  0.00     0.059 A 
ATOM     74  C   UNL     1      14.949   4.350   5.660  1.00  0.00     0.059 A 
ATOM     75  F   UNL     1      14.857   4.364   3.317  1.00  0.00    -0.206 F 
ATOM     76  C   UNL     1      14.579   4.921   6.876  1.00  0.00     0.060 A 
BRANCH  76  77
ATOM     77  S   UNL     1      15.188   4.222   8.426  1.00  0.00     0.124 S 
ATOM     78  O   UNL     1      16.238   5.169   8.780  1.00  0.00    -0.237 OA
ATOM     79  O   UNL     1      13.996   4.245   9.268  1.00  0.00    -0.237 OA
ATOM     80  O   UNL     1      15.642   2.891   8.034  1.00  0.00    -0.744 OA
ENDBRANCH  76  77
ENDBRANCH  44  69
BRANCH  56  81
ATOM     81  C   UNL     1      14.938  12.065   1.276  1.00  0.00     0.058 A 
ATOM     82  C   UNL     1      16.339  12.034   1.209  1.00  0.00     0.135 A 
ATOM     83  C   UNL     1      14.321  13.262   1.671  1.00  0.00     0.135 A 
ATOM     84  F   UNL     1      16.974  10.910   0.843  1.00  0.00    -0.206 F 
ATOM     85  C   UNL     1      17.103  13.147   1.543  1.00  0.00     0.059 A 
ATOM     86  C   UNL     1      15.065  14.393   1.988  1.00  0.00     0.059 A 
ATOM     87  F   UNL     1      12.983  13.341   1.741  1.00  0.00    -0.206 F 
ATOM     88  C   UNL     1      16.456  14.322   1.931  1.00  0.00     0.060 A 
BRANCH  88  89
ATOM     89  S   UNL     1      17.455  15.772   2.330  1.00  0.00     0.124 S 
ATOM     90  O   UNL     1      17.939  15.436   3.665  1.00  0.00    -0.237 OA
ATOM     91  O   UNL     1      18.460  15.762   1.271  1.00  0.00    -0.237 OA
ATOM     92  O   UNL     1      16.497  16.871   2.265  1.00  0.00    -0.744 OA
ENDBRANCH  88  89
ENDBRANCH  56  81
ENDBRANCH  30  31
ENDBRANCH  23  25
ENDBRANCH  22  23
ENDBRANCH  21  22
ENDBRANCH   1  21
TORSDOF 19
