REMARK SMILES Cc1cc(C)c2c(OCCCC(=O)OCCOC(=O)c3ccc(-c4c5nc(c(-c6c(F)cc(S(=O)(=O)[O-])cc6F)c6ccc([nH]6)c(-c6c(F)cc(S(=O)(=O)[O-])cc6F)c6nc(c(-c7c(F)cc(S(=O)(=O)[O-])cc7F)c7ccc4[nH]7)C=C6)C=C5)cc3)nsc2n1
REMARK SMILES IDX 15 1 14 2 12 3 13 4 11 5 10 6 9 7 8 8 7 9 1 10 2 11 3 12
REMARK SMILES IDX 89 13 4 14 88 15 5 16 6 17 87 18 86 19 16 20 17 21 18 22
REMARK SMILES IDX 19 23 20 24 21 25 85 26 22 27 84 28 23 29 24 30 25 31 78 32
REMARK SMILES IDX 26 33 83 34 77 35 79 36 27 37 82 38 76 39 75 40 28 42 62 43
REMARK SMILES IDX 41 44 61 45 42 46 45 47 60 48 80 49 43 50 44 51 59 53 81 54
REMARK SMILES IDX 46 55 29 56 30 57 39 58 31 59 32 60 38 61 40 62 33 63 34 64
REMARK SMILES IDX 35 65 36 66 37 67 63 68 64 69 73 70 65 71 66 72 72 73 74 74
REMARK SMILES IDX 67 75 68 76 69 77 70 78 71 79 47 80 48 81 57 82 49 83 50 84
REMARK SMILES IDX 56 85 58 86 51 87 52 88 53 89 54 90 55 91
REMARK H PARENT 79 41 45 52
REMARK Flexibility Score: inf
ROOT
ATOM      1  C   UNL     1      -1.512  -2.933  -1.780  1.00  0.00     0.274 C 
ENDROOT
BRANCH   1   2
ATOM      2  O   UNL     1      -0.826  -2.522  -3.004  1.00  0.00    -0.462 OA
BRANCH   2   3
ATOM      3  C   UNL     1       0.468  -2.126  -2.935  1.00  0.00     0.306 C 
ATOM      4  O   UNL     1       1.085  -2.052  -1.876  1.00  0.00    -0.252 OA
BRANCH   3   5
ATOM      5  C   UNL     1       1.096  -1.705  -4.265  1.00  0.00     0.126 C 
BRANCH   5   6
ATOM      6  C   UNL     1       0.555  -2.131  -5.636  1.00  0.00     0.053 C 
BRANCH   6   7
ATOM      7  C   UNL     1      -0.691  -1.505  -6.292  1.00  0.00     0.232 C 
BRANCH   7   8
ATOM      8  O   UNL     1      -0.714  -0.149  -6.727  1.00  0.00    -0.477 OA
BRANCH   8   9
ATOM      9  C   UNL     1      -0.518   0.838  -5.828  1.00  0.00     0.235 A 
ATOM     10  C   UNL     1       0.490   0.939  -0.459  1.00  0.00     0.067 C 
ATOM     11  C   UNL     1      -0.185   1.163  -1.784  1.00  0.00     0.039 A 
ATOM     12  C   UNL     1      -1.298   0.411  -2.145  1.00  0.00     0.027 A 
ATOM     13  N   UNL     1       0.402   2.037  -2.615  1.00  0.00    -0.240 NA
ATOM     14  C   UNL     1      -1.679   0.272  -3.499  1.00  0.00    -0.034 A 
ATOM     15  C   UNL     1       0.035   1.885  -3.899  1.00  0.00     0.147 A 
ATOM     16  C   UNL     1      -2.842  -0.615  -3.861  1.00  0.00     0.045 C 
ATOM     17  C   UNL     1      -0.845   0.938  -4.429  1.00  0.00     0.078 A 
ATOM     18  S   UNL     1       0.666   2.845  -5.152  1.00  0.00    -0.012 S 
ATOM     19  N   UNL     1       0.120   1.873  -6.376  1.00  0.00    -0.153 NA
ENDBRANCH   8   9
ENDBRANCH   7   8
ENDBRANCH   6   7
ENDBRANCH   5   6
ENDBRANCH   3   5
ENDBRANCH   2   3
ENDBRANCH   1   2
BRANCH   1  20
ATOM     20  C   UNL     1      -2.472  -4.099  -2.065  1.00  0.00     0.275 C 
BRANCH  20  21
ATOM     21  O   UNL     1      -1.757  -5.293  -2.338  1.00  0.00    -0.458 OA
BRANCH  21  22
ATOM     22  C   UNL     1      -0.875  -5.101  -3.356  1.00  0.00     0.338 C 
ATOM     23  O   UNL     1      -1.169  -4.854  -4.495  1.00  0.00    -0.246 OA
BRANCH  22  24
ATOM     24  C   UNL     1       0.507  -5.208  -2.799  1.00  0.00     0.060 A 
ATOM     25  C   UNL     1       1.443  -5.582  -3.753  1.00  0.00     0.016 A 
ATOM     26  C   UNL     1       0.623  -5.582  -1.459  1.00  0.00     0.016 A 
ATOM     27  C   UNL     1       2.023  -6.800  -3.544  1.00  0.00     0.010 A 
ATOM     28  C   UNL     1       1.177  -6.802  -1.248  1.00  0.00     0.010 A 
ATOM     29  C   UNL     1       1.703  -7.455  -2.358  1.00  0.00    -0.014 A 
BRANCH  29  30
ATOM     30  C   UNL     1       1.841  -8.884  -2.296  1.00  0.00     0.031 A 
ATOM     31  C   UNL     1       3.100  -9.257  -1.643  1.00  0.00     0.074 A 
ATOM     32  C   UNL     1       0.837  -9.709  -2.645  1.00  0.00     0.049 A 
ATOM     33  N   UNL     1       4.231  -9.502  -2.218  1.00  0.00    -0.248 NA
ATOM     34  C   UNL     1       3.199  -8.975  -0.200  1.00  0.00     0.031 C 
ATOM     35  C   UNL     1      -0.558  -9.404  -2.982  1.00  0.00     0.029 A 
ATOM     36  N   UNL     1       0.869 -11.063  -2.682  1.00  0.00    -0.354 N 
ATOM     37  C   UNL     1       5.109  -9.640  -1.157  1.00  0.00     0.074 A 
ATOM     38  C   UNL     1       4.522  -8.934  -0.051  1.00  0.00     0.031 C 
ATOM     39  C   UNL     1      -1.280 -10.553  -2.969  1.00  0.00     0.029 A 
ATOM     40  C   UNL     1      -0.383 -11.672  -2.748  1.00  0.00     0.049 A 
ATOM     41  H   UNL     1       1.709 -11.576  -2.665  1.00  0.00     0.167 HD
ATOM     42  C   UNL     1       6.039 -10.630  -1.116  1.00  0.00     0.037 A 
ATOM     43  C   UNL     1      -0.586 -12.993  -2.502  1.00  0.00     0.037 A 
ATOM     44  C   UNL     1       6.202 -11.253  -2.404  1.00  0.00     0.049 A 
ATOM     45  C   UNL     1       0.756 -13.650  -2.620  1.00  0.00     0.074 A 
ATOM     46  C   UNL     1       6.600 -10.793  -3.645  1.00  0.00     0.029 A 
ATOM     47  N   UNL     1       5.497 -12.413  -2.637  1.00  0.00    -0.354 N 
ATOM     48  N   UNL     1       1.438 -13.714  -3.735  1.00  0.00    -0.248 NA
ATOM     49  C   UNL     1       1.549 -13.771  -1.403  1.00  0.00     0.031 C 
ATOM     50  C   UNL     1       5.746 -11.447  -4.581  1.00  0.00     0.029 A 
ATOM     51  C   UNL     1       4.914 -12.322  -3.880  1.00  0.00     0.049 A 
ATOM     52  H   UNL     1       5.424 -13.177  -2.020  1.00  0.00     0.167 HD
ATOM     53  C   UNL     1       2.762 -13.489  -3.368  1.00  0.00     0.074 A 
ATOM     54  C   UNL     1       2.772 -13.582  -1.910  1.00  0.00     0.031 C 
ATOM     55  C   UNL     1       3.666 -12.963  -4.250  1.00  0.00     0.037 A 
BRANCH  42  56
ATOM     56  C   UNL     1       6.514 -11.224   0.180  1.00  0.00     0.058 A 
ATOM     57  C   UNL     1       7.749 -11.883   0.235  1.00  0.00     0.135 A 
ATOM     58  C   UNL     1       5.723 -11.305   1.353  1.00  0.00     0.135 A 
ATOM     59  F   UNL     1       8.550 -11.915  -0.841  1.00  0.00    -0.206 F 
ATOM     60  C   UNL     1       8.172 -12.562   1.379  1.00  0.00     0.059 A 
ATOM     61  C   UNL     1       6.158 -11.897   2.527  1.00  0.00     0.059 A 
ATOM     62  F   UNL     1       4.450 -10.890   1.393  1.00  0.00    -0.206 F 
ATOM     63  C   UNL     1       7.373 -12.553   2.522  1.00  0.00     0.060 A 
BRANCH  63  64
ATOM     64  S   UNL     1       7.887 -13.466   3.983  1.00  0.00     0.124 S 
ATOM     65  O   UNL     1       7.763 -14.844   3.522  1.00  0.00    -0.237 OA
ATOM     66  O   UNL     1       9.245 -12.974   4.184  1.00  0.00    -0.237 OA
ATOM     67  O   UNL     1       6.921 -13.052   4.997  1.00  0.00    -0.744 OA
ENDBRANCH  63  64
ENDBRANCH  42  56
BRANCH  43  68
ATOM     68  C   UNL     1      -1.711 -13.625  -1.756  1.00  0.00     0.058 A 
ATOM     69  C   UNL     1      -1.867 -15.024  -1.735  1.00  0.00     0.135 A 
ATOM     70  C   UNL     1      -2.466 -12.905  -0.809  1.00  0.00     0.135 A 
ATOM     71  F   UNL     1      -1.177 -15.792  -2.593  1.00  0.00    -0.206 F 
ATOM     72  C   UNL     1      -2.669 -15.674  -0.789  1.00  0.00     0.059 A 
ATOM     73  C   UNL     1      -3.277 -13.530   0.138  1.00  0.00     0.059 A 
ATOM     74  F   UNL     1      -2.362 -11.573  -0.707  1.00  0.00    -0.206 F 
ATOM     75  C   UNL     1      -3.349 -14.917   0.164  1.00  0.00     0.060 A 
BRANCH  75  76
ATOM     76  S   UNL     1      -4.221 -15.754   1.512  1.00  0.00     0.124 S 
ATOM     77  O   UNL     1      -5.311 -16.415   0.803  1.00  0.00    -0.237 OA
ATOM     78  O   UNL     1      -3.184 -16.629   2.048  1.00  0.00    -0.237 OA
ATOM     79  O   UNL     1      -4.621 -14.657   2.389  1.00  0.00    -0.744 OA
ENDBRANCH  75  76
ENDBRANCH  43  68
BRANCH  55  80
ATOM     80  C   UNL     1       3.248 -12.851  -5.700  1.00  0.00     0.058 A 
ATOM     81  C   UNL     1       2.230 -11.998  -6.169  1.00  0.00     0.135 A 
ATOM     82  C   UNL     1       4.012 -13.515  -6.669  1.00  0.00     0.135 A 
ATOM     83  F   UNL     1       1.517 -11.250  -5.316  1.00  0.00    -0.206 F 
ATOM     84  C   UNL     1       1.961 -11.842  -7.532  1.00  0.00     0.059 A 
ATOM     85  C   UNL     1       3.784 -13.352  -8.034  1.00  0.00     0.059 A 
ATOM     86  F   UNL     1       5.038 -14.297  -6.294  1.00  0.00    -0.206 F 
ATOM     87  C   UNL     1       2.748 -12.523  -8.460  1.00  0.00     0.060 A 
BRANCH  87  88
ATOM     88  S   UNL     1       2.449 -12.269 -10.224  1.00  0.00     0.124 S 
ATOM     89  O   UNL     1       1.155 -12.915 -10.413  1.00  0.00    -0.237 OA
ATOM     90  O   UNL     1       2.455 -10.814 -10.339  1.00  0.00    -0.237 OA
ATOM     91  O   UNL     1       3.580 -12.941 -10.862  1.00  0.00    -0.744 OA
ENDBRANCH  87  88
ENDBRANCH  55  80
ENDBRANCH  29  30
ENDBRANCH  22  24
ENDBRANCH  21  22
ENDBRANCH  20  21
ENDBRANCH   1  20
TORSDOF 18
