REMARK SMILES Cc1nc(C(=O)OCCOC(=O)c2ccc(-c3c4nc(c(-c5c(F)cc(S(=O)(=O)[O-])cc5F)c5ccc([nH]5)c(-c5c(F)cc(S(=O)(=O)[O-])cc5F)c5nc(c(-c6c(F)cc(S(=O)(=O)[O-])cc6F)c6ccc3[nH]6)C=C5)C=C4)cc2)nn1-c1cccc(C(F)(F)F)c1
REMARK SMILES IDX 9 1 8 2 7 3 5 4 6 5 4 6 1 7 2 8 3 9 80 10 79 11 81 12 82 13
REMARK SMILES IDX 90 14 83 15 85 16 84 17 86 18 87 19 88 20 89 21 10 22 11 23
REMARK SMILES IDX 12 24 13 25 14 26 78 27 15 28 77 29 16 30 17 31 18 32 71 33
REMARK SMILES IDX 19 34 76 35 70 36 72 37 20 38 75 39 69 40 68 41 21 43 55 44
REMARK SMILES IDX 34 45 54 46 35 47 38 48 53 49 73 50 36 51 37 52 52 54 74 55
REMARK SMILES IDX 39 56 22 57 23 58 32 59 24 60 25 61 31 62 33 63 26 64 27 65
REMARK SMILES IDX 28 66 29 67 30 68 56 69 57 70 66 71 58 72 59 73 65 74 67 75
REMARK SMILES IDX 60 76 61 77 62 78 63 79 64 80 40 81 41 82 50 83 42 84 43 85
REMARK SMILES IDX 49 86 51 87 44 88 45 89 46 90 47 91 48 92
REMARK H PARENT 72 42 38 53
REMARK Flexibility Score: inf
ROOT
ATOM      1  C   UNL     1      -1.796  -3.596   6.520  1.00  0.00     0.275 C 
ENDROOT
BRANCH   1   2
ATOM      2  C   UNL     1      -0.553  -2.778   6.848  1.00  0.00     0.275 C 
BRANCH   2   3
ATOM      3  O   UNL     1      -0.271  -1.812   5.829  1.00  0.00    -0.456 OA
BRANCH   3   4
ATOM      4  C   UNL     1       0.506  -2.238   4.781  1.00  0.00     0.378 C 
ATOM      5  O   UNL     1       1.091  -3.321   4.761  1.00  0.00    -0.242 OA
BRANCH   4   6
ATOM      6  C   UNL     1       0.527  -1.270   3.671  1.00  0.00     0.260 A 
ATOM      7  C   UNL     1       0.914  -0.313   0.252  1.00  0.00     0.090 C 
ATOM      8  C   UNL     1       0.595  -0.489   1.689  1.00  0.00     0.130 A 
ATOM      9  N   UNL     1       0.771  -1.613   2.357  1.00  0.00    -0.206 NA
ATOM     10  N   UNL     1       0.260   0.514   2.579  1.00  0.00    -0.217 N 
ATOM     11  N   UNL     1       0.339   0.050   3.847  1.00  0.00    -0.138 NA
BRANCH  10  12
ATOM     12  C   UNL     1      -0.065   1.874   2.365  1.00  0.00     0.067 A 
ATOM     13  C   UNL     1       0.421   2.818   3.282  1.00  0.00     0.028 A 
ATOM     14  C   UNL     1      -0.903   2.276   1.317  1.00  0.00     0.041 A 
ATOM     15  C   UNL     1       0.124   4.167   3.122  1.00  0.00     0.003 A 
ATOM     16  C   UNL     1      -1.251   3.633   1.186  1.00  0.00     0.058 A 
ATOM     17  C   UNL     1      -0.709   4.572   2.081  1.00  0.00     0.013 A 
BRANCH  16  18
ATOM     18  C   UNL     1      -2.229   4.103   0.134  1.00  0.00     0.416 C 
ATOM     19  F   UNL     1      -3.321   4.709   0.678  1.00  0.00    -0.166 F 
ATOM     20  F   UNL     1      -1.677   5.022  -0.707  1.00  0.00    -0.166 F 
ATOM     21  F   UNL     1      -2.704   3.106  -0.658  1.00  0.00    -0.166 F 
ENDBRANCH  16  18
ENDBRANCH  10  12
ENDBRANCH   4   6
ENDBRANCH   3   4
ENDBRANCH   2   3
ENDBRANCH   1   2
BRANCH   1  22
ATOM     22  O   UNL     1      -1.552  -4.565   5.500  1.00  0.00    -0.458 OA
BRANCH  22  23
ATOM     23  C   UNL     1      -1.919  -4.192   4.250  1.00  0.00     0.338 C 
ATOM     24  O   UNL     1      -2.063  -3.052   3.842  1.00  0.00    -0.246 OA
BRANCH  23  25
ATOM     25  C   UNL     1      -2.329  -5.386   3.497  1.00  0.00     0.060 A 
ATOM     26  C   UNL     1      -2.496  -5.281   2.114  1.00  0.00     0.016 A 
ATOM     27  C   UNL     1      -2.734  -6.535   4.194  1.00  0.00     0.016 A 
ATOM     28  C   UNL     1      -3.154  -6.299   1.442  1.00  0.00     0.010 A 
ATOM     29  C   UNL     1      -3.400  -7.541   3.526  1.00  0.00     0.010 A 
ATOM     30  C   UNL     1      -3.646  -7.398   2.163  1.00  0.00    -0.014 A 
BRANCH  30  31
ATOM     31  C   UNL     1      -4.247  -8.506   1.434  1.00  0.00     0.031 A 
ATOM     32  C   UNL     1      -3.252  -9.229   0.601  1.00  0.00     0.074 A 
ATOM     33  C   UNL     1      -5.515  -8.931   1.617  1.00  0.00     0.049 A 
ATOM     34  N   UNL     1      -3.176  -9.250  -0.687  1.00  0.00    -0.248 NA
ATOM     35  C   UNL     1      -2.095  -9.847   1.272  1.00  0.00     0.031 C 
ATOM     36  C   UNL     1      -6.476  -8.459   2.620  1.00  0.00     0.029 A 
ATOM     37  N   UNL     1      -6.197  -9.941   0.998  1.00  0.00    -0.354 N 
ATOM     38  C   UNL     1      -2.123 -10.110  -0.984  1.00  0.00     0.074 A 
ATOM     39  C   UNL     1      -1.372 -10.266   0.231  1.00  0.00     0.031 C 
ATOM     40  C   UNL     1      -7.521  -9.317   2.686  1.00  0.00     0.029 A 
ATOM     41  C   UNL     1      -7.385 -10.308   1.631  1.00  0.00     0.049 A 
ATOM     42  H   UNL     1      -5.877 -10.373   0.174  1.00  0.00     0.167 HD
ATOM     43  C   UNL     1      -2.152 -10.862  -2.119  1.00  0.00     0.037 A 
ATOM     44  C   UNL     1      -8.196 -11.350   1.310  1.00  0.00     0.037 A 
ATOM     45  C   UNL     1      -3.158 -10.371  -3.025  1.00  0.00     0.049 A 
ATOM     46  C   UNL     1      -7.929 -11.690  -0.106  1.00  0.00     0.074 A 
ATOM     47  C   UNL     1      -3.291  -9.320  -3.904  1.00  0.00     0.029 A 
ATOM     48  N   UNL     1      -4.414 -10.848  -2.760  1.00  0.00    -0.354 N 
ATOM     49  N   UNL     1      -8.218 -10.894  -1.097  1.00  0.00    -0.248 NA
ATOM     50  C   UNL     1      -7.012 -12.779  -0.424  1.00  0.00     0.031 C 
ATOM     51  C   UNL     1      -4.693  -9.084  -4.035  1.00  0.00     0.029 A 
ATOM     52  C   UNL     1      -5.379 -10.021  -3.268  1.00  0.00     0.049 A 
ATOM     53  H   UNL     1      -4.599 -11.680  -2.268  1.00  0.00     0.167 HD
ATOM     54  C   UNL     1      -7.213 -11.115  -2.015  1.00  0.00     0.074 A 
ATOM     55  C   UNL     1      -6.616 -12.390  -1.639  1.00  0.00     0.031 C 
ATOM     56  C   UNL     1      -6.739 -10.097  -2.786  1.00  0.00     0.037 A 
BRANCH  43  57
ATOM     57  C   UNL     1      -1.667 -12.297  -2.211  1.00  0.00     0.058 A 
ATOM     58  C   UNL     1      -1.667 -12.940  -3.468  1.00  0.00     0.135 A 
ATOM     59  C   UNL     1      -1.504 -13.151  -1.097  1.00  0.00     0.135 A 
ATOM     60  F   UNL     1      -1.825 -12.231  -4.598  1.00  0.00    -0.206 F 
ATOM     61  C   UNL     1      -1.577 -14.328  -3.601  1.00  0.00     0.059 A 
ATOM     62  C   UNL     1      -1.363 -14.530  -1.211  1.00  0.00     0.059 A 
ATOM     63  F   UNL     1      -1.572 -12.709   0.164  1.00  0.00    -0.206 F 
ATOM     64  C   UNL     1      -1.438 -15.115  -2.463  1.00  0.00     0.060 A 
BRANCH  64  65
ATOM     65  S   UNL     1      -1.399 -16.909  -2.620  1.00  0.00     0.124 S 
ATOM     66  O   UNL     1      -2.764 -17.197  -3.044  1.00  0.00    -0.237 OA
ATOM     67  O   UNL     1      -0.360 -17.101  -3.626  1.00  0.00    -0.237 OA
ATOM     68  O   UNL     1      -1.048 -17.356  -1.274  1.00  0.00    -0.744 OA
ENDBRANCH  64  65
ENDBRANCH  43  57
BRANCH  44  69
ATOM     69  C   UNL     1      -9.053 -12.214   2.162  1.00  0.00     0.058 A 
ATOM     70  C   UNL     1     -10.082 -13.003   1.611  1.00  0.00     0.135 A 
ATOM     71  C   UNL     1      -8.670 -12.527   3.480  1.00  0.00     0.135 A 
ATOM     72  F   UNL     1     -10.502 -12.784   0.356  1.00  0.00    -0.206 F 
ATOM     73  C   UNL     1     -10.652 -14.080   2.301  1.00  0.00     0.059 A 
ATOM     74  C   UNL     1      -9.225 -13.595   4.189  1.00  0.00     0.059 A 
ATOM     75  F   UNL     1      -7.671 -11.858   4.077  1.00  0.00    -0.206 F 
ATOM     76  C   UNL     1     -10.197 -14.385   3.582  1.00  0.00     0.060 A 
BRANCH  76  77
ATOM     77  S   UNL     1     -10.791 -15.889   4.398  1.00  0.00     0.124 S 
ATOM     78  O   UNL     1     -12.180 -15.549   4.688  1.00  0.00    -0.237 OA
ATOM     79  O   UNL     1     -10.586 -16.903   3.369  1.00  0.00    -0.237 OA
ATOM     80  O   UNL     1      -9.922 -16.007   5.566  1.00  0.00    -0.744 OA
ENDBRANCH  76  77
ENDBRANCH  44  69
BRANCH  56  81
ATOM     81  C   UNL     1      -7.650  -8.932  -3.026  1.00  0.00     0.058 A 
ATOM     82  C   UNL     1      -8.020  -7.984  -2.058  1.00  0.00     0.135 A 
ATOM     83  C   UNL     1      -8.113  -8.735  -4.334  1.00  0.00     0.135 A 
ATOM     84  F   UNL     1      -7.559  -8.066  -0.801  1.00  0.00    -0.206 F 
ATOM     85  C   UNL     1      -8.842  -6.901  -2.375  1.00  0.00     0.059 A 
ATOM     86  C   UNL     1      -8.908  -7.650  -4.679  1.00  0.00     0.059 A 
ATOM     87  F   UNL     1      -7.755  -9.588  -5.309  1.00  0.00    -0.206 F 
ATOM     88  C   UNL     1      -9.280  -6.742  -3.691  1.00  0.00     0.060 A 
BRANCH  88  89
ATOM     89  S   UNL     1     -10.284  -5.305  -4.122  1.00  0.00     0.124 S 
ATOM     90  O   UNL     1     -11.561  -5.622  -3.492  1.00  0.00    -0.237 OA
ATOM     91  O   UNL     1      -9.536  -4.204  -3.523  1.00  0.00    -0.237 OA
ATOM     92  O   UNL     1     -10.290  -5.319  -5.584  1.00  0.00    -0.744 OA
ENDBRANCH  88  89
ENDBRANCH  56  81
ENDBRANCH  30  31
ENDBRANCH  23  25
ENDBRANCH  22  23
ENDBRANCH   1  22
TORSDOF 16
