REMARK SMILES CC[C@](C)(C(=O)OCCOC(=O)c1ccc(-c2c3nc(c(-c4c(F)cc(S(=O)(=O)[O-])cc4F)c4ccc([nH]4)c(-c4c(F)cc(S(=O)(=O)[O-])cc4F)c4nc(c(-c5c(F)cc(S(=O)(=O)[O-])cc5F)c5ccc2[nH]5)C=C4)C=C3)cc1)[C@H]1CCC[C@H](OC)C1
REMARK SMILES IDX 9 1 8 2 7 3 5 4 6 5 3 6 4 7 2 8 1 9 79 10 80 11 86 12 81 13
REMARK SMILES IDX 83 14 82 15 84 16 85 17 10 18 11 19 12 20 13 21 14 22 78 23
REMARK SMILES IDX 15 24 77 25 16 26 17 27 18 28 71 29 19 30 76 31 70 32 72 33
REMARK SMILES IDX 20 34 75 35 69 36 68 37 21 39 55 40 34 41 54 42 35 43 38 44
REMARK SMILES IDX 53 45 73 46 36 47 37 48 52 50 74 51 39 52 22 53 23 54 32 55
REMARK SMILES IDX 24 56 25 57 31 58 33 59 26 60 27 61 28 62 29 63 30 64 56 65
REMARK SMILES IDX 57 66 66 67 58 68 59 69 65 70 67 71 60 72 61 73 62 74 63 75
REMARK SMILES IDX 64 76 40 77 41 78 50 79 42 80 43 81 49 82 51 83 44 84 45 85
REMARK SMILES IDX 46 86 47 87 48 88
REMARK H PARENT 72 38 38 49
REMARK Flexibility Score: inf
ROOT
ATOM      1  C   UNL     1       4.717  -1.494  -3.823  1.00  0.00     0.275 C 
ENDROOT
BRANCH   1   2
ATOM      2  C   UNL     1       3.921  -0.549  -4.725  1.00  0.00     0.274 C 
BRANCH   2   3
ATOM      3  O   UNL     1       3.995   0.816  -4.257  1.00  0.00    -0.462 OA
BRANCH   3   4
ATOM      4  C   UNL     1       2.965   1.235  -3.472  1.00  0.00     0.312 C 
ATOM      5  O   UNL     1       2.029   0.514  -3.142  1.00  0.00    -0.252 OA
BRANCH   4   6
ATOM      6  C   UNL     1       3.096   2.715  -3.022  1.00  0.00     0.068 C 
ATOM      7  C   UNL     1       4.421   3.341  -3.499  1.00  0.00     0.024 C 
BRANCH   6   8
ATOM      8  C   UNL     1       1.953   3.512  -3.740  1.00  0.00     0.015 C 
ATOM      9  C   UNL     1       0.543   2.923  -3.687  1.00  0.00     0.005 C 
ENDBRANCH   6   8
BRANCH   6  10
ATOM     10  C   UNL     1       2.965   2.782  -1.444  1.00  0.00     0.008 C 
ATOM     11  C   UNL     1       3.768   1.708  -0.692  1.00  0.00     0.005 C 
ATOM     12  C   UNL     1       3.159   4.156  -0.756  1.00  0.00     0.036 C 
ATOM     13  C   UNL     1       5.194   2.036  -0.301  1.00  0.00     0.003 C 
ATOM     14  C   UNL     1       4.567   4.457  -0.200  1.00  0.00     0.118 C 
ATOM     15  C   UNL     1       5.214   3.288   0.543  1.00  0.00     0.032 C 
BRANCH  14  16
ATOM     16  O   UNL     1       4.561   5.668   0.570  1.00  0.00    -0.381 OA
ATOM     17  C   UNL     1       4.108   5.552   1.916  1.00  0.00     0.195 C 
ENDBRANCH  14  16
ENDBRANCH   6  10
ENDBRANCH   4   6
ENDBRANCH   3   4
ENDBRANCH   2   3
ENDBRANCH   1   2
BRANCH   1  18
ATOM     18  O   UNL     1       4.066  -1.612  -2.549  1.00  0.00    -0.458 OA
BRANCH  18  19
ATOM     19  C   UNL     1       4.846  -2.021  -1.516  1.00  0.00     0.338 C 
ATOM     20  O   UNL     1       6.008  -2.382  -1.605  1.00  0.00    -0.246 OA
BRANCH  19  21
ATOM     21  C   UNL     1       4.120  -1.869  -0.221  1.00  0.00     0.060 A 
ATOM     22  C   UNL     1       2.857  -1.281  -0.157  1.00  0.00     0.016 A 
ATOM     23  C   UNL     1       4.766  -2.197   0.975  1.00  0.00     0.016 A 
ATOM     24  C   UNL     1       2.330  -0.878   1.074  1.00  0.00     0.010 A 
ATOM     25  C   UNL     1       4.164  -1.913   2.213  1.00  0.00     0.010 A 
ATOM     26  C   UNL     1       2.950  -1.208   2.288  1.00  0.00    -0.014 A 
BRANCH  26  27
ATOM     27  C   UNL     1       2.347  -0.824   3.610  1.00  0.00     0.031 A 
ATOM     28  C   UNL     1       3.191  -0.207   4.706  1.00  0.00     0.074 A 
ATOM     29  C   UNL     1       1.034  -1.027   3.864  1.00  0.00     0.049 A 
ATOM     30  N   UNL     1       2.941  -0.112   5.989  1.00  0.00    -0.248 NA
ATOM     31  C   UNL     1       4.489   0.366   4.313  1.00  0.00     0.031 C 
ATOM     32  C   UNL     1       0.049  -1.552   2.917  1.00  0.00     0.029 A 
ATOM     33  N   UNL     1       0.297  -0.815   5.008  1.00  0.00    -0.354 N 
ATOM     34  C   UNL     1       4.081   0.438   6.568  1.00  0.00     0.074 A 
ATOM     35  C   UNL     1       5.014   0.689   5.489  1.00  0.00     0.031 C 
ATOM     36  C   UNL     1      -1.162  -1.559   3.488  1.00  0.00     0.029 A 
ATOM     37  C   UNL     1      -1.021  -1.192   4.889  1.00  0.00     0.049 A 
ATOM     38  H   UNL     1       0.677  -0.431   5.831  1.00  0.00     0.167 HD
ATOM     39  C   UNL     1       4.330   0.691   7.877  1.00  0.00     0.037 A 
ATOM     40  C   UNL     1      -2.001  -1.323   5.804  1.00  0.00     0.037 A 
ATOM     41  C   UNL     1       3.364   0.528   8.938  1.00  0.00     0.049 A 
ATOM     42  C   UNL     1      -1.703  -1.071   7.250  1.00  0.00     0.074 A 
ATOM     43  C   UNL     1       3.518   0.786  10.291  1.00  0.00     0.029 A 
ATOM     44  N   UNL     1       2.059   0.093   8.766  1.00  0.00    -0.354 N 
ATOM     45  N   UNL     1      -0.579  -0.681   7.800  1.00  0.00    -0.248 NA
ATOM     46  C   UNL     1      -2.792  -1.318   8.203  1.00  0.00     0.031 C 
ATOM     47  C   UNL     1       2.316   0.478  10.940  1.00  0.00     0.029 A 
ATOM     48  C   UNL     1       1.401   0.066   9.986  1.00  0.00     0.049 A 
ATOM     49  H   UNL     1       1.657  -0.160   7.903  1.00  0.00     0.167 HD
ATOM     50  C   UNL     1      -0.824  -0.643   9.166  1.00  0.00     0.074 A 
ATOM     51  C   UNL     1      -2.208  -1.025   9.357  1.00  0.00     0.031 C 
ATOM     52  C   UNL     1       0.029  -0.327  10.172  1.00  0.00     0.037 A 
BRANCH  39  53
ATOM     53  C   UNL     1       5.717   1.130   8.268  1.00  0.00     0.058 A 
ATOM     54  C   UNL     1       6.190   2.430   8.040  1.00  0.00     0.135 A 
ATOM     55  C   UNL     1       6.558   0.242   8.963  1.00  0.00     0.135 A 
ATOM     56  F   UNL     1       5.436   3.316   7.371  1.00  0.00    -0.206 F 
ATOM     57  C   UNL     1       7.452   2.831   8.475  1.00  0.00     0.059 A 
ATOM     58  C   UNL     1       7.812   0.628   9.427  1.00  0.00     0.059 A 
ATOM     59  F   UNL     1       6.154  -1.014   9.214  1.00  0.00    -0.206 F 
ATOM     60  C   UNL     1       8.256   1.923   9.168  1.00  0.00     0.060 A 
BRANCH  60  61
ATOM     61  S   UNL     1       9.880   2.461   9.747  1.00  0.00     0.124 S 
ATOM     62  O   UNL     1      10.647   2.456   8.505  1.00  0.00    -0.237 OA
ATOM     63  O   UNL     1       9.594   3.777  10.309  1.00  0.00    -0.237 OA
ATOM     64  O   UNL     1      10.252   1.437  10.718  1.00  0.00    -0.744 OA
ENDBRANCH  60  61
ENDBRANCH  39  53
BRANCH  40  65
ATOM     65  C   UNL     1      -3.338  -1.811   5.371  1.00  0.00     0.058 A 
ATOM     66  C   UNL     1      -4.442  -0.950   5.331  1.00  0.00     0.135 A 
ATOM     67  C   UNL     1      -3.515  -3.130   4.920  1.00  0.00     0.135 A 
ATOM     68  F   UNL     1      -4.325   0.312   5.770  1.00  0.00    -0.206 F 
ATOM     69  C   UNL     1      -5.673  -1.372   4.839  1.00  0.00     0.059 A 
ATOM     70  C   UNL     1      -4.726  -3.565   4.395  1.00  0.00     0.059 A 
ATOM     71  F   UNL     1      -2.483  -3.988   4.930  1.00  0.00    -0.206 F 
ATOM     72  C   UNL     1      -5.800  -2.678   4.360  1.00  0.00     0.060 A 
BRANCH  72  73
ATOM     73  S   UNL     1      -7.363  -3.187   3.612  1.00  0.00     0.124 S 
ATOM     74  O   UNL     1      -8.170  -3.478   4.791  1.00  0.00    -0.237 OA
ATOM     75  O   UNL     1      -7.746  -2.002   2.851  1.00  0.00    -0.237 OA
ATOM     76  O   UNL     1      -6.983  -4.342   2.803  1.00  0.00    -0.744 OA
ENDBRANCH  72  73
ENDBRANCH  40  65
BRANCH  52  77
ATOM     77  C   UNL     1      -0.524  -0.362  11.567  1.00  0.00     0.058 A 
ATOM     78  C   UNL     1      -0.751  -1.575  12.235  1.00  0.00     0.135 A 
ATOM     79  C   UNL     1      -0.827   0.829  12.244  1.00  0.00     0.135 A 
ATOM     80  F   UNL     1      -0.488  -2.742  11.625  1.00  0.00    -0.206 F 
ATOM     81  C   UNL     1      -1.286  -1.607  13.518  1.00  0.00     0.059 A 
ATOM     82  C   UNL     1      -1.344   0.822  13.535  1.00  0.00     0.059 A 
ATOM     83  F   UNL     1      -0.622   2.015  11.649  1.00  0.00    -0.206 F 
ATOM     84  C   UNL     1      -1.585  -0.402  14.158  1.00  0.00     0.060 A 
BRANCH  84  85
ATOM     85  S   UNL     1      -2.280  -0.452  15.824  1.00  0.00     0.124 S 
ATOM     86  O   UNL     1      -3.665  -0.822  15.553  1.00  0.00    -0.237 OA
ATOM     87  O   UNL     1      -1.466  -1.475  16.475  1.00  0.00    -0.237 OA
ATOM     88  O   UNL     1      -2.077   0.907  16.316  1.00  0.00    -0.744 OA
ENDBRANCH  84  85
ENDBRANCH  52  77
ENDBRANCH  26  27
ENDBRANCH  19  21
ENDBRANCH  18  19
ENDBRANCH   1  18
TORSDOF 17
