REMARK SMILES CC[C@@H](C(=O)OCCOC(=O)c1ccc(-c2c3nc(c(-c4c(F)cc(S(=O)(=O)[O-])cc4F)c4ccc([nH]4)c(-c4c(F)cc(S(=O)(=O)[O-])cc4F)c4nc(c(-c5c(F)cc(S(=O)(=O)[O-])cc5F)c5ccc2[nH]5)C=C4)C=C3)cc1)N(C)C(=O)N(C)C[C@@H]1CCC[N@H+]1C
REMARK SMILES IDX 7 1 6 2 4 3 5 4 3 5 2 6 1 7 78 8 79 9 80 10 81 11 82 12
REMARK SMILES IDX 83 13 84 14 85 15 86 16 89 17 87 18 88 19 90 20 8 22 9 23
REMARK SMILES IDX 10 24 11 25 12 26 13 27 77 28 14 29 76 30 15 31 16 32 17 33
REMARK SMILES IDX 70 34 18 35 75 36 69 37 71 38 19 39 74 40 68 41 67 42 20 44
REMARK SMILES IDX 54 45 33 46 53 47 34 48 37 49 52 50 72 51 35 52 36 53 51 55
REMARK SMILES IDX 73 56 38 57 21 58 22 59 31 60 23 61 24 62 30 63 32 64 25 65
REMARK SMILES IDX 26 66 27 67 28 68 29 69 55 70 56 71 65 72 57 73 58 74 64 75
REMARK SMILES IDX 66 76 59 77 60 78 61 79 62 80 63 81 39 82 40 83 49 84 41 85
REMARK SMILES IDX 42 86 48 87 50 88 43 89 44 90 45 91 46 92 47 93
REMARK H PARENT 89 21 71 43 37 54
REMARK Flexibility Score: inf
ROOT
ATOM      1  C   UNL     1      -3.920  -2.276  -0.964  1.00  0.00     0.274 C 
ENDROOT
BRANCH   1   2
ATOM      2  O   UNL     1      -2.801  -1.722  -1.709  1.00  0.00    -0.461 OA
BRANCH   2   3
ATOM      3  C   UNL     1      -2.981  -1.241  -2.973  1.00  0.00     0.329 C 
ATOM      4  O   UNL     1      -4.044  -1.360  -3.579  1.00  0.00    -0.250 OA
BRANCH   3   5
ATOM      5  C   UNL     1      -1.672  -0.680  -3.642  1.00  0.00     0.196 C 
BRANCH   5   6
ATOM      6  C   UNL     1      -0.405  -0.736  -2.766  1.00  0.00     0.034 C 
ATOM      7  C   UNL     1      -0.064  -2.113  -2.202  1.00  0.00     0.007 C 
ENDBRANCH   5   6
BRANCH   5   8
ATOM      8  N   UNL     1      -1.833   0.597  -4.477  1.00  0.00    -0.314 N 
ATOM      9  C   UNL     1      -2.495   0.360  -5.754  1.00  0.00     0.149 C 
BRANCH   8  10
ATOM     10  C   UNL     1      -1.423   1.848  -3.979  1.00  0.00     0.320 C 
ATOM     11  O   UNL     1      -0.779   1.914  -2.928  1.00  0.00    -0.248 OA
BRANCH  10  12
ATOM     12  N   UNL     1      -1.816   3.068  -4.560  1.00  0.00    -0.322 N 
ATOM     13  C   UNL     1      -2.029   3.337  -5.988  1.00  0.00     0.149 C 
BRANCH  12  14
ATOM     14  C   UNL     1      -1.645   4.343  -3.723  1.00  0.00     0.185 C 
BRANCH  14  15
ATOM     15  C   UNL     1      -2.766   4.894  -2.448  1.00  0.00     0.203 C 
ATOM     16  C   UNL     1      -3.681   3.166  -2.260  1.00  0.00     0.073 C 
ATOM     17  N   UNL     1      -4.124   6.277  -2.390  1.00  0.00    -0.333 N 
ATOM     18  C   UNL     1      -5.837   3.655  -2.247  1.00  0.00     0.068 C 
ATOM     19  C   UNL     1      -5.888   5.642  -2.297  1.00  0.00     0.262 C 
ATOM     20  C   UNL     1      -4.117   7.641  -1.891  1.00  0.00     0.333 C 
ATOM     21  H   UNL     1      -3.589   6.533  -3.219  1.00  0.00     0.348 HD
ENDBRANCH  14  15
ENDBRANCH  12  14
ENDBRANCH  10  12
ENDBRANCH   8  10
ENDBRANCH   5   8
ENDBRANCH   3   5
ENDBRANCH   2   3
ENDBRANCH   1   2
BRANCH   1  22
ATOM     22  C   UNL     1      -4.173  -1.467   0.317  1.00  0.00     0.275 C 
BRANCH  22  23
ATOM     23  O   UNL     1      -4.978  -0.326  -0.026  1.00  0.00    -0.458 OA
BRANCH  23  24
ATOM     24  C   UNL     1      -4.224   0.638  -0.578  1.00  0.00     0.338 C 
ATOM     25  O   UNL     1      -3.003   0.681  -0.580  1.00  0.00    -0.246 OA
BRANCH  24  26
ATOM     26  C   UNL     1      -5.033   1.694  -1.212  1.00  0.00     0.060 A 
ATOM     27  C   UNL     1      -5.141   1.572  -2.932  1.00  0.00     0.016 A 
ATOM     28  C   UNL     1      -4.778   3.123  -0.373  1.00  0.00     0.016 A 
ATOM     29  C   UNL     1      -4.870   2.866  -4.035  1.00  0.00     0.010 A 
ATOM     30  C   UNL     1      -4.483   4.526  -1.335  1.00  0.00     0.010 A 
ATOM     31  C   UNL     1      -4.526   4.448  -3.368  1.00  0.00    -0.014 A 
BRANCH  31  32
ATOM     32  C   UNL     1      -4.225   5.686  -4.637  1.00  0.00     0.031 A 
ATOM     33  C   UNL     1      -3.137   7.024  -4.614  1.00  0.00     0.074 A 
ATOM     34  C   UNL     1      -5.149   5.759  -5.626  1.00  0.00     0.049 A 
ATOM     35  N   UNL     1      -3.213   8.188  -5.273  1.00  0.00    -0.248 NA
ATOM     36  C   UNL     1      -1.933   7.086  -3.723  1.00  0.00     0.031 C 
ATOM     37  C   UNL     1      -6.212   4.791  -5.872  1.00  0.00     0.029 A 
ATOM     38  N   UNL     1      -5.387   6.734  -6.578  1.00  0.00    -0.354 N 
ATOM     39  C   UNL     1      -2.184   9.039  -4.768  1.00  0.00     0.074 A 
ATOM     40  C   UNL     1      -1.457   8.302  -3.804  1.00  0.00     0.031 C 
ATOM     41  C   UNL     1      -6.943   5.168  -6.922  1.00  0.00     0.029 A 
ATOM     42  C   UNL     1      -6.529   6.502  -7.317  1.00  0.00     0.049 A 
ATOM     43  H   UNL     1      -4.801   7.513  -6.714  1.00  0.00     0.167 HD
ATOM     44  C   UNL     1      -1.849  10.342  -4.963  1.00  0.00     0.037 A 
ATOM     45  C   UNL     1      -7.262   7.271  -8.145  1.00  0.00     0.037 A 
ATOM     46  C   UNL     1      -2.545  11.185  -5.874  1.00  0.00     0.049 A 
ATOM     47  C   UNL     1      -6.870   8.694  -8.399  1.00  0.00     0.074 A 
ATOM     48  C   UNL     1      -2.288  12.500  -6.205  1.00  0.00     0.029 A 
ATOM     49  N   UNL     1      -3.654  10.780  -6.587  1.00  0.00    -0.354 N 
ATOM     50  N   UNL     1      -5.895   9.394  -7.874  1.00  0.00    -0.248 NA
ATOM     51  C   UNL     1      -7.698   9.434  -9.360  1.00  0.00     0.031 C 
ATOM     52  C   UNL     1      -3.290  12.916  -7.080  1.00  0.00     0.029 A 
ATOM     53  C   UNL     1      -4.102  11.827  -7.358  1.00  0.00     0.049 A 
ATOM     54  H   UNL     1      -4.060   9.883  -6.550  1.00  0.00     0.167 HD
ATOM     55  C   UNL     1      -5.972  10.647  -8.472  1.00  0.00     0.074 A 
ATOM     56  C   UNL     1      -7.080  10.604  -9.400  1.00  0.00     0.031 C 
ATOM     57  C   UNL     1      -5.196  11.740  -8.279  1.00  0.00     0.037 A 
BRANCH  44  58
ATOM     58  C   UNL     1      -0.721  10.966  -4.128  1.00  0.00     0.058 A 
ATOM     59  C   UNL     1       0.618  10.539  -4.221  1.00  0.00     0.135 A 
ATOM     60  C   UNL     1      -0.989  12.001  -3.209  1.00  0.00     0.135 A 
ATOM     61  F   UNL     1       0.951   9.535  -5.048  1.00  0.00    -0.206 F 
ATOM     62  C   UNL     1       1.626  11.075  -3.415  1.00  0.00     0.059 A 
ATOM     63  C   UNL     1       0.013  12.586  -2.430  1.00  0.00     0.059 A 
ATOM     64  F   UNL     1      -2.241  12.457  -3.051  1.00  0.00    -0.206 F 
ATOM     65  C   UNL     1       1.317  12.105  -2.528  1.00  0.00     0.060 A 
BRANCH  65  66
ATOM     66  S   UNL     1       2.646  12.813  -1.525  1.00  0.00     0.124 S 
ATOM     67  O   UNL     1       2.917  11.729  -0.584  1.00  0.00    -0.237 OA
ATOM     68  O   UNL     1       3.685  13.061  -2.518  1.00  0.00    -0.237 OA
ATOM     69  O   UNL     1       2.039  14.007  -0.945  1.00  0.00    -0.744 OA
ENDBRANCH  65  66
ENDBRANCH  44  58
BRANCH  45  70
ATOM     70  C   UNL     1      -8.481   6.690  -8.783  1.00  0.00     0.058 A 
ATOM     71  C   UNL     1      -8.487   6.387 -10.152  1.00  0.00     0.135 A 
ATOM     72  C   UNL     1      -9.621   6.349  -8.034  1.00  0.00     0.135 A 
ATOM     73  F   UNL     1      -7.426   6.700 -10.911  1.00  0.00    -0.206 F 
ATOM     74  C   UNL     1      -9.574   5.768 -10.756  1.00  0.00     0.059 A 
ATOM     75  C   UNL     1     -10.704   5.690  -8.608  1.00  0.00     0.059 A 
ATOM     76  F   UNL     1      -9.658   6.591  -6.713  1.00  0.00    -0.206 F 
ATOM     77  C   UNL     1     -10.673   5.410  -9.973  1.00  0.00     0.060 A 
BRANCH  77  78
ATOM     78  S   UNL     1     -12.035   4.523 -10.758  1.00  0.00     0.124 S 
ATOM     79  O   UNL     1     -12.621   5.565 -11.593  1.00  0.00    -0.237 OA
ATOM     80  O   UNL     1     -11.335   3.455 -11.465  1.00  0.00    -0.237 OA
ATOM     81  O   UNL     1     -12.850   4.087  -9.627  1.00  0.00    -0.744 OA
ENDBRANCH  77  78
ENDBRANCH  45  70
BRANCH  57  82
ATOM     82  C   UNL     1      -5.455  12.941  -9.129  1.00  0.00     0.058 A 
ATOM     83  C   UNL     1      -6.587  13.746  -8.951  1.00  0.00     0.135 A 
ATOM     84  C   UNL     1      -4.500  13.328 -10.084  1.00  0.00     0.135 A 
ATOM     85  F   UNL     1      -7.520  13.414  -8.045  1.00  0.00    -0.206 F 
ATOM     86  C   UNL     1      -6.784  14.882  -9.723  1.00  0.00     0.059 A 
ATOM     87  C   UNL     1      -4.657  14.482 -10.836  1.00  0.00     0.059 A 
ATOM     88  F   UNL     1      -3.389  12.597 -10.270  1.00  0.00    -0.206 F 
ATOM     89  C   UNL     1      -5.810  15.243 -10.658  1.00  0.00     0.060 A 
BRANCH  89  90
ATOM     90  S   UNL     1      -6.069  16.736 -11.631  1.00  0.00     0.124 S 
ATOM     91  O   UNL     1      -7.166  16.329 -12.503  1.00  0.00    -0.237 OA
ATOM     92  O   UNL     1      -6.403  17.718 -10.605  1.00  0.00    -0.237 OA
ATOM     93  O   UNL     1      -4.784  16.939 -12.293  1.00  0.00    -0.744 OA
ENDBRANCH  89  90
ENDBRANCH  57  82
ENDBRANCH  31  32
ENDBRANCH  24  26
ENDBRANCH  23  24
ENDBRANCH  22  23
ENDBRANCH   1  22
TORSDOF 20
