REMARK SMILES O=C(OCCOC(=O)c1nc2c(F)cccc2s1)c1ccc(-c2c3nc(c(-c4c(F)cc(S(=O)(=O)[O-])cc4F)c4ccc([nH]4)c(-c4c(F)cc(S(=O)(=O)[O-])cc4F)c4nc(c(-c5c(F)cc(S(=O)(=O)[O-])cc5F)c5ccc2[nH]5)C=C4)C=C3)cc1
REMARK SMILES IDX 3 1 2 2 1 3 19 4 20 5 84 6 21 7 83 8 22 9 23 10 24 11 77 12
REMARK SMILES IDX 25 13 82 14 76 15 78 16 26 17 81 18 75 19 74 20 27 22 61 23
REMARK SMILES IDX 40 24 60 25 41 26 44 27 59 28 79 29 42 30 43 31 58 33 80 34
REMARK SMILES IDX 45 35 28 36 29 37 38 38 30 39 31 40 37 41 39 42 32 43 33 44
REMARK SMILES IDX 34 45 35 46 36 47 62 48 63 49 72 50 64 51 65 52 71 53 73 54
REMARK SMILES IDX 66 55 67 56 68 57 69 58 70 59 46 60 47 61 56 62 48 63 49 64
REMARK SMILES IDX 55 65 57 66 50 67 51 68 52 69 53 70 54 71 4 72 5 73 6 74
REMARK SMILES IDX 7 75 8 76 9 77 10 78 18 79 11 80 17 81 12 82 16 83 13 84
REMARK SMILES IDX 14 85 15 86
REMARK H PARENT 78 21 44 32
REMARK Flexibility Score: inf
ROOT
ATOM      1  O   UNL     1       3.294  -1.127   1.245  1.00  0.00    -0.458 OA
ENDROOT
BRANCH   1   2
ATOM      2  C   UNL     1       2.339  -0.331   0.709  1.00  0.00     0.338 C 
ATOM      3  O   UNL     1       1.369  -0.767   0.106  1.00  0.00    -0.246 OA
BRANCH   2   4
ATOM      4  C   UNL     1       2.462   1.087   1.132  1.00  0.00     0.060 A 
ATOM      5  C   UNL     1       3.693   1.651   1.478  1.00  0.00     0.016 A 
ATOM      6  C   UNL     1       1.298   1.867   1.196  1.00  0.00     0.016 A 
ATOM      7  C   UNL     1       3.758   2.951   1.945  1.00  0.00     0.010 A 
ATOM      8  C   UNL     1       1.358   3.174   1.677  1.00  0.00     0.010 A 
ATOM      9  C   UNL     1       2.588   3.700   2.072  1.00  0.00    -0.014 A 
BRANCH   9  10
ATOM     10  C   UNL     1       2.749   5.058   2.570  1.00  0.00     0.031 A 
ATOM     11  C   UNL     1       3.385   6.022   1.631  1.00  0.00     0.074 A 
ATOM     12  C   UNL     1       2.316   5.452   3.781  1.00  0.00     0.049 A 
ATOM     13  N   UNL     1       4.507   6.654   1.759  1.00  0.00    -0.248 NA
ATOM     14  C   UNL     1       2.712   6.247   0.344  1.00  0.00     0.031 C 
ATOM     15  C   UNL     1       1.428   4.729   4.693  1.00  0.00     0.029 A 
ATOM     16  N   UNL     1       2.510   6.646   4.409  1.00  0.00    -0.354 N 
ATOM     17  C   UNL     1       4.585   7.516   0.666  1.00  0.00     0.074 A 
ATOM     18  C   UNL     1       3.531   7.125  -0.235  1.00  0.00     0.031 C 
ATOM     19  C   UNL     1       0.995   5.580   5.649  1.00  0.00     0.029 A 
ATOM     20  C   UNL     1       1.666   6.860   5.488  1.00  0.00     0.049 A 
ATOM     21  H   UNL     1       3.189   7.299   4.121  1.00  0.00     0.167 HD
ATOM     22  C   UNL     1       5.373   8.627   0.673  1.00  0.00     0.037 A 
ATOM     23  C   UNL     1       1.474   8.033   6.139  1.00  0.00     0.037 A 
ATOM     24  C   UNL     1       6.412   8.545   1.666  1.00  0.00     0.049 A 
ATOM     25  C   UNL     1       2.660   8.891   5.878  1.00  0.00     0.074 A 
ATOM     26  C   UNL     1       7.450   7.669   1.920  1.00  0.00     0.029 A 
ATOM     27  N   UNL     1       6.297   9.317   2.795  1.00  0.00    -0.354 N 
ATOM     28  N   UNL     1       3.863   8.649   6.325  1.00  0.00    -0.248 NA
ATOM     29  C   UNL     1       2.585   9.852   4.788  1.00  0.00     0.031 C 
ATOM     30  C   UNL     1       7.572   7.638   3.340  1.00  0.00     0.029 A 
ATOM     31  C   UNL     1       6.622   8.517   3.860  1.00  0.00     0.049 A 
ATOM     32  H   UNL     1       6.033  10.265   2.833  1.00  0.00     0.167 HD
ATOM     33  C   UNL     1       4.713   9.106   5.329  1.00  0.00     0.074 A 
ATOM     34  C   UNL     1       3.877   9.932   4.466  1.00  0.00     0.031 C 
ATOM     35  C   UNL     1       5.950   8.560   5.141  1.00  0.00     0.037 A 
BRANCH  22  36
ATOM     36  C   UNL     1       4.989   9.934   0.015  1.00  0.00     0.058 A 
ATOM     37  C   UNL     1       5.934  10.978  -0.071  1.00  0.00     0.135 A 
ATOM     38  C   UNL     1       3.652  10.300  -0.263  1.00  0.00     0.135 A 
ATOM     39  F   UNL     1       7.233  10.748   0.180  1.00  0.00    -0.206 F 
ATOM     40  C   UNL     1       5.566  12.300  -0.330  1.00  0.00     0.059 A 
ATOM     41  C   UNL     1       3.273  11.600  -0.578  1.00  0.00     0.059 A 
ATOM     42  F   UNL     1       2.635   9.438  -0.143  1.00  0.00    -0.206 F 
ATOM     43  C   UNL     1       4.228  12.602  -0.561  1.00  0.00     0.060 A 
BRANCH  43  44
ATOM     44  S   UNL     1       3.727  14.321  -0.758  1.00  0.00     0.124 S 
ATOM     45  O   UNL     1       3.905  14.828   0.598  1.00  0.00    -0.237 OA
ATOM     46  O   UNL     1       4.680  14.803  -1.752  1.00  0.00    -0.237 OA
ATOM     47  O   UNL     1       2.347  14.216  -1.220  1.00  0.00    -0.744 OA
ENDBRANCH  43  44
ENDBRANCH  22  36
BRANCH  23  48
ATOM     48  C   UNL     1       0.195   8.573   6.672  1.00  0.00     0.058 A 
ATOM     49  C   UNL     1       0.177   9.718   7.490  1.00  0.00     0.135 A 
ATOM     50  C   UNL     1      -1.054   8.152   6.171  1.00  0.00     0.135 A 
ATOM     51  F   UNL     1       1.321  10.206   7.994  1.00  0.00    -0.206 F 
ATOM     52  C   UNL     1      -0.998  10.431   7.750  1.00  0.00     0.059 A 
ATOM     53  C   UNL     1      -2.240   8.834   6.432  1.00  0.00     0.059 A 
ATOM     54  F   UNL     1      -1.153   7.112   5.330  1.00  0.00    -0.206 F 
ATOM     55  C   UNL     1      -2.201   9.991   7.197  1.00  0.00     0.060 A 
BRANCH  55  56
ATOM     56  S   UNL     1      -3.687  11.003   7.380  1.00  0.00     0.124 S 
ATOM     57  O   UNL     1      -3.949  10.898   8.812  1.00  0.00    -0.237 OA
ATOM     58  O   UNL     1      -3.230  12.306   6.910  1.00  0.00    -0.237 OA
ATOM     59  O   UNL     1      -4.660  10.338   6.518  1.00  0.00    -0.744 OA
ENDBRANCH  55  56
ENDBRANCH  23  48
BRANCH  35  60
ATOM     60  C   UNL     1       6.538   7.704   6.230  1.00  0.00     0.058 A 
ATOM     61  C   UNL     1       6.011   6.464   6.626  1.00  0.00     0.135 A 
ATOM     62  C   UNL     1       7.791   8.068   6.750  1.00  0.00     0.135 A 
ATOM     63  F   UNL     1       4.869   6.000   6.099  1.00  0.00    -0.206 F 
ATOM     64  C   UNL     1       6.692   5.630   7.515  1.00  0.00     0.059 A 
ATOM     65  C   UNL     1       8.500   7.239   7.615  1.00  0.00     0.059 A 
ATOM     66  F   UNL     1       8.373   9.215   6.363  1.00  0.00    -0.206 F 
ATOM     67  C   UNL     1       7.943   6.020   7.995  1.00  0.00     0.060 A 
BRANCH  67  68
ATOM     68  S   UNL     1       8.879   4.876   9.034  1.00  0.00     0.124 S 
ATOM     69  O   UNL     1       8.130   4.913  10.286  1.00  0.00    -0.237 OA
ATOM     70  O   UNL     1       8.797   3.627   8.282  1.00  0.00    -0.237 OA
ATOM     71  O   UNL     1      10.211   5.473   9.086  1.00  0.00    -0.744 OA
ENDBRANCH  67  68
ENDBRANCH  35  60
ENDBRANCH   9  10
ENDBRANCH   2   4
ENDBRANCH   1   2
BRANCH   1  72
ATOM     72  C   UNL     1       4.518  -1.371   0.521  1.00  0.00     0.275 C 
BRANCH  72  73
ATOM     73  C   UNL     1       4.425  -1.457  -1.000  1.00  0.00     0.275 C 
BRANCH  73  74
ATOM     74  O   UNL     1       3.968  -0.221  -1.571  1.00  0.00    -0.457 OA
BRANCH  74  75
ATOM     75  C   UNL     1       2.945  -0.327  -2.473  1.00  0.00     0.367 C 
ATOM     76  O   UNL     1       2.456  -1.397  -2.855  1.00  0.00    -0.243 OA
BRANCH  75  77
ATOM     77  C   UNL     1       2.600   0.975  -2.987  1.00  0.00     0.203 A 
ATOM     78  N   UNL     1       1.561   1.683  -2.594  1.00  0.00    -0.226 NA
ATOM     79  S   UNL     1       3.521   1.626  -4.272  1.00  0.00    -0.107 S 
ATOM     80  C   UNL     1       1.446   2.821  -3.386  1.00  0.00     0.118 A 
ATOM     81  C   UNL     1       2.424   2.950  -4.378  1.00  0.00     0.058 A 
ATOM     82  C   UNL     1       0.456   3.824  -3.308  1.00  0.00     0.150 A 
ATOM     83  C   UNL     1       2.433   4.022  -5.288  1.00  0.00     0.021 A 
ATOM     84  F   UNL     1      -0.509   3.760  -2.379  1.00  0.00    -0.205 F 
ATOM     85  C   UNL     1       0.450   4.895  -4.205  1.00  0.00     0.041 A 
ATOM     86  C   UNL     1       1.428   4.989  -5.189  1.00  0.00     0.005 A 
ENDBRANCH  75  77
ENDBRANCH  74  75
ENDBRANCH  73  74
ENDBRANCH  72  73
ENDBRANCH   1  72
TORSDOF 14
