REMARK SMILES C[C@]12c3ccccc3[C@](C)(c3ccccc31)[C@@H]1C(=O)N(c3ccc(C(=O)OCCOC(=O)c4ccc(-c5c6nc(c(-c7c(F)cc(S(=O)(=O)[O-])cc7F)c7ccc([nH]7)c(-c7c(F)cc(S(=O)(=O)[O-])cc7F)c7nc(c(-c8c(F)cc(S(=O)(=O)[O-])cc8F)c8ccc5[nH]8)C=C7)C=C6)cc4)cc3)C(=O)[C@H]12
REMARK SMILES IDX 29 1 28 2 27 3 25 4 26 5 24 6 21 7 22 8 100 9 23 10 99 11
REMARK SMILES IDX 20 12 1 13 2 14 16 15 3 16 103 17 15 18 11 19 8 20 4 21
REMARK SMILES IDX 17 22 101 23 14 24 12 25 9 26 7 27 5 28 18 29 102 30 13 31
REMARK SMILES IDX 10 32 6 33 19 34 30 35 31 36 32 37 33 38 34 39 98 40 35 41
REMARK SMILES IDX 97 42 36 43 37 44 38 45 91 46 39 47 96 48 90 49 92 50 40 51
REMARK SMILES IDX 95 52 89 53 88 54 41 56 75 57 54 58 74 59 55 60 58 61 73 62
REMARK SMILES IDX 93 63 56 64 57 65 72 67 94 68 59 69 42 70 43 71 52 72 44 73
REMARK SMILES IDX 45 74 51 75 53 76 46 77 47 78 48 79 49 80 50 81 76 82 77 83
REMARK SMILES IDX 86 84 78 85 79 86 85 87 87 88 80 89 81 90 82 91 83 92 84 93
REMARK SMILES IDX 60 94 61 95 70 96 62 97 63 98 69 99 71 100 64 101 65 102
REMARK SMILES IDX 66 103 67 104 68 105
REMARK H PARENT 92 55 58 66
REMARK Flexibility Score: inf
ROOT
ATOM      1  C   UNL     1      -0.743  10.601   3.677  1.00  0.00     0.275 C 
ENDROOT
BRANCH   1   2
ATOM      2  C   UNL     1      -1.373   9.946   4.907  1.00  0.00     0.275 C 
BRANCH   2   3
ATOM      3  O   UNL     1      -1.196   8.515   4.879  1.00  0.00    -0.458 OA
BRANCH   3   4
ATOM      4  C   UNL     1      -2.287   7.785   4.541  1.00  0.00     0.338 C 
ATOM      5  O   UNL     1      -3.403   8.214   4.299  1.00  0.00    -0.246 OA
BRANCH   4   6
ATOM      6  C   UNL     1      -1.915   6.359   4.363  1.00  0.00     0.060 A 
ATOM      7  C   UNL     1      -1.173   3.724   3.802  1.00  0.00     0.052 A 
ATOM      8  C   UNL     1      -2.181   4.332   3.057  1.00  0.00     0.028 A 
ATOM      9  C   UNL     1      -0.565   4.414   4.859  1.00  0.00     0.028 A 
ATOM     10  C   UNL     1      -2.594   5.620   3.386  1.00  0.00     0.018 A 
ATOM     11  C   UNL     1      -0.906   5.748   5.113  1.00  0.00     0.018 A 
BRANCH   7  12
ATOM     12  N   UNL     1      -0.800   2.412   3.500  1.00  0.00    -0.250 N 
ATOM     13  C   UNL     1       0.839  -0.070   0.087  1.00  0.00     0.022 C 
ATOM     14  C   UNL     1       0.521  -0.519   1.512  1.00  0.00     0.030 C 
ATOM     15  C   UNL     1       1.739  -1.011   2.341  1.00  0.00    -0.033 A 
ATOM     16  C   UNL     1      -0.495  -1.702   1.606  1.00  0.00    -0.033 A 
ATOM     17  C   UNL     1      -0.287   0.546   2.296  1.00  0.00     0.108 C 
ATOM     18  C   UNL     1       3.060  -1.056   1.909  1.00  0.00     0.005 A 
ATOM     19  C   UNL     1       1.408  -1.486   3.660  1.00  0.00    -0.033 A 
ATOM     20  C   UNL     1      -0.877  -2.021   2.954  1.00  0.00    -0.033 A 
ATOM     21  C   UNL     1      -1.052  -2.390   0.530  1.00  0.00     0.005 A 
ATOM     22  C   UNL     1      -0.123   0.274   3.796  1.00  0.00     0.108 C 
ATOM     23  C   UNL     1      -0.172   2.039   2.306  1.00  0.00     0.238 C 
ATOM     24  C   UNL     1       4.042  -1.558   2.768  1.00  0.00     0.000 A 
ATOM     25  C   UNL     1       2.394  -1.994   4.501  1.00  0.00     0.005 A 
ATOM     26  C   UNL     1      -0.088  -1.249   4.041  1.00  0.00     0.030 C 
ATOM     27  C   UNL     1      -1.825  -3.016   3.180  1.00  0.00     0.005 A 
ATOM     28  C   UNL     1      -1.994  -3.387   0.781  1.00  0.00     0.000 A 
ATOM     29  C   UNL     1      -0.997   1.339   4.370  1.00  0.00     0.238 C 
ATOM     30  O   UNL     1       0.288   2.738   1.423  1.00  0.00    -0.274 OA
ATOM     31  C   UNL     1       3.712  -2.026   4.047  1.00  0.00     0.000 A 
ATOM     32  C   UNL     1      -0.453  -1.601   5.481  1.00  0.00     0.022 C 
ATOM     33  C   UNL     1      -2.382  -3.692   2.091  1.00  0.00     0.000 A 
ATOM     34  O   UNL     1      -1.598   1.296   5.427  1.00  0.00    -0.274 OA
ENDBRANCH   7  12
ENDBRANCH   4   6
ENDBRANCH   3   4
ENDBRANCH   2   3
ENDBRANCH   1   2
BRANCH   1  35
ATOM     35  O   UNL     1      -1.527  10.324   2.503  1.00  0.00    -0.458 OA
BRANCH  35  36
ATOM     36  C   UNL     1      -0.958   9.508   1.585  1.00  0.00     0.338 C 
ATOM     37  O   UNL     1       0.155   9.014   1.615  1.00  0.00    -0.246 OA
BRANCH  36  38
ATOM     38  C   UNL     1      -1.954   9.216   0.543  1.00  0.00     0.060 A 
ATOM     39  C   UNL     1      -2.009   9.940  -0.643  1.00  0.00     0.016 A 
ATOM     40  C   UNL     1      -2.815   8.142   0.748  1.00  0.00     0.016 A 
ATOM     41  C   UNL     1      -2.964   9.593  -1.609  1.00  0.00     0.010 A 
ATOM     42  C   UNL     1      -3.724   7.758  -0.233  1.00  0.00     0.010 A 
ATOM     43  C   UNL     1      -3.827   8.495  -1.418  1.00  0.00    -0.014 A 
BRANCH  43  44
ATOM     44  C   UNL     1      -4.824   8.105  -2.454  1.00  0.00     0.031 A 
ATOM     45  C   UNL     1      -6.304   8.156  -2.165  1.00  0.00     0.074 A 
ATOM     46  C   UNL     1      -4.395   7.667  -3.654  1.00  0.00     0.049 A 
ATOM     47  N   UNL     1      -7.309   7.881  -2.959  1.00  0.00    -0.248 NA
ATOM     48  C   UNL     1      -6.710   8.535  -0.801  1.00  0.00     0.031 C 
ATOM     49  C   UNL     1      -2.993   7.482  -4.033  1.00  0.00     0.029 A 
ATOM     50  N   UNL     1      -5.092   7.309  -4.782  1.00  0.00    -0.354 N 
ATOM     51  C   UNL     1      -8.459   8.044  -2.193  1.00  0.00     0.074 A 
ATOM     52  C   UNL     1      -8.026   8.386  -0.855  1.00  0.00     0.031 C 
ATOM     53  C   UNL     1      -2.931   7.104  -5.320  1.00  0.00     0.029 A 
ATOM     54  C   UNL     1      -4.287   6.996  -5.851  1.00  0.00     0.049 A 
ATOM     55  H   UNL     1      -6.076   7.279  -4.820  1.00  0.00     0.167 HD
ATOM     56  C   UNL     1      -9.756   7.951  -2.574  1.00  0.00     0.037 A 
ATOM     57  C   UNL     1      -4.601   6.679  -7.122  1.00  0.00     0.037 A 
ATOM     58  C   UNL     1     -10.187   7.655  -3.916  1.00  0.00     0.049 A 
ATOM     59  C   UNL     1      -6.045   6.640  -7.539  1.00  0.00     0.074 A 
ATOM     60  C   UNL     1     -11.477   7.609  -4.415  1.00  0.00     0.029 A 
ATOM     61  N   UNL     1      -9.339   7.368  -4.974  1.00  0.00    -0.354 N 
ATOM     62  N   UNL     1      -7.116   6.863  -6.816  1.00  0.00    -0.248 NA
ATOM     63  C   UNL     1      -6.324   6.312  -8.944  1.00  0.00     0.031 C 
ATOM     64  C   UNL     1     -11.410   7.271  -5.772  1.00  0.00     0.029 A 
ATOM     65  C   UNL     1     -10.077   7.138  -6.124  1.00  0.00     0.049 A 
ATOM     66  H   UNL     1      -8.357   7.333  -4.918  1.00  0.00     0.167 HD
ATOM     67  C   UNL     1      -8.194   6.714  -7.680  1.00  0.00     0.074 A 
ATOM     68  C   UNL     1      -7.647   6.400  -8.984  1.00  0.00     0.031 C 
ATOM     69  C   UNL     1      -9.519   6.825  -7.415  1.00  0.00     0.037 A 
BRANCH  56  70
ATOM     70  C   UNL     1     -10.812   8.210  -1.533  1.00  0.00     0.058 A 
ATOM     71  C   UNL     1     -11.055   9.505  -1.048  1.00  0.00     0.135 A 
ATOM     72  C   UNL     1     -11.627   7.170  -1.056  1.00  0.00     0.135 A 
ATOM     73  F   UNL     1     -10.299  10.534  -1.462  1.00  0.00    -0.206 F 
ATOM     74  C   UNL     1     -12.049   9.757  -0.109  1.00  0.00     0.059 A 
ATOM     75  C   UNL     1     -12.645   7.403  -0.135  1.00  0.00     0.059 A 
ATOM     76  F   UNL     1     -11.442   5.913  -1.490  1.00  0.00    -0.206 F 
ATOM     77  C   UNL     1     -12.840   8.699   0.342  1.00  0.00     0.060 A 
BRANCH  77  78
ATOM     78  S   UNL     1     -14.137   9.048   1.548  1.00  0.00     0.124 S 
ATOM     79  O   UNL     1     -13.356   9.264   2.763  1.00  0.00    -0.237 OA
ATOM     80  O   UNL     1     -14.775  10.235   0.987  1.00  0.00    -0.237 OA
ATOM     81  O   UNL     1     -14.951   7.837   1.534  1.00  0.00    -0.744 OA
ENDBRANCH  77  78
ENDBRANCH  56  70
BRANCH  57  82
ATOM     82  C   UNL     1      -3.516   6.444  -8.110  1.00  0.00     0.058 A 
ATOM     83  C   UNL     1      -3.214   7.409  -9.081  1.00  0.00     0.135 A 
ATOM     84  C   UNL     1      -2.738   5.277  -8.080  1.00  0.00     0.135 A 
ATOM     85  F   UNL     1      -3.936   8.539  -9.151  1.00  0.00    -0.206 F 
ATOM     86  C   UNL     1      -2.181   7.226  -9.993  1.00  0.00     0.059 A 
ATOM     87  C   UNL     1      -1.686   5.080  -8.969  1.00  0.00     0.059 A 
ATOM     88  F   UNL     1      -2.979   4.332  -7.159  1.00  0.00    -0.206 F 
ATOM     89  C   UNL     1      -1.418   6.059  -9.926  1.00  0.00     0.060 A 
BRANCH  89  90
ATOM     90  S   UNL     1      -0.037   5.863 -11.073  1.00  0.00     0.124 S 
ATOM     91  O   UNL     1      -0.731   5.575 -12.322  1.00  0.00    -0.237 OA
ATOM     92  O   UNL     1       0.618   7.165 -10.991  1.00  0.00    -0.237 OA
ATOM     93  O   UNL     1       0.719   4.753 -10.500  1.00  0.00    -0.744 OA
ENDBRANCH  89  90
ENDBRANCH  57  82
BRANCH  69  94
ATOM     94  C   UNL     1     -10.474   6.610  -8.553  1.00  0.00     0.058 A 
ATOM     95  C   UNL     1     -10.759   5.322  -9.032  1.00  0.00     0.135 A 
ATOM     96  C   UNL     1     -11.160   7.692  -9.126  1.00  0.00     0.135 A 
ATOM     97  F   UNL     1     -10.125   4.255  -8.521  1.00  0.00    -0.206 F 
ATOM     98  C   UNL     1     -11.685   5.115 -10.049  1.00  0.00     0.059 A 
ATOM     99  C   UNL     1     -12.105   7.507 -10.130  1.00  0.00     0.059 A 
ATOM    100  F   UNL     1     -10.928   8.943  -8.697  1.00  0.00    -0.206 F 
ATOM    101  C   UNL     1     -12.355   6.214 -10.590  1.00  0.00     0.060 A 
BRANCH 101 102
ATOM    102  S   UNL     1     -13.587   5.927 -11.878  1.00  0.00     0.124 S 
ATOM    103  O   UNL     1     -12.744   5.631 -13.031  1.00  0.00    -0.237 OA
ATOM    104  O   UNL     1     -14.345   4.800 -11.341  1.00  0.00    -0.237 OA
ATOM    105  O   UNL     1     -14.316   7.190 -11.940  1.00  0.00    -0.744 OA
ENDBRANCH 101 102
ENDBRANCH  69  94
ENDBRANCH  43  44
ENDBRANCH  36  38
ENDBRANCH  35  36
ENDBRANCH   1  35
TORSDOF 15
