REMARK SMILES CC1(C)NC(=O)N(CCC(=O)N2CCC[C@H]2C(=O)OCCOC(=O)c2ccc(-c3c4nc(c(-c5c(F)cc(S(=O)(=O)[O-])cc5F)c5ccc([nH]5)c(-c5c(F)cc(S(=O)(=O)[O-])cc5F)c5nc(c(-c6c(F)cc(S(=O)(=O)[O-])cc6F)c6ccc3[nH]6)C=C5)C=C4)cc2)C1=O
REMARK SMILES IDX 20 1 19 2 17 3 18 4 16 5 12 6 13 7 14 8 15 9 10 10 11 11
REMARK SMILES IDX 9 12 8 13 7 14 1 15 2 16 3 17 4 18 91 19 5 20 92 22 6 23
REMARK SMILES IDX 21 24 22 25 23 26 24 27 25 28 26 29 90 30 27 31 89 32 28 33
REMARK SMILES IDX 29 34 30 35 83 36 31 37 88 38 82 39 84 40 32 41 87 42 81 43
REMARK SMILES IDX 80 44 33 46 67 47 46 48 66 49 47 50 50 51 65 52 85 53 48 54
REMARK SMILES IDX 49 55 64 57 86 58 51 59 34 60 35 61 44 62 36 63 37 64 43 65
REMARK SMILES IDX 45 66 38 67 39 68 40 69 41 70 42 71 68 72 69 73 78 74 70 75
REMARK SMILES IDX 71 76 77 77 79 78 72 79 73 80 74 81 75 82 76 83 52 84 53 85
REMARK SMILES IDX 62 86 54 87 55 88 61 89 63 90 56 91 57 92 58 93 59 94 60 95
REMARK H PARENT 4 21 84 45 50 56
REMARK Flexibility Score: inf
ROOT
ATOM      1  C   UNL     1      -1.426  -1.221  -3.432  1.00  0.00     0.274 C 
ENDROOT
BRANCH   1   2
ATOM      2  O   UNL     1      -0.447  -2.259  -3.132  1.00  0.00    -0.461 OA
BRANCH   2   3
ATOM      3  C   UNL     1      -0.810  -3.571  -3.163  1.00  0.00     0.328 C 
ATOM      4  O   UNL     1      -1.873  -3.978  -3.612  1.00  0.00    -0.250 OA
BRANCH   3   5
ATOM      5  C   UNL     1       0.253  -4.449  -2.446  1.00  0.00     0.195 C 
ATOM      6  N   UNL     1      -0.219  -5.767  -2.054  1.00  0.00    -0.329 N 
ATOM      7  C   UNL     1       0.453  -6.779  -2.842  1.00  0.00     0.120 C 
ATOM      8  C   UNL     1       1.853  -6.208  -2.940  1.00  0.00     0.024 C 
ATOM      9  C   UNL     1       1.605  -4.705  -3.117  1.00  0.00     0.039 C 
BRANCH   6  10
ATOM     10  C   UNL     1      -0.913  -6.056  -0.899  1.00  0.00     0.225 C 
ATOM     11  O   UNL     1      -1.078  -7.218  -0.522  1.00  0.00    -0.275 OA
BRANCH  10  12
ATOM     12  C   UNL     1      -1.550  -4.900  -0.138  1.00  0.00     0.122 C 
BRANCH  12  13
ATOM     13  C   UNL     1      -0.747  -4.152   0.946  1.00  0.00     0.140 C 
BRANCH  13  14
ATOM     14  N   UNL     1       0.440  -3.343   0.613  1.00  0.00    -0.262 N 
ATOM     15  C   UNL     1       1.827  -0.234   0.685  1.00  0.00     0.045 C 
ATOM     16  C   UNL     1       1.828  -1.526  -0.127  1.00  0.00     0.115 C 
ATOM     17  C   UNL     1       2.281  -1.226  -1.555  1.00  0.00     0.045 C 
ATOM     18  N   UNL     1       2.541  -2.591   0.525  1.00  0.00    -0.324 N 
ATOM     19  C   UNL     1       0.453  -2.192  -0.111  1.00  0.00     0.255 C 
ATOM     20  C   UNL     1       1.717  -3.605   0.986  1.00  0.00     0.325 C 
ATOM     21  H   UNL     1       3.519  -2.599   0.633  1.00  0.00     0.166 HD
ATOM     22  O   UNL     1      -0.498  -1.770  -0.724  1.00  0.00    -0.272 OA
ATOM     23  O   UNL     1       2.120  -4.579   1.596  1.00  0.00    -0.248 OA
ENDBRANCH  13  14
ENDBRANCH  12  13
ENDBRANCH  10  12
ENDBRANCH   6  10
ENDBRANCH   3   5
ENDBRANCH   2   3
ENDBRANCH   1   2
BRANCH   1  24
ATOM     24  C   UNL     1      -2.730  -1.129  -2.575  1.00  0.00     0.275 C 
BRANCH  24  25
ATOM     25  O   UNL     1      -2.567  -0.606  -1.219  1.00  0.00    -0.458 OA
BRANCH  25  26
ATOM     26  C   UNL     1      -3.528  -0.984  -0.318  1.00  0.00     0.338 C 
ATOM     27  O   UNL     1      -4.577  -1.538  -0.624  1.00  0.00    -0.246 OA
BRANCH  26  28
ATOM     28  C   UNL     1      -3.168  -0.788   1.136  1.00  0.00     0.060 A 
ATOM     29  C   UNL     1      -1.852  -0.760   1.561  1.00  0.00     0.016 A 
ATOM     30  C   UNL     1      -4.138  -0.868   2.138  1.00  0.00     0.016 A 
ATOM     31  C   UNL     1      -1.500  -1.142   2.864  1.00  0.00     0.010 A 
ATOM     32  C   UNL     1      -3.771  -0.991   3.503  1.00  0.00     0.010 A 
ATOM     33  C   UNL     1      -2.437  -1.214   3.894  1.00  0.00    -0.014 A 
BRANCH  33  34
ATOM     34  C   UNL     1      -2.038  -1.518   5.327  1.00  0.00     0.031 A 
ATOM     35  C   UNL     1      -2.914  -2.413   6.189  1.00  0.00     0.074 A 
ATOM     36  C   UNL     1      -0.908  -1.027   5.899  1.00  0.00     0.049 A 
ATOM     37  N   UNL     1      -2.998  -2.496   7.495  1.00  0.00    -0.248 NA
ATOM     38  C   UNL     1      -3.826  -3.327   5.482  1.00  0.00     0.031 C 
ATOM     39  C   UNL     1       0.146  -0.259   5.229  1.00  0.00     0.029 A 
ATOM     40  N   UNL     1      -0.449  -1.096   7.203  1.00  0.00    -0.354 N 
ATOM     41  C   UNL     1      -4.035  -3.390   7.762  1.00  0.00     0.074 A 
ATOM     42  C   UNL     1      -4.535  -3.839   6.480  1.00  0.00     0.031 C 
ATOM     43  C   UNL     1       1.132   0.019   6.090  1.00  0.00     0.029 A 
ATOM     44  C   UNL     1       0.715  -0.384   7.421  1.00  0.00     0.049 A 
ATOM     45  H   UNL     1      -0.909  -1.604   7.909  1.00  0.00     0.167 HD
ATOM     46  C   UNL     1      -4.534  -3.782   8.963  1.00  0.00     0.037 A 
ATOM     47  C   UNL     1       1.340   0.006   8.552  1.00  0.00     0.037 A 
ATOM     48  C   UNL     1      -3.975  -3.383  10.232  1.00  0.00     0.049 A 
ATOM     49  C   UNL     1       0.723  -0.347   9.876  1.00  0.00     0.074 A 
ATOM     50  C   UNL     1      -4.419  -3.687  11.509  1.00  0.00     0.029 A 
ATOM     51  N   UNL     1      -2.830  -2.613  10.385  1.00  0.00    -0.354 N 
ATOM     52  N   UNL     1      -0.351  -1.059  10.118  1.00  0.00    -0.248 NA
ATOM     53  C   UNL     1       1.381   0.181  11.079  1.00  0.00     0.031 C 
ATOM     54  C   UNL     1      -3.574  -3.058  12.430  1.00  0.00     0.029 A 
ATOM     55  C   UNL     1      -2.564  -2.416  11.730  1.00  0.00     0.049 A 
ATOM     56  H   UNL     1      -2.287  -2.258   9.645  1.00  0.00     0.167 HD
ATOM     57  C   UNL     1      -0.483  -1.085  11.501  1.00  0.00     0.074 A 
ATOM     58  C   UNL     1       0.629  -0.331  12.042  1.00  0.00     0.031 C 
ATOM     59  C   UNL     1      -1.442  -1.678  12.255  1.00  0.00     0.037 A 
BRANCH  46  60
ATOM     60  C   UNL     1      -5.792  -4.618   8.968  1.00  0.00     0.058 A 
ATOM     61  C   UNL     1      -5.821  -5.957   8.548  1.00  0.00     0.135 A 
ATOM     62  C   UNL     1      -7.001  -4.058   9.421  1.00  0.00     0.135 A 
ATOM     63  F   UNL     1      -4.703  -6.547   8.096  1.00  0.00    -0.206 F 
ATOM     64  C   UNL     1      -7.005  -6.694   8.534  1.00  0.00     0.059 A 
ATOM     65  C   UNL     1      -8.189  -4.784   9.446  1.00  0.00     0.059 A 
ATOM     66  F   UNL     1      -7.039  -2.784   9.843  1.00  0.00    -0.206 F 
ATOM     67  C   UNL     1      -8.185  -6.097   8.981  1.00  0.00     0.060 A 
BRANCH  67  68
ATOM     68  S   UNL     1      -9.716  -7.055   8.936  1.00  0.00     0.124 S 
ATOM     69  O   UNL     1      -9.978  -7.120   7.501  1.00  0.00    -0.237 OA
ATOM     70  O   UNL     1      -9.318  -8.310   9.565  1.00  0.00    -0.237 OA
ATOM     71  O   UNL     1     -10.652  -6.241   9.706  1.00  0.00    -0.744 OA
ENDBRANCH  67  68
ENDBRANCH  46  60
BRANCH  47  72
ATOM     72  C   UNL     1       2.564   0.866   8.487  1.00  0.00     0.058 A 
ATOM     73  C   UNL     1       3.803   0.408   8.963  1.00  0.00     0.135 A 
ATOM     74  C   UNL     1       2.521   2.167   7.953  1.00  0.00     0.135 A 
ATOM     75  F   UNL     1       3.902  -0.816   9.502  1.00  0.00    -0.206 F 
ATOM     76  C   UNL     1       4.945   1.205   8.920  1.00  0.00     0.059 A 
ATOM     77  C   UNL     1       3.657   2.967   7.864  1.00  0.00     0.059 A 
ATOM     78  F   UNL     1       1.368   2.663   7.478  1.00  0.00    -0.206 F 
ATOM     79  C   UNL     1       4.864   2.481   8.360  1.00  0.00     0.060 A 
BRANCH  79  80
ATOM     80  S   UNL     1       6.362   3.486   8.258  1.00  0.00     0.124 S 
ATOM     81  O   UNL     1       6.581   3.834   9.656  1.00  0.00    -0.237 OA
ATOM     82  O   UNL     1       7.318   2.549   7.674  1.00  0.00    -0.237 OA
ATOM     83  O   UNL     1       5.968   4.589   7.386  1.00  0.00    -0.744 OA
ENDBRANCH  79  80
ENDBRANCH  47  72
BRANCH  59  84
ATOM     84  C   UNL     1      -1.298  -1.589  13.748  1.00  0.00     0.058 A 
ATOM     85  C   UNL     1      -1.520  -0.393  14.447  1.00  0.00     0.135 A 
ATOM     86  C   UNL     1      -0.977  -2.735  14.494  1.00  0.00     0.135 A 
ATOM     87  F   UNL     1      -1.817   0.735  13.782  1.00  0.00    -0.206 F 
ATOM     88  C   UNL     1      -1.410  -0.331  15.833  1.00  0.00     0.059 A 
ATOM     89  C   UNL     1      -0.892  -2.704  15.882  1.00  0.00     0.059 A 
ATOM     90  F   UNL     1      -0.758  -3.906  13.874  1.00  0.00    -0.206 F 
ATOM     91  C   UNL     1      -1.100  -1.494  16.541  1.00  0.00     0.060 A 
BRANCH  91  92
ATOM     92  S   UNL     1      -1.001  -1.408  18.341  1.00  0.00     0.124 S 
ATOM     93  O   UNL     1       0.245  -0.674  18.533  1.00  0.00    -0.237 OA
ATOM     94  O   UNL     1      -2.222  -0.687  18.686  1.00  0.00    -0.237 OA
ATOM     95  O   UNL     1      -0.973  -2.810  18.748  1.00  0.00    -0.744 OA
ENDBRANCH  91  92
ENDBRANCH  59  84
ENDBRANCH  33  34
ENDBRANCH  26  28
ENDBRANCH  25  26
ENDBRANCH  24  25
ENDBRANCH   1  24
TORSDOF 18
