REMARK SMILES O=C(OCCOC(=O)c1ccccc1/N=C/c1coc2ccccc2c1=O)c1ccc(-c2c3nc(c(-c4c(F)cc(S(=O)(=O)[O-])cc4F)c4ccc([nH]4)c(-c4c(F)cc(S(=O)(=O)[O-])cc4F)c4nc(c(-c5c(F)cc(S(=O)(=O)[O-])cc5F)c5ccc2[nH]5)C=C4)C=C3)cc1
REMARK SMILES IDX 4 1 3 2 2 3 1 4 28 5 29 6 93 7 30 8 92 9 31 10 32 11 33 12
REMARK SMILES IDX 86 13 34 14 91 15 85 16 87 17 35 18 90 19 84 20 83 21 36 23
REMARK SMILES IDX 70 24 49 25 69 26 50 27 53 28 68 29 88 30 51 31 52 32 67 34
REMARK SMILES IDX 89 35 54 36 37 37 38 38 47 39 39 40 40 41 46 42 48 43 41 44
REMARK SMILES IDX 42 45 43 46 44 47 45 48 71 49 72 50 81 51 73 52 74 53 80 54
REMARK SMILES IDX 82 55 75 56 76 57 77 58 78 59 79 60 55 61 56 62 65 63 57 64
REMARK SMILES IDX 58 65 64 66 66 67 59 68 60 69 61 70 62 71 63 72 5 73 6 74
REMARK SMILES IDX 7 75 8 76 9 77 10 78 14 79 11 80 13 81 12 82 15 83 16 84
REMARK SMILES IDX 17 85 18 86 26 87 19 88 25 89 27 90 20 91 24 92 21 93 23 94
REMARK SMILES IDX 22 95
REMARK H PARENT 87 22 53 33
REMARK Flexibility Score: inf
ROOT
ATOM      1  C   UNL     1       4.574  -1.228   0.563  1.00  0.00     0.275 C 
ENDROOT
BRANCH   1   2
ATOM      2  O   UNL     1       3.674  -0.470   1.389  1.00  0.00    -0.458 OA
BRANCH   2   3
ATOM      3  C   UNL     1       3.256   0.804   1.202  1.00  0.00     0.338 C 
ATOM      4  O   UNL     1       2.225   1.178   1.763  1.00  0.00    -0.246 OA
BRANCH   3   5
ATOM      5  C   UNL     1       3.985   1.792   0.347  1.00  0.00     0.060 A 
ATOM      6  C   UNL     1       5.373   1.836   0.178  1.00  0.00     0.016 A 
ATOM      7  C   UNL     1       3.219   2.839  -0.195  1.00  0.00     0.016 A 
ATOM      8  C   UNL     1       5.984   2.871  -0.551  1.00  0.00     0.010 A 
ATOM      9  C   UNL     1       3.826   3.891  -0.888  1.00  0.00     0.010 A 
ATOM     10  C   UNL     1       5.218   3.921  -1.060  1.00  0.00    -0.014 A 
BRANCH  10  11
ATOM     11  C   UNL     1       5.840   5.157  -1.595  1.00  0.00     0.031 A 
ATOM     12  C   UNL     1       5.995   6.333  -0.683  1.00  0.00     0.074 A 
ATOM     13  C   UNL     1       6.198   5.283  -2.885  1.00  0.00     0.049 A 
ATOM     14  N   UNL     1       6.446   7.526  -0.967  1.00  0.00    -0.248 NA
ATOM     15  C   UNL     1       5.660   6.128   0.735  1.00  0.00     0.031 C 
ATOM     16  C   UNL     1       6.235   4.211  -3.864  1.00  0.00     0.029 A 
ATOM     17  N   UNL     1       6.490   6.407  -3.620  1.00  0.00    -0.354 N 
ATOM     18  C   UNL     1       6.596   8.158   0.254  1.00  0.00     0.074 A 
ATOM     19  C   UNL     1       6.033   7.285   1.262  1.00  0.00     0.031 C 
ATOM     20  C   UNL     1       6.280   4.746  -5.097  1.00  0.00     0.029 A 
ATOM     21  C   UNL     1       6.353   6.194  -4.974  1.00  0.00     0.049 A 
ATOM     22  H   UNL     1       6.766   7.265  -3.224  1.00  0.00     0.167 HD
ATOM     23  C   UNL     1       7.250   9.315   0.510  1.00  0.00     0.037 A 
ATOM     24  C   UNL     1       6.249   7.079  -5.982  1.00  0.00     0.037 A 
ATOM     25  C   UNL     1       7.742  10.196  -0.511  1.00  0.00     0.049 A 
ATOM     26  C   UNL     1       6.590   8.509  -5.704  1.00  0.00     0.074 A 
ATOM     27  C   UNL     1       8.476  11.360  -0.384  1.00  0.00     0.029 A 
ATOM     28  N   UNL     1       7.501  10.021  -1.866  1.00  0.00    -0.354 N 
ATOM     29  N   UNL     1       6.868   9.067  -4.551  1.00  0.00    -0.248 NA
ATOM     30  C   UNL     1       6.716   9.405  -6.859  1.00  0.00     0.031 C 
ATOM     31  C   UNL     1       8.644  11.910  -1.664  1.00  0.00     0.029 A 
ATOM     32  C   UNL     1       8.033  11.075  -2.587  1.00  0.00     0.049 A 
ATOM     33  H   UNL     1       7.021   9.256  -2.258  1.00  0.00     0.167 HD
ATOM     34  C   UNL     1       7.341  10.334  -4.853  1.00  0.00     0.074 A 
ATOM     35  C   UNL     1       7.203  10.501  -6.287  1.00  0.00     0.031 C 
ATOM     36  C   UNL     1       7.918  11.230  -4.017  1.00  0.00     0.037 A 
BRANCH  23  37
ATOM     37  C   UNL     1       7.517   9.600   1.954  1.00  0.00     0.058 A 
ATOM     38  C   UNL     1       8.488   8.857   2.649  1.00  0.00     0.135 A 
ATOM     39  C   UNL     1       6.761  10.534   2.672  1.00  0.00     0.135 A 
ATOM     40  F   UNL     1       9.224   7.936   2.005  1.00  0.00    -0.206 F 
ATOM     41  C   UNL     1       8.663   8.991   4.019  1.00  0.00     0.059 A 
ATOM     42  C   UNL     1       6.929  10.696   4.044  1.00  0.00     0.059 A 
ATOM     43  F   UNL     1       5.816  11.258   2.053  1.00  0.00    -0.206 F 
ATOM     44  C   UNL     1       7.862   9.900   4.712  1.00  0.00     0.060 A 
BRANCH  44  45
ATOM     45  S   UNL     1       8.034  10.004   6.506  1.00  0.00     0.124 S 
ATOM     46  O   UNL     1       7.300   8.817   6.934  1.00  0.00    -0.237 OA
ATOM     47  O   UNL     1       9.481   9.952   6.690  1.00  0.00    -0.237 OA
ATOM     48  O   UNL     1       7.410  11.282   6.830  1.00  0.00    -0.744 OA
ENDBRANCH  44  45
ENDBRANCH  23  37
BRANCH  24  49
ATOM     49  C   UNL     1       5.817   6.638  -7.329  1.00  0.00     0.058 A 
ATOM     50  C   UNL     1       6.730   6.273  -8.325  1.00  0.00     0.135 A 
ATOM     51  C   UNL     1       4.448   6.562  -7.634  1.00  0.00     0.135 A 
ATOM     52  F   UNL     1       8.047   6.343  -8.083  1.00  0.00    -0.206 F 
ATOM     53  C   UNL     1       6.303   5.834  -9.576  1.00  0.00     0.059 A 
ATOM     54  C   UNL     1       3.997   6.128  -8.877  1.00  0.00     0.059 A 
ATOM     55  F   UNL     1       3.533   6.892  -6.708  1.00  0.00    -0.206 F 
ATOM     56  C   UNL     1       4.933   5.760  -9.840  1.00  0.00     0.060 A 
BRANCH  56  57
ATOM     57  S   UNL     1       4.388   5.112 -11.437  1.00  0.00     0.124 S 
ATOM     58  O   UNL     1       4.740   6.205 -12.335  1.00  0.00    -0.237 OA
ATOM     59  O   UNL     1       5.187   3.897 -11.560  1.00  0.00    -0.237 OA
ATOM     60  O   UNL     1       2.959   4.892 -11.237  1.00  0.00    -0.744 OA
ENDBRANCH  56  57
ENDBRANCH  24  49
BRANCH  36  61
ATOM     61  C   UNL     1       8.569  12.423  -4.643  1.00  0.00     0.058 A 
ATOM     62  C   UNL     1       7.838  13.540  -5.064  1.00  0.00     0.135 A 
ATOM     63  C   UNL     1       9.968  12.455  -4.775  1.00  0.00     0.135 A 
ATOM     64  F   UNL     1       6.499  13.543  -4.978  1.00  0.00    -0.206 F 
ATOM     65  C   UNL     1       8.474  14.658  -5.594  1.00  0.00     0.059 A 
ATOM     66  C   UNL     1      10.624  13.568  -5.285  1.00  0.00     0.059 A 
ATOM     67  F   UNL     1      10.708  11.404  -4.389  1.00  0.00    -0.206 F 
ATOM     68  C   UNL     1       9.868  14.664  -5.696  1.00  0.00     0.060 A 
BRANCH  68  69
ATOM     69  S   UNL     1      10.695  16.143  -6.316  1.00  0.00     0.124 S 
ATOM     70  O   UNL     1      10.561  15.971  -7.758  1.00  0.00    -0.237 OA
ATOM     71  O   UNL     1       9.902  17.220  -5.730  1.00  0.00    -0.237 OA
ATOM     72  O   UNL     1      12.050  16.016  -5.789  1.00  0.00    -0.744 OA
ENDBRANCH  68  69
ENDBRANCH  36  61
ENDBRANCH  10  11
ENDBRANCH   3   5
ENDBRANCH   2   3
ENDBRANCH   1   2
BRANCH   1  73
ATOM     73  C   UNL     1       3.981  -1.695  -0.758  1.00  0.00     0.275 C 
BRANCH  73  74
ATOM     74  O   UNL     1       3.093  -0.732  -1.334  1.00  0.00    -0.458 OA
BRANCH  74  75
ATOM     75  C   UNL     1       1.836  -1.180  -1.579  1.00  0.00     0.340 C 
ATOM     76  O   UNL     1       1.363  -2.265  -1.311  1.00  0.00    -0.246 OA
BRANCH  75  77
ATOM     77  C   UNL     1       1.112  -0.142  -2.311  1.00  0.00     0.085 A 
ATOM     78  C   UNL     1       0.353   0.748  -1.529  1.00  0.00     0.018 A 
ATOM     79  C   UNL     1       1.180  -0.019  -3.707  1.00  0.00     0.077 A 
ATOM     80  C   UNL     1      -0.329   1.804  -2.129  1.00  0.00     0.001 A 
ATOM     81  C   UNL     1       0.453   1.044  -4.279  1.00  0.00     0.029 A 
ATOM     82  C   UNL     1      -0.281   1.951  -3.509  1.00  0.00     0.002 A 
BRANCH  79  83
ATOM     83  N   UNL     1       2.071  -0.613  -4.619  1.00  0.00    -0.255 NA
ATOM     84  C   UNL     1       3.018  -1.452  -4.343  1.00  0.00     0.127 C 
BRANCH  84  85
ATOM     85  C   UNL     1       4.340  -1.061  -4.914  1.00  0.00     0.076 A 
ATOM     86  C   UNL     1       4.441  -1.038  -6.255  1.00  0.00     0.209 A 
ATOM     87  C   UNL     1       4.920   0.148  -4.245  1.00  0.00     0.201 A 
ATOM     88  O   UNL     1       4.914   0.080  -6.952  1.00  0.00    -0.463 OA
ATOM     89  C   UNL     1       4.476   1.357  -4.972  1.00  0.00     0.065 A 
ATOM     90  O   UNL     1       5.492   0.133  -3.200  1.00  0.00    -0.288 OA
ATOM     91  C   UNL     1       4.506   1.268  -6.364  1.00  0.00     0.137 A 
ATOM     92  C   UNL     1       3.797   2.378  -4.319  1.00  0.00     0.016 A 
ATOM     93  C   UNL     1       3.953   2.282  -7.132  1.00  0.00     0.048 A 
ATOM     94  C   UNL     1       3.199   3.376  -5.085  1.00  0.00     0.001 A 
ATOM     95  C   UNL     1       3.287   3.330  -6.482  1.00  0.00     0.004 A 
ENDBRANCH  84  85
ENDBRANCH  79  83
ENDBRANCH  75  77
ENDBRANCH  74  75
ENDBRANCH  73  74
ENDBRANCH   1  73
TORSDOF 16
