REMARK SMILES O=C(CCC(=O)O[C@@H]1N=C(c2ccccc2)c2cc(Br)ccc2NC1=O)OCCOC(=O)c1ccc(-c2c3nc(c(-c4c(F)cc(S(=O)(=O)[O-])cc4F)c4ccc([nH]4)c(-c4c(F)cc(S(=O)(=O)[O-])cc4F)c4nc(c(-c5c(F)cc(S(=O)(=O)[O-])cc5F)c5ccc2[nH]5)C=C4)C=C3)cc1
REMARK SMILES IDX 1 1 2 2 3 3 4 4 5 5 6 6 7 7 8 8 9 10 10 11 11 12 12 13 16 14
REMARK SMILES IDX 13 15 15 16 14 17 17 18 18 19 23 20 19 21 22 22 20 23 21 24
REMARK SMILES IDX 24 25 25 26 26 28 27 30 28 31 29 32 30 33 31 34 32 35 33 36
REMARK SMILES IDX 34 37 98 38 35 39 97 40 36 41 37 42 38 43 91 44 39 45 96 46
REMARK SMILES IDX 90 47 92 48 40 49 95 50 89 51 88 52 41 54 75 55 54 56 74 57
REMARK SMILES IDX 55 58 58 59 73 60 93 61 56 62 57 63 72 65 94 66 59 67 42 68
REMARK SMILES IDX 43 69 52 70 44 71 45 72 51 73 53 74 46 75 47 76 48 77 49 78
REMARK SMILES IDX 50 79 76 80 77 81 86 82 78 83 79 84 85 85 87 86 80 87 81 88
REMARK SMILES IDX 82 89 83 90 84 91 60 92 61 93 70 94 62 95 63 96 69 97 71 98
REMARK SMILES IDX 64 99 65 100 66 101 67 102 68 103
REMARK H PARENT 24 27 92 53 58 64
REMARK Flexibility Score: 90.00
ROOT
ATOM      1  O   UNL     1       1.421   1.131  -0.051  1.00  0.00    -0.252 OA
ATOM      2  C   UNL     1       2.489   0.529  -0.143  1.00  0.00     0.306 C 
ENDROOT
BRANCH   2   3
ATOM      3  C   UNL     1       3.523   0.959  -1.156  1.00  0.00     0.134 C 
BRANCH   3   4
ATOM      4  C   UNL     1       4.105   2.321  -0.815  1.00  0.00     0.134 C 
BRANCH   4   5
ATOM      5  C   UNL     1       5.195   2.195   0.214  1.00  0.00     0.308 C 
ATOM      6  O   UNL     1       6.390   2.234  -0.044  1.00  0.00    -0.252 OA
BRANCH   5   7
ATOM      7  O   UNL     1       4.660   1.957   1.434  1.00  0.00    -0.430 OA
BRANCH   7   8
ATOM      8  C   UNL     1       5.582   1.752   2.513  1.00  0.00     0.385 CG0
ATOM      9  G   UNL     1       5.465   2.962   3.462  1.00  0.00     0.000 G0
BRANCH   8  10
ATOM     10  N   UNL     1       5.299   0.528   3.265  1.00  0.00    -0.232 NA
ATOM     11  C   UNL     1       6.111   0.116   4.172  1.00  0.00     0.079 C 
BRANCH  11  12
ATOM     12  C   UNL     1       5.750  -1.164   4.844  1.00  0.00     0.001 A 
ATOM     13  C   UNL     1       5.677  -2.338   4.086  1.00  0.00     0.010 A 
ATOM     14  C   UNL     1       5.463  -1.185   6.211  1.00  0.00     0.010 A 
ATOM     15  C   UNL     1       5.313  -3.537   4.698  1.00  0.00     0.001 A 
ATOM     16  C   UNL     1       5.103  -2.389   6.819  1.00  0.00     0.001 A 
ATOM     17  C   UNL     1       5.028  -3.562   6.063  1.00  0.00     0.000 A 
ENDBRANCH  11  12
BRANCH  11  18
ATOM     18  C   UNL     1       7.362   0.801   4.601  1.00  0.00     0.025 A 
ATOM     19  C   UNL     1       8.469  -0.002   4.926  1.00  0.00     0.028 A 
ATOM     20  C   UNL     1       7.437   2.193   4.776  1.00  0.00     0.050 A 
ATOM     21  C   UNL     1       9.624   0.576   5.446  1.00  0.00     0.018 A 
ATOM     22  C   UNL     1       8.591   2.750   5.344  1.00  0.00     0.028 A 
ATOM     23  Br  UNL     1      11.107  -0.514   5.872  1.00  0.00    -0.051 Br
ATOM     24  C   UNL     1       9.686   1.947   5.667  1.00  0.00     0.018 A 
BRANCH  20  25
ATOM     25  N   UNL     1       6.426   3.101   4.433  1.00  0.00    -0.320 N 
ATOM     26  C   UNL     1       5.465   2.962   3.462  1.00  0.00     0.289 CG0
ATOM     27  H   UNL     1       6.402   3.938   4.950  1.00  0.00     0.170 HD
ATOM     28  O   UNL     1       4.640   3.869   3.333  1.00  0.00    -0.268 OA
ATOM     29  G   UNL     1       5.582   1.752   2.513  1.00  0.00     0.000 G0
ENDBRANCH  20  25
ENDBRANCH  11  18
ENDBRANCH   8  10
ENDBRANCH   7   8
ENDBRANCH   5   7
ENDBRANCH   4   5
ENDBRANCH   3   4
ENDBRANCH   2   3
BRANCH   2  30
ATOM     30  O   UNL     1       2.725  -0.559   0.622  1.00  0.00    -0.462 OA
BRANCH  30  31
ATOM     31  C   UNL     1       4.019  -1.147   0.869  1.00  0.00     0.274 C 
BRANCH  31  32
ATOM     32  C   UNL     1       4.146  -2.540   0.262  1.00  0.00     0.275 C 
BRANCH  32  33
ATOM     33  O   UNL     1       3.924  -2.465  -1.149  1.00  0.00    -0.458 OA
BRANCH  33  34
ATOM     34  C   UNL     1       2.631  -2.670  -1.512  1.00  0.00     0.338 C 
ATOM     35  O   UNL     1       1.734  -3.100  -0.820  1.00  0.00    -0.246 OA
BRANCH  34  36
ATOM     36  C   UNL     1       2.440  -2.102  -2.861  1.00  0.00     0.060 A 
ATOM     37  C   UNL     1       3.428  -2.213  -3.844  1.00  0.00     0.016 A 
ATOM     38  C   UNL     1       1.235  -1.442  -3.127  1.00  0.00     0.016 A 
ATOM     39  C   UNL     1       3.187  -1.698  -5.115  1.00  0.00     0.010 A 
ATOM     40  C   UNL     1       0.993  -0.933  -4.400  1.00  0.00     0.010 A 
ATOM     41  C   UNL     1       1.956  -1.087  -5.406  1.00  0.00    -0.014 A 
BRANCH  41  42
ATOM     42  C   UNL     1       1.606  -0.787  -6.810  1.00  0.00     0.031 A 
ATOM     43  C   UNL     1       1.692   0.600  -7.361  1.00  0.00     0.074 A 
ATOM     44  C   UNL     1       1.203  -1.817  -7.578  1.00  0.00     0.049 A 
ATOM     45  N   UNL     1       1.463   1.008  -8.581  1.00  0.00    -0.248 NA
ATOM     46  C   UNL     1       2.086   1.665  -6.428  1.00  0.00     0.031 C 
ATOM     47  C   UNL     1       1.080  -3.205  -7.121  1.00  0.00     0.029 A 
ATOM     48  N   UNL     1       0.831  -1.865  -8.894  1.00  0.00    -0.354 N 
ATOM     49  C   UNL     1       1.710   2.374  -8.576  1.00  0.00     0.074 A 
ATOM     50  C   UNL     1       2.067   2.732  -7.218  1.00  0.00     0.031 C 
ATOM     51  C   UNL     1       0.683  -3.971  -8.147  1.00  0.00     0.029 A 
ATOM     52  C   UNL     1       0.496  -3.127  -9.322  1.00  0.00     0.049 A 
ATOM     53  H   UNL     1       0.807  -1.073  -9.478  1.00  0.00     0.167 HD
ATOM     54  C   UNL     1       1.653   3.238  -9.618  1.00  0.00     0.037 A 
ATOM     55  C   UNL     1       0.083  -3.555 -10.528  1.00  0.00     0.037 A 
ATOM     56  C   UNL     1       1.260   2.866 -10.955  1.00  0.00     0.049 A 
ATOM     57  C   UNL     1      -0.035  -2.562 -11.646  1.00  0.00     0.074 A 
ATOM     58  C   UNL     1       1.172   3.666 -12.081  1.00  0.00     0.029 A 
ATOM     59  N   UNL     1       0.877   1.589 -11.344  1.00  0.00    -0.354 N 
ATOM     60  N   UNL     1       0.236  -1.278 -11.636  1.00  0.00    -0.248 NA
ATOM     61  C   UNL     1      -0.511  -3.071 -12.937  1.00  0.00     0.031 C 
ATOM     62  C   UNL     1       0.699   2.882 -13.140  1.00  0.00     0.029 A 
ATOM     63  C   UNL     1       0.533   1.583 -12.686  1.00  0.00     0.049 A 
ATOM     64  H   UNL     1       0.854   0.802 -10.752  1.00  0.00     0.167 HD
ATOM     65  C   UNL     1      -0.023  -0.827 -12.923  1.00  0.00     0.074 A 
ATOM     66  C   UNL     1      -0.458  -1.979 -13.689  1.00  0.00     0.031 C 
ATOM     67  C   UNL     1       0.090   0.427 -13.426  1.00  0.00     0.037 A 
BRANCH  54  68
ATOM     68  C   UNL     1       2.029   4.669  -9.359  1.00  0.00     0.058 A 
ATOM     69  C   UNL     1       3.368   5.047  -9.174  1.00  0.00     0.135 A 
ATOM     70  C   UNL     1       1.057   5.682  -9.359  1.00  0.00     0.135 A 
ATOM     71  F   UNL     1       4.336   4.117  -9.150  1.00  0.00    -0.206 F 
ATOM     72  C   UNL     1       3.730   6.377  -8.988  1.00  0.00     0.059 A 
ATOM     73  C   UNL     1       1.398   7.022  -9.194  1.00  0.00     0.059 A 
ATOM     74  F   UNL     1      -0.239   5.375  -9.530  1.00  0.00    -0.206 F 
ATOM     75  C   UNL     1       2.737   7.359  -9.003  1.00  0.00     0.060 A 
BRANCH  75  76
ATOM     76  S   UNL     1       3.230   9.082  -8.783  1.00  0.00     0.124 S 
ATOM     77  O   UNL     1       3.603   9.101  -7.372  1.00  0.00    -0.237 OA
ATOM     78  O   UNL     1       4.332   9.214  -9.730  1.00  0.00    -0.237 OA
ATOM     79  O   UNL     1       2.022   9.828  -9.122  1.00  0.00    -0.744 OA
ENDBRANCH  75  76
ENDBRANCH  54  68
BRANCH  55  80
ATOM     80  C   UNL     1      -0.216  -4.994 -10.733  1.00  0.00     0.058 A 
ATOM     81  C   UNL     1       0.649  -5.807 -11.479  1.00  0.00     0.135 A 
ATOM     82  C   UNL     1      -1.341  -5.595 -10.149  1.00  0.00     0.135 A 
ATOM     83  F   UNL     1       1.738  -5.275 -12.056  1.00  0.00    -0.206 F 
ATOM     84  C   UNL     1       0.407  -7.166 -11.644  1.00  0.00     0.059 A 
ATOM     85  C   UNL     1      -1.593  -6.956 -10.281  1.00  0.00     0.059 A 
ATOM     86  F   UNL     1      -2.188  -4.861  -9.410  1.00  0.00    -0.206 F 
ATOM     87  C   UNL     1      -0.715  -7.732 -11.036  1.00  0.00     0.060 A 
BRANCH  87  88
ATOM     88  S   UNL     1      -0.983  -9.510 -11.206  1.00  0.00     0.124 S 
ATOM     89  O   UNL     1      -1.413  -9.611 -12.596  1.00  0.00    -0.237 OA
ATOM     90  O   UNL     1       0.339 -10.050 -10.905  1.00  0.00    -0.237 OA
ATOM     91  O   UNL     1      -2.009  -9.792 -10.205  1.00  0.00    -0.744 OA
ENDBRANCH  87  88
ENDBRANCH  55  80
BRANCH  67  92
ATOM     92  C   UNL     1      -0.255   0.612 -14.876  1.00  0.00     0.058 A 
ATOM     93  C   UNL     1      -1.587   0.604 -15.318  1.00  0.00     0.135 A 
ATOM     94  C   UNL     1       0.753   0.832 -15.827  1.00  0.00     0.135 A 
ATOM     95  F   UNL     1      -2.587   0.387 -14.449  1.00  0.00    -0.206 F 
ATOM     96  C   UNL     1      -1.907   0.787 -16.659  1.00  0.00     0.059 A 
ATOM     97  C   UNL     1       0.455   1.040 -17.170  1.00  0.00     0.059 A 
ATOM     98  F   UNL     1       2.042   0.854 -15.453  1.00  0.00    -0.206 F 
ATOM     99  C   UNL     1      -0.878   1.004 -17.578  1.00  0.00     0.060 A 
BRANCH  99 100
ATOM    100  S   UNL     1      -1.308   1.264 -19.312  1.00  0.00     0.124 S 
ATOM    101  O   UNL     1      -1.664  -0.087 -19.732  1.00  0.00    -0.237 OA
ATOM    102  O   UNL     1      -2.414   2.212 -19.221  1.00  0.00    -0.237 OA
ATOM    103  O   UNL     1      -0.079   1.798 -19.890  1.00  0.00    -0.744 OA
ENDBRANCH  99 100
ENDBRANCH  67  92
ENDBRANCH  41  42
ENDBRANCH  34  36
ENDBRANCH  33  34
ENDBRANCH  32  33
ENDBRANCH  31  32
ENDBRANCH  30  31
ENDBRANCH   2  30
TORSDOF 19
