REMARK SMILES Cc1cc2nc(C(F)(F)F)c(=O)n([C@H](C)C(=O)OCCOC(=O)c3ccc(-c4c5nc(c(-c6c(F)cc(S(=O)(=O)[O-])cc6F)c6ccc([nH]6)c(-c6c(F)cc(S(=O)(=O)[O-])cc6F)c6nc(c(-c7c(F)cc(S(=O)(=O)[O-])cc7F)c7ccc4[nH]7)C=C6)C=C5)cc3)c2cc1C
REMARK SMILES IDX 20 1 19 2 18 3 16 4 17 5 14 6 15 7 13 8 1 9 2 10 3 11 92 12
REMARK SMILES IDX 4 13 91 14 93 15 5 16 90 17 6 18 11 19 12 20 7 21 8 22 9 23
REMARK SMILES IDX 10 24 21 25 22 26 23 27 24 28 25 29 89 30 26 31 88 32 27 33
REMARK SMILES IDX 28 34 29 35 82 36 30 37 87 38 81 39 83 40 31 41 86 42 80 43
REMARK SMILES IDX 79 44 32 46 66 47 45 48 65 49 46 50 49 51 64 52 84 53 47 54
REMARK SMILES IDX 48 55 63 57 85 58 50 59 33 60 34 61 43 62 35 63 36 64 42 65
REMARK SMILES IDX 44 66 37 67 38 68 39 69 40 70 41 71 67 72 68 73 77 74 69 75
REMARK SMILES IDX 70 76 76 77 78 78 71 79 72 80 73 81 74 82 75 83 51 84 52 85
REMARK SMILES IDX 61 86 53 87 54 88 60 89 62 90 55 91 56 92 57 93 58 94 59 95
REMARK H PARENT 83 45 49 56
REMARK Flexibility Score: inf
ROOT
ATOM      1  C   UNL     1       3.369   2.628  -5.942  1.00  0.00     0.275 C 
ENDROOT
BRANCH   1   2
ATOM      2  C   UNL     1       2.739   3.361  -4.756  1.00  0.00     0.274 C 
BRANCH   2   3
ATOM      3  O   UNL     1       1.354   2.996  -4.610  1.00  0.00    -0.461 OA
BRANCH   3   4
ATOM      4  C   UNL     1       0.453   3.911  -5.057  1.00  0.00     0.329 C 
ATOM      5  O   UNL     1       0.753   5.035  -5.448  1.00  0.00    -0.250 OA
BRANCH   4   6
ATOM      6  C   UNL     1      -1.004   3.461  -4.882  1.00  0.00     0.197 C 
ATOM      7  C   UNL     1      -1.324   1.972  -5.016  1.00  0.00     0.044 C 
BRANCH   6   8
ATOM      8  N   UNL     1      -1.507   4.188  -3.714  1.00  0.00    -0.291 N 
ATOM      9  C   UNL     1      -0.688   2.639   1.760  1.00  0.00     0.044 C 
ATOM     10  C   UNL     1      -0.854   3.023   0.318  1.00  0.00    -0.046 A 
ATOM     11  C   UNL     1      -1.436   4.258  -0.009  1.00  0.00     0.034 A 
ATOM     12  C   UNL     1      -0.446   2.171  -0.716  1.00  0.00    -0.046 A 
ATOM     13  C   UNL     1      -1.624   4.653  -1.337  1.00  0.00     0.088 A 
ATOM     14  C   UNL     1      -0.624   2.580  -2.045  1.00  0.00     0.032 A 
ATOM     15  C   UNL     1       0.201   0.838  -0.450  1.00  0.00     0.044 C 
ATOM     16  N   UNL     1      -2.115   5.948  -1.562  1.00  0.00    -0.236 NA
ATOM     17  C   UNL     1      -1.239   3.793  -2.375  1.00  0.00     0.071 A 
ATOM     18  C   UNL     1      -2.301   6.340  -2.794  1.00  0.00     0.210 A 
ATOM     19  C   UNL     1      -2.136   5.414  -3.969  1.00  0.00     0.282 A 
ATOM     20  O   UNL     1      -2.549   5.760  -5.066  1.00  0.00    -0.267 OA
BRANCH  18  21
ATOM     21  C   UNL     1      -2.700   7.758  -3.123  1.00  0.00     0.438 C 
ATOM     22  F   UNL     1      -4.005   8.000  -2.810  1.00  0.00    -0.164 F 
ATOM     23  F   UNL     1      -1.975   8.655  -2.389  1.00  0.00    -0.164 F 
ATOM     24  F   UNL     1      -2.535   8.143  -4.415  1.00  0.00    -0.164 F 
ENDBRANCH  18  21
ENDBRANCH   6   8
ENDBRANCH   4   6
ENDBRANCH   3   4
ENDBRANCH   2   3
ENDBRANCH   1   2
BRANCH   1  25
ATOM     25  O   UNL     1       2.771   3.024  -7.191  1.00  0.00    -0.458 OA
BRANCH  25  26
ATOM     26  C   UNL     1       1.677   2.313  -7.555  1.00  0.00     0.338 C 
ATOM     27  O   UNL     1       1.179   1.370  -6.966  1.00  0.00    -0.246 OA
BRANCH  26  28
ATOM     28  C   UNL     1       1.047   2.957  -8.714  1.00  0.00     0.060 A 
ATOM     29  C   UNL     1       1.628   2.891  -9.977  1.00  0.00     0.016 A 
ATOM     30  C   UNL     1      -0.192   3.576  -8.535  1.00  0.00     0.016 A 
ATOM     31  C   UNL     1       0.958   3.466 -11.060  1.00  0.00     0.010 A 
ATOM     32  C   UNL     1      -0.868   4.131  -9.611  1.00  0.00     0.010 A 
ATOM     33  C   UNL     1      -0.295   4.084 -10.883  1.00  0.00    -0.014 A 
BRANCH  33  34
ATOM     34  C   UNL     1      -1.050   4.634 -12.029  1.00  0.00     0.031 A 
ATOM     35  C   UNL     1      -1.251   6.116 -12.168  1.00  0.00     0.074 A 
ATOM     36  C   UNL     1      -1.592   3.774 -12.912  1.00  0.00     0.049 A 
ATOM     37  N   UNL     1      -1.865   6.774 -13.117  1.00  0.00    -0.248 NA
ATOM     38  C   UNL     1      -0.705   6.971 -11.101  1.00  0.00     0.031 C 
ATOM     39  C   UNL     1      -1.509   2.313 -12.823  1.00  0.00     0.029 A 
ATOM     40  N   UNL     1      -2.313   3.998 -14.054  1.00  0.00    -0.354 N 
ATOM     41  C   UNL     1      -1.758   8.117 -12.777  1.00  0.00     0.074 A 
ATOM     42  C   UNL     1      -1.078   8.179 -11.501  1.00  0.00     0.031 C 
ATOM     43  C   UNL     1      -2.116   1.774 -13.892  1.00  0.00     0.029 A 
ATOM     44  C   UNL     1      -2.658   2.846 -14.720  1.00  0.00     0.049 A 
ATOM     45  H   UNL     1      -2.561   4.897 -14.368  1.00  0.00     0.167 HD
ATOM     46  C   UNL     1      -2.163   9.198 -13.484  1.00  0.00     0.037 A 
ATOM     47  C   UNL     1      -3.329   2.679 -15.875  1.00  0.00     0.037 A 
ATOM     48  C   UNL     1      -2.850   9.116 -14.748  1.00  0.00     0.049 A 
ATOM     49  C   UNL     1      -3.795   3.898 -16.622  1.00  0.00     0.074 A 
ATOM     50  C   UNL     1      -3.291  10.149 -15.557  1.00  0.00     0.029 A 
ATOM     51  N   UNL     1      -3.193   7.933 -15.388  1.00  0.00    -0.354 N 
ATOM     52  N   UNL     1      -3.637   5.164 -16.316  1.00  0.00    -0.248 NA
ATOM     53  C   UNL     1      -4.522   3.667 -17.877  1.00  0.00     0.031 C 
ATOM     54  C   UNL     1      -3.935   9.591 -16.666  1.00  0.00     0.029 A 
ATOM     55  C   UNL     1      -3.849   8.211 -16.576  1.00  0.00     0.049 A 
ATOM     56  H   UNL     1      -3.000   7.030 -15.048  1.00  0.00     0.167 HD
ATOM     57  C   UNL     1      -4.217   5.881 -17.355  1.00  0.00     0.074 A 
ATOM     58  C   UNL     1      -4.715   4.907 -18.305  1.00  0.00     0.031 C 
ATOM     59  C   UNL     1      -4.328   7.224 -17.512  1.00  0.00     0.037 A 
BRANCH  46  60
ATOM     60  C   UNL     1      -1.847  10.563 -12.936  1.00  0.00     0.058 A 
ATOM     61  C   UNL     1      -0.531  11.056 -12.939  1.00  0.00     0.135 A 
ATOM     62  C   UNL     1      -2.866  11.423 -12.498  1.00  0.00     0.135 A 
ATOM     63  F   UNL     1       0.485  10.271 -13.332  1.00  0.00    -0.206 F 
ATOM     64  C   UNL     1      -0.239  12.352 -12.528  1.00  0.00     0.059 A 
ATOM     65  C   UNL     1      -2.599  12.732 -12.105  1.00  0.00     0.059 A 
ATOM     66  F   UNL     1      -4.140  11.002 -12.471  1.00  0.00    -0.206 F 
ATOM     67  C   UNL     1      -1.281  13.188 -12.124  1.00  0.00     0.060 A 
BRANCH  67  68
ATOM     68  S   UNL     1      -0.884  14.886 -11.659  1.00  0.00     0.124 S 
ATOM     69  O   UNL     1      -0.130  14.686 -10.425  1.00  0.00    -0.237 OA
ATOM     70  O   UNL     1      -0.108  15.348 -12.806  1.00  0.00    -0.237 OA
ATOM     71  O   UNL     1      -2.193  15.512 -11.498  1.00  0.00    -0.744 OA
ENDBRANCH  67  68
ENDBRANCH  46  60
BRANCH  47  72
ATOM     72  C   UNL     1      -3.557   1.313 -16.416  1.00  0.00     0.058 A 
ATOM     73  C   UNL     1      -2.908   0.886 -17.583  1.00  0.00     0.135 A 
ATOM     74  C   UNL     1      -4.420   0.407 -15.780  1.00  0.00     0.135 A 
ATOM     75  F   UNL     1      -2.071   1.715 -18.227  1.00  0.00    -0.206 F 
ATOM     76  C   UNL     1      -3.126  -0.379 -18.119  1.00  0.00     0.059 A 
ATOM     77  C   UNL     1      -4.633  -0.874 -16.280  1.00  0.00     0.059 A 
ATOM     78  F   UNL     1      -5.049   0.758 -14.647  1.00  0.00    -0.206 F 
ATOM     79  C   UNL     1      -3.993  -1.252 -17.459  1.00  0.00     0.060 A 
BRANCH  79  80
ATOM     80  S   UNL     1      -4.252  -2.898 -18.153  1.00  0.00     0.124 S 
ATOM     81  O   UNL     1      -5.026  -2.593 -19.351  1.00  0.00    -0.237 OA
ATOM     82  O   UNL     1      -2.884  -3.354 -18.376  1.00  0.00    -0.237 OA
ATOM     83  O   UNL     1      -4.975  -3.599 -17.096  1.00  0.00    -0.744 OA
ENDBRANCH  79  80
ENDBRANCH  47  72
BRANCH  59  84
ATOM     84  C   UNL     1      -4.980   7.717 -18.773  1.00  0.00     0.058 A 
ATOM     85  C   UNL     1      -6.359   7.582 -18.994  1.00  0.00     0.135 A 
ATOM     86  C   UNL     1      -4.218   8.369 -19.757  1.00  0.00     0.135 A 
ATOM     87  F   UNL     1      -7.131   6.963 -18.087  1.00  0.00    -0.206 F 
ATOM     88  C   UNL     1      -6.955   8.046 -20.162  1.00  0.00     0.059 A 
ATOM     89  C   UNL     1      -4.798   8.869 -20.918  1.00  0.00     0.059 A 
ATOM     90  F   UNL     1      -2.896   8.536 -19.589  1.00  0.00    -0.206 F 
ATOM     91  C   UNL     1      -6.166   8.688 -21.118  1.00  0.00     0.060 A 
BRANCH  91  92
ATOM     92  S   UNL     1      -6.958   9.296 -22.621  1.00  0.00     0.124 S 
ATOM     93  O   UNL     1      -7.253   8.050 -23.322  1.00  0.00    -0.237 OA
ATOM     94  O   UNL     1      -8.113  10.016 -22.095  1.00  0.00    -0.237 OA
ATOM     95  O   UNL     1      -5.930  10.132 -23.234  1.00  0.00    -0.744 OA
ENDBRANCH  91  92
ENDBRANCH  59  84
ENDBRANCH  33  34
ENDBRANCH  26  28
ENDBRANCH  25  26
ENDBRANCH   1  25
TORSDOF 16
