REMARK SMILES CC[C@@H](C)[C@@H](C(=O)OCCOC(=O)c1ccc(-c2c3nc(c(-c4c(F)cc(S(=O)(=O)[O-])cc4F)c4ccc([nH]4)c(-c4c(F)cc(S(=O)(=O)[O-])cc4F)c4nc(c(-c5c(F)cc(S(=O)(=O)[O-])cc5F)c5ccc2[nH]5)C=C4)C=C3)cc1)N1C(=O)/C(=C/c2ccc(O)cc2)SC1=S
REMARK SMILES IDX 9 1 8 2 6 3 7 4 5 5 3 6 4 7 2 8 1 9 80 10 81 11 93 12 82 13
REMARK SMILES IDX 83 14 92 15 94 16 84 17 85 18 86 19 91 20 87 21 90 22 88 23
REMARK SMILES IDX 89 24 10 26 11 27 12 28 13 29 14 30 15 31 79 32 16 33 78 34
REMARK SMILES IDX 17 35 18 36 19 37 72 38 20 39 77 40 71 41 73 42 21 43 76 44
REMARK SMILES IDX 70 45 69 46 22 48 56 49 35 50 55 51 36 52 39 53 54 54 74 55
REMARK SMILES IDX 37 56 38 57 53 59 75 60 40 61 23 62 24 63 33 64 25 65 26 66
REMARK SMILES IDX 32 67 34 68 27 69 28 70 29 71 30 72 31 73 57 74 58 75 67 76
REMARK SMILES IDX 59 77 60 78 66 79 68 80 61 81 62 82 63 83 64 84 65 85 41 86
REMARK SMILES IDX 42 87 51 88 43 89 44 90 50 91 52 92 45 93 46 94 47 95 48 96
REMARK SMILES IDX 49 97
REMARK H PARENT 89 25 73 47 39 58
REMARK Flexibility Score: inf
ROOT
ATOM      1  C   UNL     1       1.222  -2.049   4.665  1.00  0.00     0.274 C 
ENDROOT
BRANCH   1   2
ATOM      2  O   UNL     1       0.533  -1.023   3.914  1.00  0.00    -0.461 OA
BRANCH   2   3
ATOM      3  C   UNL     1       0.620   0.247   4.391  1.00  0.00     0.329 C 
ATOM      4  O   UNL     1       1.246   0.524   5.407  1.00  0.00    -0.250 OA
BRANCH   3   5
ATOM      5  C   UNL     1      -0.131   1.300   3.502  1.00  0.00     0.204 C 
BRANCH   5   6
ATOM      6  C   UNL     1       0.661   1.319   2.104  1.00  0.00     0.020 C 
ATOM      7  C   UNL     1       0.572   2.575   1.235  1.00  0.00     0.010 C 
BRANCH   6   8
ATOM      8  C   UNL     1       0.295   0.078   1.228  1.00  0.00     0.002 C 
ATOM      9  C   UNL     1       0.900   0.047  -0.174  1.00  0.00     0.004 C 
ENDBRANCH   6   8
ENDBRANCH   5   6
BRANCH   5  10
ATOM     10  N   UNL     1      -0.156   2.582   4.317  1.00  0.00    -0.278 N 
ATOM     11  C   UNL     1      -0.381   3.822   3.773  1.00  0.00     0.267 C 
ATOM     12  C   UNL     1      -0.511   2.672   5.655  1.00  0.00     0.149 C 
ATOM     13  O   UNL     1      -1.033   4.074   2.769  1.00  0.00    -0.268 OA
ATOM     14  C   UNL     1       0.081   4.884   4.706  1.00  0.00     0.081 C 
ATOM     15  S   UNL     1       0.037   4.240   6.288  1.00  0.00    -0.054 SA
ATOM     16  S   UNL     1      -1.431   1.617   6.573  1.00  0.00    -0.052 S 
ATOM     17  C   UNL     1       0.474   6.083   4.259  1.00  0.00     0.029 C 
BRANCH  17  18
ATOM     18  C   UNL     1       1.031   7.190   5.043  1.00  0.00    -0.024 A 
ATOM     19  C   UNL     1       0.193   8.110   5.682  1.00  0.00     0.012 A 
ATOM     20  C   UNL     1       2.419   7.385   5.086  1.00  0.00     0.012 A 
ATOM     21  C   UNL     1       0.740   9.211   6.349  1.00  0.00     0.047 A 
ATOM     22  C   UNL     1       2.966   8.476   5.767  1.00  0.00     0.047 A 
ATOM     23  C   UNL     1       2.120   9.384   6.389  1.00  0.00     0.115 A 
BRANCH  23  24
ATOM     24  O   UNL     1       2.609  10.476   7.042  1.00  0.00    -0.508 OA
ATOM     25  H   UNL     1       2.021  11.077   7.455  1.00  0.00     0.293 HD
ENDBRANCH  23  24
ENDBRANCH  17  18
ENDBRANCH   5  10
ENDBRANCH   3   5
ENDBRANCH   2   3
ENDBRANCH   1   2
BRANCH   1  26
ATOM     26  C   UNL     1       2.740  -2.127   4.409  1.00  0.00     0.275 C 
BRANCH  26  27
ATOM     27  O   UNL     1       3.465  -1.063   5.060  1.00  0.00    -0.458 OA
BRANCH  27  28
ATOM     28  C   UNL     1       3.847  -0.046   4.248  1.00  0.00     0.338 C 
ATOM     29  O   UNL     1       3.742  -0.017   3.033  1.00  0.00    -0.246 OA
BRANCH  28  30
ATOM     30  C   UNL     1       4.224   1.148   5.036  1.00  0.00     0.060 A 
ATOM     31  C   UNL     1       3.532   2.332   4.758  1.00  0.00     0.016 A 
ATOM     32  C   UNL     1       5.260   1.148   5.971  1.00  0.00     0.016 A 
ATOM     33  C   UNL     1       3.861   3.515   5.406  1.00  0.00     0.010 A 
ATOM     34  C   UNL     1       5.617   2.353   6.599  1.00  0.00     0.010 A 
ATOM     35  C   UNL     1       4.929   3.544   6.304  1.00  0.00    -0.014 A 
BRANCH  35  36
ATOM     36  C   UNL     1       5.401   4.869   6.776  1.00  0.00     0.031 A 
ATOM     37  C   UNL     1       6.537   5.529   6.046  1.00  0.00     0.074 A 
ATOM     38  C   UNL     1       4.748   5.531   7.749  1.00  0.00     0.049 A 
ATOM     39  N   UNL     1       7.096   6.692   6.258  1.00  0.00    -0.248 NA
ATOM     40  C   UNL     1       7.104   4.785   4.909  1.00  0.00     0.031 C 
ATOM     41  C   UNL     1       3.561   5.044   8.449  1.00  0.00     0.029 A 
ATOM     42  N   UNL     1       4.982   6.766   8.300  1.00  0.00    -0.354 N 
ATOM     43  C   UNL     1       8.090   6.813   5.294  1.00  0.00     0.074 A 
ATOM     44  C   UNL     1       8.060   5.605   4.499  1.00  0.00     0.031 C 
ATOM     45  C   UNL     1       3.168   5.973   9.338  1.00  0.00     0.029 A 
ATOM     46  C   UNL     1       4.098   7.100   9.300  1.00  0.00     0.049 A 
ATOM     47  H   UNL     1       5.713   7.357   8.008  1.00  0.00     0.167 HD
ATOM     48  C   UNL     1       8.953   7.837   5.092  1.00  0.00     0.037 A 
ATOM     49  C   UNL     1       4.060   8.180  10.107  1.00  0.00     0.037 A 
ATOM     50  C   UNL     1       8.989   9.029   5.897  1.00  0.00     0.049 A 
ATOM     51  C   UNL     1       5.090   9.266   9.923  1.00  0.00     0.074 A 
ATOM     52  C   UNL     1       9.849  10.108   5.800  1.00  0.00     0.029 A 
ATOM     53  N   UNL     1       8.132   9.294   6.955  1.00  0.00    -0.354 N 
ATOM     54  N   UNL     1       6.024   9.372   9.006  1.00  0.00    -0.248 NA
ATOM     55  C   UNL     1       5.064  10.379  10.882  1.00  0.00     0.031 C 
ATOM     56  C   UNL     1       9.537  11.008   6.824  1.00  0.00     0.029 A 
ATOM     57  C   UNL     1       8.446  10.517   7.524  1.00  0.00     0.049 A 
ATOM     58  H   UNL     1       7.408   8.700   7.258  1.00  0.00     0.167 HD
ATOM     59  C   UNL     1       6.688  10.566   9.274  1.00  0.00     0.074 A 
ATOM     60  C   UNL     1       6.026  11.163  10.415  1.00  0.00     0.031 C 
ATOM     61  C   UNL     1       7.751  11.116   8.637  1.00  0.00     0.037 A 
BRANCH  48  62
ATOM     62  C   UNL     1       9.962   7.680   3.990  1.00  0.00     0.058 A 
ATOM     63  C   UNL     1       9.599   7.756   2.636  1.00  0.00     0.135 A 
ATOM     64  C   UNL     1      11.313   7.448   4.294  1.00  0.00     0.135 A 
ATOM     65  F   UNL     1       8.316   7.954   2.290  1.00  0.00    -0.206 F 
ATOM     66  C   UNL     1      10.534   7.576   1.622  1.00  0.00     0.059 A 
ATOM     67  C   UNL     1      12.270   7.290   3.297  1.00  0.00     0.059 A 
ATOM     68  F   UNL     1      11.712   7.362   5.573  1.00  0.00    -0.206 F 
ATOM     69  C   UNL     1      11.867   7.338   1.963  1.00  0.00     0.060 A 
BRANCH  69  70
ATOM     70  S   UNL     1      13.066   7.082   0.638  1.00  0.00     0.124 S 
ATOM     71  O   UNL     1      12.698   5.750   0.168  1.00  0.00    -0.237 OA
ATOM     72  O   UNL     1      12.765   8.181  -0.272  1.00  0.00    -0.237 OA
ATOM     73  O   UNL     1      14.353   7.172   1.322  1.00  0.00    -0.744 OA
ENDBRANCH  69  70
ENDBRANCH  48  62
BRANCH  49  74
ATOM     74  C   UNL     1       3.044   8.274  11.191  1.00  0.00     0.058 A 
ATOM     75  C   UNL     1       2.054   9.268  11.184  1.00  0.00     0.135 A 
ATOM     76  C   UNL     1       3.068   7.390  12.283  1.00  0.00     0.135 A 
ATOM     77  F   UNL     1       2.004  10.157  10.181  1.00  0.00    -0.206 F 
ATOM     78  C   UNL     1       1.137   9.394  12.224  1.00  0.00     0.059 A 
ATOM     79  C   UNL     1       2.146   7.478  13.321  1.00  0.00     0.059 A 
ATOM     80  F   UNL     1       3.997   6.423  12.345  1.00  0.00    -0.206 F 
ATOM     81  C   UNL     1       1.191   8.493  13.289  1.00  0.00     0.060 A 
BRANCH  81  82
ATOM     82  S   UNL     1      -0.012   8.653  14.627  1.00  0.00     0.124 S 
ATOM     83  O   UNL     1       0.465   9.851  15.309  1.00  0.00    -0.237 OA
ATOM     84  O   UNL     1      -1.268   8.791  13.897  1.00  0.00    -0.237 OA
ATOM     85  O   UNL     1       0.141   7.404  15.368  1.00  0.00    -0.744 OA
ENDBRANCH  81  82
ENDBRANCH  49  74
BRANCH  61  86
ATOM     86  C   UNL     1       8.222  12.468   9.102  1.00  0.00     0.058 A 
ATOM     87  C   UNL     1       8.916  12.644  10.309  1.00  0.00     0.135 A 
ATOM     88  C   UNL     1       8.025  13.598   8.289  1.00  0.00     0.135 A 
ATOM     89  F   UNL     1       9.128  11.599  11.124  1.00  0.00    -0.206 F 
ATOM     90  C   UNL     1       9.379  13.895  10.705  1.00  0.00     0.059 A 
ATOM     91  C   UNL     1       8.503  14.852   8.652  1.00  0.00     0.059 A 
ATOM     92  F   UNL     1       7.377  13.482   7.119  1.00  0.00    -0.206 F 
ATOM     93  C   UNL     1       9.169  14.994   9.868  1.00  0.00     0.060 A 
BRANCH  93  94
ATOM     94  S   UNL     1       9.807  16.605  10.373  1.00  0.00     0.124 S 
ATOM     95  O   UNL     1       8.860  16.982  11.417  1.00  0.00    -0.237 OA
ATOM     96  O   UNL     1      11.156  16.280  10.827  1.00  0.00    -0.237 OA
ATOM     97  O   UNL     1       9.739  17.396   9.148  1.00  0.00    -0.744 OA
ENDBRANCH  93  94
ENDBRANCH  61  86
ENDBRANCH  35  36
ENDBRANCH  28  30
ENDBRANCH  27  28
ENDBRANCH  26  27
ENDBRANCH   1  26
TORSDOF 19
