REMARK SMILES COCC[NH2+][C@]1(C(=O)OCCOC(=O)c2ccc(-c3c4nc(c(-c5c(F)cc(S(=O)(=O)[O-])cc5F)c5ccc([nH]5)c(-c5c(F)cc(S(=O)(=O)[O-])cc5F)c5nc(c(-c6c(F)cc(S(=O)(=O)[O-])cc6F)c6ccc3[nH]6)C=C5)C=C4)cc2)CCCS[C@H]1C
REMARK SMILES IDX 10 1 9 2 7 3 8 4 6 5 81 6 85 7 82 8 84 9 86 10 83 11 5 12
REMARK SMILES IDX 4 15 3 16 2 17 1 18 11 19 12 20 13 21 14 22 15 23 16 24
REMARK SMILES IDX 80 25 17 26 79 27 18 28 19 29 20 30 73 31 21 32 78 33 72 34
REMARK SMILES IDX 74 35 22 36 77 37 71 38 70 39 23 41 57 42 36 43 56 44 37 45
REMARK SMILES IDX 40 46 55 47 75 48 38 49 39 50 54 52 76 53 41 54 24 55 25 56
REMARK SMILES IDX 34 57 26 58 27 59 33 60 35 61 28 62 29 63 30 64 31 65 32 66
REMARK SMILES IDX 58 67 59 68 68 69 60 70 61 71 67 72 69 73 62 74 63 75 64 76
REMARK SMILES IDX 65 77 66 78 42 79 43 80 52 81 44 82 45 83 51 84 53 85 46 86
REMARK SMILES IDX 47 87 48 88 49 89 50 90
REMARK H PARENT 5 13 5 14 74 40 40 51
REMARK Flexibility Score: inf
ROOT
ATOM      1  C   UNL     1       2.174   0.030  -0.929  1.00  0.00     0.274 C 
ENDROOT
BRANCH   1   2
ATOM      2  O   UNL     1       1.123   0.935  -1.323  1.00  0.00    -0.457 OA
BRANCH   2   3
ATOM      3  C   UNL     1       1.282   2.259  -0.978  1.00  0.00     0.369 C 
ATOM      4  O   UNL     1       2.288   2.709  -0.454  1.00  0.00    -0.245 OA
BRANCH   3   5
ATOM      5  C   UNL     1      -0.002   3.063  -1.411  1.00  0.00     0.206 C 
ATOM      6  C   UNL     1      -1.217   2.417  -0.690  1.00  0.00     0.083 C 
ATOM      7  C   UNL     1       0.042   4.576  -0.999  1.00  0.00     0.116 C 
ATOM      8  C   UNL     1      -1.124   2.466   0.842  1.00  0.00     0.018 C 
ATOM      9  S   UNL     1       0.280   4.862   0.799  1.00  0.00    -0.152 SA
ATOM     10  C   UNL     1       1.056   5.449  -1.732  1.00  0.00     0.027 C 
ATOM     11  C   UNL     1      -1.088   3.872   1.427  1.00  0.00     0.070 C 
BRANCH   5  12
ATOM     12  N   UNL     1      -0.060   2.933  -2.899  1.00  0.00    -0.329 N 
ATOM     13  H   UNL     1       0.504   3.690  -3.286  1.00  0.00     0.347 HD
ATOM     14  H   UNL     1       0.265   1.982  -3.071  1.00  0.00     0.347 HD
BRANCH  12  15
ATOM     15  C   UNL     1      -1.356   2.982  -3.572  1.00  0.00     0.290 C 
BRANCH  15  16
ATOM     16  C   UNL     1      -1.138   3.176  -5.086  1.00  0.00     0.221 C 
BRANCH  16  17
ATOM     17  O   UNL     1      -0.357   2.097  -5.615  1.00  0.00    -0.379 OA
ATOM     18  C   UNL     1       0.760   2.570  -6.364  1.00  0.00     0.195 C 
ENDBRANCH  16  17
ENDBRANCH  15  16
ENDBRANCH  12  15
ENDBRANCH   5  12
ENDBRANCH   3   5
ENDBRANCH   2   3
ENDBRANCH   1   2
BRANCH   1  19
ATOM     19  C   UNL     1       3.059  -0.329  -2.120  1.00  0.00     0.275 C 
BRANCH  19  20
ATOM     20  O   UNL     1       3.726   0.858  -2.576  1.00  0.00    -0.458 OA
BRANCH  20  21
ATOM     21  C   UNL     1       3.732   1.064  -3.913  1.00  0.00     0.338 C 
ATOM     22  O   UNL     1       3.377   0.295  -4.787  1.00  0.00    -0.246 OA
BRANCH  21  23
ATOM     23  C   UNL     1       4.137   2.456  -4.163  1.00  0.00     0.060 A 
ATOM     24  C   UNL     1       3.260   3.456  -3.761  1.00  0.00     0.016 A 
ATOM     25  C   UNL     1       5.286   2.785  -4.881  1.00  0.00     0.016 A 
ATOM     26  C   UNL     1       3.498   4.776  -4.101  1.00  0.00     0.010 A 
ATOM     27  C   UNL     1       5.564   4.134  -5.161  1.00  0.00     0.010 A 
ATOM     28  C   UNL     1       4.664   5.139  -4.771  1.00  0.00    -0.014 A 
BRANCH  28  29
ATOM     29  C   UNL     1       4.846   6.581  -5.060  1.00  0.00     0.031 A 
ATOM     30  C   UNL     1       4.610   7.104  -6.444  1.00  0.00     0.074 A 
ATOM     31  C   UNL     1       5.018   7.445  -4.038  1.00  0.00     0.049 A 
ATOM     32  N   UNL     1       4.742   8.322  -6.898  1.00  0.00    -0.248 NA
ATOM     33  C   UNL     1       4.126   6.136  -7.441  1.00  0.00     0.031 C 
ATOM     34  C   UNL     1       5.068   7.075  -2.621  1.00  0.00     0.029 A 
ATOM     35  N   UNL     1       5.129   8.812  -4.027  1.00  0.00    -0.354 N 
ATOM     36  C   UNL     1       4.392   8.266  -8.240  1.00  0.00     0.074 A 
ATOM     37  C   UNL     1       4.018   6.896  -8.522  1.00  0.00     0.031 C 
ATOM     38  C   UNL     1       5.166   8.189  -1.879  1.00  0.00     0.029 A 
ATOM     39  C   UNL     1       5.281   9.342  -2.767  1.00  0.00     0.049 A 
ATOM     40  H   UNL     1       5.102   9.362  -4.843  1.00  0.00     0.167 HD
ATOM     41  C   UNL     1       4.405   9.266  -9.152  1.00  0.00     0.037 A 
ATOM     42  C   UNL     1       5.535  10.605  -2.374  1.00  0.00     0.037 A 
ATOM     43  C   UNL     1       4.778  10.626  -8.856  1.00  0.00     0.049 A 
ATOM     44  C   UNL     1       5.685  11.671  -3.425  1.00  0.00     0.074 A 
ATOM     45  C   UNL     1       4.916  11.693  -9.726  1.00  0.00     0.029 A 
ATOM     46  N   UNL     1       5.069  11.107  -7.587  1.00  0.00    -0.354 N 
ATOM     47  N   UNL     1       5.491  11.585  -4.720  1.00  0.00    -0.248 NA
ATOM     48  C   UNL     1       6.120  12.998  -2.967  1.00  0.00     0.031 C 
ATOM     49  C   UNL     1       5.333  12.808  -8.990  1.00  0.00     0.029 A 
ATOM     50  C   UNL     1       5.408  12.449  -7.654  1.00  0.00     0.049 A 
ATOM     51  H   UNL     1       5.038  10.573  -6.761  1.00  0.00     0.167 HD
ATOM     52  C   UNL     1       5.780  12.845  -5.232  1.00  0.00     0.074 A 
ATOM     53  C   UNL     1       6.133  13.682  -4.103  1.00  0.00     0.031 C 
ATOM     54  C   UNL     1       5.766  13.267  -6.521  1.00  0.00     0.037 A 
BRANCH  41  55
ATOM     55  C   UNL     1       4.103   8.897 -10.575  1.00  0.00     0.058 A 
ATOM     56  C   UNL     1       2.799   8.651 -11.029  1.00  0.00     0.135 A 
ATOM     57  C   UNL     1       5.154   8.786 -11.501  1.00  0.00     0.135 A 
ATOM     58  F   UNL     1       1.763   8.717 -10.178  1.00  0.00    -0.206 F 
ATOM     59  C   UNL     1       2.549   8.285 -12.349  1.00  0.00     0.059 A 
ATOM     60  C   UNL     1       4.926   8.441 -12.828  1.00  0.00     0.059 A 
ATOM     61  F   UNL     1       6.421   9.003 -11.114  1.00  0.00    -0.206 F 
ATOM     62  C   UNL     1       3.620   8.177 -13.239  1.00  0.00     0.060 A 
BRANCH  62  63
ATOM     63  S   UNL     1       3.289   7.681 -14.943  1.00  0.00     0.124 S 
ATOM     64  O   UNL     1       3.004   6.259 -14.781  1.00  0.00    -0.237 OA
ATOM     65  O   UNL     1       2.148   8.519 -15.297  1.00  0.00    -0.237 OA
ATOM     66  O   UNL     1       4.533   7.997 -15.638  1.00  0.00    -0.744 OA
ENDBRANCH  62  63
ENDBRANCH  41  55
BRANCH  42  67
ATOM     67  C   UNL     1       5.765  10.911  -0.935  1.00  0.00     0.058 A 
ATOM     68  C   UNL     1       4.907  11.753  -0.215  1.00  0.00     0.135 A 
ATOM     69  C   UNL     1       6.873  10.376  -0.256  1.00  0.00     0.135 A 
ATOM     70  F   UNL     1       3.845  12.307  -0.821  1.00  0.00    -0.206 F 
ATOM     71  C   UNL     1       5.144  12.065   1.122  1.00  0.00     0.059 A 
ATOM     72  C   UNL     1       7.113  10.646   1.086  1.00  0.00     0.059 A 
ATOM     73  F   UNL     1       7.729   9.565  -0.898  1.00  0.00    -0.206 F 
ATOM     74  C   UNL     1       6.251  11.505   1.763  1.00  0.00     0.060 A 
BRANCH  74  75
ATOM     75  S   UNL     1       6.544  11.890   3.503  1.00  0.00     0.124 S 
ATOM     76  O   UNL     1       7.094  13.237   3.416  1.00  0.00    -0.237 OA
ATOM     77  O   UNL     1       5.206  11.783   4.075  1.00  0.00    -0.237 OA
ATOM     78  O   UNL     1       7.481  10.851   3.922  1.00  0.00    -0.744 OA
ENDBRANCH  74  75
ENDBRANCH  42  67
BRANCH  54  79
ATOM     79  C   UNL     1       6.131  14.703  -6.773  1.00  0.00     0.058 A 
ATOM     80  C   UNL     1       7.456  15.154  -6.664  1.00  0.00     0.135 A 
ATOM     81  C   UNL     1       5.149  15.634  -7.147  1.00  0.00     0.135 A 
ATOM     82  F   UNL     1       8.431  14.305  -6.303  1.00  0.00    -0.206 F 
ATOM     83  C   UNL     1       7.791  16.485  -6.887  1.00  0.00     0.059 A 
ATOM     84  C   UNL     1       5.465  16.965  -7.400  1.00  0.00     0.059 A 
ATOM     85  F   UNL     1       3.869  15.252  -7.275  1.00  0.00    -0.206 F 
ATOM     86  C   UNL     1       6.787  17.385  -7.251  1.00  0.00     0.060 A 
BRANCH  86  87
ATOM     87  S   UNL     1       7.232  19.109  -7.551  1.00  0.00     0.124 S 
ATOM     88  O   UNL     1       7.392  19.611  -6.191  1.00  0.00    -0.237 OA
ATOM     89  O   UNL     1       8.460  18.986  -8.330  1.00  0.00    -0.237 OA
ATOM     90  O   UNL     1       6.083  19.632  -8.284  1.00  0.00    -0.744 OA
ENDBRANCH  86  87
ENDBRANCH  54  79
ENDBRANCH  28  29
ENDBRANCH  21  23
ENDBRANCH  20  21
ENDBRANCH  19  20
ENDBRANCH   1  19
TORSDOF 18
