REMARK SMILES Cc1cc(C)cc(C[N@@H+]2CCO[C@@H](CC(=O)OCCOC(=O)c3ccc(-c4c5nc(c(-c6c(F)cc(S(=O)(=O)[O-])cc6F)c6ccc([nH]6)c(-c6c(F)cc(S(=O)(=O)[O-])cc6F)c6nc(c(-c7c(F)cc(S(=O)(=O)[O-])cc7F)c7ccc4[nH]7)C=C6)C=C5)cc3)C2)c1
REMARK SMILES IDX 18 1 17 2 15 3 16 4 14 5 13 6 9 7 10 8 89 9 11 11 12 12 8 13
REMARK SMILES IDX 7 14 1 15 2 16 3 17 90 18 4 19 5 20 6 21 19 22 20 23 21 24
REMARK SMILES IDX 22 25 23 26 24 27 88 28 25 29 87 30 26 31 27 32 28 33 81 34
REMARK SMILES IDX 29 35 86 36 80 37 82 38 30 39 85 40 79 41 78 42 31 44 65 45
REMARK SMILES IDX 44 46 64 47 45 48 48 49 63 50 83 51 46 52 47 53 62 55 84 56
REMARK SMILES IDX 49 57 32 58 33 59 42 60 34 61 35 62 41 63 43 64 36 65 37 66
REMARK SMILES IDX 38 67 39 68 40 69 66 70 67 71 76 72 68 73 69 74 75 75 77 76
REMARK SMILES IDX 70 77 71 78 72 79 73 80 74 81 50 82 51 83 60 84 52 85 53 86
REMARK SMILES IDX 59 87 61 88 54 89 55 90 56 91 57 92 58 93
REMARK H PARENT 9 10 82 43 48 54
REMARK Flexibility Score: inf
ROOT
ATOM      1  C   UNL     1       3.974  -3.370   3.893  1.00  0.00     0.274 C 
ENDROOT
BRANCH   1   2
ATOM      2  O   UNL     1       2.535  -3.277   3.841  1.00  0.00    -0.462 OA
BRANCH   2   3
ATOM      3  C   UNL     1       1.985  -2.171   4.410  1.00  0.00     0.308 C 
ATOM      4  O   UNL     1       2.623  -1.282   4.959  1.00  0.00    -0.252 OA
BRANCH   3   5
ATOM      5  C   UNL     1       0.484  -2.216   4.399  1.00  0.00     0.160 C 
BRANCH   5   6
ATOM      6  C   UNL     1      -0.230  -2.185   3.047  1.00  0.00     0.184 C 
ATOM      7  N   UNL     1      -0.864  -3.639   1.026  1.00  0.00    -0.327 N 
ATOM      8  C   UNL     1      -2.254  -3.379   1.398  1.00  0.00     0.291 C 
ATOM      9  C   UNL     1       0.063  -3.416   2.149  1.00  0.00     0.295 C 
ATOM     10  H   UNL     1      -0.820  -4.643   0.846  1.00  0.00     0.348 HD
ATOM     11  C   UNL     1      -2.468  -2.128   2.260  1.00  0.00     0.222 C 
ATOM     12  O   UNL     1      -1.633  -2.157   3.414  1.00  0.00    -0.366 OA
BRANCH   7  13
ATOM     13  C   UNL     1      -0.435  -3.169  -0.295  1.00  0.00     0.299 C 
BRANCH  13  14
ATOM     14  C   UNL     1      -0.369  -1.681  -0.549  1.00  0.00     0.007 A 
ATOM     15  C   UNL     1       2.281   1.023  -1.030  1.00  0.00     0.044 C 
ATOM     16  C   UNL     1       0.954   0.344  -0.879  1.00  0.00    -0.050 A 
ATOM     17  C   UNL     1      -0.220   1.103  -0.912  1.00  0.00     0.006 A 
ATOM     18  C   UNL     1       0.869  -1.040  -0.689  1.00  0.00     0.013 A 
ATOM     19  C   UNL     1      -1.468   0.482  -0.821  1.00  0.00    -0.050 A 
ATOM     20  C   UNL     1      -2.717   1.312  -0.792  1.00  0.00     0.044 C 
ATOM     21  C   UNL     1      -1.531  -0.910  -0.690  1.00  0.00     0.013 A 
ENDBRANCH  13  14
ENDBRANCH   7  13
ENDBRANCH   5   6
ENDBRANCH   3   5
ENDBRANCH   2   3
ENDBRANCH   1   2
BRANCH   1  22
ATOM     22  C   UNL     1       4.654  -2.806   2.639  1.00  0.00     0.275 C 
BRANCH  22  23
ATOM     23  O   UNL     1       4.705  -1.366   2.633  1.00  0.00    -0.458 OA
BRANCH  23  24
ATOM     24  C   UNL     1       3.590  -0.773   2.152  1.00  0.00     0.338 C 
ATOM     25  O   UNL     1       2.606  -1.359   1.714  1.00  0.00    -0.246 OA
BRANCH  24  26
ATOM     26  C   UNL     1       3.633   0.690   2.290  1.00  0.00     0.060 A 
ATOM     27  C   UNL     1       2.488   1.335   2.773  1.00  0.00     0.016 A 
ATOM     28  C   UNL     1       4.734   1.432   1.855  1.00  0.00     0.016 A 
ATOM     29  C   UNL     1       2.439   2.726   2.823  1.00  0.00     0.010 A 
ATOM     30  C   UNL     1       4.680   2.829   1.900  1.00  0.00     0.010 A 
ATOM     31  C   UNL     1       3.532   3.483   2.380  1.00  0.00    -0.014 A 
BRANCH  31  32
ATOM     32  C   UNL     1       3.490   4.960   2.470  1.00  0.00     0.031 A 
ATOM     33  C   UNL     1       3.161   5.798   1.270  1.00  0.00     0.074 A 
ATOM     34  C   UNL     1       3.753   5.540   3.655  1.00  0.00     0.049 A 
ATOM     35  N   UNL     1       3.114   7.100   1.160  1.00  0.00    -0.248 NA
ATOM     36  C   UNL     1       2.839   5.078   0.029  1.00  0.00     0.031 C 
ATOM     37  C   UNL     1       4.058   4.819   4.893  1.00  0.00     0.029 A 
ATOM     38  N   UNL     1       3.819   6.862   4.010  1.00  0.00    -0.354 N 
ATOM     39  C   UNL     1       2.752   7.359  -0.156  1.00  0.00     0.074 A 
ATOM     40  C   UNL     1       2.611   6.077  -0.814  1.00  0.00     0.031 C 
ATOM     41  C   UNL     1       4.295   5.710   5.869  1.00  0.00     0.029 A 
ATOM     42  C   UNL     1       4.189   7.058   5.319  1.00  0.00     0.049 A 
ATOM     43  H   UNL     1       3.620   7.599   3.389  1.00  0.00     0.167 HD
ATOM     44  C   UNL     1       2.555   8.558  -0.756  1.00  0.00     0.037 A 
ATOM     45  C   UNL     1       4.440   8.197   5.991  1.00  0.00     0.037 A 
ATOM     46  C   UNL     1       2.716   9.828  -0.094  1.00  0.00     0.049 A 
ATOM     47  C   UNL     1       4.279   9.514   5.286  1.00  0.00     0.074 A 
ATOM     48  C   UNL     1       2.526  11.099  -0.610  1.00  0.00     0.029 A 
ATOM     49  N   UNL     1       3.116   9.990   1.225  1.00  0.00    -0.354 N 
ATOM     50  N   UNL     1       3.913   9.745   4.048  1.00  0.00    -0.248 NA
ATOM     51  C   UNL     1       4.565  10.726   6.066  1.00  0.00     0.031 C 
ATOM     52  C   UNL     1       2.852  12.029   0.385  1.00  0.00     0.029 A 
ATOM     53  C   UNL     1       3.203  11.337   1.533  1.00  0.00     0.049 A 
ATOM     54  H   UNL     1       3.309   9.254   1.850  1.00  0.00     0.167 HD
ATOM     55  C   UNL     1       3.904  11.127   3.905  1.00  0.00     0.074 A 
ATOM     56  C   UNL     1       4.295  11.681   5.186  1.00  0.00     0.031 C 
ATOM     57  C   UNL     1       3.596  11.870   2.814  1.00  0.00     0.037 A 
BRANCH  44  58
ATOM     58  C   UNL     1       2.165   8.559  -2.207  1.00  0.00     0.058 A 
ATOM     59  C   UNL     1       0.868   8.218  -2.620  1.00  0.00     0.135 A 
ATOM     60  C   UNL     1       3.084   8.955  -3.193  1.00  0.00     0.135 A 
ATOM     61  F   UNL     1      -0.045   7.819  -1.721  1.00  0.00    -0.206 F 
ATOM     62  C   UNL     1       0.500   8.253  -3.962  1.00  0.00     0.059 A 
ATOM     63  C   UNL     1       2.732   9.015  -4.538  1.00  0.00     0.059 A 
ATOM     64  F   UNL     1       4.338   9.289  -2.851  1.00  0.00    -0.206 F 
ATOM     65  C   UNL     1       1.440   8.652  -4.914  1.00  0.00     0.060 A 
BRANCH  65  66
ATOM     66  S   UNL     1       0.947   8.700  -6.651  1.00  0.00     0.124 S 
ATOM     67  O   UNL     1       0.929   7.279  -6.987  1.00  0.00    -0.237 OA
ATOM     68  O   UNL     1      -0.357   9.353  -6.590  1.00  0.00    -0.237 OA
ATOM     69  O   UNL     1       2.006   9.480  -7.284  1.00  0.00    -0.744 OA
ENDBRANCH  65  66
ENDBRANCH  44  58
BRANCH  45  70
ATOM     70  C   UNL     1       4.884   8.129   7.406  1.00  0.00     0.058 A 
ATOM     71  C   UNL     1       4.030   8.501   8.452  1.00  0.00     0.135 A 
ATOM     72  C   UNL     1       6.162   7.653   7.738  1.00  0.00     0.135 A 
ATOM     73  F   UNL     1       2.801   8.967   8.182  1.00  0.00    -0.206 F 
ATOM     74  C   UNL     1       4.428   8.409   9.782  1.00  0.00     0.059 A 
ATOM     75  C   UNL     1       6.575   7.532   9.060  1.00  0.00     0.059 A 
ATOM     76  F   UNL     1       7.011   7.272   6.770  1.00  0.00    -0.206 F 
ATOM     77  C   UNL     1       5.703   7.920  10.075  1.00  0.00     0.060 A 
BRANCH  77  78
ATOM     78  S   UNL     1       6.192   7.746  11.805  1.00  0.00     0.124 S 
ATOM     79  O   UNL     1       6.495   9.127  12.164  1.00  0.00    -0.237 OA
ATOM     80  O   UNL     1       4.992   7.178  12.411  1.00  0.00    -0.237 OA
ATOM     81  O   UNL     1       7.337   6.843  11.739  1.00  0.00    -0.744 OA
ENDBRANCH  77  78
ENDBRANCH  45  70
BRANCH  57  82
ATOM     82  C   UNL     1       3.648  13.364   2.963  1.00  0.00     0.058 A 
ATOM     83  C   UNL     1       4.867  14.056   2.990  1.00  0.00     0.135 A 
ATOM     84  C   UNL     1       2.463  14.113   3.029  1.00  0.00     0.135 A 
ATOM     85  F   UNL     1       6.028  13.383   2.938  1.00  0.00    -0.206 F 
ATOM     86  C   UNL     1       4.911  15.442   3.095  1.00  0.00     0.059 A 
ATOM     87  C   UNL     1       2.483  15.501   3.114  1.00  0.00     0.059 A 
ATOM     88  F   UNL     1       1.270  13.497   2.999  1.00  0.00    -0.206 F 
ATOM     89  C   UNL     1       3.713  16.157   3.156  1.00  0.00     0.060 A 
BRANCH  89  90
ATOM     90  S   UNL     1       3.780  17.958   3.254  1.00  0.00     0.124 S 
ATOM     91  O   UNL     1       4.130  18.163   4.655  1.00  0.00    -0.237 OA
ATOM     92  O   UNL     1       4.821  18.288   2.285  1.00  0.00    -0.237 OA
ATOM     93  O   UNL     1       2.430  18.368   2.876  1.00  0.00    -0.744 OA
ENDBRANCH  89  90
ENDBRANCH  57  82
ENDBRANCH  31  32
ENDBRANCH  24  26
ENDBRANCH  23  24
ENDBRANCH  22  23
ENDBRANCH   1  22
TORSDOF 17
