REMARK SMILES CC(C)c1ccc(C[N@@H+](CC(=O)OCCOC(=O)c2ccc(-c3c4nc(c(-c5c(F)cc(S(=O)(=O)[O-])cc5F)c5ccc([nH]5)c(-c5c(F)cc(S(=O)(=O)[O-])cc5F)c5nc(c(-c6c(F)cc(S(=O)(=O)[O-])cc6F)c6ccc3[nH]6)C=C5)C=C4)cc2)CC(F)(F)F)cc1
REMARK SMILES IDX 14 1 13 2 11 3 12 4 10 5 9 6 8 8 7 9 4 10 5 11 91 12 6 13
REMARK SMILES IDX 90 14 2 15 1 16 3 17 85 18 86 19 87 20 88 21 89 22 15 23
REMARK SMILES IDX 16 24 17 25 18 26 19 27 20 28 84 29 21 30 83 31 22 32 23 33
REMARK SMILES IDX 24 34 77 35 25 36 82 37 76 38 78 39 26 40 81 41 75 42 74 43
REMARK SMILES IDX 27 45 61 46 40 47 60 48 41 49 44 50 59 51 79 52 42 53 43 54
REMARK SMILES IDX 58 56 80 57 45 58 28 59 29 60 38 61 30 62 31 63 37 64 39 65
REMARK SMILES IDX 32 66 33 67 34 68 35 69 36 70 62 71 63 72 72 73 64 74 65 75
REMARK SMILES IDX 71 76 73 77 66 78 67 79 68 80 69 81 70 82 46 83 47 84 56 85
REMARK SMILES IDX 48 86 49 87 55 88 57 89 50 90 51 91 52 92 53 93 54 94
REMARK H PARENT 9 7 78 44 44 55
REMARK Flexibility Score: inf
ROOT
ATOM      1  C   UNL     1      -8.386  -3.458  -0.939  1.00  0.00     0.274 C 
ENDROOT
BRANCH   1   2
ATOM      2  O   UNL     1      -7.404  -2.401  -0.886  1.00  0.00    -0.458 OA
BRANCH   2   3
ATOM      3  C   UNL     1      -7.868  -1.171  -0.546  1.00  0.00     0.361 C 
ATOM      4  O   UNL     1      -9.038  -0.941  -0.250  1.00  0.00    -0.245 OA
BRANCH   3   5
ATOM      5  C   UNL     1      -6.841  -0.043  -0.645  1.00  0.00     0.387 C 
BRANCH   5   6
ATOM      6  N   UNL     1      -5.412  -0.379  -0.524  1.00  0.00    -0.314 N 
ATOM      7  H   UNL     1      -4.918   0.510  -0.605  1.00  0.00     0.349 HD
BRANCH   6   8
ATOM      8  C   UNL     1      -4.842  -1.070  -1.675  1.00  0.00     0.299 C 
BRANCH   8   9
ATOM      9  C   UNL     1      -3.341  -0.917  -1.769  1.00  0.00     0.006 A 
ATOM     10  C   UNL     1      -0.520  -0.719  -1.625  1.00  0.00    -0.045 A 
ATOM     11  C   UNL     1      -1.331   0.427  -1.561  1.00  0.00     0.004 A 
ATOM     12  C   UNL     1      -1.146  -1.952  -1.855  1.00  0.00     0.004 A 
ATOM     13  C   UNL     1      -2.724   0.331  -1.631  1.00  0.00     0.010 A 
ATOM     14  C   UNL     1      -2.537  -2.049  -1.938  1.00  0.00     0.010 A 
BRANCH  10  15
ATOM     15  C   UNL     1       0.982  -0.582  -1.408  1.00  0.00     0.013 C 
ATOM     16  C   UNL     1       1.284  -0.016  -0.012  1.00  0.00     0.012 C 
ATOM     17  C   UNL     1       1.785  -1.875  -1.594  1.00  0.00     0.012 C 
ENDBRANCH  10  15
ENDBRANCH   8   9
ENDBRANCH   6   8
BRANCH   6  18
ATOM     18  C   UNL     1      -4.976  -0.776   0.841  1.00  0.00     0.380 C 
BRANCH  18  19
ATOM     19  C   UNL     1      -4.053  -1.981   1.162  1.00  0.00     0.438 C 
ATOM     20  F   UNL     1      -2.749  -1.682   0.962  1.00  0.00    -0.165 F 
ATOM     21  F   UNL     1      -4.152  -2.320   2.471  1.00  0.00    -0.165 F 
ATOM     22  F   UNL     1      -4.344  -3.076   0.425  1.00  0.00    -0.165 F 
ENDBRANCH  18  19
ENDBRANCH   6  18
ENDBRANCH   5   6
ENDBRANCH   3   5
ENDBRANCH   2   3
ENDBRANCH   1   2
BRANCH   1  23
ATOM     23  C   UNL     1      -8.386  -4.335   0.315  1.00  0.00     0.275 C 
BRANCH  23  24
ATOM     24  O   UNL     1      -8.818  -3.609   1.480  1.00  0.00    -0.458 OA
BRANCH  24  25
ATOM     25  C   UNL     1      -7.800  -3.084   2.198  1.00  0.00     0.338 C 
ATOM     26  O   UNL     1      -6.612  -3.187   1.956  1.00  0.00    -0.246 OA
BRANCH  25  27
ATOM     27  C   UNL     1      -8.284  -2.262   3.309  1.00  0.00     0.060 A 
ATOM     28  C   UNL     1      -8.259  -0.873   3.165  1.00  0.00     0.016 A 
ATOM     29  C   UNL     1      -8.570  -2.849   4.542  1.00  0.00     0.016 A 
ATOM     30  C   UNL     1      -8.491  -0.061   4.268  1.00  0.00     0.010 A 
ATOM     31  C   UNL     1      -8.837  -2.030   5.643  1.00  0.00     0.010 A 
ATOM     32  C   UNL     1      -8.782  -0.633   5.516  1.00  0.00    -0.014 A 
BRANCH  32  33
ATOM     33  C   UNL     1      -9.071   0.257   6.664  1.00  0.00     0.031 A 
ATOM     34  C   UNL     1      -8.071   0.448   7.766  1.00  0.00     0.074 A 
ATOM     35  C   UNL     1     -10.238   0.926   6.672  1.00  0.00     0.049 A 
ATOM     36  N   UNL     1      -8.162   1.194   8.837  1.00  0.00    -0.248 NA
ATOM     37  C   UNL     1      -6.806  -0.294   7.655  1.00  0.00     0.031 C 
ATOM     38  C   UNL     1     -11.274   0.820   5.641  1.00  0.00     0.029 A 
ATOM     39  N   UNL     1     -10.743   1.837   7.561  1.00  0.00    -0.354 N 
ATOM     40  C   UNL     1      -6.980   0.999   9.540  1.00  0.00     0.074 A 
ATOM     41  C   UNL     1      -6.187   0.058   8.775  1.00  0.00     0.031 C 
ATOM     42  C   UNL     1     -12.277   1.659   5.940  1.00  0.00     0.029 A 
ATOM     43  C   UNL     1     -11.972   2.331   7.198  1.00  0.00     0.049 A 
ATOM     44  H   UNL     1     -10.271   2.111   8.380  1.00  0.00     0.167 HD
ATOM     45  C   UNL     1      -6.598   1.552  10.717  1.00  0.00     0.037 A 
ATOM     46  C   UNL     1     -12.767   3.225   7.814  1.00  0.00     0.037 A 
ATOM     47  C   UNL     1      -7.393   2.494  11.465  1.00  0.00     0.049 A 
ATOM     48  C   UNL     1     -12.309   3.842   9.101  1.00  0.00     0.074 A 
ATOM     49  C   UNL     1      -7.105   3.100  12.676  1.00  0.00     0.029 A 
ATOM     50  N   UNL     1      -8.634   2.972  11.068  1.00  0.00    -0.354 N 
ATOM     51  N   UNL     1     -11.198   3.627   9.764  1.00  0.00    -0.248 NA
ATOM     52  C   UNL     1     -13.209   4.819   9.723  1.00  0.00     0.031 C 
ATOM     53  C   UNL     1      -8.179   3.932  13.019  1.00  0.00     0.029 A 
ATOM     54  C   UNL     1      -9.124   3.864  12.008  1.00  0.00     0.049 A 
ATOM     55  H   UNL     1      -9.098   2.716  10.238  1.00  0.00     0.167 HD
ATOM     56  C   UNL     1     -11.265   4.442  10.886  1.00  0.00     0.074 A 
ATOM     57  C   UNL     1     -12.514   5.173  10.796  1.00  0.00     0.031 C 
ATOM     58  C   UNL     1     -10.377   4.568  11.903  1.00  0.00     0.037 A 
BRANCH  45  59
ATOM     59  C   UNL     1      -5.272   1.129  11.284  1.00  0.00     0.058 A 
ATOM     60  C   UNL     1      -4.061   1.618  10.772  1.00  0.00     0.135 A 
ATOM     61  C   UNL     1      -5.213   0.241  12.370  1.00  0.00     0.135 A 
ATOM     62  F   UNL     1      -4.060   2.457   9.724  1.00  0.00    -0.206 F 
ATOM     63  C   UNL     1      -2.835   1.228  11.305  1.00  0.00     0.059 A 
ATOM     64  C   UNL     1      -4.000  -0.150  12.930  1.00  0.00     0.059 A 
ATOM     65  F   UNL     1      -6.343  -0.258  12.896  1.00  0.00    -0.206 F 
ATOM     66  C   UNL     1      -2.815   0.338  12.381  1.00  0.00     0.060 A 
BRANCH  66  67
ATOM     67  S   UNL     1      -1.222  -0.166  13.068  1.00  0.00     0.124 S 
ATOM     68  O   UNL     1      -0.794  -1.171  12.101  1.00  0.00    -0.237 OA
ATOM     69  O   UNL     1      -0.465   1.082  13.062  1.00  0.00    -0.237 OA
ATOM     70  O   UNL     1      -1.571  -0.675  14.391  1.00  0.00    -0.744 OA
ENDBRANCH  66  67
ENDBRANCH  45  59
BRANCH  46  71
ATOM     71  C   UNL     1     -14.067   3.587   7.197  1.00  0.00     0.058 A 
ATOM     72  C   UNL     1     -14.239   4.819   6.551  1.00  0.00     0.135 A 
ATOM     73  C   UNL     1     -15.138   2.681   7.185  1.00  0.00     0.135 A 
ATOM     74  F   UNL     1     -13.241   5.716   6.540  1.00  0.00    -0.206 F 
ATOM     75  C   UNL     1     -15.429   5.141   5.908  1.00  0.00     0.059 A 
ATOM     76  C   UNL     1     -16.331   2.973   6.532  1.00  0.00     0.059 A 
ATOM     77  F   UNL     1     -15.012   1.483   7.776  1.00  0.00    -0.206 F 
ATOM     78  C   UNL     1     -16.468   4.208   5.899  1.00  0.00     0.060 A 
BRANCH  78  79
ATOM     79  S   UNL     1     -17.978   4.586   4.984  1.00  0.00     0.124 S 
ATOM     80  O   UNL     1     -18.708   5.400   5.948  1.00  0.00    -0.237 OA
ATOM     81  O   UNL     1     -17.468   5.289   3.811  1.00  0.00    -0.237 OA
ATOM     82  O   UNL     1     -18.540   3.265   4.714  1.00  0.00    -0.744 OA
ENDBRANCH  78  79
ENDBRANCH  46  71
BRANCH  58  83
ATOM     83  C   UNL     1     -10.742   5.535  12.990  1.00  0.00     0.058 A 
ATOM     84  C   UNL     1     -11.699   5.209  13.963  1.00  0.00     0.135 A 
ATOM     85  C   UNL     1     -10.144   6.803  13.050  1.00  0.00     0.135 A 
ATOM     86  F   UNL     1     -12.303   4.011  13.942  1.00  0.00    -0.206 F 
ATOM     87  C   UNL     1     -12.080   6.123  14.940  1.00  0.00     0.059 A 
ATOM     88  C   UNL     1     -10.497   7.727  14.028  1.00  0.00     0.059 A 
ATOM     89  F   UNL     1      -9.218   7.157  12.144  1.00  0.00    -0.206 F 
ATOM     90  C   UNL     1     -11.481   7.385  14.956  1.00  0.00     0.060 A 
BRANCH  90  91
ATOM     91  S   UNL     1     -11.989   8.578  16.212  1.00  0.00     0.124 S 
ATOM     92  O   UNL     1     -13.198   9.134  15.614  1.00  0.00    -0.237 OA
ATOM     93  O   UNL     1     -12.193   7.737  17.388  1.00  0.00    -0.237 OA
ATOM     94  O   UNL     1     -10.849   9.486  16.291  1.00  0.00    -0.744 OA
ENDBRANCH  90  91
ENDBRANCH  58  83
ENDBRANCH  32  33
ENDBRANCH  25  27
ENDBRANCH  24  25
ENDBRANCH  23  24
ENDBRANCH   1  23
TORSDOF 20
