REMARK SMILES CC(C)c1ccc(NC(=O)C[C@H]2SC[C@@H](C(=O)OCCOC(=O)c3ccc(-c4c5nc(c(-c6c(F)cc(S(=O)(=O)[O-])cc6F)c6ccc([nH]6)c(-c6c(F)cc(S(=O)(=O)[O-])cc6F)c6nc(c(-c7c(F)cc(S(=O)(=O)[O-])cc7F)c7ccc4[nH]7)C=C6)C=C5)cc3)NC2=O)cc1
REMARK SMILES IDX 19 1 18 2 16 3 17 4 15 5 12 6 13 7 91 8 14 9 90 10 92 11
REMARK SMILES IDX 11 13 9 14 8 15 10 17 7 18 4 19 5 20 94 21 6 22 93 23 2 24
REMARK SMILES IDX 1 25 3 26 20 27 21 28 22 29 23 30 24 31 25 32 89 33 26 34
REMARK SMILES IDX 88 35 27 36 28 37 29 38 82 39 30 40 87 41 81 42 83 43 31 44
REMARK SMILES IDX 86 45 80 46 79 47 32 49 66 50 45 51 65 52 46 53 49 54 64 55
REMARK SMILES IDX 84 56 47 57 48 58 63 60 85 61 50 62 33 63 34 64 43 65 35 66
REMARK SMILES IDX 36 67 42 68 44 69 37 70 38 71 39 72 40 73 41 74 67 75 68 76
REMARK SMILES IDX 77 77 69 78 70 79 76 80 78 81 71 82 72 83 73 84 74 85 75 86
REMARK SMILES IDX 51 87 52 88 61 89 53 90 54 91 60 92 62 93 55 94 56 95 57 96
REMARK SMILES IDX 58 97 59 98
REMARK H PARENT 90 12 8 16 83 48 49 59
REMARK Flexibility Score: inf
ROOT
ATOM      1  C   UNL     1       0.965   0.808   2.291  1.00  0.00     0.274 C 
ENDROOT
BRANCH   1   2
ATOM      2  O   UNL     1       0.368   0.854   0.980  1.00  0.00    -0.461 OA
BRANCH   2   3
ATOM      3  C   UNL     1      -0.981   0.662   0.965  1.00  0.00     0.329 C 
ATOM      4  O   UNL     1      -1.685   0.640   1.959  1.00  0.00    -0.250 OA
BRANCH   3   5
ATOM      5  C   UNL     1      -1.481   0.330  -0.442  1.00  0.00     0.202 C 
ATOM      6  C   UNL     1      -4.402  -0.026   0.262  1.00  0.00     0.145 C 
ATOM      7  S   UNL     1      -4.117   1.385  -0.897  1.00  0.00    -0.145 SA
ATOM      8  C   UNL     1      -3.387  -1.160   0.156  1.00  0.00     0.234 C 
ATOM      9  C   UNL     1      -2.301   1.443  -1.064  1.00  0.00     0.107 C 
ATOM     10  N   UNL     1      -2.150  -0.952  -0.370  1.00  0.00    -0.341 N 
ATOM     11  O   UNL     1      -3.635  -2.316   0.501  1.00  0.00    -0.274 OA
ATOM     12  H   UNL     1      -1.673  -1.734  -0.732  1.00  0.00     0.164 HD
BRANCH   6  13
ATOM     13  C   UNL     1      -4.784   0.487   1.653  1.00  0.00     0.124 C 
BRANCH  13  14
ATOM     14  C   UNL     1      -4.873  -0.473   2.829  1.00  0.00     0.226 C 
ATOM     15  N   UNL     1      -5.744  -1.522   2.877  1.00  0.00    -0.326 N 
ATOM     16  H   UNL     1      -5.848  -1.958   3.753  1.00  0.00     0.169 HD
ATOM     17  O   UNL     1      -4.154  -0.295   3.821  1.00  0.00    -0.275 OA
BRANCH  15  18
ATOM     18  C   UNL     1      -6.504  -2.051   1.834  1.00  0.00     0.041 A 
ATOM     19  C   UNL     1      -7.271  -3.052  -0.663  1.00  0.00    -0.045 A 
ATOM     20  C   UNL     1      -7.712  -1.790  -0.227  1.00  0.00     0.006 A 
ATOM     21  C   UNL     1      -6.650  -3.881   0.282  1.00  0.00     0.006 A 
ATOM     22  C   UNL     1      -7.318  -1.282   1.014  1.00  0.00     0.026 A 
ATOM     23  C   UNL     1      -6.293  -3.393   1.538  1.00  0.00     0.026 A 
BRANCH  19  24
ATOM     24  C   UNL     1      -7.431  -3.465  -2.123  1.00  0.00     0.013 C 
ATOM     25  C   UNL     1      -7.024  -2.329  -3.080  1.00  0.00     0.012 C 
ATOM     26  C   UNL     1      -6.609  -4.704  -2.522  1.00  0.00     0.012 C 
ENDBRANCH  19  24
ENDBRANCH  15  18
ENDBRANCH  13  14
ENDBRANCH   6  13
ENDBRANCH   3   5
ENDBRANCH   2   3
ENDBRANCH   1   2
BRANCH   1  27
ATOM     27  C   UNL     1       1.137   2.189   2.933  1.00  0.00     0.275 C 
BRANCH  27  28
ATOM     28  O   UNL     1      -0.111   2.752   3.381  1.00  0.00    -0.458 OA
BRANCH  28  29
ATOM     29  C   UNL     1      -0.743   3.539   2.479  1.00  0.00     0.338 C 
ATOM     30  O   UNL     1      -0.312   3.849   1.374  1.00  0.00    -0.246 OA
BRANCH  29  31
ATOM     31  C   UNL     1      -2.130   3.834   2.905  1.00  0.00     0.060 A 
ATOM     32  C   UNL     1      -3.103   3.794   1.904  1.00  0.00     0.016 A 
ATOM     33  C   UNL     1      -2.505   4.126   4.220  1.00  0.00     0.016 A 
ATOM     34  C   UNL     1      -4.449   3.960   2.212  1.00  0.00     0.010 A 
ATOM     35  C   UNL     1      -3.861   4.352   4.523  1.00  0.00     0.010 A 
ATOM     36  C   UNL     1      -4.842   4.249   3.523  1.00  0.00    -0.014 A 
BRANCH  36  37
ATOM     37  C   UNL     1      -6.285   4.489   3.771  1.00  0.00     0.031 A 
ATOM     38  C   UNL     1      -6.908   5.771   3.295  1.00  0.00     0.074 A 
ATOM     39  C   UNL     1      -7.069   3.510   4.261  1.00  0.00     0.049 A 
ATOM     40  N   UNL     1      -8.154   6.160   3.361  1.00  0.00    -0.248 NA
ATOM     41  C   UNL     1      -6.011   6.729   2.627  1.00  0.00     0.031 C 
ATOM     42  C   UNL     1      -6.613   2.173   4.630  1.00  0.00     0.029 A 
ATOM     43  N   UNL     1      -8.424   3.477   4.493  1.00  0.00    -0.354 N 
ATOM     44  C   UNL     1      -8.195   7.402   2.741  1.00  0.00     0.074 A 
ATOM     45  C   UNL     1      -6.852   7.694   2.287  1.00  0.00     0.031 C 
ATOM     46  C   UNL     1      -7.672   1.438   5.014  1.00  0.00     0.029 A 
ATOM     47  C   UNL     1      -8.874   2.270   4.977  1.00  0.00     0.049 A 
ATOM     48  H   UNL     1      -9.016   4.246   4.329  1.00  0.00     0.167 HD
ATOM     49  C   UNL     1      -9.248   8.238   2.588  1.00  0.00     0.037 A 
ATOM     50  C   UNL     1     -10.108   1.892   5.372  1.00  0.00     0.037 A 
ATOM     51  C   UNL     1     -10.567   7.980   3.100  1.00  0.00     0.049 A 
ATOM     52  C   UNL     1     -11.238   2.892   5.315  1.00  0.00     0.074 A 
ATOM     53  C   UNL     1     -11.664   8.824   3.120  1.00  0.00     0.029 A 
ATOM     54  N   UNL     1     -10.966   6.792   3.693  1.00  0.00    -0.354 N 
ATOM     55  N   UNL     1     -11.243   4.108   4.821  1.00  0.00    -0.248 NA
ATOM     56  C   UNL     1     -12.524   2.480   5.899  1.00  0.00     0.031 C 
ATOM     57  C   UNL     1     -12.714   8.160   3.762  1.00  0.00     0.029 A 
ATOM     58  C   UNL     1     -12.288   6.884   4.095  1.00  0.00     0.049 A 
ATOM     59  H   UNL     1     -10.394   5.999   3.810  1.00  0.00     0.167 HD
ATOM     60  C   UNL     1     -12.527   4.602   5.033  1.00  0.00     0.074 A 
ATOM     61  C   UNL     1     -13.281   3.546   5.675  1.00  0.00     0.031 C 
ATOM     62  C   UNL     1     -13.031   5.826   4.734  1.00  0.00     0.037 A 
BRANCH  49  63
ATOM     63  C   UNL     1      -8.976   9.554   1.923  1.00  0.00     0.058 A 
ATOM     64  C   UNL     1      -8.809   9.661   0.534  1.00  0.00     0.135 A 
ATOM     65  C   UNL     1      -8.854  10.720   2.695  1.00  0.00     0.135 A 
ATOM     66  F   UNL     1      -8.886   8.570  -0.243  1.00  0.00    -0.206 F 
ATOM     67  C   UNL     1      -8.506  10.880  -0.065  1.00  0.00     0.059 A 
ATOM     68  C   UNL     1      -8.572  11.951   2.115  1.00  0.00     0.059 A 
ATOM     69  F   UNL     1      -8.993  10.664   4.029  1.00  0.00    -0.206 F 
ATOM     70  C   UNL     1      -8.383  12.018   0.736  1.00  0.00     0.060 A 
BRANCH  70  71
ATOM     71  S   UNL     1      -7.960  13.588  -0.048  1.00  0.00     0.124 S 
ATOM     72  O   UNL     1      -6.550  13.384  -0.364  1.00  0.00    -0.237 OA
ATOM     73  O   UNL     1      -8.867  13.621  -1.192  1.00  0.00    -0.237 OA
ATOM     74  O   UNL     1      -8.234  14.573   0.994  1.00  0.00    -0.744 OA
ENDBRANCH  70  71
ENDBRANCH  49  63
BRANCH  50  75
ATOM     75  C   UNL     1     -10.341   0.526   5.918  1.00  0.00     0.058 A 
ATOM     76  C   UNL     1     -11.169  -0.395   5.258  1.00  0.00     0.135 A 
ATOM     77  C   UNL     1      -9.768   0.126   7.137  1.00  0.00     0.135 A 
ATOM     78  F   UNL     1     -11.761  -0.055   4.103  1.00  0.00    -0.206 F 
ATOM     79  C   UNL     1     -11.431  -1.655   5.790  1.00  0.00     0.059 A 
ATOM     80  C   UNL     1      -9.991  -1.138   7.674  1.00  0.00     0.059 A 
ATOM     81  F   UNL     1      -8.974   0.968   7.816  1.00  0.00    -0.206 F 
ATOM     82  C   UNL     1     -10.835  -2.018   6.999  1.00  0.00     0.060 A 
BRANCH  82  83
ATOM     83  S   UNL     1     -11.150  -3.666   7.671  1.00  0.00     0.124 S 
ATOM     84  O   UNL     1     -12.500  -3.514   8.199  1.00  0.00    -0.237 OA
ATOM     85  O   UNL     1     -11.018  -4.513   6.490  1.00  0.00    -0.237 OA
ATOM     86  O   UNL     1     -10.096  -3.827   8.668  1.00  0.00    -0.744 OA
ENDBRANCH  82  83
ENDBRANCH  50  75
BRANCH  62  87
ATOM     87  C   UNL     1     -14.469   6.099   5.083  1.00  0.00     0.058 A 
ATOM     88  C   UNL     1     -14.875   6.317   6.409  1.00  0.00     0.135 A 
ATOM     89  C   UNL     1     -15.436   6.227   4.072  1.00  0.00     0.135 A 
ATOM     90  F   UNL     1     -13.992   6.205   7.413  1.00  0.00    -0.206 F 
ATOM     91  C   UNL     1     -16.193   6.639   6.722  1.00  0.00     0.059 A 
ATOM     92  C   UNL     1     -16.753   6.572   4.361  1.00  0.00     0.059 A 
ATOM     93  F   UNL     1     -15.098   6.040   2.787  1.00  0.00    -0.206 F 
ATOM     94  C   UNL     1     -17.124   6.769   5.690  1.00  0.00     0.060 A 
BRANCH  94  95
ATOM     95  S   UNL     1     -18.818   7.240   6.104  1.00  0.00     0.124 S 
ATOM     96  O   UNL     1     -19.340   6.000   6.669  1.00  0.00    -0.237 OA
ATOM     97  O   UNL     1     -18.617   8.333   7.051  1.00  0.00    -0.237 OA
ATOM     98  O   UNL     1     -19.386   7.632   4.818  1.00  0.00    -0.744 OA
ENDBRANCH  94  95
ENDBRANCH  62  87
ENDBRANCH  36  37
ENDBRANCH  29  31
ENDBRANCH  28  29
ENDBRANCH  27  28
ENDBRANCH   1  27
TORSDOF 18
