REMARK SMILES CC(C)C[C@H](CNC(=O)[C@H]1CCCCC[C@H]1[NH3+])CC(=O)OCCOC(=O)c1ccc(-c2c3nc(c(-c4c(F)cc(S(=O)(=O)[O-])cc4F)c4ccc([nH]4)c(-c4c(F)cc(S(=O)(=O)[O-])cc4F)c4nc(c(-c5c(F)cc(S(=O)(=O)[O-])cc5F)c5ccc2[nH]5)C=C4)C=C3)cc1
REMARK SMILES IDX 19 1 20 2 18 3 5 4 4 5 2 6 1 7 3 8 6 9 7 10 8 11 9 13 10 14
REMARK SMILES IDX 11 15 12 16 13 17 14 18 16 20 15 21 17 23 21 27 22 28 23 29
REMARK SMILES IDX 24 30 25 31 26 32 27 33 28 34 92 35 29 36 91 37 30 38 31 39
REMARK SMILES IDX 32 40 85 41 33 42 90 43 84 44 86 45 34 46 89 47 83 48 82 49
REMARK SMILES IDX 35 51 69 52 48 53 68 54 49 55 52 56 67 57 87 58 50 59 51 60
REMARK SMILES IDX 66 62 88 63 53 64 36 65 37 66 46 67 38 68 39 69 45 70 47 71
REMARK SMILES IDX 40 72 41 73 42 74 43 75 44 76 70 77 71 78 80 79 72 80 73 81
REMARK SMILES IDX 79 82 81 83 74 84 75 85 76 86 77 87 78 88 54 89 55 90 64 91
REMARK SMILES IDX 56 92 57 93 63 94 65 95 58 96 59 97 60 98 61 99 62 100
REMARK H PARENT 7 12 17 24 17 25 17 26 86 50 52 61
REMARK Flexibility Score: 90.00
ROOT
ATOM      1  C   UNL     1       3.396   6.507  -5.851  1.00  0.00     0.306 C 
ATOM      2  O   UNL     1       3.949   6.984  -6.832  1.00  0.00    -0.252 OA
ENDROOT
BRANCH   1   3
ATOM      3  C   UNL     1       3.899   5.261  -5.151  1.00  0.00     0.128 C 
BRANCH   3   4
ATOM      4  C   UNL     1       4.000   5.394  -3.622  1.00  0.00     0.019 C 
BRANCH   4   5
ATOM      5  C   UNL     1       5.224   4.708  -2.953  1.00  0.00     0.009 C 
BRANCH   5   6
ATOM      6  C   UNL     1       5.836   3.467  -3.632  1.00  0.00    -0.017 C 
ATOM      7  C   UNL     1       7.128   3.839  -4.373  1.00  0.00     0.007 C 
ATOM      8  C   UNL     1       6.168   2.399  -2.584  1.00  0.00     0.007 C 
ENDBRANCH   5   6
ENDBRANCH   4   5
BRANCH   4   9
ATOM      9  C   UNL     1       2.685   5.089  -2.877  1.00  0.00     0.120 C 
BRANCH   9  10
ATOM     10  N   UNL     1       2.187   3.741  -3.046  1.00  0.00    -0.355 N 
ATOM     11  C   UNL     1       1.319   2.972  -2.354  1.00  0.00     0.229 C 
ATOM     12  H   UNL     1       2.560   3.288  -3.837  1.00  0.00     0.163 HD
ATOM     13  O   UNL     1       0.826   2.053  -3.029  1.00  0.00    -0.275 OA
BRANCH  11  14
ATOM     14  C   UNL     1       0.915   3.082  -0.867  1.00  0.00     0.136 C 
BRANCH  14  15
ATOM     15  C   UNL     1       1.052   1.661  -0.247  1.00  0.00     0.020 C 
BRANCH  15  16
ATOM     16  C   UNL     1       2.464   1.077  -0.325  1.00  0.00     0.001 C 
BRANCH  16  17
ATOM     17  C   UNL     1       3.433   1.481   0.781  1.00  0.00     0.000 C 
BRANCH  17  18
ATOM     18  C   UNL     1       3.320   2.881   1.376  1.00  0.00     0.006 CG0
ATOM     19  G   UNL     1       2.981   3.999   0.393  1.00  0.00     0.000 G0
ENDBRANCH  17  18
ENDBRANCH  16  17
ENDBRANCH  15  16
ENDBRANCH  14  15
BRANCH  14  20
ATOM     20  C   UNL     1       1.470   4.123   0.119  1.00  0.00     0.193 C 
BRANCH  20  21
ATOM     21  C   UNL     1       2.981   3.999   0.393  1.00  0.00     0.066 CG0
ATOM     22  G   UNL     1       3.320   2.881   1.376  1.00  0.00     0.000 G0
ENDBRANCH  20  21
BRANCH  20  23
ATOM     23  N   UNL     1       1.017   5.488  -0.176  1.00  0.00    -0.354 N 
ATOM     24  H   UNL     1       1.404   5.789  -1.070  1.00  0.00     0.344 HD
ATOM     25  H   UNL     1       1.334   6.118   0.561  1.00  0.00     0.344 HD
ATOM     26  H   UNL     1      -0.002   5.505  -0.223  1.00  0.00     0.344 HD
ENDBRANCH  20  23
ENDBRANCH  14  20
ENDBRANCH  11  14
ENDBRANCH   9  10
ENDBRANCH   4   9
ENDBRANCH   3   4
ENDBRANCH   1   3
BRANCH   1  27
ATOM     27  O   UNL     1       2.256   6.986  -5.290  1.00  0.00    -0.462 OA
BRANCH  27  28
ATOM     28  C   UNL     1       1.714   8.182  -5.883  1.00  0.00     0.274 C 
BRANCH  28  29
ATOM     29  C   UNL     1       2.071   9.422  -5.060  1.00  0.00     0.275 C 
BRANCH  29  30
ATOM     30  O   UNL     1       3.486   9.680  -5.090  1.00  0.00    -0.458 OA
BRANCH  30  31
ATOM     31  C   UNL     1       4.168   9.282  -3.990  1.00  0.00     0.338 C 
ATOM     32  O   UNL     1       3.704   8.781  -2.981  1.00  0.00    -0.246 OA
BRANCH  31  33
ATOM     33  C   UNL     1       5.616   9.430  -4.218  1.00  0.00     0.060 A 
ATOM     34  C   UNL     1       6.397   8.274  -4.285  1.00  0.00     0.016 A 
ATOM     35  C   UNL     1       6.215  10.688  -4.259  1.00  0.00     0.016 A 
ATOM     36  C   UNL     1       7.783   8.365  -4.343  1.00  0.00     0.010 A 
ATOM     37  C   UNL     1       7.610  10.780  -4.347  1.00  0.00     0.010 A 
ATOM     38  C   UNL     1       8.404   9.619  -4.365  1.00  0.00    -0.014 A 
BRANCH  38  39
ATOM     39  C   UNL     1       9.885   9.698  -4.355  1.00  0.00     0.031 A 
ATOM     40  C   UNL     1      10.605  10.142  -3.113  1.00  0.00     0.074 A 
ATOM     41  C   UNL     1      10.582   9.327  -5.445  1.00  0.00     0.049 A 
ATOM     42  N   UNL     1      11.887  10.318  -2.919  1.00  0.00    -0.248 NA
ATOM     43  C   UNL     1       9.773  10.429  -1.934  1.00  0.00     0.031 C 
ATOM     44  C   UNL     1       9.998   8.842  -6.697  1.00  0.00     0.029 A 
ATOM     45  N   UNL     1      11.935   9.296  -5.673  1.00  0.00    -0.354 N 
ATOM     46  C   UNL     1      12.016  10.756  -1.607  1.00  0.00     0.074 A 
ATOM     47  C   UNL     1      10.680  10.834  -1.055  1.00  0.00     0.031 C 
ATOM     48  C   UNL     1      10.987   8.551  -7.558  1.00  0.00     0.029 A 
ATOM     49  C   UNL     1      12.270   8.867  -6.935  1.00  0.00     0.049 A 
ATOM     50  H   UNL     1      12.601   9.556  -4.997  1.00  0.00     0.167 HD
ATOM     51  C   UNL     1      13.146  11.061  -0.924  1.00  0.00     0.037 A 
ATOM     52  C   UNL     1      13.474   8.760  -7.529  1.00  0.00     0.037 A 
ATOM     53  C   UNL     1      14.475  10.964  -1.469  1.00  0.00     0.049 A 
ATOM     54  C   UNL     1      14.711   9.129  -6.759  1.00  0.00     0.074 A 
ATOM     55  C   UNL     1      15.682  11.250  -0.855  1.00  0.00     0.029 A 
ATOM     56  N   UNL     1      14.773  10.542  -2.757  1.00  0.00    -0.354 N 
ATOM     57  N   UNL     1      14.815   9.559  -5.524  1.00  0.00    -0.248 NA
ATOM     58  C   UNL     1      15.995   9.002  -7.463  1.00  0.00     0.031 C 
ATOM     59  C   UNL     1      16.709  11.026  -1.781  1.00  0.00     0.029 A 
ATOM     60  C   UNL     1      16.143  10.568  -2.959  1.00  0.00     0.049 A 
ATOM     61  H   UNL     1      14.108  10.264  -3.428  1.00  0.00     0.167 HD
ATOM     62  C   UNL     1      16.175   9.739  -5.298  1.00  0.00     0.074 A 
ATOM     63  C   UNL     1      16.855   9.358  -6.519  1.00  0.00     0.031 C 
ATOM     64  C   UNL     1      16.803  10.181  -4.181  1.00  0.00     0.037 A 
BRANCH  51  65
ATOM     65  C   UNL     1      12.987  11.557   0.485  1.00  0.00     0.058 A 
ATOM     66  C   UNL     1      12.656  10.691   1.539  1.00  0.00     0.135 A 
ATOM     67  C   UNL     1      13.183  12.914   0.787  1.00  0.00     0.135 A 
ATOM     68  F   UNL     1      12.440   9.388   1.301  1.00  0.00    -0.206 F 
ATOM     69  C   UNL     1      12.499  11.159   2.840  1.00  0.00     0.059 A 
ATOM     70  C   UNL     1      13.051  13.400   2.084  1.00  0.00     0.059 A 
ATOM     71  F   UNL     1      13.498  13.784  -0.186  1.00  0.00    -0.206 F 
ATOM     72  C   UNL     1      12.692  12.517   3.102  1.00  0.00     0.060 A 
BRANCH  72  73
ATOM     73  S   UNL     1      12.472  13.115   4.791  1.00  0.00     0.124 S 
ATOM     74  O   UNL     1      11.017  13.147   4.899  1.00  0.00    -0.237 OA
ATOM     75  O   UNL     1      13.143  12.087   5.580  1.00  0.00    -0.237 OA
ATOM     76  O   UNL     1      13.130  14.418   4.777  1.00  0.00    -0.744 OA
ENDBRANCH  72  73
ENDBRANCH  51  65
BRANCH  52  77
ATOM     77  C   UNL     1      13.564   8.290  -8.935  1.00  0.00     0.058 A 
ATOM     78  C   UNL     1      14.071   7.019  -9.242  1.00  0.00     0.135 A 
ATOM     79  C   UNL     1      13.133   9.098  -9.998  1.00  0.00     0.135 A 
ATOM     80  F   UNL     1      14.504   6.215  -8.258  1.00  0.00    -0.206 F 
ATOM     81  C   UNL     1      14.156   6.567 -10.554  1.00  0.00     0.059 A 
ATOM     82  C   UNL     1      13.187   8.660 -11.317  1.00  0.00     0.059 A 
ATOM     83  F   UNL     1      12.629  10.318  -9.754  1.00  0.00    -0.206 F 
ATOM     84  C   UNL     1      13.710   7.395 -11.586  1.00  0.00     0.060 A 
BRANCH  84  85
ATOM     85  S   UNL     1      13.770   6.783 -13.284  1.00  0.00     0.124 S 
ATOM     86  O   UNL     1      15.181   6.955 -13.607  1.00  0.00    -0.237 OA
ATOM     87  O   UNL     1      13.313   5.404 -13.133  1.00  0.00    -0.237 OA
ATOM     88  O   UNL     1      12.846   7.666 -13.989  1.00  0.00    -0.744 OA
ENDBRANCH  84  85
ENDBRANCH  52  77
BRANCH  64  89
ATOM     89  C   UNL     1      18.303  10.251  -4.221  1.00  0.00     0.058 A 
ATOM     90  C   UNL     1      18.972  11.271  -4.915  1.00  0.00     0.135 A 
ATOM     91  C   UNL     1      19.078   9.305  -3.532  1.00  0.00     0.135 A 
ATOM     92  F   UNL     1      18.275  12.196  -5.594  1.00  0.00    -0.206 F 
ATOM     93  C   UNL     1      20.361  11.337  -4.945  1.00  0.00     0.059 A 
ATOM     94  C   UNL     1      20.468   9.364  -3.532  1.00  0.00     0.059 A 
ATOM     95  F   UNL     1      18.485   8.315  -2.846  1.00  0.00    -0.206 F 
ATOM     96  C   UNL     1      21.101  10.376  -4.254  1.00  0.00     0.060 A 
BRANCH  96  97
ATOM     97  S   UNL     1      22.904  10.478  -4.280  1.00  0.00     0.124 S 
ATOM     98  O   UNL     1      23.209   9.915  -5.591  1.00  0.00    -0.237 OA
ATOM     99  O   UNL     1      23.142  11.911  -4.135  1.00  0.00    -0.237 OA
ATOM    100  O   UNL     1      23.305   9.665  -3.137  1.00  0.00    -0.744 OA
ENDBRANCH  96  97
ENDBRANCH  64  89
ENDBRANCH  38  39
ENDBRANCH  31  33
ENDBRANCH  30  31
ENDBRANCH  29  30
ENDBRANCH  28  29
ENDBRANCH  27  28
ENDBRANCH   1  27
TORSDOF 21
