REMARK SMILES CN1C(=O)C[C@H](C(=O)Nc2ccc(C(=O)OCCOC(=O)c3ccc(-c4c5nc(c(-c6c(F)cc(S(=O)(=O)[O-])cc6F)c6ccc([nH]6)c(-c6c(F)cc(S(=O)(=O)[O-])cc6F)c6nc(c(-c7c(F)cc(S(=O)(=O)[O-])cc7F)c7ccc4[nH]7)C=C6)C=C5)cc3)cc2)S/C1=[NH+]\c1cccc(C(F)(F)F)c1
REMARK SMILES IDX 17 1 16 2 14 3 15 4 13 5 10 6 11 7 89 8 12 9 88 10 9 11 7 12
REMARK SMILES IDX 8 13 6 15 1 16 2 17 3 18 91 19 4 20 5 21 90 22 92 23 93 25
REMARK SMILES IDX 94 26 102 27 95 28 97 29 96 30 98 31 99 32 100 33 101 34
REMARK SMILES IDX 18 35 19 36 20 37 21 38 22 39 23 40 87 41 24 42 86 43 25 44
REMARK SMILES IDX 26 45 27 46 80 47 28 48 85 49 79 50 81 51 29 52 84 53 78 54
REMARK SMILES IDX 77 55 30 57 64 58 43 59 63 60 44 61 47 62 62 63 82 64 45 65
REMARK SMILES IDX 46 66 61 68 83 69 48 70 31 71 32 72 41 73 33 74 34 75 40 76
REMARK SMILES IDX 42 77 35 78 36 79 37 80 38 81 39 82 65 83 66 84 75 85 67 86
REMARK SMILES IDX 68 87 74 88 76 89 69 90 70 91 71 92 72 93 73 94 49 95 50 96
REMARK SMILES IDX 59 97 51 98 52 99 58 100 60 101 53 102 54 103 55 104 56 105
REMARK SMILES IDX 57 106
REMARK H PARENT 9 14 92 24 81 56 47 67
REMARK Flexibility Score: inf
ROOT
ATOM      1  C   UNL     1      -0.633  -7.688   3.465  1.00  0.00     0.275 C 
ENDROOT
BRANCH   1   2
ATOM      2  O   UNL     1      -0.294  -7.796   2.050  1.00  0.00    -0.458 OA
BRANCH   2   3
ATOM      3  C   UNL     1       0.546  -6.828   1.616  1.00  0.00     0.338 C 
ATOM      4  O   UNL     1       1.022  -5.966   2.354  1.00  0.00    -0.246 OA
BRANCH   3   5
ATOM      5  C   UNL     1       0.724  -6.715   0.124  1.00  0.00     0.060 A 
ATOM      6  C   UNL     1       0.204  -5.303  -2.317  1.00  0.00     0.041 A 
ATOM      7  C   UNL     1      -0.250  -6.611  -2.162  1.00  0.00     0.027 A 
ATOM      8  C   UNL     1       1.040  -4.906  -1.315  1.00  0.00     0.027 A 
ATOM      9  C   UNL     1      -0.035  -7.300  -0.911  1.00  0.00     0.018 A 
ATOM     10  C   UNL     1       1.444  -5.596  -0.195  1.00  0.00     0.018 A 
BRANCH   6  11
ATOM     11  N   UNL     1      -0.334  -4.357  -3.242  1.00  0.00    -0.325 N 
ATOM     12  C   UNL     1      -0.185  -2.984  -3.456  1.00  0.00     0.238 C 
ATOM     13  O   UNL     1      -1.026  -2.477  -4.217  1.00  0.00    -0.273 OA
ATOM     14  H   UNL     1      -0.957  -4.771  -3.881  1.00  0.00     0.169 HD
BRANCH  12  15
ATOM     15  C   UNL     1       0.982  -2.067  -2.949  1.00  0.00     0.160 C 
ATOM     16  C   UNL     1       0.132   1.303  -0.261  1.00  0.00     0.301 C 
ATOM     17  N   UNL     1       0.039   0.356  -1.349  1.00  0.00    -0.194 N 
ATOM     18  C   UNL     1       0.657   0.600  -2.567  1.00  0.00     0.311 C 
ATOM     19  C   UNL     1      -0.337  -0.908  -1.036  1.00  0.00     0.319 C 
ATOM     20  O   UNL     1       0.987   1.740  -2.905  1.00  0.00    -0.247 OA
ATOM     21  C   UNL     1       0.979  -0.611  -3.508  1.00  0.00     0.153 C 
ATOM     22  S   UNL     1       1.076  -1.828  -1.169  1.00  0.00    -0.024 SA
ATOM     23  N   UNL     1      -1.567  -1.157  -0.776  1.00  0.00    -0.235 N 
ATOM     24  H   UNL     1      -2.084  -0.379  -0.467  1.00  0.00     0.313 HD
BRANCH  23  25
ATOM     25  C   UNL     1      -2.301  -2.346  -0.856  1.00  0.00     0.126 A 
ATOM     26  C   UNL     1      -3.493  -2.187  -1.591  1.00  0.00     0.052 A 
ATOM     27  C   UNL     1      -2.092  -3.576  -0.241  1.00  0.00     0.064 A 
ATOM     28  C   UNL     1      -4.438  -3.195  -1.759  1.00  0.00     0.005 A 
ATOM     29  C   UNL     1      -3.048  -4.613  -0.421  1.00  0.00     0.060 A 
ATOM     30  C   UNL     1      -4.205  -4.421  -1.188  1.00  0.00     0.013 A 
BRANCH  29  31
ATOM     31  C   UNL     1      -2.960  -5.940   0.249  1.00  0.00     0.416 C 
ATOM     32  F   UNL     1      -3.995  -6.123   1.105  1.00  0.00    -0.166 F 
ATOM     33  F   UNL     1      -2.992  -6.978  -0.632  1.00  0.00    -0.166 F 
ATOM     34  F   UNL     1      -1.844  -6.096   0.984  1.00  0.00    -0.166 F 
ENDBRANCH  29  31
ENDBRANCH  23  25
ENDBRANCH  12  15
ENDBRANCH   6  11
ENDBRANCH   3   5
ENDBRANCH   2   3
ENDBRANCH   1   2
BRANCH   1  35
ATOM     35  C   UNL     1      -2.054  -7.153   3.701  1.00  0.00     0.275 C 
BRANCH  35  36
ATOM     36  O   UNL     1      -2.988  -8.082   3.129  1.00  0.00    -0.458 OA
BRANCH  36  37
ATOM     37  C   UNL     1      -4.306  -7.842   3.304  1.00  0.00     0.338 C 
ATOM     38  O   UNL     1      -4.801  -7.105   4.167  1.00  0.00    -0.246 OA
BRANCH  37  39
ATOM     39  C   UNL     1      -5.068  -8.480   2.194  1.00  0.00     0.060 A 
ATOM     40  C   UNL     1      -4.373  -8.849   1.042  1.00  0.00     0.016 A 
ATOM     41  C   UNL     1      -6.465  -8.538   2.171  1.00  0.00     0.016 A 
ATOM     42  C   UNL     1      -5.056  -9.117  -0.138  1.00  0.00     0.010 A 
ATOM     43  C   UNL     1      -7.139  -9.001   1.018  1.00  0.00     0.010 A 
ATOM     44  C   UNL     1      -6.444  -9.291  -0.173  1.00  0.00    -0.014 A 
BRANCH  44  45
ATOM     45  C   UNL     1      -7.103  -9.777  -1.440  1.00  0.00     0.031 A 
ATOM     46  C   UNL     1      -8.376  -9.147  -1.964  1.00  0.00     0.074 A 
ATOM     47  C   UNL     1      -6.552 -10.778  -2.172  1.00  0.00     0.049 A 
ATOM     48  N   UNL     1      -9.219  -9.605  -2.858  1.00  0.00    -0.248 NA
ATOM     49  C   UNL     1      -8.752  -7.835  -1.416  1.00  0.00     0.031 C 
ATOM     50  C   UNL     1      -5.286 -11.461  -1.884  1.00  0.00     0.029 A 
ATOM     51  N   UNL     1      -6.976 -11.393  -3.332  1.00  0.00    -0.354 N 
ATOM     52  C   UNL     1     -10.266  -8.688  -2.913  1.00  0.00     0.074 A 
ATOM     53  C   UNL     1      -9.935  -7.628  -1.982  1.00  0.00     0.031 C 
ATOM     54  C   UNL     1      -4.991 -12.311  -2.874  1.00  0.00     0.029 A 
ATOM     55  C   UNL     1      -6.133 -12.394  -3.767  1.00  0.00     0.049 A 
ATOM     56  H   UNL     1      -7.802 -11.141  -3.805  1.00  0.00     0.167 HD
ATOM     57  C   UNL     1     -11.401  -8.737  -3.656  1.00  0.00     0.037 A 
ATOM     58  C   UNL     1      -6.277 -13.352  -4.705  1.00  0.00     0.037 A 
ATOM     59  C   UNL     1     -11.687  -9.757  -4.637  1.00  0.00     0.049 A 
ATOM     60  C   UNL     1      -7.572 -13.443  -5.455  1.00  0.00     0.074 A 
ATOM     61  C   UNL     1     -12.817  -9.903  -5.426  1.00  0.00     0.029 A 
ATOM     62  N   UNL     1     -10.830 -10.792  -4.982  1.00  0.00    -0.354 N 
ATOM     63  N   UNL     1      -8.614 -12.650  -5.394  1.00  0.00    -0.248 NA
ATOM     64  C   UNL     1      -7.731 -14.582  -6.368  1.00  0.00     0.031 C 
ATOM     65  C   UNL     1     -12.662 -11.050  -6.213  1.00  0.00     0.029 A 
ATOM     66  C   UNL     1     -11.412 -11.588  -5.957  1.00  0.00     0.049 A 
ATOM     67  H   UNL     1      -9.938 -10.940  -4.591  1.00  0.00     0.167 HD
ATOM     68  C   UNL     1      -9.546 -13.187  -6.273  1.00  0.00     0.074 A 
ATOM     69  C   UNL     1      -8.939 -14.360  -6.865  1.00  0.00     0.031 C 
ATOM     70  C   UNL     1     -10.796 -12.747  -6.555  1.00  0.00     0.037 A 
BRANCH  57  71
ATOM     71  C   UNL     1     -12.466  -7.700  -3.392  1.00  0.00     0.058 A 
ATOM     72  C   UNL     1     -12.336  -6.359  -3.784  1.00  0.00     0.135 A 
ATOM     73  C   UNL     1     -13.665  -8.079  -2.760  1.00  0.00     0.135 A 
ATOM     74  F   UNL     1     -11.213  -5.936  -4.384  1.00  0.00    -0.206 F 
ATOM     75  C   UNL     1     -13.339  -5.425  -3.527  1.00  0.00     0.059 A 
ATOM     76  C   UNL     1     -14.691  -7.169  -2.519  1.00  0.00     0.059 A 
ATOM     77  F   UNL     1     -13.850  -9.350  -2.371  1.00  0.00    -0.206 F 
ATOM     78  C   UNL     1     -14.510  -5.839  -2.889  1.00  0.00     0.060 A 
BRANCH  78  79
ATOM     79  S   UNL     1     -15.790  -4.613  -2.540  1.00  0.00     0.124 S 
ATOM     80  O   UNL     1     -15.176  -3.853  -1.455  1.00  0.00    -0.237 OA
ATOM     81  O   UNL     1     -15.910  -3.913  -3.814  1.00  0.00    -0.237 OA
ATOM     82  O   UNL     1     -16.945  -5.423  -2.162  1.00  0.00    -0.744 OA
ENDBRANCH  78  79
ENDBRANCH  57  71
BRANCH  58  83
ATOM     83  C   UNL     1      -5.207 -14.373  -4.905  1.00  0.00     0.058 A 
ATOM     84  C   UNL     1      -4.494 -14.451  -6.109  1.00  0.00     0.135 A 
ATOM     85  C   UNL     1      -4.870 -15.285  -3.889  1.00  0.00     0.135 A 
ATOM     86  F   UNL     1      -4.788 -13.617  -7.118  1.00  0.00    -0.206 F 
ATOM     87  C   UNL     1      -3.489 -15.396  -6.302  1.00  0.00     0.059 A 
ATOM     88  C   UNL     1      -3.843 -16.210  -4.043  1.00  0.00     0.059 A 
ATOM     89  F   UNL     1      -5.515 -15.253  -2.712  1.00  0.00    -0.206 F 
ATOM     90  C   UNL     1      -3.166 -16.265  -5.258  1.00  0.00     0.060 A 
BRANCH  90  91
ATOM     91  S   UNL     1      -1.821 -17.447  -5.495  1.00  0.00     0.124 S 
ATOM     92  O   UNL     1      -2.439 -18.418  -6.390  1.00  0.00    -0.237 OA
ATOM     93  O   UNL     1      -0.778 -16.611  -6.080  1.00  0.00    -0.237 OA
ATOM     94  O   UNL     1      -1.548 -17.919  -4.140  1.00  0.00    -0.744 OA
ENDBRANCH  90  91
ENDBRANCH  58  83
BRANCH  70  95
ATOM     95  C   UNL     1     -11.574 -13.507  -7.592  1.00  0.00     0.058 A 
ATOM     96  C   UNL     1     -12.119 -14.773  -7.330  1.00  0.00     0.135 A 
ATOM     97  C   UNL     1     -11.806 -12.941  -8.856  1.00  0.00     0.135 A 
ATOM     98  F   UNL     1     -11.913 -15.365  -6.143  1.00  0.00    -0.206 F 
ATOM     99  C   UNL     1     -12.851 -15.461  -8.292  1.00  0.00     0.059 A 
ATOM    100  C   UNL     1     -12.558 -13.599  -9.823  1.00  0.00     0.059 A 
ATOM    101  F   UNL     1     -11.308 -11.731  -9.157  1.00  0.00    -0.206 F 
ATOM    102  C   UNL     1     -13.069 -14.864  -9.535  1.00  0.00     0.060 A 
BRANCH 102 103
ATOM    103  S   UNL     1     -14.055 -15.749 -10.761  1.00  0.00     0.124 S 
ATOM    104  O   UNL     1     -13.128 -16.793 -11.186  1.00  0.00    -0.237 OA
ATOM    105  O   UNL     1     -15.199 -16.199  -9.974  1.00  0.00    -0.237 OA
ATOM    106  O   UNL     1     -14.352 -14.727 -11.760  1.00  0.00    -0.744 OA
ENDBRANCH 102 103
ENDBRANCH  70  95
ENDBRANCH  44  45
ENDBRANCH  37  39
ENDBRANCH  36  37
ENDBRANCH  35  36
ENDBRANCH   1  35
TORSDOF 18
