REMARK SMILES CC[C@@H](Oc1ccccc1)C(=O)OCCOC(=O)c1ccc(-c2c3nc(c(-c4c(F)cc(S(=O)(=O)[O-])cc4F)c4ccc([nH]4)c(-c4c(F)cc(S(=O)(=O)[O-])cc4F)c4nc(c(-c5c(F)cc(S(=O)(=O)[O-])cc5F)c5ccc2[nH]5)C=C4)C=C3)cc1
REMARK SMILES IDX 15 1 14 2 13 3 11 4 12 5 3 6 2 7 1 8 4 9 5 10 6 11 10 12
REMARK SMILES IDX 7 13 9 14 8 15 16 16 17 17 18 18 19 19 20 20 84 21 21 22
REMARK SMILES IDX 83 23 22 24 23 25 24 26 77 27 25 28 82 29 76 30 78 31 26 32
REMARK SMILES IDX 81 33 75 34 74 35 27 37 61 38 40 39 60 40 41 41 44 42 59 43
REMARK SMILES IDX 79 44 42 45 43 46 58 48 80 49 45 50 28 51 29 52 38 53 30 54
REMARK SMILES IDX 31 55 37 56 39 57 32 58 33 59 34 60 35 61 36 62 62 63 63 64
REMARK SMILES IDX 72 65 64 66 65 67 71 68 73 69 66 70 67 71 68 72 69 73 70 74
REMARK SMILES IDX 46 75 47 76 56 77 48 78 49 79 55 80 57 81 50 82 51 83 52 84
REMARK SMILES IDX 53 85 54 86
REMARK H PARENT 78 36 44 47
REMARK Flexibility Score: inf
ROOT
ATOM      1  C   UNL     1      -0.561  -3.605   4.645  1.00  0.00     0.275 C 
ENDROOT
BRANCH   1   2
ATOM      2  C   UNL     1      -1.123  -2.187   4.764  1.00  0.00     0.274 C 
BRANCH   2   3
ATOM      3  O   UNL     1      -0.860  -1.427   3.570  1.00  0.00    -0.459 OA
BRANCH   3   4
ATOM      4  C   UNL     1       0.227  -0.605   3.609  1.00  0.00     0.347 C 
ATOM      5  O   UNL     1       0.919  -0.415   4.603  1.00  0.00    -0.248 OA
BRANCH   4   6
ATOM      6  C   UNL     1       0.504   0.066   2.263  1.00  0.00     0.282 C 
BRANCH   6   7
ATOM      7  C   UNL     1       0.278  -0.889   1.076  1.00  0.00     0.054 C 
ATOM      8  C   UNL     1       1.387  -0.792   0.034  1.00  0.00     0.008 C 
ENDBRANCH   6   7
BRANCH   6   9
ATOM      9  O   UNL     1      -0.359   1.212   2.166  1.00  0.00    -0.479 OA
BRANCH   9  10
ATOM     10  C   UNL     1       0.243   2.226   1.472  1.00  0.00     0.120 A 
ATOM     11  C   UNL     1       1.228   3.014   2.066  1.00  0.00     0.046 A 
ATOM     12  C   UNL     1      -0.171   2.471   0.165  1.00  0.00     0.046 A 
ATOM     13  C   UNL     1       1.846   4.018   1.319  1.00  0.00     0.004 A 
ATOM     14  C   UNL     1       0.456   3.467  -0.583  1.00  0.00     0.004 A 
ATOM     15  C   UNL     1       1.468   4.236  -0.007  1.00  0.00     0.000 A 
ENDBRANCH   9  10
ENDBRANCH   6   9
ENDBRANCH   4   6
ENDBRANCH   3   4
ENDBRANCH   2   3
ENDBRANCH   1   2
BRANCH   1  16
ATOM     16  O   UNL     1       0.878  -3.584   4.636  1.00  0.00    -0.458 OA
BRANCH  16  17
ATOM     17  C   UNL     1       1.466  -3.873   3.455  1.00  0.00     0.338 C 
ATOM     18  O   UNL     1       0.922  -4.181   2.406  1.00  0.00    -0.246 OA
BRANCH  17  19
ATOM     19  C   UNL     1       2.917  -3.689   3.579  1.00  0.00     0.060 A 
ATOM     20  C   UNL     1       3.485  -2.487   3.153  1.00  0.00     0.016 A 
ATOM     21  C   UNL     1       3.720  -4.738   4.027  1.00  0.00     0.016 A 
ATOM     22  C   UNL     1       4.870  -2.332   3.158  1.00  0.00     0.010 A 
ATOM     23  C   UNL     1       5.108  -4.575   4.049  1.00  0.00     0.010 A 
ATOM     24  C   UNL     1       5.693  -3.378   3.599  1.00  0.00    -0.014 A 
BRANCH  24  25
ATOM     25  C   UNL     1       7.168  -3.236   3.555  1.00  0.00     0.031 A 
ATOM     26  C   UNL     1       7.961  -3.977   2.515  1.00  0.00     0.074 A 
ATOM     27  C   UNL     1       7.793  -2.448   4.449  1.00  0.00     0.049 A 
ATOM     28  N   UNL     1       9.258  -4.064   2.371  1.00  0.00    -0.248 NA
ATOM     29  C   UNL     1       7.190  -4.721   1.506  1.00  0.00     0.031 C 
ATOM     30  C   UNL     1       7.130  -1.659   5.488  1.00  0.00     0.029 A 
ATOM     31  N   UNL     1       9.128  -2.191   4.634  1.00  0.00    -0.354 N 
ATOM     32  C   UNL     1       9.462  -4.884   1.268  1.00  0.00     0.074 A 
ATOM     33  C   UNL     1       8.155  -5.282   0.789  1.00  0.00     0.031 C 
ATOM     34  C   UNL     1       8.062  -1.012   6.207  1.00  0.00     0.029 A 
ATOM     35  C   UNL     1       9.386  -1.371   5.706  1.00  0.00     0.049 A 
ATOM     36  H   UNL     1       9.834  -2.560   4.055  1.00  0.00     0.167 HD
ATOM     37  C   UNL     1      10.634  -5.266   0.705  1.00  0.00     0.037 A 
ATOM     38  C   UNL     1      10.557  -0.976   6.241  1.00  0.00     0.037 A 
ATOM     39  C   UNL     1      11.931  -4.860   1.179  1.00  0.00     0.049 A 
ATOM     40  C   UNL     1      11.845  -1.442   5.621  1.00  0.00     0.074 A 
ATOM     41  C   UNL     1      13.177  -5.192   0.674  1.00  0.00     0.029 A 
ATOM     42  N   UNL     1      12.151  -4.031   2.269  1.00  0.00    -0.354 N 
ATOM     43  N   UNL     1      12.024  -2.224   4.583  1.00  0.00    -0.248 NA
ATOM     44  C   UNL     1      13.091  -0.976   6.246  1.00  0.00     0.031 C 
ATOM     45  C   UNL     1      14.151  -4.585   1.476  1.00  0.00     0.029 A 
ATOM     46  C   UNL     1      13.511  -3.848   2.460  1.00  0.00     0.049 A 
ATOM     47  H   UNL     1      11.444  -3.631   2.826  1.00  0.00     0.167 HD
ATOM     48  C   UNL     1      13.400  -2.333   4.422  1.00  0.00     0.074 A 
ATOM     49  C   UNL     1      14.008  -1.527   5.461  1.00  0.00     0.031 C 
ATOM     50  C   UNL     1      14.098  -3.039   3.498  1.00  0.00     0.037 A 
BRANCH  37  51
ATOM     51  C   UNL     1      10.562  -6.189  -0.479  1.00  0.00     0.058 A 
ATOM     52  C   UNL     1      10.173  -5.731  -1.746  1.00  0.00     0.135 A 
ATOM     53  C   UNL     1      10.908  -7.543  -0.348  1.00  0.00     0.135 A 
ATOM     54  F   UNL     1       9.816  -4.448  -1.921  1.00  0.00    -0.206 F 
ATOM     55  C   UNL     1      10.104  -6.589  -2.839  1.00  0.00     0.059 A 
ATOM     56  C   UNL     1      10.866  -8.415  -1.431  1.00  0.00     0.059 A 
ATOM     57  F   UNL     1      11.286  -8.032   0.844  1.00  0.00    -0.206 F 
ATOM     58  C   UNL     1      10.447  -7.931  -2.671  1.00  0.00     0.060 A 
BRANCH  58  59
ATOM     59  S   UNL     1      10.347  -9.038  -4.094  1.00  0.00     0.124 S 
ATOM     60  O   UNL     1       8.907  -9.261  -4.187  1.00  0.00    -0.237 OA
ATOM     61  O   UNL     1      10.933  -8.234  -5.161  1.00  0.00    -0.237 OA
ATOM     62  O   UNL     1      11.135 -10.195  -3.680  1.00  0.00    -0.744 OA
ENDBRANCH  58  59
ENDBRANCH  37  51
BRANCH  38  63
ATOM     63  C   UNL     1      10.561  -0.105   7.444  1.00  0.00     0.058 A 
ATOM     64  C   UNL     1      10.923   1.246   7.359  1.00  0.00     0.135 A 
ATOM     65  C   UNL     1      10.181  -0.605   8.700  1.00  0.00     0.135 A 
ATOM     66  F   UNL     1      11.303   1.766   6.181  1.00  0.00    -0.206 F 
ATOM     67  C   UNL     1      10.916   2.073   8.478  1.00  0.00     0.059 A 
ATOM     68  C   UNL     1      10.145   0.207   9.828  1.00  0.00     0.059 A 
ATOM     69  F   UNL     1       9.815  -1.889   8.829  1.00  0.00    -0.206 F 
ATOM     70  C   UNL     1      10.523   1.544   9.709  1.00  0.00     0.060 A 
BRANCH  70  71
ATOM     71  S   UNL     1      10.456   2.636  11.146  1.00  0.00     0.124 S 
ATOM     72  O   UNL     1      11.865   2.725  11.511  1.00  0.00    -0.237 OA
ATOM     73  O   UNL     1       9.864   3.848  10.588  1.00  0.00    -0.237 OA
ATOM     74  O   UNL     1       9.604   1.906  12.079  1.00  0.00    -0.744 OA
ENDBRANCH  70  71
ENDBRANCH  38  63
BRANCH  50  75
ATOM     75  C   UNL     1      15.596  -2.953   3.555  1.00  0.00     0.058 A 
ATOM     76  C   UNL     1      16.335  -3.655   4.519  1.00  0.00     0.135 A 
ATOM     77  C   UNL     1      16.301  -2.196   2.606  1.00  0.00     0.135 A 
ATOM     78  F   UNL     1      15.705  -4.388   5.451  1.00  0.00    -0.206 F 
ATOM     79  C   UNL     1      17.724  -3.596   4.552  1.00  0.00     0.059 A 
ATOM     80  C   UNL     1      17.691  -2.138   2.609  1.00  0.00     0.059 A 
ATOM     81  F   UNL     1      15.640  -1.512   1.659  1.00  0.00    -0.206 F 
ATOM     82  C   UNL     1      18.394  -2.833   3.593  1.00  0.00     0.060 A 
BRANCH  82  83
ATOM     83  S   UNL     1      20.199  -2.787   3.623  1.00  0.00     0.124 S 
ATOM     84  O   UNL     1      20.451  -1.846   4.708  1.00  0.00    -0.237 OA
ATOM     85  O   UNL     1      20.546  -4.179   3.897  1.00  0.00    -0.237 OA
ATOM     86  O   UNL     1      20.546  -2.314   2.286  1.00  0.00    -0.744 OA
ENDBRANCH  82  83
ENDBRANCH  50  75
ENDBRANCH  24  25
ENDBRANCH  17  19
ENDBRANCH  16  17
ENDBRANCH   1  16
TORSDOF 17
