REMARK SMILES C=CCN(CC(=O)OCCOC(=O)c1ccc(-c2c3nc(c(-c4c(F)cc(S(=O)(=O)[O-])cc4F)c4ccc([nH]4)c(-c4c(F)cc(S(=O)(=O)[O-])cc4F)c4nc(c(-c5c(F)cc(S(=O)(=O)[O-])cc5F)c5ccc2[nH]5)C=C4)C=C3)cc1)c1ccc([N+](=O)[O-])cc1Br
REMARK SMILES IDX 9 1 8 2 6 3 7 4 5 5 4 6 3 7 2 8 1 9 80 10 81 11 88 12 82 13
REMARK SMILES IDX 87 14 89 15 83 16 84 17 85 18 86 19 10 20 11 21 12 22 13 23
REMARK SMILES IDX 14 24 15 25 79 26 16 27 78 28 17 29 18 30 19 31 72 32 20 33
REMARK SMILES IDX 77 34 71 35 73 36 21 37 76 38 70 39 69 40 22 42 56 43 35 44
REMARK SMILES IDX 55 45 36 46 39 47 54 48 74 49 37 50 38 51 53 53 75 54 40 55
REMARK SMILES IDX 23 56 24 57 33 58 25 59 26 60 32 61 34 62 27 63 28 64 29 65
REMARK SMILES IDX 30 66 31 67 57 68 58 69 67 70 59 71 60 72 66 73 68 74 61 75
REMARK SMILES IDX 62 76 63 77 64 78 65 79 41 80 42 81 51 82 43 83 44 84 50 85
REMARK SMILES IDX 52 86 45 87 46 88 47 89 48 90 49 91
REMARK H PARENT 73 41 39 52
REMARK Flexibility Score: inf
ROOT
ATOM      1  C   UNL     1      -5.572   0.662   2.350  1.00  0.00     0.274 C 
ENDROOT
BRANCH   1   2
ATOM      2  O   UNL     1      -4.157   0.693   2.075  1.00  0.00    -0.461 OA
BRANCH   2   3
ATOM      3  C   UNL     1      -3.545   1.895   2.262  1.00  0.00     0.325 C 
ATOM      4  O   UNL     1      -4.137   2.932   2.551  1.00  0.00    -0.250 OA
BRANCH   3   5
ATOM      5  C   UNL     1      -2.025   1.859   2.111  1.00  0.00     0.239 C 
BRANCH   5   6
ATOM      6  N   UNL     1      -1.464   0.578   1.662  1.00  0.00    -0.356 N 
BRANCH   6   7
ATOM      7  C   UNL     1      -1.389   0.284   0.241  1.00  0.00     0.144 C 
BRANCH   7   8
ATOM      8  C   UNL     1      -0.058   0.756  -0.268  1.00  0.00    -0.014 C 
ATOM      9  C   UNL     1       0.888  -0.032  -0.796  1.00  0.00     0.006 C 
ENDBRANCH   7   8
ENDBRANCH   6   7
BRANCH   6  10
ATOM     10  C   UNL     1      -1.014  -0.339   2.599  1.00  0.00     0.052 A 
ATOM     11  C   UNL     1      -1.755  -1.516   2.802  1.00  0.00     0.034 A 
ATOM     12  C   UNL     1       0.138  -0.145   3.396  1.00  0.00     0.048 A 
ATOM     13  C   UNL     1      -1.404  -2.443   3.787  1.00  0.00     0.088 A 
ATOM     14  C   UNL     1       0.513  -1.073   4.375  1.00  0.00     0.103 A 
ATOM     15  Br  UNL     1       1.285   1.360   3.170  1.00  0.00    -0.048 Br
ATOM     16  C   UNL     1      -0.276  -2.207   4.573  1.00  0.00     0.270 A 
BRANCH  16  17
ATOM     17  N   UNL     1       0.084  -3.161   5.619  1.00  0.00     0.062 N 
ATOM     18  O   UNL     1      -0.833  -3.813   6.138  1.00  0.00    -0.258 OA
ATOM     19  O   UNL     1       1.283  -3.260   5.909  1.00  0.00    -0.258 OA
ENDBRANCH  16  17
ENDBRANCH   6  10
ENDBRANCH   5   6
ENDBRANCH   3   5
ENDBRANCH   2   3
ENDBRANCH   1   2
BRANCH   1  20
ATOM     20  C   UNL     1      -5.841   0.005   3.700  1.00  0.00     0.275 C 
BRANCH  20  21
ATOM     21  O   UNL     1      -5.088   0.672   4.727  1.00  0.00    -0.458 OA
BRANCH  21  22
ATOM     22  C   UNL     1      -4.258  -0.127   5.437  1.00  0.00     0.338 C 
ATOM     23  O   UNL     1      -4.131  -1.335   5.331  1.00  0.00    -0.246 OA
BRANCH  22  24
ATOM     24  C   UNL     1      -3.508   0.662   6.428  1.00  0.00     0.060 A 
ATOM     25  C   UNL     1      -2.718   1.745   6.038  1.00  0.00     0.016 A 
ATOM     26  C   UNL     1      -3.504   0.225   7.753  1.00  0.00     0.016 A 
ATOM     27  C   UNL     1      -1.859   2.343   6.962  1.00  0.00     0.010 A 
ATOM     28  C   UNL     1      -2.693   0.866   8.690  1.00  0.00     0.010 A 
ATOM     29  C   UNL     1      -1.834   1.903   8.295  1.00  0.00    -0.014 A 
BRANCH  29  30
ATOM     30  C   UNL     1      -0.895   2.498   9.279  1.00  0.00     0.031 A 
ATOM     31  C   UNL     1       0.224   1.669   9.854  1.00  0.00     0.074 A 
ATOM     32  C   UNL     1      -1.066   3.773   9.677  1.00  0.00     0.049 A 
ATOM     33  N   UNL     1       1.070   1.970  10.806  1.00  0.00    -0.248 NA
ATOM     34  C   UNL     1       0.409   0.322   9.291  1.00  0.00     0.031 C 
ATOM     35  C   UNL     1      -2.110   4.676   9.190  1.00  0.00     0.029 A 
ATOM     36  N   UNL     1      -0.372   4.527  10.589  1.00  0.00    -0.354 N 
ATOM     37  C   UNL     1       1.865   0.842  10.979  1.00  0.00     0.074 A 
ATOM     38  C   UNL     1       1.397  -0.153  10.037  1.00  0.00     0.031 C 
ATOM     39  C   UNL     1      -1.981   5.865   9.799  1.00  0.00     0.029 A 
ATOM     40  C   UNL     1      -0.879   5.793  10.753  1.00  0.00     0.049 A 
ATOM     41  H   UNL     1       0.414   4.193  11.078  1.00  0.00     0.167 HD
ATOM     42  C   UNL     1       2.889   0.655  11.847  1.00  0.00     0.037 A 
ATOM     43  C   UNL     1      -0.515   6.779  11.595  1.00  0.00     0.037 A 
ATOM     44  C   UNL     1       3.363   1.657  12.768  1.00  0.00     0.049 A 
ATOM     45  C   UNL     1       0.629   6.552  12.540  1.00  0.00     0.074 A 
ATOM     46  C   UNL     1       4.402   1.570  13.679  1.00  0.00     0.029 A 
ATOM     47  N   UNL     1       2.834   2.934  12.889  1.00  0.00    -0.354 N 
ATOM     48  N   UNL     1       1.360   5.475  12.701  1.00  0.00    -0.248 NA
ATOM     49  C   UNL     1       0.996   7.669  13.420  1.00  0.00     0.031 C 
ATOM     50  C   UNL     1       4.485   2.786  14.368  1.00  0.00     0.029 A 
ATOM     51  C   UNL     1       3.519   3.642  13.863  1.00  0.00     0.049 A 
ATOM     52  H   UNL     1       2.081   3.285  12.360  1.00  0.00     0.167 HD
ATOM     53  C   UNL     1       2.279   5.785  13.696  1.00  0.00     0.074 A 
ATOM     54  C   UNL     1       2.022   7.158  14.087  1.00  0.00     0.031 C 
ATOM     55  C   UNL     1       3.245   5.005  14.240  1.00  0.00     0.037 A 
BRANCH  42  56
ATOM     56  C   UNL     1       3.554  -0.694  11.861  1.00  0.00     0.058 A 
ATOM     57  C   UNL     1       4.447  -1.088  10.852  1.00  0.00     0.135 A 
ATOM     58  C   UNL     1       3.325  -1.588  12.919  1.00  0.00     0.135 A 
ATOM     59  F   UNL     1       4.688  -0.277   9.810  1.00  0.00    -0.206 F 
ATOM     60  C   UNL     1       5.080  -2.328  10.885  1.00  0.00     0.059 A 
ATOM     61  C   UNL     1       3.962  -2.824  12.982  1.00  0.00     0.059 A 
ATOM     62  F   UNL     1       2.479  -1.261  13.908  1.00  0.00    -0.206 F 
ATOM     63  C   UNL     1       4.830  -3.190  11.954  1.00  0.00     0.060 A 
BRANCH  63  64
ATOM     64  S   UNL     1       5.677  -4.786  12.005  1.00  0.00     0.124 S 
ATOM     65  O   UNL     1       4.891  -5.565  11.055  1.00  0.00    -0.237 OA
ATOM     66  O   UNL     1       7.029  -4.441  11.577  1.00  0.00    -0.237 OA
ATOM     67  O   UNL     1       5.553  -5.189  13.403  1.00  0.00    -0.744 OA
ENDBRANCH  63  64
ENDBRANCH  42  56
BRANCH  43  68
ATOM     68  C   UNL     1      -1.254   8.066  11.575  1.00  0.00     0.058 A 
ATOM     69  C   UNL     1      -0.687   9.215  11.006  1.00  0.00     0.135 A 
ATOM     70  C   UNL     1      -2.563   8.158  12.075  1.00  0.00     0.135 A 
ATOM     71  F   UNL     1       0.564   9.175  10.523  1.00  0.00    -0.206 F 
ATOM     72  C   UNL     1      -1.392  10.411  10.928  1.00  0.00     0.059 A 
ATOM     73  C   UNL     1      -3.295   9.337  11.989  1.00  0.00     0.059 A 
ATOM     74  F   UNL     1      -3.153   7.080  12.615  1.00  0.00    -0.206 F 
ATOM     75  C   UNL     1      -2.699  10.460  11.416  1.00  0.00     0.060 A 
BRANCH  75  76
ATOM     76  S   UNL     1      -3.645  11.988  11.230  1.00  0.00     0.124 S 
ATOM     77  O   UNL     1      -3.142  12.781  12.345  1.00  0.00    -0.237 OA
ATOM     78  O   UNL     1      -3.254  12.438   9.898  1.00  0.00    -0.237 OA
ATOM     79  O   UNL     1      -5.029  11.537  11.347  1.00  0.00    -0.744 OA
ENDBRANCH  75  76
ENDBRANCH  43  68
BRANCH  55  80
ATOM     80  C   UNL     1       4.102   5.630  15.301  1.00  0.00     0.058 A 
ATOM     81  C   UNL     1       3.630   5.809  16.611  1.00  0.00     0.135 A 
ATOM     82  C   UNL     1       5.410   6.042  15.009  1.00  0.00     0.135 A 
ATOM     83  F   UNL     1       2.382   5.436  16.936  1.00  0.00    -0.206 F 
ATOM     84  C   UNL     1       4.418   6.404  17.590  1.00  0.00     0.059 A 
ATOM     85  C   UNL     1       6.223   6.624  15.977  1.00  0.00     0.059 A 
ATOM     86  F   UNL     1       5.909   5.885  13.772  1.00  0.00    -0.206 F 
ATOM     87  C   UNL     1       5.712   6.815  17.261  1.00  0.00     0.060 A 
BRANCH  87  88
ATOM     88  S   UNL     1       6.733   7.586  18.535  1.00  0.00     0.124 S 
ATOM     89  O   UNL     1       6.222   8.953  18.530  1.00  0.00    -0.237 OA
ATOM     90  O   UNL     1       6.415   6.795  19.720  1.00  0.00    -0.237 OA
ATOM     91  O   UNL     1       8.090   7.419  18.024  1.00  0.00    -0.744 OA
ENDBRANCH  87  88
ENDBRANCH  55  80
ENDBRANCH  29  30
ENDBRANCH  22  24
ENDBRANCH  21  22
ENDBRANCH  20  21
ENDBRANCH   1  20
TORSDOF 19
