REMARK SMILES NS(=O)(=O)c1ccc(-c2coc(=O)n2-c2ccc(C(=O)OCCOC(=O)c3ccc(-c4c5nc(c(-c6c(F)cc(S(=O)(=O)[O-])cc6F)c6ccc([nH]6)c(-c6c(F)cc(S(=O)(=O)[O-])cc6F)c6nc(c(-c7c(F)cc(S(=O)(=O)[O-])cc7F)c7ccc4[nH]7)C=C6)C=C5)cc3)cc2)cc1
REMARK SMILES IDX 22 1 21 2 19 3 20 4 18 5 15 6 16 7 94 8 17 9 93 10 14 11
REMARK SMILES IDX 9 12 10 13 11 14 12 15 13 16 8 17 5 18 6 19 96 20 7 21 95 22
REMARK SMILES IDX 2 23 3 24 4 25 1 26 23 29 24 30 25 31 26 32 27 33 28 34
REMARK SMILES IDX 92 35 29 36 91 37 30 38 31 39 32 40 85 41 33 42 90 43 84 44
REMARK SMILES IDX 86 45 34 46 89 47 83 48 82 49 35 51 69 52 48 53 68 54 49 55
REMARK SMILES IDX 52 56 67 57 87 58 50 59 51 60 66 62 88 63 53 64 36 65 37 66
REMARK SMILES IDX 46 67 38 68 39 69 45 70 47 71 40 72 41 73 42 74 43 75 44 76
REMARK SMILES IDX 70 77 71 78 80 79 72 80 73 81 79 82 81 83 74 84 75 85 76 86
REMARK SMILES IDX 77 87 78 88 54 89 55 90 64 91 56 92 57 93 63 94 65 95 58 96
REMARK SMILES IDX 59 97 60 98 61 99 62 100
REMARK H PARENT 1 27 1 28 86 50 52 61
REMARK Flexibility Score: inf
ROOT
ATOM      1  C   UNL     1       7.250  -4.385   0.471  1.00  0.00     0.275 C 
ENDROOT
BRANCH   1   2
ATOM      2  O   UNL     1       6.418  -3.968   1.565  1.00  0.00    -0.458 OA
BRANCH   2   3
ATOM      3  C   UNL     1       5.294  -4.707   1.759  1.00  0.00     0.338 C 
ATOM      4  O   UNL     1       4.830  -5.539   0.995  1.00  0.00    -0.246 OA
BRANCH   3   5
ATOM      5  C   UNL     1       4.716  -4.422   3.093  1.00  0.00     0.060 A 
ATOM      6  C   UNL     1       3.384  -3.870   5.482  1.00  0.00     0.053 A 
ATOM      7  C   UNL     1       3.326  -5.158   4.946  1.00  0.00     0.028 A 
ATOM      8  C   UNL     1       4.200  -2.899   4.882  1.00  0.00     0.028 A 
ATOM      9  C   UNL     1       3.966  -5.422   3.732  1.00  0.00     0.018 A 
ATOM     10  C   UNL     1       4.883  -3.178   3.702  1.00  0.00     0.018 A 
BRANCH   6  11
ATOM     11  N   UNL     1       2.501  -3.486   6.510  1.00  0.00    -0.242 N 
ATOM     12  C   UNL     1       1.641  -2.423   6.496  1.00  0.00     0.095 A 
ATOM     13  C   UNL     1       1.028  -2.433   7.673  1.00  0.00     0.228 A 
ATOM     14  O   UNL     1       1.415  -3.477   8.511  1.00  0.00    -0.415 OA
ATOM     15  C   UNL     1       2.334  -4.163   7.713  1.00  0.00     0.424 A 
ATOM     16  O   UNL     1       2.888  -5.188   8.085  1.00  0.00    -0.223 OA
BRANCH  12  17
ATOM     17  C   UNL     1       1.321  -1.605   5.325  1.00  0.00     0.002 A 
ATOM     18  C   UNL     1       0.753  -0.091   3.036  1.00  0.00     0.082 A 
ATOM     19  C   UNL     1       0.640  -1.480   2.984  1.00  0.00     0.022 A 
ATOM     20  C   UNL     1       1.143   0.548   4.218  1.00  0.00     0.022 A 
ATOM     21  C   UNL     1       0.918  -2.228   4.129  1.00  0.00     0.012 A 
ATOM     22  C   UNL     1       1.420  -0.209   5.362  1.00  0.00     0.012 A 
BRANCH  18  23
ATOM     23  S   UNL     1       0.428   0.872   1.589  1.00  0.00     0.238 S 
ATOM     24  O   UNL     1       1.157   2.113   1.675  1.00  0.00    -0.207 OA
ATOM     25  O   UNL     1      -0.992   0.819   1.316  1.00  0.00    -0.207 OA
BRANCH  23  26
ATOM     26  N   UNL     1       1.177   0.004   0.362  1.00  0.00    -0.225 NA
ATOM     27  H   UNL     1       1.044   0.487  -0.526  1.00  0.00     0.137 HD
ATOM     28  H   UNL     1       0.769  -0.928   0.307  1.00  0.00     0.137 HD
ENDBRANCH  23  26
ENDBRANCH  18  23
ENDBRANCH  12  17
ENDBRANCH   6  11
ENDBRANCH   3   5
ENDBRANCH   2   3
ENDBRANCH   1   2
BRANCH   1  29
ATOM     29  C   UNL     1       8.245  -5.447   0.913  1.00  0.00     0.275 C 
BRANCH  29  30
ATOM     30  O   UNL     1       7.594  -6.678   1.220  1.00  0.00    -0.458 OA
BRANCH  30  31
ATOM     31  C   UNL     1       7.338  -6.867   2.535  1.00  0.00     0.338 C 
ATOM     32  O   UNL     1       7.242  -6.010   3.398  1.00  0.00    -0.246 OA
BRANCH  31  33
ATOM     33  C   UNL     1       7.460  -8.292   2.844  1.00  0.00     0.060 A 
ATOM     34  C   UNL     1       7.121  -8.704   4.136  1.00  0.00     0.016 A 
ATOM     35  C   UNL     1       8.194  -9.107   1.971  1.00  0.00     0.016 A 
ATOM     36  C   UNL     1       7.665  -9.879   4.611  1.00  0.00     0.010 A 
ATOM     37  C   UNL     1       8.755 -10.261   2.455  1.00  0.00     0.010 A 
ATOM     38  C   UNL     1       8.540 -10.599   3.788  1.00  0.00    -0.014 A 
BRANCH  38  39
ATOM     39  C   UNL     1       9.101 -11.838   4.285  1.00  0.00     0.031 A 
ATOM     40  C   UNL     1       8.073 -12.904   4.380  1.00  0.00     0.074 A 
ATOM     41  C   UNL     1      10.425 -12.013   4.461  1.00  0.00     0.049 A 
ATOM     42  N   UNL     1       7.609 -13.455   5.450  1.00  0.00    -0.248 NA
ATOM     43  C   UNL     1       7.312 -13.238   3.160  1.00  0.00     0.031 C 
ATOM     44  C   UNL     1      11.513 -11.094   4.118  1.00  0.00     0.029 A 
ATOM     45  N   UNL     1      11.094 -13.117   4.888  1.00  0.00    -0.354 N 
ATOM     46  C   UNL     1       6.686 -14.396   5.008  1.00  0.00     0.074 A 
ATOM     47  C   UNL     1       6.376 -14.051   3.648  1.00  0.00     0.031 C 
ATOM     48  C   UNL     1      12.687 -11.770   4.120  1.00  0.00     0.029 A 
ATOM     49  C   UNL     1      12.453 -13.128   4.579  1.00  0.00     0.049 A 
ATOM     50  H   UNL     1      10.654 -13.850   5.376  1.00  0.00     0.167 HD
ATOM     51  C   UNL     1       6.487 -15.550   5.700  1.00  0.00     0.037 A 
ATOM     52  C   UNL     1      13.273 -14.214   4.623  1.00  0.00     0.037 A 
ATOM     53  C   UNL     1       6.976 -15.426   7.052  1.00  0.00     0.049 A 
ATOM     54  C   UNL     1      12.597 -15.228   5.482  1.00  0.00     0.074 A 
ATOM     55  C   UNL     1       6.707 -14.566   8.100  1.00  0.00     0.029 A 
ATOM     56  N   UNL     1       8.181 -16.016   7.349  1.00  0.00    -0.354 N 
ATOM     57  N   UNL     1      12.411 -15.079   6.766  1.00  0.00    -0.248 NA
ATOM     58  C   UNL     1      11.693 -16.165   4.828  1.00  0.00     0.031 C 
ATOM     59  C   UNL     1       7.972 -14.320   8.709  1.00  0.00     0.029 A 
ATOM     60  C   UNL     1       8.922 -15.107   8.060  1.00  0.00     0.049 A 
ATOM     61  H   UNL     1       8.461 -16.926   7.097  1.00  0.00     0.167 HD
ATOM     62  C   UNL     1      11.122 -15.540   6.993  1.00  0.00     0.074 A 
ATOM     63  C   UNL     1      10.752 -16.255   5.772  1.00  0.00     0.031 C 
ATOM     64  C   UNL     1      10.366 -15.050   8.019  1.00  0.00     0.037 A 
BRANCH  51  65
ATOM     65  C   UNL     1       6.248 -16.892   5.045  1.00  0.00     0.058 A 
ATOM     66  C   UNL     1       5.975 -18.006   5.865  1.00  0.00     0.135 A 
ATOM     67  C   UNL     1       6.559 -17.194   3.699  1.00  0.00     0.135 A 
ATOM     68  F   UNL     1       5.668 -17.842   7.162  1.00  0.00    -0.206 F 
ATOM     69  C   UNL     1       6.091 -19.318   5.407  1.00  0.00     0.059 A 
ATOM     70  C   UNL     1       6.626 -18.491   3.208  1.00  0.00     0.059 A 
ATOM     71  F   UNL     1       6.908 -16.260   2.807  1.00  0.00    -0.206 F 
ATOM     72  C   UNL     1       6.433 -19.549   4.079  1.00  0.00     0.060 A 
BRANCH  72  73
ATOM     73  S   UNL     1       6.669 -21.237   3.506  1.00  0.00     0.124 S 
ATOM     74  O   UNL     1       7.881 -21.619   4.220  1.00  0.00    -0.237 OA
ATOM     75  O   UNL     1       5.434 -21.877   3.947  1.00  0.00    -0.237 OA
ATOM     76  O   UNL     1       6.806 -21.084   2.060  1.00  0.00    -0.744 OA
ENDBRANCH  72  73
ENDBRANCH  51  65
BRANCH  52  77
ATOM     77  C   UNL     1      14.376 -14.589   3.689  1.00  0.00     0.058 A 
ATOM     78  C   UNL     1      15.207 -15.695   3.958  1.00  0.00     0.135 A 
ATOM     79  C   UNL     1      14.449 -14.073   2.380  1.00  0.00     0.135 A 
ATOM     80  F   UNL     1      15.205 -16.260   5.175  1.00  0.00    -0.206 F 
ATOM     81  C   UNL     1      15.998 -16.299   2.971  1.00  0.00     0.059 A 
ATOM     82  C   UNL     1      15.237 -14.650   1.384  1.00  0.00     0.059 A 
ATOM     83  F   UNL     1      13.679 -13.046   1.993  1.00  0.00    -0.206 F 
ATOM     84  C   UNL     1      15.983 -15.785   1.676  1.00  0.00     0.060 A 
BRANCH  84  85
ATOM     85  S   UNL     1      16.823 -16.681   0.346  1.00  0.00     0.124 S 
ATOM     86  O   UNL     1      18.228 -16.457   0.670  1.00  0.00    -0.237 OA
ATOM     87  O   UNL     1      16.334 -18.043   0.533  1.00  0.00    -0.237 OA
ATOM     88  O   UNL     1      16.348 -16.014  -0.863  1.00  0.00    -0.744 OA
ENDBRANCH  84  85
ENDBRANCH  52  77
BRANCH  64  89
ATOM     89  C   UNL     1      11.043 -14.232   9.088  1.00  0.00     0.058 A 
ATOM     90  C   UNL     1      11.713 -13.014   8.874  1.00  0.00     0.135 A 
ATOM     91  C   UNL     1      10.882 -14.648  10.418  1.00  0.00     0.135 A 
ATOM     92  F   UNL     1      11.811 -12.485   7.646  1.00  0.00    -0.206 F 
ATOM     93  C   UNL     1      12.251 -12.277   9.933  1.00  0.00     0.059 A 
ATOM     94  C   UNL     1      11.376 -13.913  11.489  1.00  0.00     0.059 A 
ATOM     95  F   UNL     1      10.196 -15.770  10.694  1.00  0.00    -0.206 F 
ATOM     96  C   UNL     1      12.080 -12.739  11.239  1.00  0.00     0.060 A 
BRANCH  96  97
ATOM     97  S   UNL     1      12.751 -11.781  12.614  1.00  0.00     0.124 S 
ATOM     98  O   UNL     1      14.188 -11.961  12.440  1.00  0.00    -0.237 OA
ATOM     99  O   UNL     1      12.242 -10.440  12.346  1.00  0.00    -0.237 OA
ATOM    100  O   UNL     1      12.181 -12.430  13.793  1.00  0.00    -0.744 OA
ENDBRANCH  96  97
ENDBRANCH  64  89
ENDBRANCH  38  39
ENDBRANCH  31  33
ENDBRANCH  30  31
ENDBRANCH  29  30
ENDBRANCH   1  29
TORSDOF 18
