REMARK SMILES CN1C(=O)/C(=C/c2ccc(OCC(=O)OCCOC(=O)c3ccc(-c4c5nc(c(-c6c(F)cc(S(=O)(=O)[O-])cc6F)c6ccc([nH]6)c(-c6c(F)cc(S(=O)(=O)[O-])cc6F)c6nc(c(-c7c(F)cc(S(=O)(=O)[O-])cc7F)c7ccc4[nH]7)C=C6)C=C5)cc3)c(Br)c2)C(=O)NC1=S
REMARK SMILES IDX 16 1 15 2 13 3 14 4 12 5 11 6 10 7 7 8 8 9 89 10 9 11 87 12
REMARK SMILES IDX 88 13 6 14 1 15 2 16 3 17 93 18 4 19 5 20 92 21 94 22 90 23
REMARK SMILES IDX 91 25 17 26 18 27 19 28 20 29 21 30 22 31 86 32 23 33 85 34
REMARK SMILES IDX 24 35 25 36 26 37 79 38 27 39 84 40 78 41 80 42 28 43 83 44
REMARK SMILES IDX 77 45 76 46 29 48 63 49 42 50 62 51 43 52 46 53 61 54 81 55
REMARK SMILES IDX 44 56 45 57 60 59 82 60 47 61 30 62 31 63 40 64 32 65 33 66
REMARK SMILES IDX 39 67 41 68 34 69 35 70 36 71 37 72 38 73 64 74 65 75 74 76
REMARK SMILES IDX 66 77 67 78 73 79 75 80 68 81 69 82 70 83 71 84 72 85 48 86
REMARK SMILES IDX 49 87 58 88 50 89 51 90 57 91 59 92 52 93 53 94 54 95 55 96
REMARK SMILES IDX 56 97
REMARK H PARENT 92 24 80 47 46 58
REMARK Flexibility Score: inf
ROOT
ATOM      1  C   UNL     1       3.557  -8.423  -7.398  1.00  0.00     0.274 C 
ENDROOT
BRANCH   1   2
ATOM      2  O   UNL     1       2.754  -8.754  -6.248  1.00  0.00    -0.460 OA
BRANCH   2   3
ATOM      3  C   UNL     1       3.430  -9.356  -5.233  1.00  0.00     0.344 C 
ATOM      4  O   UNL     1       4.625  -9.636  -5.257  1.00  0.00    -0.248 OA
BRANCH   3   5
ATOM      5  C   UNL     1       2.531  -9.751  -4.065  1.00  0.00     0.352 C 
BRANCH   5   6
ATOM      6  O   UNL     1       1.258  -9.166  -3.862  1.00  0.00    -0.481 OA
BRANCH   6   7
ATOM      7  C   UNL     1       1.210  -7.835  -3.552  1.00  0.00     0.134 A 
ATOM      8  C   UNL     1       0.736  -5.095  -3.066  1.00  0.00    -0.023 A 
ATOM      9  C   UNL     1       0.044  -5.752  -4.080  1.00  0.00     0.012 A 
ATOM     10  C   UNL     1       1.667  -5.812  -2.302  1.00  0.00     0.027 A 
ATOM     11  C   UNL     1       0.287  -7.109  -4.322  1.00  0.00     0.048 A 
ATOM     12  C   UNL     1       1.855  -7.186  -2.495  1.00  0.00     0.060 A 
ATOM     13  Br  UNL     1       2.825  -8.069  -1.121  1.00  0.00    -0.047 Br
BRANCH   8  14
ATOM     14  C   UNL     1       0.486  -3.680  -2.754  1.00  0.00     0.027 C 
ATOM     15  C   UNL     1       0.489   0.042   0.308  1.00  0.00     0.156 C 
ATOM     16  N   UNL     1       0.202  -1.372   0.034  1.00  0.00    -0.288 N 
ATOM     17  C   UNL     1       0.145  -1.748  -1.312  1.00  0.00     0.265 C 
ATOM     18  C   UNL     1       0.010  -2.255   1.092  1.00  0.00     0.182 C 
ATOM     19  O   UNL     1       0.197  -0.962  -2.257  1.00  0.00    -0.268 OA
ATOM     20  C   UNL     1       0.060  -3.213  -1.561  1.00  0.00     0.106 C 
ATOM     21  N   UNL     1      -0.280  -3.550   0.771  1.00  0.00    -0.298 N 
ATOM     22  S   UNL     1       0.059  -1.922   2.730  1.00  0.00    -0.040 S 
ATOM     23  C   UNL     1      -0.382  -4.101  -0.468  1.00  0.00     0.263 C 
ATOM     24  H   UNL     1      -0.434  -4.160   1.529  1.00  0.00     0.172 HD
ATOM     25  O   UNL     1      -0.833  -5.230  -0.622  1.00  0.00    -0.269 OA
ENDBRANCH   8  14
ENDBRANCH   6   7
ENDBRANCH   5   6
ENDBRANCH   3   5
ENDBRANCH   2   3
ENDBRANCH   1   2
BRANCH   1  26
ATOM     26  C   UNL     1       4.030  -6.974  -7.346  1.00  0.00     0.275 C 
BRANCH  26  27
ATOM     27  O   UNL     1       4.760  -6.734  -6.131  1.00  0.00    -0.458 OA
BRANCH  27  28
ATOM     28  C   UNL     1       4.342  -5.676  -5.399  1.00  0.00     0.338 C 
ATOM     29  O   UNL     1       3.453  -4.891  -5.685  1.00  0.00    -0.246 OA
BRANCH  28  30
ATOM     30  C   UNL     1       5.168  -5.539  -4.183  1.00  0.00     0.060 A 
ATOM     31  C   UNL     1       5.438  -6.629  -3.354  1.00  0.00     0.016 A 
ATOM     32  C   UNL     1       5.609  -4.263  -3.826  1.00  0.00     0.016 A 
ATOM     33  C   UNL     1       6.092  -6.428  -2.134  1.00  0.00     0.010 A 
ATOM     34  C   UNL     1       6.327  -4.079  -2.643  1.00  0.00     0.010 A 
ATOM     35  C   UNL     1       6.551  -5.153  -1.766  1.00  0.00    -0.014 A 
BRANCH  35  36
ATOM     36  C   UNL     1       7.254  -4.922  -0.472  1.00  0.00     0.031 A 
ATOM     37  C   UNL     1       6.690  -3.958   0.542  1.00  0.00     0.074 A 
ATOM     38  C   UNL     1       8.422  -5.541  -0.212  1.00  0.00     0.049 A 
ATOM     39  N   UNL     1       7.242  -3.487   1.631  1.00  0.00    -0.248 NA
ATOM     40  C   UNL     1       5.331  -3.449   0.292  1.00  0.00     0.031 C 
ATOM     41  C   UNL     1       9.078  -6.516  -1.084  1.00  0.00     0.029 A 
ATOM     42  N   UNL     1       9.270  -5.436   0.864  1.00  0.00    -0.354 N 
ATOM     43  C   UNL     1       6.331  -2.581   2.162  1.00  0.00     0.074 A 
ATOM     44  C   UNL     1       5.180  -2.580   1.283  1.00  0.00     0.031 C 
ATOM     45  C   UNL     1      10.207  -6.942  -0.497  1.00  0.00     0.029 A 
ATOM     46  C   UNL     1      10.395  -6.218   0.756  1.00  0.00     0.049 A 
ATOM     47  H   UNL     1       9.089  -4.856   1.639  1.00  0.00     0.167 HD
ATOM     48  C   UNL     1       6.447  -1.816   3.274  1.00  0.00     0.037 A 
ATOM     49  C   UNL     1      11.477  -6.322   1.553  1.00  0.00     0.037 A 
ATOM     50  C   UNL     1       7.558  -1.860   4.186  1.00  0.00     0.049 A 
ATOM     51  C   UNL     1      11.579  -5.468   2.784  1.00  0.00     0.074 A 
ATOM     52  C   UNL     1       7.731  -1.153   5.365  1.00  0.00     0.029 A 
ATOM     53  N   UNL     1       8.679  -2.660   4.032  1.00  0.00    -0.354 N 
ATOM     54  N   UNL     1      10.723  -4.591   3.250  1.00  0.00    -0.248 NA
ATOM     55  C   UNL     1      12.803  -5.603   3.586  1.00  0.00     0.031 C 
ATOM     56  C   UNL     1       8.970  -1.509   5.912  1.00  0.00     0.029 A 
ATOM     57  C   UNL     1       9.554  -2.457   5.087  1.00  0.00     0.049 A 
ATOM     58  H   UNL     1       8.832  -3.281   3.284  1.00  0.00     0.167 HD
ATOM     59  C   UNL     1      11.301  -4.075   4.404  1.00  0.00     0.074 A 
ATOM     60  C   UNL     1      12.573  -4.747   4.573  1.00  0.00     0.031 C 
ATOM     61  C   UNL     1      10.819  -3.127   5.245  1.00  0.00     0.037 A 
BRANCH  48  62
ATOM     62  C   UNL     1       5.351  -0.830   3.550  1.00  0.00     0.058 A 
ATOM     63  C   UNL     1       4.133  -1.216   4.127  1.00  0.00     0.135 A 
ATOM     64  C   UNL     1       5.538   0.530   3.252  1.00  0.00     0.135 A 
ATOM     65  F   UNL     1       3.904  -2.506   4.419  1.00  0.00    -0.206 F 
ATOM     66  C   UNL     1       3.120  -0.291   4.364  1.00  0.00     0.059 A 
ATOM     67  C   UNL     1       4.541   1.470   3.484  1.00  0.00     0.059 A 
ATOM     68  F   UNL     1       6.692   0.950   2.711  1.00  0.00    -0.206 F 
ATOM     69  C   UNL     1       3.324   1.044   4.013  1.00  0.00     0.060 A 
BRANCH  69  70
ATOM     70  S   UNL     1       1.977   2.230   4.216  1.00  0.00     0.124 S 
ATOM     71  O   UNL     1       1.260   2.062   2.954  1.00  0.00    -0.237 OA
ATOM     72  O   UNL     1       1.290   1.745   5.408  1.00  0.00    -0.237 OA
ATOM     73  O   UNL     1       2.676   3.501   4.376  1.00  0.00    -0.744 OA
ENDBRANCH  69  70
ENDBRANCH  48  62
BRANCH  49  74
ATOM     74  C   UNL     1      12.558  -7.273   1.190  1.00  0.00     0.058 A 
ATOM     75  C   UNL     1      12.718  -8.475   1.892  1.00  0.00     0.135 A 
ATOM     76  C   UNL     1      13.407  -7.029   0.099  1.00  0.00     0.135 A 
ATOM     77  F   UNL     1      11.937  -8.743   2.950  1.00  0.00    -0.206 F 
ATOM     78  C   UNL     1      13.674  -9.413   1.518  1.00  0.00     0.059 A 
ATOM     79  C   UNL     1      14.356  -7.960  -0.308  1.00  0.00     0.059 A 
ATOM     80  F   UNL     1      13.284  -5.896  -0.609  1.00  0.00    -0.206 F 
ATOM     81  C   UNL     1      14.482  -9.150   0.409  1.00  0.00     0.060 A 
BRANCH  81  82
ATOM     82  S   UNL     1      15.649 -10.417  -0.136  1.00  0.00     0.124 S 
ATOM     83  O   UNL     1      16.727 -10.257   0.832  1.00  0.00    -0.237 OA
ATOM     84  O   UNL     1      14.858 -11.639  -0.015  1.00  0.00    -0.237 OA
ATOM     85  O   UNL     1      15.960 -10.016  -1.504  1.00  0.00    -0.744 OA
ENDBRANCH  81  82
ENDBRANCH  49  74
BRANCH  61  86
ATOM     86  C   UNL     1      11.661  -2.770   6.435  1.00  0.00     0.058 A 
ATOM     87  C   UNL     1      12.795  -1.953   6.311  1.00  0.00     0.135 A 
ATOM     88  C   UNL     1      11.308  -3.217   7.718  1.00  0.00     0.135 A 
ATOM     89  F   UNL     1      13.177  -1.506   5.104  1.00  0.00    -0.206 F 
ATOM     90  C   UNL     1      13.564  -1.607   7.418  1.00  0.00     0.059 A 
ATOM     91  C   UNL     1      12.052  -2.867   8.841  1.00  0.00     0.059 A 
ATOM     92  F   UNL     1      10.226  -3.993   7.890  1.00  0.00    -0.206 F 
ATOM     93  C   UNL     1      13.185  -2.071   8.679  1.00  0.00     0.060 A 
BRANCH  93  94
ATOM     94  S   UNL     1      14.175  -1.597  10.113  1.00  0.00     0.124 S 
ATOM     95  O   UNL     1      15.319  -2.494   9.989  1.00  0.00    -0.237 OA
ATOM     96  O   UNL     1      14.445  -0.186   9.858  1.00  0.00    -0.237 OA
ATOM     97  O   UNL     1      13.286  -1.864  11.240  1.00  0.00    -0.744 OA
ENDBRANCH  93  94
ENDBRANCH  61  86
ENDBRANCH  35  36
ENDBRANCH  28  30
ENDBRANCH  27  28
ENDBRANCH  26  27
ENDBRANCH   1  26
TORSDOF 17
