REMARK SMILES Cc1cc(C(=O)Nc2nc(CC(=O)OCCOC(=O)c3ccc(-c4c5nc(c(-c6c(F)cc(S(=O)(=O)[O-])cc6F)c6ccc([nH]6)c(-c6c(F)cc(S(=O)(=O)[O-])cc6F)c6nc(c(-c7c(F)cc(S(=O)(=O)[O-])cc7F)c7ccc4[nH]7)C=C6)C=C5)cc3)cs2)sc1C
REMARK SMILES IDX 15 1 14 2 12 3 13 4 11 5 10 6 8 7 9 8 87 9 86 10 7 11 5 12
REMARK SMILES IDX 6 13 4 15 1 16 2 17 3 18 89 19 88 20 90 21 16 22 17 23 18 24
REMARK SMILES IDX 19 25 20 26 21 27 85 28 22 29 84 30 23 31 24 32 25 33 78 34
REMARK SMILES IDX 26 35 83 36 77 37 79 38 27 39 82 40 76 41 75 42 28 44 62 45
REMARK SMILES IDX 41 46 61 47 42 48 45 49 60 50 80 51 43 52 44 53 59 55 81 56
REMARK SMILES IDX 46 57 29 58 30 59 39 60 31 61 32 62 38 63 40 64 33 65 34 66
REMARK SMILES IDX 35 67 36 68 37 69 63 70 64 71 73 72 65 73 66 74 72 75 74 76
REMARK SMILES IDX 67 77 68 78 69 79 70 80 71 81 47 82 48 83 57 84 49 85 50 86
REMARK SMILES IDX 56 87 58 88 51 89 52 90 53 91 54 92 55 93
REMARK H PARENT 7 14 79 43 45 54
REMARK Flexibility Score: inf
ROOT
ATOM      1  C   UNL     1       6.452   2.880   3.817  1.00  0.00     0.274 C 
ENDROOT
BRANCH   1   2
ATOM      2  O   UNL     1       5.478   2.146   3.052  1.00  0.00    -0.462 OA
BRANCH   2   3
ATOM      3  C   UNL     1       4.300   2.787   2.829  1.00  0.00     0.312 C 
ATOM      4  O   UNL     1       3.997   3.871   3.319  1.00  0.00    -0.252 OA
BRANCH   3   5
ATOM      5  C   UNL     1       3.357   2.035   1.933  1.00  0.00     0.179 C 
BRANCH   5   6
ATOM      6  C   UNL     1       3.952   0.967   1.077  1.00  0.00     0.065 A 
ATOM      7  C   UNL     1       3.784  -0.993   0.091  1.00  0.00     0.189 A 
ATOM      8  N   UNL     1       3.270  -0.238   1.024  1.00  0.00    -0.224 NA
ATOM      9  S   UNL     1       5.249  -0.467  -0.591  1.00  0.00    -0.105 S 
ATOM     10  C   UNL     1       5.033   1.040   0.213  1.00  0.00     0.093 A 
BRANCH   7  11
ATOM     11  N   UNL     1       3.262  -2.133  -0.436  1.00  0.00    -0.297 N 
ATOM     12  C   UNL     1       1.933  -2.492  -0.377  1.00  0.00     0.267 C 
ATOM     13  O   UNL     1       1.684  -3.700  -0.478  1.00  0.00    -0.268 OA
ATOM     14  H   UNL     1       3.880  -2.747  -0.895  1.00  0.00     0.172 HD
BRANCH  12  15
ATOM     15  C   UNL     1       0.856  -1.498  -0.304  1.00  0.00     0.093 A 
ATOM     16  C   UNL     1      -2.737  -0.548   0.360  1.00  0.00     0.045 C 
ATOM     17  C   UNL     1      -1.283  -0.550   0.029  1.00  0.00    -0.037 A 
ATOM     18  C   UNL     1      -0.452  -1.722   0.090  1.00  0.00     0.029 A 
ATOM     19  C   UNL     1      -0.541   0.551  -0.364  1.00  0.00     0.005 A 
ATOM     20  S   UNL     1       0.990   0.084  -0.956  1.00  0.00    -0.135 S 
ATOM     21  C   UNL     1      -0.929   1.993  -0.407  1.00  0.00     0.056 C 
ENDBRANCH  12  15
ENDBRANCH   7  11
ENDBRANCH   5   6
ENDBRANCH   3   5
ENDBRANCH   2   3
ENDBRANCH   1   2
BRANCH   1  22
ATOM     22  C   UNL     1       7.430   3.584   2.882  1.00  0.00     0.275 C 
BRANCH  22  23
ATOM     23  O   UNL     1       6.722   4.519   2.048  1.00  0.00    -0.458 OA
BRANCH  23  24
ATOM     24  C   UNL     1       6.905   4.388   0.714  1.00  0.00     0.338 C 
ATOM     25  O   UNL     1       7.619   3.588   0.138  1.00  0.00    -0.246 OA
BRANCH  24  26
ATOM     26  C   UNL     1       6.101   5.403   0.015  1.00  0.00     0.060 A 
ATOM     27  C   UNL     1       4.705   5.371   0.072  1.00  0.00     0.016 A 
ATOM     28  C   UNL     1       6.758   6.374  -0.741  1.00  0.00     0.016 A 
ATOM     29  C   UNL     1       3.959   6.321  -0.627  1.00  0.00     0.010 A 
ATOM     30  C   UNL     1       6.011   7.353  -1.397  1.00  0.00     0.010 A 
ATOM     31  C   UNL     1       4.606   7.339  -1.342  1.00  0.00    -0.014 A 
BRANCH  31  32
ATOM     32  C   UNL     1       3.838   8.434  -1.989  1.00  0.00     0.031 A 
ATOM     33  C   UNL     1       3.842   8.587  -3.483  1.00  0.00     0.074 A 
ATOM     34  C   UNL     1       3.194   9.332  -1.217  1.00  0.00     0.049 A 
ATOM     35  N   UNL     1       3.407   9.583  -4.211  1.00  0.00    -0.248 NA
ATOM     36  C   UNL     1       4.415   7.478  -4.262  1.00  0.00     0.031 C 
ATOM     37  C   UNL     1       3.101   9.280   0.244  1.00  0.00     0.029 A 
ATOM     38  N   UNL     1       2.517  10.479  -1.551  1.00  0.00    -0.354 N 
ATOM     39  C   UNL     1       3.669   9.234  -5.530  1.00  0.00     0.074 A 
ATOM     40  C   UNL     1       4.314   7.937  -5.503  1.00  0.00     0.031 C 
ATOM     41  C   UNL     1       2.419  10.350   0.681  1.00  0.00     0.029 A 
ATOM     42  C   UNL     1       2.081  11.194  -0.460  1.00  0.00     0.049 A 
ATOM     43  H   UNL     1       2.360  10.761  -2.480  1.00  0.00     0.167 HD
ATOM     44  C   UNL     1       3.393   9.932  -6.658  1.00  0.00     0.037 A 
ATOM     45  C   UNL     1       1.520  12.416  -0.380  1.00  0.00     0.037 A 
ATOM     46  C   UNL     1       2.740  11.216  -6.675  1.00  0.00     0.049 A 
ATOM     47  C   UNL     1       1.294  13.204  -1.641  1.00  0.00     0.074 A 
ATOM     48  C   UNL     1       2.396  11.992  -7.769  1.00  0.00     0.029 A 
ATOM     49  N   UNL     1       2.334  11.915  -5.548  1.00  0.00    -0.354 N 
ATOM     50  N   UNL     1       1.553  12.863  -2.881  1.00  0.00    -0.248 NA
ATOM     51  C   UNL     1       0.719  14.547  -1.491  1.00  0.00     0.031 C 
ATOM     52  C   UNL     1       1.815  13.177  -7.302  1.00  0.00     0.029 A 
ATOM     53  C   UNL     1       1.765  13.123  -5.919  1.00  0.00     0.049 A 
ATOM     54  H   UNL     1       2.436  11.600  -4.621  1.00  0.00     0.167 HD
ATOM     55  C   UNL     1       1.166  13.948  -3.659  1.00  0.00     0.074 A 
ATOM     56  C   UNL     1       0.636  14.946  -2.753  1.00  0.00     0.031 C 
ATOM     57  C   UNL     1       1.248  14.107  -5.002  1.00  0.00     0.037 A 
BRANCH  44  58
ATOM     58  C   UNL     1       3.801   9.334  -7.974  1.00  0.00     0.058 A 
ATOM     59  C   UNL     1       3.084   8.276  -8.553  1.00  0.00     0.135 A 
ATOM     60  C   UNL     1       4.876   9.873  -8.699  1.00  0.00     0.135 A 
ATOM     61  F   UNL     1       2.057   7.715  -7.895  1.00  0.00    -0.206 F 
ATOM     62  C   UNL     1       3.424   7.767  -9.803  1.00  0.00     0.059 A 
ATOM     63  C   UNL     1       5.222   9.392  -9.959  1.00  0.00     0.059 A 
ATOM     64  F   UNL     1       5.596  10.884  -8.189  1.00  0.00    -0.206 F 
ATOM     65  C   UNL     1       4.493   8.333 -10.500  1.00  0.00     0.060 A 
BRANCH  65  66
ATOM     66  S   UNL     1       4.902   7.680 -12.133  1.00  0.00     0.124 S 
ATOM     67  O   UNL     1       5.523   6.405 -11.788  1.00  0.00    -0.237 OA
ATOM     68  O   UNL     1       3.594   7.595 -12.773  1.00  0.00    -0.237 OA
ATOM     69  O   UNL     1       5.803   8.687 -12.686  1.00  0.00    -0.744 OA
ENDBRANCH  65  66
ENDBRANCH  44  58
BRANCH  45  70
ATOM     70  C   UNL     1       1.185  12.997   0.946  1.00  0.00     0.058 A 
ATOM     71  C   UNL     1      -0.148  13.167   1.344  1.00  0.00     0.135 A 
ATOM     72  C   UNL     1       2.192  13.401   1.837  1.00  0.00     0.135 A 
ATOM     73  F   UNL     1      -1.144  12.805   0.522  1.00  0.00    -0.206 F 
ATOM     74  C   UNL     1      -0.474  13.733   2.572  1.00  0.00     0.059 A 
ATOM     75  C   UNL     1       1.892  13.946   3.081  1.00  0.00     0.059 A 
ATOM     76  F   UNL     1       3.484  13.248   1.508  1.00  0.00    -0.206 F 
ATOM     77  C   UNL     1       0.554  14.121   3.433  1.00  0.00     0.060 A 
BRANCH  77  78
ATOM     78  S   UNL     1       0.127  14.826   5.040  1.00  0.00     0.124 S 
ATOM     79  O   UNL     1      -0.238  16.189   4.673  1.00  0.00    -0.237 OA
ATOM     80  O   UNL     1      -0.970  13.967   5.474  1.00  0.00    -0.237 OA
ATOM     81  O   UNL     1       1.363  14.685   5.805  1.00  0.00    -0.744 OA
ENDBRANCH  77  78
ENDBRANCH  45  70
BRANCH  57  82
ATOM     82  C   UNL     1       0.747  15.402  -5.572  1.00  0.00     0.058 A 
ATOM     83  C   UNL     1       1.493  16.585  -5.459  1.00  0.00     0.135 A 
ATOM     84  C   UNL     1      -0.469  15.453  -6.272  1.00  0.00     0.135 A 
ATOM     85  F   UNL     1       2.656  16.589  -4.788  1.00  0.00    -0.206 F 
ATOM     86  C   UNL     1       1.043  17.781  -6.009  1.00  0.00     0.059 A 
ATOM     87  C   UNL     1      -0.927  16.633  -6.849  1.00  0.00     0.059 A 
ATOM     88  F   UNL     1      -1.215  14.347  -6.412  1.00  0.00    -0.206 F 
ATOM     89  C   UNL     1      -0.168  17.794  -6.703  1.00  0.00     0.060 A 
BRANCH  89  90
ATOM     90  S   UNL     1      -0.724  19.344  -7.445  1.00  0.00     0.124 S 
ATOM     91  O   UNL     1      -1.204  20.073  -6.277  1.00  0.00    -0.237 OA
ATOM     92  O   UNL     1       0.499  19.857  -8.055  1.00  0.00    -0.237 OA
ATOM     93  O   UNL     1      -1.754  18.918  -8.387  1.00  0.00    -0.744 OA
ENDBRANCH  89  90
ENDBRANCH  57  82
ENDBRANCH  31  32
ENDBRANCH  24  26
ENDBRANCH  23  24
ENDBRANCH  22  23
ENDBRANCH   1  22
TORSDOF 17
