REMARK SMILES O=C(OCCOC(=O)c1cn(C2CN(C(=O)[C@@H]3CC=CCC3)C2)nn1)c1ccc(-c2c3nc(c(-c4c(F)cc(S(=O)(=O)[O-])cc4F)c4ccc([nH]4)c(-c4c(F)cc(S(=O)(=O)[O-])cc4F)c4nc(c(-c5c(F)cc(S(=O)(=O)[O-])cc5F)c5ccc2[nH]5)C=C4)C=C3)cc1
REMARK SMILES IDX 4 1 3 2 2 3 1 4 26 5 27 6 91 7 28 8 90 9 29 10 30 11 31 12
REMARK SMILES IDX 84 13 32 14 89 15 83 16 85 17 33 18 88 19 82 20 81 21 34 23
REMARK SMILES IDX 68 24 47 25 67 26 48 27 51 28 66 29 86 30 49 31 50 32 65 34
REMARK SMILES IDX 87 35 52 36 35 37 36 38 45 39 37 40 38 41 44 42 46 43 39 44
REMARK SMILES IDX 40 45 41 46 42 47 43 48 69 49 70 50 79 51 71 52 72 53 78 54
REMARK SMILES IDX 80 55 73 56 74 57 75 58 76 59 77 60 53 61 54 62 63 63 55 64
REMARK SMILES IDX 56 65 62 66 64 67 57 68 58 69 59 70 60 71 61 72 5 73 6 74
REMARK SMILES IDX 7 75 8 76 9 77 10 78 25 79 11 80 24 81 12 82 13 83 23 84
REMARK SMILES IDX 14 85 15 86 16 87 17 88 18 89 22 90 19 91 21 92 20 93
REMARK H PARENT 85 22 51 33
REMARK Flexibility Score: inf
ROOT
ATOM      1  C   UNL     1      -3.081  10.091  17.235  1.00  0.00     0.275 C 
ENDROOT
BRANCH   1   2
ATOM      2  O   UNL     1      -3.502  11.231  16.460  1.00  0.00    -0.458 OA
BRANCH   2   3
ATOM      3  C   UNL     1      -3.144  11.376  15.165  1.00  0.00     0.338 C 
ATOM      4  O   UNL     1      -3.944  11.257  14.249  1.00  0.00    -0.246 OA
BRANCH   3   5
ATOM      5  C   UNL     1      -1.793  11.959  14.961  1.00  0.00     0.060 A 
ATOM      6  C   UNL     1      -0.760  11.870  15.903  1.00  0.00     0.016 A 
ATOM      7  C   UNL     1      -1.586  12.665  13.769  1.00  0.00     0.016 A 
ATOM      8  C   UNL     1       0.407  12.594  15.736  1.00  0.00     0.010 A 
ATOM      9  C   UNL     1      -0.411  13.371  13.586  1.00  0.00     0.010 A 
ATOM     10  C   UNL     1       0.540  13.394  14.609  1.00  0.00    -0.014 A 
BRANCH  10  11
ATOM     11  C   UNL     1       1.697  14.273  14.519  1.00  0.00     0.031 A 
ATOM     12  C   UNL     1       3.010  13.597  14.292  1.00  0.00     0.074 A 
ATOM     13  C   UNL     1       1.487  15.605  14.466  1.00  0.00     0.049 A 
ATOM     14  N   UNL     1       4.131  13.747  14.925  1.00  0.00    -0.248 NA
ATOM     15  C   UNL     1       3.047  12.524  13.279  1.00  0.00     0.031 C 
ATOM     16  C   UNL     1       0.196  16.308  14.436  1.00  0.00     0.029 A 
ATOM     17  N   UNL     1       2.374  16.614  14.271  1.00  0.00    -0.354 N 
ATOM     18  C   UNL     1       5.064  12.960  14.245  1.00  0.00     0.074 A 
ATOM     19  C   UNL     1       4.314  12.118  13.352  1.00  0.00     0.031 C 
ATOM     20  C   UNL     1       0.377  17.561  13.969  1.00  0.00     0.029 A 
ATOM     21  C   UNL     1       1.798  17.790  13.802  1.00  0.00     0.049 A 
ATOM     22  H   UNL     1       3.339  16.522  14.447  1.00  0.00     0.167 HD
ATOM     23  C   UNL     1       6.403  13.210  14.295  1.00  0.00     0.037 A 
ATOM     24  C   UNL     1       2.455  18.813  13.201  1.00  0.00     0.037 A 
ATOM     25  C   UNL     1       6.755  13.988  15.451  1.00  0.00     0.049 A 
ATOM     26  C   UNL     1       3.890  18.677  13.575  1.00  0.00     0.074 A 
ATOM     27  C   UNL     1       6.667  13.788  16.815  1.00  0.00     0.029 A 
ATOM     28  N   UNL     1       6.973  15.335  15.291  1.00  0.00    -0.354 N 
ATOM     29  N   UNL     1       4.331  18.784  14.802  1.00  0.00    -0.248 NA
ATOM     30  C   UNL     1       4.756  17.938  12.667  1.00  0.00     0.031 C 
ATOM     31  C   UNL     1       6.323  15.063  17.352  1.00  0.00     0.029 A 
ATOM     32  C   UNL     1       6.283  15.971  16.292  1.00  0.00     0.049 A 
ATOM     33  H   UNL     1       7.519  15.762  14.592  1.00  0.00     0.167 HD
ATOM     34  C   UNL     1       5.310  17.806  14.923  1.00  0.00     0.074 A 
ATOM     35  C   UNL     1       5.569  17.359  13.555  1.00  0.00     0.031 C 
ATOM     36  C   UNL     1       5.617  17.245  16.131  1.00  0.00     0.037 A 
BRANCH  23  37
ATOM     37  C   UNL     1       7.334  13.048  13.112  1.00  0.00     0.058 A 
ATOM     38  C   UNL     1       8.726  13.182  13.292  1.00  0.00     0.135 A 
ATOM     39  C   UNL     1       6.893  13.062  11.768  1.00  0.00     0.135 A 
ATOM     40  F   UNL     1       9.259  13.179  14.525  1.00  0.00    -0.206 F 
ATOM     41  C   UNL     1       9.601  13.405  12.226  1.00  0.00     0.059 A 
ATOM     42  C   UNL     1       7.752  13.231  10.689  1.00  0.00     0.059 A 
ATOM     43  F   UNL     1       5.596  13.011  11.440  1.00  0.00    -0.206 F 
ATOM     44  C   UNL     1       9.097  13.452  10.929  1.00  0.00     0.060 A 
BRANCH  44  45
ATOM     45  S   UNL     1      10.191  13.887   9.565  1.00  0.00     0.124 S 
ATOM     46  O   UNL     1      10.477  15.286   9.859  1.00  0.00    -0.237 OA
ATOM     47  O   UNL     1      11.296  12.954   9.754  1.00  0.00    -0.237 OA
ATOM     48  O   UNL     1       9.368  13.645   8.384  1.00  0.00    -0.744 OA
ENDBRANCH  44  45
ENDBRANCH  23  37
BRANCH  24  49
ATOM     49  C   UNL     1       1.980  19.561  12.003  1.00  0.00     0.058 A 
ATOM     50  C   UNL     1       2.554  20.782  11.616  1.00  0.00     0.135 A 
ATOM     51  C   UNL     1       1.102  18.968  11.068  1.00  0.00     0.135 A 
ATOM     52  F   UNL     1       3.427  21.400  12.426  1.00  0.00    -0.206 F 
ATOM     53  C   UNL     1       2.289  21.371  10.371  1.00  0.00     0.059 A 
ATOM     54  C   UNL     1       0.813  19.540   9.831  1.00  0.00     0.059 A 
ATOM     55  F   UNL     1       0.560  17.761  11.292  1.00  0.00    -0.206 F 
ATOM     56  C   UNL     1       1.425  20.735   9.479  1.00  0.00     0.060 A 
BRANCH  56  57
ATOM     57  S   UNL     1       1.186  21.414   7.820  1.00  0.00     0.124 S 
ATOM     58  O   UNL     1       0.458  22.646   8.100  1.00  0.00    -0.237 OA
ATOM     59  O   UNL     1       2.559  21.577   7.353  1.00  0.00    -0.237 OA
ATOM     60  O   UNL     1       0.417  20.378   7.135  1.00  0.00    -0.744 OA
ENDBRANCH  56  57
ENDBRANCH  24  49
BRANCH  36  61
ATOM     61  C   UNL     1       5.008  17.843  17.377  1.00  0.00     0.058 A 
ATOM     62  C   UNL     1       3.634  17.788  17.676  1.00  0.00     0.135 A 
ATOM     63  C   UNL     1       5.858  18.304  18.391  1.00  0.00     0.135 A 
ATOM     64  F   UNL     1       2.765  17.254  16.809  1.00  0.00    -0.206 F 
ATOM     65  C   UNL     1       3.123  18.202  18.908  1.00  0.00     0.059 A 
ATOM     66  C   UNL     1       5.376  18.694  19.640  1.00  0.00     0.059 A 
ATOM     67  F   UNL     1       7.187  18.313  18.200  1.00  0.00    -0.206 F 
ATOM     68  C   UNL     1       4.005  18.648  19.889  1.00  0.00     0.060 A 
BRANCH  68  69
ATOM     69  S   UNL     1       3.355  19.080  21.518  1.00  0.00     0.124 S 
ATOM     70  O   UNL     1       2.651  20.329  21.248  1.00  0.00    -0.237 OA
ATOM     71  O   UNL     1       2.510  17.933  21.838  1.00  0.00    -0.237 OA
ATOM     72  O   UNL     1       4.556  19.205  22.342  1.00  0.00    -0.744 OA
ENDBRANCH  68  69
ENDBRANCH  36  61
ENDBRANCH  10  11
ENDBRANCH   3   5
ENDBRANCH   2   3
ENDBRANCH   1   2
BRANCH   1  73
ATOM     73  C   UNL     1      -2.940   8.759  16.497  1.00  0.00     0.275 C 
BRANCH  73  74
ATOM     74  O   UNL     1      -1.876   8.792  15.530  1.00  0.00    -0.457 OA
BRANCH  74  75
ATOM     75  C   UNL     1      -2.229   8.556  14.233  1.00  0.00     0.360 C 
ATOM     76  O   UNL     1      -3.361   8.226  13.862  1.00  0.00    -0.244 OA
BRANCH  75  77
ATOM     77  C   UNL     1      -1.117   8.707  13.327  1.00  0.00     0.190 A 
ATOM     78  C   UNL     1       0.001   7.901  13.232  1.00  0.00     0.147 A 
ATOM     79  N   UNL     1      -1.047   9.680  12.365  1.00  0.00    -0.123 NA
ATOM     80  N   UNL     1       0.691   8.421  12.173  1.00  0.00    -0.245 N 
ATOM     81  N   UNL     1       0.086   9.521  11.695  1.00  0.00    -0.066 NA
BRANCH  80  82
ATOM     82  C   UNL     1       1.801   7.842  11.478  1.00  0.00     0.148 C 
ATOM     83  C   UNL     1       2.721   6.905  12.276  1.00  0.00     0.148 C 
ATOM     84  C   UNL     1       1.345   6.587  10.694  1.00  0.00     0.148 C 
ATOM     85  N   UNL     1       2.552   5.962  11.179  1.00  0.00    -0.338 N 
ATOM     86  C   UNL     1       3.312   4.881  10.860  1.00  0.00     0.226 C 
ATOM     87  O   UNL     1       4.275   4.562  11.562  1.00  0.00    -0.275 OA
BRANCH  86  88
ATOM     88  C   UNL     1       2.961   4.045   9.636  1.00  0.00     0.083 C 
ATOM     89  C   UNL     1       3.110   4.813   8.316  1.00  0.00     0.040 C 
ATOM     90  C   UNL     1       1.596   3.361   9.747  1.00  0.00     0.018 C 
ATOM     91  C   UNL     1       2.556   4.056   7.140  1.00  0.00    -0.030 C 
ATOM     92  C   UNL     1       1.387   2.382   8.587  1.00  0.00     0.028 C 
ATOM     93  C   UNL     1       1.798   2.955   7.261  1.00  0.00    -0.031 C 
ENDBRANCH  86  88
ENDBRANCH  80  82
ENDBRANCH  75  77
ENDBRANCH  74  75
ENDBRANCH  73  74
ENDBRANCH   1  73
TORSDOF 16
