REMARK SMILES Nc1nc(N)nc(N/C=C/C(=O)OCCOC(=O)c2ccc(-c3c4nc(c(-c5c(F)cc(S(=O)(=O)[O-])cc5F)c5ccc([nH]5)c(-c5c(F)cc(S(=O)(=O)[O-])cc5F)c5nc(c(-c6c(F)cc(S(=O)(=O)[O-])cc6F)c6ccc3[nH]6)C=C5)C=C4)cc2)n1
REMARK SMILES IDX 14 1 13 2 11 3 12 4 10 5 9 6 8 7 7 9 2 10 3 11 85 12 4 13
REMARK SMILES IDX 6 14 1 15 5 18 15 21 16 22 17 23 18 24 19 25 20 26 84 27
REMARK SMILES IDX 21 28 83 29 22 30 23 31 24 32 77 33 25 34 82 35 76 36 78 37
REMARK SMILES IDX 26 38 81 39 75 40 74 41 27 43 61 44 40 45 60 46 41 47 44 48
REMARK SMILES IDX 59 49 79 50 42 51 43 52 58 54 80 55 45 56 28 57 29 58 38 59
REMARK SMILES IDX 30 60 31 61 37 62 39 63 32 64 33 65 34 66 35 67 36 68 62 69
REMARK SMILES IDX 63 70 72 71 64 72 65 73 71 74 73 75 66 76 67 77 68 78 69 79
REMARK SMILES IDX 70 80 46 81 47 82 56 83 48 84 49 85 55 86 57 87 50 88 51 89
REMARK SMILES IDX 52 90 53 91 54 92
REMARK H PARENT 8 8 1 16 1 17 5 19 5 20 78 42 44 53
REMARK Flexibility Score: inf
ROOT
ATOM      1  C   UNL     1       4.900   6.042   0.007  1.00  0.00     0.275 C 
ENDROOT
BRANCH   1   2
ATOM      2  O   UNL     1       3.755   5.180   0.138  1.00  0.00    -0.459 OA
BRANCH   2   3
ATOM      3  C   UNL     1       2.731   5.679   0.871  1.00  0.00     0.332 C 
ATOM      4  O   UNL     1       2.731   6.736   1.484  1.00  0.00    -0.247 OA
BRANCH   3   5
ATOM      5  C   UNL     1       1.520   4.841   0.799  1.00  0.00     0.111 C 
ATOM      6  C   UNL     1       1.467   3.586   0.336  1.00  0.00     0.093 C 
BRANCH   6   7
ATOM      7  N   UNL     1       0.338   2.818   0.249  1.00  0.00    -0.330 N 
ATOM      8  H   UNL     1      -0.518   3.297   0.327  1.00  0.00     0.169 HD
BRANCH   7   9
ATOM      9  C   UNL     1       0.252   1.440   0.064  1.00  0.00     0.233 A 
ATOM     10  C   UNL     1      -1.051  -0.379  -0.053  1.00  0.00     0.226 A 
ATOM     11  N   UNL     1      -0.014  -1.197  -0.112  1.00  0.00    -0.177 NA
ATOM     12  N   UNL     1      -0.977   0.937   0.041  1.00  0.00    -0.177 NA
ATOM     13  C   UNL     1       1.164  -0.599  -0.088  1.00  0.00     0.226 A 
ATOM     14  N   UNL     1       1.356   0.705  -0.008  1.00  0.00    -0.177 NA
BRANCH  10  15
ATOM     15  N   UNL     1      -2.298  -0.938  -0.074  1.00  0.00    -0.368 N 
ATOM     16  H   UNL     1      -2.398  -1.914  -0.142  1.00  0.00     0.159 HD
ATOM     17  H   UNL     1      -3.095  -0.363  -0.020  1.00  0.00     0.159 HD
ENDBRANCH  10  15
BRANCH  13  18
ATOM     18  N   UNL     1       2.277  -1.391  -0.121  1.00  0.00    -0.368 N 
ATOM     19  H   UNL     1       2.183  -2.370  -0.180  1.00  0.00     0.159 HD
ATOM     20  H   UNL     1       3.173  -0.984  -0.085  1.00  0.00     0.159 HD
ENDBRANCH  13  18
ENDBRANCH   7   9
ENDBRANCH   6   7
ENDBRANCH   3   5
ENDBRANCH   2   3
ENDBRANCH   1   2
BRANCH   1  21
ATOM     21  C   UNL     1       4.877   6.818  -1.315  1.00  0.00     0.275 C 
BRANCH  21  22
ATOM     22  O   UNL     1       3.823   7.798  -1.352  1.00  0.00    -0.458 OA
BRANCH  22  23
ATOM     23  C   UNL     1       2.650   7.361  -1.874  1.00  0.00     0.338 C 
ATOM     24  O   UNL     1       2.422   6.256  -2.336  1.00  0.00    -0.246 OA
BRANCH  23  25
ATOM     25  C   UNL     1       1.603   8.384  -1.693  1.00  0.00     0.060 A 
ATOM     26  C   UNL     1       0.400   7.988  -1.101  1.00  0.00     0.016 A 
ATOM     27  C   UNL     1       1.768   9.693  -2.151  1.00  0.00     0.016 A 
ATOM     28  C   UNL     1      -0.644   8.899  -0.962  1.00  0.00     0.010 A 
ATOM     29  C   UNL     1       0.715  10.606  -2.018  1.00  0.00     0.010 A 
ATOM     30  C   UNL     1      -0.500  10.212  -1.430  1.00  0.00    -0.014 A 
BRANCH  30  31
ATOM     31  C   UNL     1      -1.644  11.151  -1.341  1.00  0.00     0.031 A 
ATOM     32  C   UNL     1      -2.467  11.447  -2.563  1.00  0.00     0.074 A 
ATOM     33  C   UNL     1      -1.958  11.713  -0.159  1.00  0.00     0.049 A 
ATOM     34  N   UNL     1      -3.484  12.258  -2.698  1.00  0.00    -0.248 NA
ATOM     35  C   UNL     1      -2.097  10.735  -3.797  1.00  0.00     0.031 C 
ATOM     36  C   UNL     1      -1.251  11.479   1.100  1.00  0.00     0.029 A 
ATOM     37  N   UNL     1      -2.952  12.598   0.175  1.00  0.00    -0.354 N 
ATOM     38  C   UNL     1      -3.872  12.164  -4.029  1.00  0.00     0.074 A 
ATOM     39  C   UNL     1      -2.968  11.230  -4.666  1.00  0.00     0.031 C 
ATOM     40  C   UNL     1      -1.832  12.205   2.070  1.00  0.00     0.029 A 
ATOM     41  C   UNL     1      -2.930  12.980   1.496  1.00  0.00     0.049 A 
ATOM     42  H   UNL     1      -3.619  12.929  -0.470  1.00  0.00     0.167 HD
ATOM     43  C   UNL     1      -4.893  12.794  -4.658  1.00  0.00     0.037 A 
ATOM     44  C   UNL     1      -3.694  13.868   2.161  1.00  0.00     0.037 A 
ATOM     45  C   UNL     1      -5.795  13.716  -4.016  1.00  0.00     0.049 A 
ATOM     46  C   UNL     1      -4.793  14.589   1.427  1.00  0.00     0.074 A 
ATOM     47  C   UNL     1      -6.869  14.393  -4.567  1.00  0.00     0.029 A 
ATOM     48  N   UNL     1      -5.728  14.091  -2.683  1.00  0.00    -0.354 N 
ATOM     49  N   UNL     1      -5.156  14.479   0.171  1.00  0.00    -0.248 NA
ATOM     50  C   UNL     1      -5.587  15.556   2.200  1.00  0.00     0.031 C 
ATOM     51  C   UNL     1      -7.430  15.206  -3.576  1.00  0.00     0.029 A 
ATOM     52  C   UNL     1      -6.730  15.004  -2.397  1.00  0.00     0.049 A 
ATOM     53  H   UNL     1      -5.066  13.758  -2.034  1.00  0.00     0.167 HD
ATOM     54  C   UNL     1      -6.232  15.345   0.009  1.00  0.00     0.074 A 
ATOM     55  C   UNL     1      -6.469  15.963   1.297  1.00  0.00     0.031 C 
ATOM     56  C   UNL     1      -6.958  15.604  -1.106  1.00  0.00     0.037 A 
BRANCH  43  57
ATOM     57  C   UNL     1      -5.080  12.526  -6.125  1.00  0.00     0.058 A 
ATOM     58  C   UNL     1      -5.621  11.318  -6.590  1.00  0.00     0.135 A 
ATOM     59  C   UNL     1      -4.757  13.509  -7.074  1.00  0.00     0.135 A 
ATOM     60  F   UNL     1      -5.932  10.339  -5.725  1.00  0.00    -0.206 F 
ATOM     61  C   UNL     1      -5.820  11.086  -7.947  1.00  0.00     0.059 A 
ATOM     62  C   UNL     1      -4.967  13.307  -8.435  1.00  0.00     0.059 A 
ATOM     63  F   UNL     1      -4.234  14.681  -6.682  1.00  0.00    -0.206 F 
ATOM     64  C   UNL     1      -5.489  12.087  -8.863  1.00  0.00     0.060 A 
BRANCH  64  65
ATOM     65  S   UNL     1      -5.764  11.778 -10.620  1.00  0.00     0.124 S 
ATOM     66  O   UNL     1      -4.670  10.862 -10.929  1.00  0.00    -0.237 OA
ATOM     67  O   UNL     1      -7.101  11.194 -10.631  1.00  0.00    -0.237 OA
ATOM     68  O   UNL     1      -5.659  13.105 -11.220  1.00  0.00    -0.744 OA
ENDBRANCH  64  65
ENDBRANCH  43  57
BRANCH  44  69
ATOM     69  C   UNL     1      -3.436  14.139   3.599  1.00  0.00     0.058 A 
ATOM     70  C   UNL     1      -4.336  13.721   4.590  1.00  0.00     0.135 A 
ATOM     71  C   UNL     1      -2.284  14.828   4.010  1.00  0.00     0.135 A 
ATOM     72  F   UNL     1      -5.457  13.069   4.246  1.00  0.00    -0.206 F 
ATOM     73  C   UNL     1      -4.112  13.989   5.937  1.00  0.00     0.059 A 
ATOM     74  C   UNL     1      -2.026  15.087   5.352  1.00  0.00     0.059 A 
ATOM     75  F   UNL     1      -1.387  15.240   3.101  1.00  0.00    -0.206 F 
ATOM     76  C   UNL     1      -2.954  14.674   6.308  1.00  0.00     0.060 A 
BRANCH  76  77
ATOM     77  S   UNL     1      -2.650  14.986   8.061  1.00  0.00     0.124 S 
ATOM     78  O   UNL     1      -3.562  16.093   8.324  1.00  0.00    -0.237 OA
ATOM     79  O   UNL     1      -3.005  13.707   8.669  1.00  0.00    -0.237 OA
ATOM     80  O   UNL     1      -1.228  15.315   8.100  1.00  0.00    -0.744 OA
ENDBRANCH  76  77
ENDBRANCH  44  69
BRANCH  56  81
ATOM     81  C   UNL     1      -8.098  16.575  -0.978  1.00  0.00     0.058 A 
ATOM     82  C   UNL     1      -7.880  17.957  -0.878  1.00  0.00     0.135 A 
ATOM     83  C   UNL     1      -9.426  16.119  -1.006  1.00  0.00     0.135 A 
ATOM     84  F   UNL     1      -6.629  18.443  -0.841  1.00  0.00    -0.206 F 
ATOM     85  C   UNL     1      -8.940  18.855  -0.792  1.00  0.00     0.059 A 
ATOM     86  C   UNL     1     -10.501  17.000  -0.944  1.00  0.00     0.059 A 
ATOM     87  F   UNL     1      -9.689  14.807  -1.110  1.00  0.00    -0.206 F 
ATOM     88  C   UNL     1     -10.248  18.366  -0.825  1.00  0.00     0.060 A 
BRANCH  88  89
ATOM     89  S   UNL     1     -11.616  19.542  -0.747  1.00  0.00     0.124 S 
ATOM     90  O   UNL     1     -11.627  19.886   0.670  1.00  0.00    -0.237 OA
ATOM     91  O   UNL     1     -11.176  20.599  -1.653  1.00  0.00    -0.237 OA
ATOM     92  O   UNL     1     -12.759  18.762  -1.214  1.00  0.00    -0.744 OA
ENDBRANCH  88  89
ENDBRANCH  56  81
ENDBRANCH  30  31
ENDBRANCH  23  25
ENDBRANCH  22  23
ENDBRANCH  21  22
ENDBRANCH   1  21
TORSDOF 18
