REMARK SMILES Cc1cc(Br)cc2c1O[C@H](C(F)(F)F)C(C(=O)OCCOC(=O)c1ccc(-c3c4nc(c(-c5c(F)cc(S(=O)(=O)[O-])cc5F)c5ccc([nH]5)c(-c5c(F)cc(S(=O)(=O)[O-])cc5F)c5nc(c(-c6c(F)cc(S(=O)(=O)[O-])cc6F)c6ccc3[nH]6)C=C5)C=C4)cc1)=C2
REMARK SMILES IDX 20 1 19 2 18 3 16 4 17 5 15 6 1 7 2 8 3 9 8 10 4 11 7 12
REMARK SMILES IDX 9 13 5 14 6 15 90 16 10 17 11 18 12 19 13 20 14 21 21 22
REMARK SMILES IDX 22 23 23 24 24 25 25 26 89 27 26 28 88 29 27 30 28 31 29 32
REMARK SMILES IDX 82 33 30 34 87 35 81 36 83 37 31 38 86 39 80 40 79 41 32 43
REMARK SMILES IDX 66 44 45 45 65 46 46 47 49 48 64 49 84 50 47 51 48 52 63 54
REMARK SMILES IDX 85 55 50 56 33 57 34 58 43 59 35 60 36 61 42 62 44 63 37 64
REMARK SMILES IDX 38 65 39 66 40 67 41 68 67 69 68 70 77 71 69 72 70 73 76 74
REMARK SMILES IDX 78 75 71 76 72 77 73 78 74 79 75 80 51 81 52 82 61 83 53 84
REMARK SMILES IDX 54 85 60 86 62 87 55 88 56 89 57 90 58 91 59 92
REMARK H PARENT 83 42 49 53
REMARK Flexibility Score: inf
ROOT
ATOM      1  C   UNL     1       0.080  -8.722  -2.739  1.00  0.00     0.275 C 
ENDROOT
BRANCH   1   2
ATOM      2  C   UNL     1       1.354  -8.043  -2.230  1.00  0.00     0.275 C 
BRANCH   2   3
ATOM      3  O   UNL     1       1.110  -6.681  -1.812  1.00  0.00    -0.459 OA
BRANCH   3   4
ATOM      4  C   UNL     1       1.505  -5.727  -2.688  1.00  0.00     0.338 C 
ATOM      5  O   UNL     1       2.053  -5.916  -3.764  1.00  0.00    -0.246 OA
BRANCH   4   6
ATOM      6  C   UNL     1       1.174  -4.378  -2.187  1.00  0.00     0.087 C 
ATOM      7  C   UNL     1       1.076   0.075   0.376  1.00  0.00     0.048 C 
ATOM      8  C   UNL     1       0.632  -0.402  -0.975  1.00  0.00    -0.007 A 
ATOM      9  C   UNL     1       0.129   0.523  -1.907  1.00  0.00     0.023 A 
ATOM     10  C   UNL     1       0.769  -1.748  -1.348  1.00  0.00     0.130 A 
ATOM     11  C   UNL     1      -0.256   0.105  -3.179  1.00  0.00     0.019 A 
ATOM     12  C   UNL     1       0.403  -2.148  -2.633  1.00  0.00     0.019 A 
ATOM     13  O   UNL     1       1.257  -2.621  -0.411  1.00  0.00    -0.475 OA
ATOM     14  Br  UNL     1      -0.928   1.358  -4.423  1.00  0.00    -0.051 Br
ATOM     15  C   UNL     1      -0.127  -1.228  -3.546  1.00  0.00     0.027 A 
ATOM     16  C   UNL     1       0.618  -3.518  -3.046  1.00  0.00     0.027 C 
ATOM     17  C   UNL     1       1.606  -3.979  -0.808  1.00  0.00     0.316 C 
BRANCH  17  18
ATOM     18  C   UNL     1       3.121  -4.162  -0.629  1.00  0.00     0.430 C 
ATOM     19  F   UNL     1       3.520  -3.788   0.612  1.00  0.00    -0.167 F 
ATOM     20  F   UNL     1       3.492  -5.458  -0.773  1.00  0.00    -0.167 F 
ATOM     21  F   UNL     1       3.835  -3.436  -1.518  1.00  0.00    -0.167 F 
ENDBRANCH  17  18
ENDBRANCH   4   6
ENDBRANCH   3   4
ENDBRANCH   2   3
ENDBRANCH   1   2
BRANCH   1  22
ATOM     22  O   UNL     1      -0.377  -8.119  -3.963  1.00  0.00    -0.458 OA
BRANCH  22  23
ATOM     23  C   UNL     1      -1.390  -7.239  -3.806  1.00  0.00     0.338 C 
ATOM     24  O   UNL     1      -1.944  -6.931  -2.764  1.00  0.00    -0.246 OA
BRANCH  23  25
ATOM     25  C   UNL     1      -1.707  -6.574  -5.076  1.00  0.00     0.060 A 
ATOM     26  C   UNL     1      -0.869  -5.549  -5.492  1.00  0.00     0.016 A 
ATOM     27  C   UNL     1      -2.935  -6.766  -5.700  1.00  0.00     0.016 A 
ATOM     28  C   UNL     1      -1.331  -4.591  -6.384  1.00  0.00     0.010 A 
ATOM     29  C   UNL     1      -3.322  -5.899  -6.730  1.00  0.00     0.010 A 
ATOM     30  C   UNL     1      -2.552  -4.765  -7.047  1.00  0.00    -0.014 A 
BRANCH  30  31
ATOM     31  C   UNL     1      -3.019  -3.773  -8.060  1.00  0.00     0.031 A 
ATOM     32  C   UNL     1      -4.400  -3.172  -7.958  1.00  0.00     0.074 A 
ATOM     33  C   UNL     1      -2.210  -3.409  -9.079  1.00  0.00     0.049 A 
ATOM     34  N   UNL     1      -5.085  -2.514  -8.857  1.00  0.00    -0.248 NA
ATOM     35  C   UNL     1      -5.110  -3.346  -6.679  1.00  0.00     0.031 C 
ATOM     36  C   UNL     1      -0.824  -3.846  -9.267  1.00  0.00     0.029 A 
ATOM     37  N   UNL     1      -2.437  -2.587 -10.156  1.00  0.00    -0.354 N 
ATOM     38  C   UNL     1      -6.322  -2.244  -8.279  1.00  0.00     0.074 A 
ATOM     39  C   UNL     1      -6.297  -2.818  -6.950  1.00  0.00     0.031 C 
ATOM     40  C   UNL     1      -0.313  -3.259 -10.356  1.00  0.00     0.029 A 
ATOM     41  C   UNL     1      -1.370  -2.512 -11.021  1.00  0.00     0.049 A 
ATOM     42  H   UNL     1      -3.281  -2.099 -10.295  1.00  0.00     0.167 HD
ATOM     43  C   UNL     1      -7.378  -1.583  -8.813  1.00  0.00     0.037 A 
ATOM     44  C   UNL     1      -1.262  -1.969 -12.248  1.00  0.00     0.037 A 
ATOM     45  C   UNL     1      -7.366  -0.984 -10.126  1.00  0.00     0.049 A 
ATOM     46  C   UNL     1      -2.467  -1.315 -12.855  1.00  0.00     0.074 A 
ATOM     47  C   UNL     1      -8.385  -0.306 -10.774  1.00  0.00     0.029 A 
ATOM     48  N   UNL     1      -6.275  -0.974 -10.985  1.00  0.00    -0.354 N 
ATOM     49  N   UNL     1      -3.664  -1.158 -12.341  1.00  0.00    -0.248 NA
ATOM     50  C   UNL     1      -2.315  -0.781 -14.213  1.00  0.00     0.031 C 
ATOM     51  C   UNL     1      -7.926   0.071 -12.040  1.00  0.00     0.029 A 
ATOM     52  C   UNL     1      -6.600  -0.314 -12.159  1.00  0.00     0.049 A 
ATOM     53  H   UNL     1      -5.398  -1.377 -10.788  1.00  0.00     0.167 HD
ATOM     54  C   UNL     1      -4.403  -0.482 -13.304  1.00  0.00     0.074 A 
ATOM     55  C   UNL     1      -3.512  -0.251 -14.424  1.00  0.00     0.031 C 
ATOM     56  C   UNL     1      -5.700  -0.088 -13.263  1.00  0.00     0.037 A 
BRANCH  43  57
ATOM     57  C   UNL     1      -8.648  -1.494  -8.005  1.00  0.00     0.058 A 
ATOM     58  C   UNL     1      -8.753  -0.688  -6.862  1.00  0.00     0.135 A 
ATOM     59  C   UNL     1      -9.801  -2.183  -8.422  1.00  0.00     0.135 A 
ATOM     60  F   UNL     1      -7.682  -0.021  -6.404  1.00  0.00    -0.206 F 
ATOM     61  C   UNL     1      -9.947  -0.579  -6.153  1.00  0.00     0.059 A 
ATOM     62  C   UNL     1     -11.013  -2.066  -7.747  1.00  0.00     0.059 A 
ATOM     63  F   UNL     1      -9.761  -2.971  -9.508  1.00  0.00    -0.206 F 
ATOM     64  C   UNL     1     -11.074  -1.268  -6.606  1.00  0.00     0.060 A 
BRANCH  64  65
ATOM     65  S   UNL     1     -12.619  -1.098  -5.685  1.00  0.00     0.124 S 
ATOM     66  O   UNL     1     -12.295  -1.791  -4.442  1.00  0.00    -0.237 OA
ATOM     67  O   UNL     1     -12.763   0.350  -5.585  1.00  0.00    -0.237 OA
ATOM     68  O   UNL     1     -13.599  -1.766  -6.536  1.00  0.00    -0.744 OA
ENDBRANCH  64  65
ENDBRANCH  43  57
BRANCH  44  69
ATOM     69  C   UNL     1       0.026  -2.067 -12.989  1.00  0.00     0.058 A 
ATOM     70  C   UNL     1       0.802  -0.925 -13.235  1.00  0.00     0.135 A 
ATOM     71  C   UNL     1       0.531  -3.305 -13.422  1.00  0.00     0.135 A 
ATOM     72  F   UNL     1       0.359   0.281 -12.851  1.00  0.00    -0.206 F 
ATOM     73  C   UNL     1       2.030  -1.005 -13.882  1.00  0.00     0.059 A 
ATOM     74  C   UNL     1       1.772  -3.415 -14.040  1.00  0.00     0.059 A 
ATOM     75  F   UNL     1      -0.165  -4.431 -13.200  1.00  0.00    -0.206 F 
ATOM     76  C   UNL     1       2.512  -2.257 -14.271  1.00  0.00     0.060 A 
BRANCH  76  77
ATOM     77  S   UNL     1       4.138  -2.352 -15.051  1.00  0.00     0.124 S 
ATOM     78  O   UNL     1       3.884  -1.719 -16.340  1.00  0.00    -0.237 OA
ATOM     79  O   UNL     1       4.966  -1.594 -14.118  1.00  0.00    -0.237 OA
ATOM     80  O   UNL     1       4.407  -3.786 -15.095  1.00  0.00    -0.744 OA
ENDBRANCH  76  77
ENDBRANCH  44  69
BRANCH  56  81
ATOM     81  C   UNL     1      -6.217   0.682 -14.446  1.00  0.00     0.058 A 
ATOM     82  C   UNL     1      -6.440   0.073 -15.690  1.00  0.00     0.135 A 
ATOM     83  C   UNL     1      -6.513   2.050 -14.322  1.00  0.00     0.135 A 
ATOM     84  F   UNL     1      -6.166  -1.230 -15.864  1.00  0.00    -0.206 F 
ATOM     85  C   UNL     1      -6.903   0.800 -16.781  1.00  0.00     0.059 A 
ATOM     86  C   UNL     1      -7.009   2.789 -15.390  1.00  0.00     0.059 A 
ATOM     87  F   UNL     1      -6.329   2.679 -13.150  1.00  0.00    -0.206 F 
ATOM     88  C   UNL     1      -7.184   2.159 -16.621  1.00  0.00     0.060 A 
BRANCH  88  89
ATOM     89  S   UNL     1      -7.787   3.088 -18.045  1.00  0.00     0.124 S 
ATOM     90  O   UNL     1      -6.593   3.150 -18.882  1.00  0.00    -0.237 OA
ATOM     91  O   UNL     1      -8.864   2.236 -18.538  1.00  0.00    -0.237 OA
ATOM     92  O   UNL     1      -8.214   4.359 -17.467  1.00  0.00    -0.744 OA
ENDBRANCH  88  89
ENDBRANCH  56  81
ENDBRANCH  30  31
ENDBRANCH  23  25
ENDBRANCH  22  23
ENDBRANCH   1  22
TORSDOF 15
