REMARK SMILES C[C@@H]1CCCN(C(=O)CSc2nnc3c4ccccc4n(CC(=O)OCCOC(=O)c4ccc(-c5c6nc(c(-c7c(F)cc(S(=O)(=O)[O-])cc7F)c7ccc([nH]7)c(-c7c(F)cc(S(=O)(=O)[O-])cc7F)c7nc(c(-c8c(F)cc(S(=O)(=O)[O-])cc8F)c8ccc5[nH]8)C=C7)C=C6)cc4)c3n2)C1
REMARK SMILES IDX 26 1 25 2 23 3 24 4 22 5 21 6 11 7 12 8 98 9 13 10 97 11
REMARK SMILES IDX 14 12 15 13 20 14 16 15 19 16 17 17 18 18 10 19 9 20 7 21
REMARK SMILES IDX 8 22 6 23 1 24 2 25 3 26 99 27 4 28 5 29 27 30 28 31 29 32
REMARK SMILES IDX 30 33 31 34 32 35 96 36 33 37 95 38 34 39 35 40 36 41 89 42
REMARK SMILES IDX 37 43 94 44 88 45 90 46 38 47 93 48 87 49 86 50 39 52 73 53
REMARK SMILES IDX 52 54 72 55 53 56 56 57 71 58 91 59 54 60 55 61 70 63 92 64
REMARK SMILES IDX 57 65 40 66 41 67 50 68 42 69 43 70 49 71 51 72 44 73 45 74
REMARK SMILES IDX 46 75 47 76 48 77 74 78 75 79 84 80 76 81 77 82 83 83 85 84
REMARK SMILES IDX 78 85 79 86 80 87 81 88 82 89 58 90 59 91 68 92 60 93 61 94
REMARK SMILES IDX 67 95 69 96 62 97 63 98 64 99 65 100 66 101
REMARK H PARENT 90 51 56 62
REMARK Flexibility Score: inf
ROOT
ATOM      1  C   UNL     1       6.293   3.876   7.153  1.00  0.00     0.274 C 
ENDROOT
BRANCH   1   2
ATOM      2  O   UNL     1       5.432   4.267   6.055  1.00  0.00    -0.461 OA
BRANCH   2   3
ATOM      3  C   UNL     1       4.495   3.359   5.682  1.00  0.00     0.326 C 
ATOM      4  O   UNL     1       4.329   2.279   6.243  1.00  0.00    -0.250 OA
BRANCH   3   5
ATOM      5  C   UNL     1       3.617   3.776   4.535  1.00  0.00     0.246 C 
BRANCH   5   6
ATOM      6  N   UNL     1       4.005   4.931   3.734  1.00  0.00    -0.313 N 
ATOM      7  C   UNL     1       4.682   3.840   0.438  1.00  0.00     0.211 A 
ATOM      8  N   UNL     1       4.823   5.047  -0.170  1.00  0.00    -0.122 NA
ATOM      9  N   UNL     1       4.432   3.632   1.742  1.00  0.00    -0.201 NA
ATOM     10  N   UNL     1       4.679   6.185   0.522  1.00  0.00    -0.144 NA
ATOM     11  C   UNL     1       4.296   4.794   2.401  1.00  0.00     0.165 A 
ATOM     12  C   UNL     1       4.401   6.052   1.843  1.00  0.00     0.138 A 
ATOM     13  C   UNL     1       4.148   7.001   2.864  1.00  0.00     0.030 A 
ATOM     14  C   UNL     1       3.871   6.280   4.038  1.00  0.00     0.053 A 
ATOM     15  C   UNL     1       4.110   8.413   2.896  1.00  0.00     0.013 A 
ATOM     16  C   UNL     1       3.535   6.957   5.221  1.00  0.00     0.027 A 
ATOM     17  C   UNL     1       3.745   9.077   4.070  1.00  0.00     0.001 A 
ATOM     18  C   UNL     1       3.444   8.353   5.213  1.00  0.00     0.002 A 
BRANCH   7  19
ATOM     19  S   UNL     1       5.030   2.372  -0.493  1.00  0.00    -0.074 SA
BRANCH  19  20
ATOM     20  C   UNL     1       3.587   2.339  -1.584  1.00  0.00     0.178 C 
BRANCH  20  21
ATOM     21  C   UNL     1       2.269   2.621  -0.888  1.00  0.00     0.233 C 
ATOM     22  O   UNL     1       1.755   3.736  -1.023  1.00  0.00    -0.274 OA
BRANCH  21  23
ATOM     23  N   UNL     1       1.647   1.609  -0.178  1.00  0.00    -0.342 N 
ATOM     24  C   UNL     1      -2.088   1.048  -0.376  1.00  0.00     0.009 C 
ATOM     25  C   UNL     1      -0.604   0.828  -0.640  1.00  0.00     0.005 C 
ATOM     26  C   UNL     1      -0.147  -0.615  -0.365  1.00  0.00     0.007 C 
ATOM     27  C   UNL     1       0.246   1.783   0.205  1.00  0.00     0.122 C 
ATOM     28  C   UNL     1       1.347  -0.789  -0.645  1.00  0.00     0.022 C 
ATOM     29  C   UNL     1       2.174   0.268   0.084  1.00  0.00     0.119 C 
ENDBRANCH  21  23
ENDBRANCH  20  21
ENDBRANCH  19  20
ENDBRANCH   7  19
ENDBRANCH   5   6
ENDBRANCH   3   5
ENDBRANCH   2   3
ENDBRANCH   1   2
BRANCH   1  30
ATOM     30  C   UNL     1       5.977   4.689   8.412  1.00  0.00     0.275 C 
BRANCH  30  31
ATOM     31  O   UNL     1       4.733   4.230   8.964  1.00  0.00    -0.458 OA
BRANCH  31  32
ATOM     32  C   UNL     1       3.665   5.050   8.821  1.00  0.00     0.338 C 
ATOM     33  O   UNL     1       3.676   6.254   8.626  1.00  0.00    -0.246 OA
BRANCH  32  34
ATOM     34  C   UNL     1       2.518   4.166   8.544  1.00  0.00     0.060 A 
ATOM     35  C   UNL     1       2.283   3.008   9.283  1.00  0.00     0.016 A 
ATOM     36  C   UNL     1       1.815   4.406   7.362  1.00  0.00     0.016 A 
ATOM     37  C   UNL     1       1.433   2.039   8.755  1.00  0.00     0.010 A 
ATOM     38  C   UNL     1       1.039   3.410   6.799  1.00  0.00     0.010 A 
ATOM     39  C   UNL     1       0.879   2.211   7.476  1.00  0.00    -0.014 A 
BRANCH  39  40
ATOM     40  C   UNL     1      -0.134   1.284   7.001  1.00  0.00     0.031 A 
ATOM     41  C   UNL     1      -1.472   1.607   7.553  1.00  0.00     0.074 A 
ATOM     42  C   UNL     1      -0.043   0.324   6.062  1.00  0.00     0.049 A 
ATOM     43  N   UNL     1      -2.044   1.058   8.569  1.00  0.00    -0.248 NA
ATOM     44  C   UNL     1      -2.175   2.784   7.022  1.00  0.00     0.031 C 
ATOM     45  C   UNL     1       1.000   0.044   5.078  1.00  0.00     0.029 A 
ATOM     46  N   UNL     1      -0.978  -0.637   5.805  1.00  0.00    -0.354 N 
ATOM     47  C   UNL     1      -3.275   1.686   8.691  1.00  0.00     0.074 A 
ATOM     48  C   UNL     1      -3.223   2.848   7.843  1.00  0.00     0.031 C 
ATOM     49  C   UNL     1       0.569  -0.932   4.233  1.00  0.00     0.029 A 
ATOM     50  C   UNL     1      -0.696  -1.460   4.728  1.00  0.00     0.049 A 
ATOM     51  H   UNL     1      -1.794  -0.738   6.347  1.00  0.00     0.167 HD
ATOM     52  C   UNL     1      -4.316   1.083   9.325  1.00  0.00     0.037 A 
ATOM     53  C   UNL     1      -1.454  -2.505   4.301  1.00  0.00     0.037 A 
ATOM     54  C   UNL     1      -3.870  -0.039  10.117  1.00  0.00     0.049 A 
ATOM     55  C   UNL     1      -2.365  -2.902   5.397  1.00  0.00     0.074 A 
ATOM     56  C   UNL     1      -2.968  -0.193  11.155  1.00  0.00     0.029 A 
ATOM     57  N   UNL     1      -4.068  -1.304   9.616  1.00  0.00    -0.354 N 
ATOM     58  N   UNL     1      -1.976  -3.498   6.487  1.00  0.00    -0.248 NA
ATOM     59  C   UNL     1      -3.678  -2.276   5.459  1.00  0.00     0.031 C 
ATOM     60  C   UNL     1      -2.311  -1.434  10.899  1.00  0.00     0.029 A 
ATOM     61  C   UNL     1      -2.879  -1.979   9.748  1.00  0.00     0.049 A 
ATOM     62  H   UNL     1      -4.904  -1.659   9.235  1.00  0.00     0.167 HD
ATOM     63  C   UNL     1      -2.791  -2.982   7.482  1.00  0.00     0.074 A 
ATOM     64  C   UNL     1      -3.878  -2.312   6.777  1.00  0.00     0.031 C 
ATOM     65  C   UNL     1      -2.368  -2.918   8.776  1.00  0.00     0.037 A 
BRANCH  52  66
ATOM     66  C   UNL     1      -5.762   1.310   8.969  1.00  0.00     0.058 A 
ATOM     67  C   UNL     1      -6.767   0.795   9.811  1.00  0.00     0.135 A 
ATOM     68  C   UNL     1      -6.201   1.784   7.712  1.00  0.00     0.135 A 
ATOM     69  F   UNL     1      -6.461   0.308  11.024  1.00  0.00    -0.206 F 
ATOM     70  C   UNL     1      -8.097   0.693   9.406  1.00  0.00     0.059 A 
ATOM     71  C   UNL     1      -7.531   1.748   7.312  1.00  0.00     0.059 A 
ATOM     72  F   UNL     1      -5.352   2.210   6.769  1.00  0.00    -0.206 F 
ATOM     73  C   UNL     1      -8.464   1.157   8.146  1.00  0.00     0.060 A 
BRANCH  73  74
ATOM     74  S   UNL     1     -10.150   0.905   7.569  1.00  0.00     0.124 S 
ATOM     75  O   UNL     1     -10.174  -0.540   7.373  1.00  0.00    -0.237 OA
ATOM     76  O   UNL     1     -10.934   1.414   8.690  1.00  0.00    -0.237 OA
ATOM     77  O   UNL     1     -10.211   1.710   6.352  1.00  0.00    -0.744 OA
ENDBRANCH  73  74
ENDBRANCH  52  66
BRANCH  53  78
ATOM     78  C   UNL     1      -1.782  -2.871   2.912  1.00  0.00     0.058 A 
ATOM     79  C   UNL     1      -1.853  -4.190   2.444  1.00  0.00     0.135 A 
ATOM     80  C   UNL     1      -2.339  -1.878   2.093  1.00  0.00     0.135 A 
ATOM     81  F   UNL     1      -1.442  -5.202   3.221  1.00  0.00    -0.206 F 
ATOM     82  C   UNL     1      -2.380  -4.499   1.182  1.00  0.00     0.059 A 
ATOM     83  C   UNL     1      -2.898  -2.165   0.853  1.00  0.00     0.059 A 
ATOM     84  F   UNL     1      -2.380  -0.606   2.517  1.00  0.00    -0.206 F 
ATOM     85  C   UNL     1      -2.892  -3.473   0.388  1.00  0.00     0.060 A 
BRANCH  85  86
ATOM     86  S   UNL     1      -3.487  -3.780  -1.291  1.00  0.00     0.124 S 
ATOM     87  O   UNL     1      -2.853  -5.047  -1.640  1.00  0.00    -0.237 OA
ATOM     88  O   UNL     1      -4.931  -3.822  -1.095  1.00  0.00    -0.237 OA
ATOM     89  O   UNL     1      -2.980  -2.619  -2.019  1.00  0.00    -0.744 OA
ENDBRANCH  85  86
ENDBRANCH  53  78
BRANCH  65  90
ATOM     90  C   UNL     1      -1.130  -3.689   9.148  1.00  0.00     0.058 A 
ATOM     91  C   UNL     1       0.160  -3.392   8.672  1.00  0.00     0.135 A 
ATOM     92  C   UNL     1      -1.238  -4.675  10.138  1.00  0.00     0.135 A 
ATOM     93  F   UNL     1       0.356  -2.406   7.784  1.00  0.00    -0.206 F 
ATOM     94  C   UNL     1       1.290  -4.059   9.150  1.00  0.00     0.059 A 
ATOM     95  C   UNL     1      -0.123  -5.334  10.648  1.00  0.00     0.059 A 
ATOM     96  F   UNL     1      -2.440  -4.972  10.662  1.00  0.00    -0.206 F 
ATOM     97  C   UNL     1       1.139  -5.021  10.148  1.00  0.00     0.060 A 
BRANCH  97  98
ATOM     98  S   UNL     1       2.612  -5.790  10.858  1.00  0.00     0.124 S 
ATOM     99  O   UNL     1       3.071  -6.645   9.770  1.00  0.00    -0.237 OA
ATOM    100  O   UNL     1       3.456  -4.636  11.158  1.00  0.00    -0.237 OA
ATOM    101  O   UNL     1       2.099  -6.494  12.031  1.00  0.00    -0.744 OA
ENDBRANCH  97  98
ENDBRANCH  65  90
ENDBRANCH  39  40
ENDBRANCH  32  34
ENDBRANCH  31  32
ENDBRANCH  30  31
ENDBRANCH   1  30
TORSDOF 19
