REMARK SMILES COc1ccc(COc2cncc(C(=O)OCCOC(=O)c3ccc(-c4c5nc(c(-c6c(F)cc(S(=O)(=O)[O-])cc6F)c6ccc([nH]6)c(-c6c(F)cc(S(=O)(=O)[O-])cc6F)c6nc(c(-c7c(F)cc(S(=O)(=O)[O-])cc7F)c7ccc4[nH]7)C=C6)C=C5)cc3)n2)cc1
REMARK SMILES IDX 17 1 16 2 14 3 15 4 13 5 9 6 10 7 88 8 11 9 12 10 8 11 7 12
REMARK SMILES IDX 6 13 3 14 4 15 90 16 5 17 89 18 2 19 1 20 18 21 19 22 20 23
REMARK SMILES IDX 21 24 22 25 23 26 87 27 24 28 86 29 25 30 26 31 27 32 80 33
REMARK SMILES IDX 28 34 85 35 79 36 81 37 29 38 84 39 78 40 77 41 30 43 64 44
REMARK SMILES IDX 43 45 63 46 44 47 47 48 62 49 82 50 45 51 46 52 61 54 83 55
REMARK SMILES IDX 48 56 31 57 32 58 41 59 33 60 34 61 40 62 42 63 35 64 36 65
REMARK SMILES IDX 37 66 38 67 39 68 65 69 66 70 75 71 67 72 68 73 74 74 76 75
REMARK SMILES IDX 69 76 70 77 71 78 72 79 73 80 49 81 50 82 59 83 51 84 52 85
REMARK SMILES IDX 58 86 60 87 53 88 54 89 55 90 56 91 57 92
REMARK H PARENT 81 42 47 53
REMARK Flexibility Score: inf
ROOT
ATOM      1  C   UNL     1       4.178 -11.865  -2.467  1.00  0.00     0.275 C 
ENDROOT
BRANCH   1   2
ATOM      2  O   UNL     1       3.592 -10.548  -2.440  1.00  0.00    -0.457 OA
BRANCH   2   3
ATOM      3  C   UNL     1       2.986 -10.225  -1.267  1.00  0.00     0.358 C 
ATOM      4  O   UNL     1       2.906 -10.947  -0.287  1.00  0.00    -0.244 OA
BRANCH   3   5
ATOM      5  C   UNL     1       2.481  -8.830  -1.249  1.00  0.00     0.170 A 
ATOM      6  C   UNL     1       1.653  -6.938  -2.235  1.00  0.00     0.233 A 
ATOM      7  C   UNL     1       1.516  -6.363  -0.970  1.00  0.00     0.179 A 
ATOM      8  N   UNL     1       2.150  -8.189  -2.405  1.00  0.00    -0.203 NA
ATOM      9  N   UNL     1       1.869  -6.991   0.173  1.00  0.00    -0.257 NA
ATOM     10  C   UNL     1       2.325  -8.248   0.005  1.00  0.00     0.147 A 
BRANCH   6  11
ATOM     11  O   UNL     1       1.070  -6.376  -3.345  1.00  0.00    -0.472 OA
BRANCH  11  12
ATOM     12  C   UNL     1       1.697  -5.162  -3.784  1.00  0.00     0.267 C 
BRANCH  12  13
ATOM     13  C   UNL     1       1.318  -3.959  -2.949  1.00  0.00    -0.010 A 
ATOM     14  C   UNL     1       0.671  -1.909  -1.132  1.00  0.00     0.118 A 
ATOM     15  C   UNL     1      -0.331  -2.718  -1.673  1.00  0.00     0.047 A 
ATOM     16  C   UNL     1       1.994  -2.104  -1.526  1.00  0.00     0.047 A 
ATOM     17  C   UNL     1      -0.018  -3.719  -2.596  1.00  0.00     0.011 A 
ATOM     18  C   UNL     1       2.316  -3.120  -2.433  1.00  0.00     0.011 A 
BRANCH  14  19
ATOM     19  O   UNL     1       0.240  -1.006  -0.201  1.00  0.00    -0.497 OA
ATOM     20  C   UNL     1       1.090   0.110   0.034  1.00  0.00     0.278 C 
ENDBRANCH  14  19
ENDBRANCH  12  13
ENDBRANCH  11  12
ENDBRANCH   6  11
ENDBRANCH   3   5
ENDBRANCH   2   3
ENDBRANCH   1   2
BRANCH   1  21
ATOM     21  C   UNL     1       5.678 -11.819  -2.175  1.00  0.00     0.275 C 
BRANCH  21  22
ATOM     22  O   UNL     1       5.922 -11.258  -0.871  1.00  0.00    -0.458 OA
BRANCH  22  23
ATOM     23  C   UNL     1       6.783 -10.216  -0.838  1.00  0.00     0.338 C 
ATOM     24  O   UNL     1       7.398  -9.736  -1.782  1.00  0.00    -0.246 OA
BRANCH  23  25
ATOM     25  C   UNL     1       6.886  -9.665   0.523  1.00  0.00     0.060 A 
ATOM     26  C   UNL     1       5.770  -9.066   1.101  1.00  0.00     0.016 A 
ATOM     27  C   UNL     1       8.130  -9.561   1.144  1.00  0.00     0.016 A 
ATOM     28  C   UNL     1       5.909  -8.268   2.238  1.00  0.00     0.010 A 
ATOM     29  C   UNL     1       8.252  -8.832   2.335  1.00  0.00     0.010 A 
ATOM     30  C   UNL     1       7.157  -8.123   2.864  1.00  0.00    -0.014 A 
BRANCH  30  31
ATOM     31  C   UNL     1       7.333  -7.148   3.986  1.00  0.00     0.031 A 
ATOM     32  C   UNL     1       8.326  -6.013   3.857  1.00  0.00     0.074 A 
ATOM     33  C   UNL     1       6.584  -7.230   5.106  1.00  0.00     0.049 A 
ATOM     34  N   UNL     1       8.724  -5.150   4.758  1.00  0.00    -0.248 NA
ATOM     35  C   UNL     1       8.973  -5.839   2.546  1.00  0.00     0.031 C 
ATOM     36  C   UNL     1       5.565  -8.246   5.374  1.00  0.00     0.029 A 
ATOM     37  N   UNL     1       6.553  -6.431   6.224  1.00  0.00    -0.354 N 
ATOM     38  C   UNL     1       9.713  -4.384   4.148  1.00  0.00     0.074 A 
ATOM     39  C   UNL     1       9.855  -4.883   2.798  1.00  0.00     0.031 C 
ATOM     40  C   UNL     1       4.977  -7.981   6.552  1.00  0.00     0.029 A 
ATOM     41  C   UNL     1       5.624  -6.822   7.160  1.00  0.00     0.049 A 
ATOM     42  H   UNL     1       7.142  -5.651   6.345  1.00  0.00     0.167 HD
ATOM     43  C   UNL     1      10.434  -3.357   4.661  1.00  0.00     0.037 A 
ATOM     44  C   UNL     1       5.338  -6.327   8.380  1.00  0.00     0.037 A 
ATOM     45  C   UNL     1      10.233  -2.793   5.971  1.00  0.00     0.049 A 
ATOM     46  C   UNL     1       6.116  -5.153   8.908  1.00  0.00     0.074 A 
ATOM     47  C   UNL     1      10.902  -1.736   6.566  1.00  0.00     0.029 A 
ATOM     48  N   UNL     1       9.273  -3.215   6.877  1.00  0.00    -0.354 N 
ATOM     49  N   UNL     1       7.092  -4.488   8.340  1.00  0.00    -0.248 NA
ATOM     50  C   UNL     1       5.761  -4.671  10.251  1.00  0.00     0.031 C 
ATOM     51  C   UNL     1      10.358  -1.530   7.839  1.00  0.00     0.029 A 
ATOM     52  C   UNL     1       9.328  -2.437   8.023  1.00  0.00     0.049 A 
ATOM     53  H   UNL     1       8.645  -3.958   6.729  1.00  0.00     0.167 HD
ATOM     54  C   UNL     1       7.465  -3.508   9.253  1.00  0.00     0.074 A 
ATOM     55  C   UNL     1       6.591  -3.648  10.399  1.00  0.00     0.031 C 
ATOM     56  C   UNL     1       8.452  -2.583   9.156  1.00  0.00     0.037 A 
BRANCH  43  57
ATOM     57  C   UNL     1      11.535  -2.783   3.811  1.00  0.00     0.058 A 
ATOM     58  C   UNL     1      11.275  -1.957   2.707  1.00  0.00     0.135 A 
ATOM     59  C   UNL     1      12.879  -3.033   4.139  1.00  0.00     0.135 A 
ATOM     60  F   UNL     1      10.009  -1.699   2.340  1.00  0.00    -0.206 F 
ATOM     61  C   UNL     1      12.306  -1.418   1.944  1.00  0.00     0.059 A 
ATOM     62  C   UNL     1      13.926  -2.484   3.404  1.00  0.00     0.059 A 
ATOM     63  F   UNL     1      13.185  -3.814   5.186  1.00  0.00    -0.206 F 
ATOM     64  C   UNL     1      13.629  -1.688   2.299  1.00  0.00     0.060 A 
BRANCH  64  65
ATOM     65  S   UNL     1      14.959  -0.974   1.308  1.00  0.00     0.124 S 
ATOM     66  O   UNL     1      14.937  -1.836   0.130  1.00  0.00    -0.237 OA
ATOM     67  O   UNL     1      14.496   0.394   1.100  1.00  0.00    -0.237 OA
ATOM     68  O   UNL     1      16.132  -1.111   2.165  1.00  0.00    -0.744 OA
ENDBRANCH  64  65
ENDBRANCH  43  57
BRANCH  44  69
ATOM     69  C   UNL     1       4.277  -6.962   9.209  1.00  0.00     0.058 A 
ATOM     70  C   UNL     1       3.064  -6.306   9.463  1.00  0.00     0.135 A 
ATOM     71  C   UNL     1       4.459  -8.239   9.763  1.00  0.00     0.135 A 
ATOM     72  F   UNL     1       2.849  -5.078   8.967  1.00  0.00    -0.206 F 
ATOM     73  C   UNL     1       2.072  -6.887  10.247  1.00  0.00     0.059 A 
ATOM     74  C   UNL     1       3.472  -8.851  10.527  1.00  0.00     0.059 A 
ATOM     75  F   UNL     1       5.599  -8.912   9.541  1.00  0.00    -0.206 F 
ATOM     76  C   UNL     1       2.286  -8.162  10.774  1.00  0.00     0.060 A 
BRANCH  76  77
ATOM     77  S   UNL     1       0.977  -8.937  11.748  1.00  0.00     0.124 S 
ATOM     78  O   UNL     1       1.149  -8.285  13.040  1.00  0.00    -0.237 OA
ATOM     79  O   UNL     1      -0.224  -8.572  11.003  1.00  0.00    -0.237 OA
ATOM     80  O   UNL     1       1.325 -10.354  11.701  1.00  0.00    -0.744 OA
ENDBRANCH  76  77
ENDBRANCH  44  69
BRANCH  56  81
ATOM     81  C   UNL     1       8.615  -1.634  10.310  1.00  0.00     0.058 A 
ATOM     82  C   UNL     1       9.181  -2.047  11.527  1.00  0.00     0.135 A 
ATOM     83  C   UNL     1       8.204  -0.297  10.197  1.00  0.00     0.135 A 
ATOM     84  F   UNL     1       9.586  -3.317  11.686  1.00  0.00    -0.206 F 
ATOM     85  C   UNL     1       9.298  -1.177  12.606  1.00  0.00     0.059 A 
ATOM     86  C   UNL     1       8.332   0.597  11.256  1.00  0.00     0.059 A 
ATOM     87  F   UNL     1       7.668   0.152   9.051  1.00  0.00    -0.206 F 
ATOM     88  C   UNL     1       8.862   0.142  12.463  1.00  0.00     0.060 A 
BRANCH  88  89
ATOM     89  S   UNL     1       9.007   1.265  13.870  1.00  0.00     0.124 S 
ATOM     90  O   UNL     1       7.861   0.868  14.681  1.00  0.00    -0.237 OA
ATOM     91  O   UNL     1      10.318   0.924  14.415  1.00  0.00    -0.237 OA
ATOM     92  O   UNL     1       8.917   2.587  13.257  1.00  0.00    -0.744 OA
ENDBRANCH  88  89
ENDBRANCH  56  81
ENDBRANCH  30  31
ENDBRANCH  23  25
ENDBRANCH  22  23
ENDBRANCH  21  22
ENDBRANCH   1  21
TORSDOF 18
