REMARK SMILES CCOc1cc2nccc(Nc3ccc(C(=O)OCCOC(=O)c4ccc(-c5c6nc(c(-c7c(F)cc(S(=O)(=O)[O-])cc7F)c7ccc([nH]7)c(-c7c(F)cc(S(=O)(=O)[O-])cc7F)c7nc(c(-c8c(F)cc(S(=O)(=O)[O-])cc8F)c8ccc5[nH]8)C=C7)C=C6)cc4)cc3)c2cc1OCC
REMARK SMILES IDX 19 1 18 2 16 3 17 4 15 5 12 6 13 7 91 8 14 9 90 10 11 11
REMARK SMILES IDX 10 13 4 14 5 15 94 16 6 17 93 18 7 19 92 20 8 21 9 22 3 23
REMARK SMILES IDX 2 24 1 25 95 26 96 27 97 28 20 29 21 30 22 31 23 32 24 33
REMARK SMILES IDX 25 34 89 35 26 36 88 37 27 38 28 39 29 40 82 41 30 42 87 43
REMARK SMILES IDX 81 44 83 45 31 46 86 47 80 48 79 49 32 51 66 52 45 53 65 54
REMARK SMILES IDX 46 55 49 56 64 57 84 58 47 59 48 60 63 62 85 63 50 64 33 65
REMARK SMILES IDX 34 66 43 67 35 68 36 69 42 70 44 71 37 72 38 73 39 74 40 75
REMARK SMILES IDX 41 76 67 77 68 78 77 79 69 80 70 81 76 82 78 83 71 84 72 85
REMARK SMILES IDX 73 86 74 87 75 88 51 89 52 90 61 91 53 92 54 93 60 94 62 95
REMARK SMILES IDX 55 96 56 97 57 98 58 99 59 100
REMARK H PARENT 11 12 83 50 49 61
REMARK Flexibility Score: inf
ROOT
ATOM      1  C   UNL     1      14.907   0.084   3.869  1.00  0.00     0.275 C 
ENDROOT
BRANCH   1   2
ATOM      2  O   UNL     1      13.529  -0.145   3.510  1.00  0.00    -0.458 OA
BRANCH   2   3
ATOM      3  C   UNL     1      12.688   0.864   3.829  1.00  0.00     0.338 C 
ATOM      4  O   UNL     1      12.981   1.900   4.410  1.00  0.00    -0.246 OA
BRANCH   3   5
ATOM      5  C   UNL     1      11.320   0.611   3.339  1.00  0.00     0.060 A 
ATOM      6  C   UNL     1       8.596   0.393   2.743  1.00  0.00     0.038 A 
ATOM      7  C   UNL     1       9.290   1.556   2.424  1.00  0.00     0.027 A 
ATOM      8  C   UNL     1       9.289  -0.689   3.300  1.00  0.00     0.027 A 
ATOM      9  C   UNL     1      10.628   1.673   2.753  1.00  0.00     0.018 A 
ATOM     10  C   UNL     1      10.658  -0.594   3.579  1.00  0.00     0.018 A 
BRANCH   6  11
ATOM     11  N   UNL     1       7.205   0.430   2.601  1.00  0.00    -0.355 N 
ATOM     12  H   UNL     1       6.893   0.653   1.695  1.00  0.00     0.167 HD
BRANCH  11  13
ATOM     13  C   UNL     1       6.169   0.202   3.538  1.00  0.00     0.050 A 
ATOM     14  C   UNL     1       2.128   0.506   2.317  1.00  0.00     0.163 A 
ATOM     15  C   UNL     1       2.462   0.146   3.632  1.00  0.00     0.079 A 
ATOM     16  C   UNL     1       3.147   0.734   1.397  1.00  0.00     0.161 A 
ATOM     17  C   UNL     1       3.791   0.031   4.054  1.00  0.00     0.076 A 
ATOM     18  C   UNL     1       4.468   0.604   1.797  1.00  0.00     0.063 A 
ATOM     19  N   UNL     1       4.065  -0.273   5.337  1.00  0.00    -0.256 NA
ATOM     20  C   UNL     1       4.818   0.270   3.115  1.00  0.00     0.028 A 
ATOM     21  C   UNL     1       5.362  -0.314   5.718  1.00  0.00     0.114 A 
ATOM     22  C   UNL     1       6.431  -0.098   4.871  1.00  0.00     0.047 A 
BRANCH  14  23
ATOM     23  O   UNL     1       0.840   0.791   1.961  1.00  0.00    -0.490 OA
BRANCH  23  24
ATOM     24  C   UNL     1      -0.055  -0.324   2.002  1.00  0.00     0.226 C 
ATOM     25  C   UNL     1      -1.048  -0.157   0.857  1.00  0.00     0.049 C 
ENDBRANCH  23  24
ENDBRANCH  14  23
BRANCH  16  26
ATOM     26  O   UNL     1       3.028   1.125   0.095  1.00  0.00    -0.490 OA
BRANCH  26  27
ATOM     27  C   UNL     1       2.101   0.409  -0.712  1.00  0.00     0.226 C 
ATOM     28  C   UNL     1       2.271  -1.106  -0.672  1.00  0.00     0.049 C 
ENDBRANCH  26  27
ENDBRANCH  16  26
ENDBRANCH  11  13
ENDBRANCH   6  11
ENDBRANCH   3   5
ENDBRANCH   2   3
ENDBRANCH   1   2
BRANCH   1  29
ATOM     29  C   UNL     1      15.735   0.533   2.663  1.00  0.00     0.275 C 
BRANCH  29  30
ATOM     30  O   UNL     1      15.345   1.849   2.226  1.00  0.00    -0.458 OA
BRANCH  30  31
ATOM     31  C   UNL     1      14.622   1.885   1.082  1.00  0.00     0.338 C 
ATOM     32  O   UNL     1      14.295   0.941   0.385  1.00  0.00    -0.246 OA
BRANCH  31  33
ATOM     33  C   UNL     1      14.181   3.260   0.797  1.00  0.00     0.060 A 
ATOM     34  C   UNL     1      13.169   3.791   1.581  1.00  0.00     0.016 A 
ATOM     35  C   UNL     1      14.603   3.942  -0.340  1.00  0.00     0.016 A 
ATOM     36  C   UNL     1      12.455   4.903   1.149  1.00  0.00     0.010 A 
ATOM     37  C   UNL     1      14.005   5.168  -0.671  1.00  0.00     0.010 A 
ATOM     38  C   UNL     1      12.896   5.651   0.050  1.00  0.00    -0.014 A 
BRANCH  38  39
ATOM     39  C   UNL     1      12.228   6.946  -0.289  1.00  0.00     0.031 A 
ATOM     40  C   UNL     1      11.734   7.227  -1.688  1.00  0.00     0.074 A 
ATOM     41  C   UNL     1      12.068   7.883   0.673  1.00  0.00     0.049 A 
ATOM     42  N   UNL     1      11.301   8.353  -2.198  1.00  0.00    -0.248 NA
ATOM     43  C   UNL     1      11.736   6.106  -2.642  1.00  0.00     0.031 C 
ATOM     44  C   UNL     1      12.468   7.739   2.078  1.00  0.00     0.029 A 
ATOM     45  N   UNL     1      11.524   9.145   0.626  1.00  0.00    -0.354 N 
ATOM     46  C   UNL     1      11.034   8.093  -3.539  1.00  0.00     0.074 A 
ATOM     47  C   UNL     1      11.354   6.700  -3.766  1.00  0.00     0.031 C 
ATOM     48  C   UNL     1      12.110   8.832   2.762  1.00  0.00     0.029 A 
ATOM     49  C   UNL     1      11.578   9.813   1.830  1.00  0.00     0.049 A 
ATOM     50  H   UNL     1      11.133   9.534  -0.189  1.00  0.00     0.167 HD
ATOM     51  C   UNL     1      10.570   8.941  -4.489  1.00  0.00     0.037 A 
ATOM     52  C   UNL     1      11.302  11.091   2.150  1.00  0.00     0.037 A 
ATOM     53  C   UNL     1      10.210  10.316  -4.236  1.00  0.00     0.049 A 
ATOM     54  C   UNL     1      10.848  12.024   1.065  1.00  0.00     0.074 A 
ATOM     55  C   UNL     1       9.698  11.247  -5.125  1.00  0.00     0.029 A 
ATOM     56  N   UNL     1      10.320  10.957  -3.010  1.00  0.00    -0.354 N 
ATOM     57  N   UNL     1      10.624  11.765  -0.200  1.00  0.00    -0.248 NA
ATOM     58  C   UNL     1      10.632  13.425   1.444  1.00  0.00     0.031 C 
ATOM     59  C   UNL     1       9.555  12.464  -4.452  1.00  0.00     0.029 A 
ATOM     60  C   UNL     1       9.918  12.278  -3.128  1.00  0.00     0.049 A 
ATOM     61  H   UNL     1      10.636  10.535  -2.179  1.00  0.00     0.167 HD
ATOM     62  C   UNL     1      10.225  12.969  -0.766  1.00  0.00     0.074 A 
ATOM     63  C   UNL     1      10.212  13.948   0.301  1.00  0.00     0.031 C 
ATOM     64  C   UNL     1       9.907  13.241  -2.055  1.00  0.00     0.037 A 
BRANCH  51  65
ATOM     65  C   UNL     1      10.449   8.439  -5.905  1.00  0.00     0.058 A 
ATOM     66  C   UNL     1       9.450   7.536  -6.299  1.00  0.00     0.135 A 
ATOM     67  C   UNL     1      11.301   8.943  -6.904  1.00  0.00     0.135 A 
ATOM     68  F   UNL     1       8.617   7.010  -5.387  1.00  0.00    -0.206 F 
ATOM     69  C   UNL     1       9.304   7.145  -7.628  1.00  0.00     0.059 A 
ATOM     70  C   UNL     1      11.157   8.587  -8.242  1.00  0.00     0.059 A 
ATOM     71  F   UNL     1      12.276   9.809  -6.586  1.00  0.00    -0.206 F 
ATOM     72  C   UNL     1      10.158   7.681  -8.594  1.00  0.00     0.060 A 
BRANCH  72  73
ATOM     73  S   UNL     1       9.931   7.192 -10.318  1.00  0.00     0.124 S 
ATOM     74  O   UNL     1      10.374   5.801 -10.287  1.00  0.00    -0.237 OA
ATOM     75  O   UNL     1       8.499   7.396 -10.512  1.00  0.00    -0.237 OA
ATOM     76  O   UNL     1      10.797   8.109 -11.052  1.00  0.00    -0.744 OA
ENDBRANCH  72  73
ENDBRANCH  51  65
BRANCH  52  77
ATOM     77  C   UNL     1      11.519  11.581   3.541  1.00  0.00     0.058 A 
ATOM     78  C   UNL     1      10.446  12.010   4.335  1.00  0.00     0.135 A 
ATOM     79  C   UNL     1      12.806  11.634   4.103  1.00  0.00     0.135 A 
ATOM     80  F   UNL     1       9.198  11.989   3.843  1.00  0.00    -0.206 F 
ATOM     81  C   UNL     1      10.642  12.497   5.624  1.00  0.00     0.059 A 
ATOM     82  C   UNL     1      13.023  12.079   5.402  1.00  0.00     0.059 A 
ATOM     83  F   UNL     1      13.870  11.223   3.393  1.00  0.00    -0.206 F 
ATOM     84  C   UNL     1      11.935  12.527   6.148  1.00  0.00     0.060 A 
BRANCH  84  85
ATOM     85  S   UNL     1      12.177  13.142   7.828  1.00  0.00     0.124 S 
ATOM     86  O   UNL     1      11.968  14.574   7.648  1.00  0.00    -0.237 OA
ATOM     87  O   UNL     1      11.138  12.432   8.568  1.00  0.00    -0.237 OA
ATOM     88  O   UNL     1      13.545  12.738   8.140  1.00  0.00    -0.744 OA
ENDBRANCH  84  85
ENDBRANCH  52  77
BRANCH  64  89
ATOM     89  C   UNL     1       9.486  14.648  -2.373  1.00  0.00     0.058 A 
ATOM     90  C   UNL     1      10.405  15.709  -2.375  1.00  0.00     0.135 A 
ATOM     91  C   UNL     1       8.153  14.933  -2.711  1.00  0.00     0.135 A 
ATOM     92  F   UNL     1      11.689  15.492  -2.047  1.00  0.00    -0.206 F 
ATOM     93  C   UNL     1      10.012  17.009  -2.675  1.00  0.00     0.059 A 
ATOM     94  C   UNL     1       7.745  16.220  -3.046  1.00  0.00     0.059 A 
ATOM     95  F   UNL     1       7.236  13.954  -2.729  1.00  0.00    -0.206 F 
ATOM     96  C   UNL     1       8.680  17.253  -3.014  1.00  0.00     0.060 A 
BRANCH  96  97
ATOM     97  S   UNL     1       8.193  18.939  -3.433  1.00  0.00     0.124 S 
ATOM     98  O   UNL     1       8.238  19.592  -2.130  1.00  0.00    -0.237 OA
ATOM     99  O   UNL     1       9.231  19.337  -4.379  1.00  0.00    -0.237 OA
ATOM    100  O   UNL     1       6.860  18.775  -4.007  1.00  0.00    -0.744 OA
ENDBRANCH  96  97
ENDBRANCH  64  89
ENDBRANCH  38  39
ENDBRANCH  31  33
ENDBRANCH  30  31
ENDBRANCH  29  30
ENDBRANCH   1  29
TORSDOF 20
