REMARK SMILES C[C@H]1CCCCC[C@@H]1[NH2+]Cc1cc(C(=O)OCCOC(=O)c2ccc(-c3c4nc(c(-c5c(F)cc(S(=O)(=O)[O-])cc5F)c5ccc([nH]5)c(-c5c(F)cc(S(=O)(=O)[O-])cc5F)c5nc(c(-c6c(F)cc(S(=O)(=O)[O-])cc6F)c6ccc3[nH]6)C=C5)C=C4)cc2)cs1
REMARK SMILES IDX 16 1 14 2 15 3 13 4 11 5 12 6 89 7 88 8 10 9 9 10 8 13 2 14
REMARK SMILES IDX 1 15 3 16 4 17 7 19 6 20 5 21 17 23 18 24 19 25 20 26 21 27
REMARK SMILES IDX 22 28 23 29 87 30 24 31 86 32 25 33 26 34 27 35 80 36 28 37
REMARK SMILES IDX 85 38 79 39 81 40 29 41 84 42 78 43 77 44 30 46 64 47 43 48
REMARK SMILES IDX 63 49 44 50 47 51 62 52 82 53 45 54 46 55 61 57 83 58 48 59
REMARK SMILES IDX 31 60 32 61 41 62 33 63 34 64 40 65 42 66 35 67 36 68 37 69
REMARK SMILES IDX 38 70 39 71 65 72 66 73 75 74 67 75 68 76 74 77 76 78 69 79
REMARK SMILES IDX 70 80 71 81 72 82 73 83 49 84 50 85 59 86 51 87 52 88 58 89
REMARK SMILES IDX 60 90 53 91 54 92 55 93 56 94 57 95
REMARK H PARENT 9 11 9 12 81 45 47 56
REMARK Flexibility Score: 90.00
ROOT
ATOM      1  O   UNL     1      -3.929  -3.306  -3.105  1.00  0.00    -0.458 OA
ENDROOT
BRANCH   1   2
ATOM      2  C   UNL     1      -4.121  -2.126  -3.770  1.00  0.00     0.339 C 
ATOM      3  O   UNL     1      -4.657  -2.033  -4.862  1.00  0.00    -0.246 OA
BRANCH   2   4
ATOM      4  C   UNL     1      -3.653  -0.961  -3.017  1.00  0.00     0.071 A 
ATOM      5  C   UNL     1      -2.578   0.337  -1.375  1.00  0.00     0.060 A 
ATOM      6  C   UNL     1      -2.812  -0.940  -1.857  1.00  0.00     0.037 A 
ATOM      7  S   UNL     1      -3.397   1.513  -2.307  1.00  0.00    -0.142 S 
ATOM      8  C   UNL     1      -4.004   0.330  -3.374  1.00  0.00     0.081 A 
BRANCH   5   9
ATOM      9  C   UNL     1      -1.709   0.768  -0.229  1.00  0.00     0.308 C 
BRANCH   9  10
ATOM     10  N   UNL     1      -1.834  -0.183   0.876  1.00  0.00    -0.339 N 
ATOM     11  H   UNL     1      -2.749  -0.055   1.308  1.00  0.00     0.346 HD
ATOM     12  H   UNL     1      -1.717  -1.115   0.480  1.00  0.00     0.346 HD
BRANCH  10  13
ATOM     13  C   UNL     1      -0.805  -0.026   1.915  1.00  0.00     0.185 C 
BRANCH  13  14
ATOM     14  C   UNL     1       0.539  -0.650   1.460  1.00  0.00     0.044 C 
ATOM     15  C   UNL     1       1.708  -0.150   2.322  1.00  0.00     0.014 C 
BRANCH  14  16
ATOM     16  C   UNL     1       0.519  -2.185   1.321  1.00  0.00     0.009 C 
BRANCH  16  17
ATOM     17  C   UNL     1       0.508  -2.970   2.628  1.00  0.00     0.001 CG0
ATOM     18  G   UNL     1      -0.848  -3.152   3.301  1.00  0.00     0.000 G0
ENDBRANCH  16  17
ENDBRANCH  14  16
ENDBRANCH  13  14
BRANCH  13  19
ATOM     19  C   UNL     1      -1.339  -0.607   3.245  1.00  0.00     0.065 C 
BRANCH  19  20
ATOM     20  C   UNL     1      -1.877  -2.037   3.172  1.00  0.00     0.006 C 
BRANCH  20  21
ATOM     21  C   UNL     1      -0.848  -3.152   3.301  1.00  0.00     0.000 CG0
ATOM     22  G   UNL     1       0.508  -2.970   2.628  1.00  0.00     0.000 G0
ENDBRANCH  20  21
ENDBRANCH  19  20
ENDBRANCH  13  19
ENDBRANCH  10  13
ENDBRANCH   9  10
ENDBRANCH   5   9
ENDBRANCH   2   4
ENDBRANCH   1   2
BRANCH   1  23
ATOM     23  C   UNL     1      -4.415  -4.484  -3.776  1.00  0.00     0.275 C 
BRANCH  23  24
ATOM     24  C   UNL     1      -5.793  -4.913  -3.265  1.00  0.00     0.275 C 
BRANCH  24  25
ATOM     25  O   UNL     1      -6.802  -3.938  -3.592  1.00  0.00    -0.458 OA
BRANCH  25  26
ATOM     26  C   UNL     1      -7.235  -3.191  -2.550  1.00  0.00     0.338 C 
ATOM     27  O   UNL     1      -6.903  -3.295  -1.381  1.00  0.00    -0.246 OA
BRANCH  26  28
ATOM     28  C   UNL     1      -8.088  -2.093  -3.030  1.00  0.00     0.060 A 
ATOM     29  C   UNL     1      -7.496  -0.837  -3.140  1.00  0.00     0.016 A 
ATOM     30  C   UNL     1      -9.463  -2.239  -3.212  1.00  0.00     0.016 A 
ATOM     31  C   UNL     1      -8.270   0.287  -3.400  1.00  0.00     0.010 A 
ATOM     32  C   UNL     1     -10.242  -1.106  -3.502  1.00  0.00     0.010 A 
ATOM     33  C   UNL     1      -9.656   0.173  -3.571  1.00  0.00    -0.014 A 
BRANCH  33  34
ATOM     34  C   UNL     1     -10.461   1.417  -3.733  1.00  0.00     0.031 A 
ATOM     35  C   UNL     1     -11.427   1.845  -2.657  1.00  0.00     0.074 A 
ATOM     36  C   UNL     1     -10.256   2.218  -4.799  1.00  0.00     0.049 A 
ATOM     37  N   UNL     1     -12.213   2.892  -2.618  1.00  0.00    -0.248 NA
ATOM     38  C   UNL     1     -11.524   0.981  -1.470  1.00  0.00     0.031 C 
ATOM     39  C   UNL     1      -9.320   1.943  -5.892  1.00  0.00     0.029 A 
ATOM     40  N   UNL     1     -10.798   3.437  -5.127  1.00  0.00    -0.354 N 
ATOM     41  C   UNL     1     -12.921   2.796  -1.424  1.00  0.00     0.074 A 
ATOM     42  C   UNL     1     -12.485   1.577  -0.777  1.00  0.00     0.031 C 
ATOM     43  C   UNL     1      -9.323   2.979  -6.745  1.00  0.00     0.029 A 
ATOM     44  C   UNL     1     -10.304   3.963  -6.298  1.00  0.00     0.049 A 
ATOM     45  H   UNL     1     -11.476   3.890  -4.576  1.00  0.00     0.167 HD
ATOM     46  C   UNL     1     -13.842   3.648  -0.910  1.00  0.00     0.037 A 
ATOM     47  C   UNL     1     -10.617   5.100  -6.952  1.00  0.00     0.037 A 
ATOM     48  C   UNL     1     -14.246   4.881  -1.538  1.00  0.00     0.049 A 
ATOM     49  C   UNL     1     -11.658   6.018  -6.371  1.00  0.00     0.074 A 
ATOM     50  C   UNL     1     -15.165   5.816  -1.091  1.00  0.00     0.029 A 
ATOM     51  N   UNL     1     -13.750   5.360  -2.743  1.00  0.00    -0.354 N 
ATOM     52  N   UNL     1     -12.338   5.895  -5.256  1.00  0.00    -0.248 NA
ATOM     53  C   UNL     1     -11.977   7.228  -7.141  1.00  0.00     0.031 C 
ATOM     54  C   UNL     1     -15.257   6.836  -2.044  1.00  0.00     0.029 A 
ATOM     55  C   UNL     1     -14.355   6.567  -3.061  1.00  0.00     0.049 A 
ATOM     56  H   UNL     1     -13.069   4.908  -3.292  1.00  0.00     0.167 HD
ATOM     57  C   UNL     1     -13.152   7.020  -5.181  1.00  0.00     0.074 A 
ATOM     58  C   UNL     1     -12.861   7.822  -6.352  1.00  0.00     0.031 C 
ATOM     59  C   UNL     1     -14.061   7.356  -4.231  1.00  0.00     0.037 A 
BRANCH  46  60
ATOM     60  C   UNL     1     -14.507   3.260   0.386  1.00  0.00     0.058 A 
ATOM     61  C   UNL     1     -13.824   3.283   1.612  1.00  0.00     0.135 A 
ATOM     62  C   UNL     1     -15.862   2.890   0.402  1.00  0.00     0.135 A 
ATOM     63  F   UNL     1     -12.523   3.612   1.657  1.00  0.00    -0.206 F 
ATOM     64  C   UNL     1     -14.452   2.923   2.802  1.00  0.00     0.059 A 
ATOM     65  C   UNL     1     -16.518   2.556   1.583  1.00  0.00     0.059 A 
ATOM     66  F   UNL     1     -16.566   2.853  -0.741  1.00  0.00    -0.206 F 
ATOM     67  C   UNL     1     -15.800   2.560   2.777  1.00  0.00     0.060 A 
BRANCH  67  68
ATOM     68  S   UNL     1     -16.601   2.097   4.327  1.00  0.00     0.124 S 
ATOM     69  O   UNL     1     -16.011   0.785   4.580  1.00  0.00    -0.237 OA
ATOM     70  O   UNL     1     -16.180   3.164   5.229  1.00  0.00    -0.237 OA
ATOM     71  O   UNL     1     -18.021   2.090   3.989  1.00  0.00    -0.744 OA
ENDBRANCH  67  68
ENDBRANCH  46  60
BRANCH  47  72
ATOM     72  C   UNL     1      -9.951   5.421  -8.244  1.00  0.00     0.058 A 
ATOM     73  C   UNL     1      -9.069   6.506  -8.362  1.00  0.00     0.135 A 
ATOM     74  C   UNL     1     -10.182   4.643  -9.390  1.00  0.00     0.135 A 
ATOM     75  F   UNL     1      -8.825   7.290  -7.301  1.00  0.00    -0.206 F 
ATOM     76  C   UNL     1      -8.451   6.816  -9.570  1.00  0.00     0.059 A 
ATOM     77  C   UNL     1      -9.552   4.913 -10.600  1.00  0.00     0.059 A 
ATOM     78  F   UNL     1     -11.010   3.588  -9.330  1.00  0.00    -0.206 F 
ATOM     79  C   UNL     1      -8.696   6.009 -10.683  1.00  0.00     0.060 A 
BRANCH  79  80
ATOM     80  S   UNL     1      -7.849   6.386 -12.233  1.00  0.00     0.124 S 
ATOM     81  O   UNL     1      -8.573   7.568 -12.684  1.00  0.00    -0.237 OA
ATOM     82  O   UNL     1      -6.477   6.607 -11.788  1.00  0.00    -0.237 OA
ATOM     83  O   UNL     1      -8.054   5.178 -13.028  1.00  0.00    -0.744 OA
ENDBRANCH  79  80
ENDBRANCH  47  72
BRANCH  59  84
ATOM     84  C   UNL     1     -14.779   8.668  -4.406  1.00  0.00     0.058 A 
ATOM     85  C   UNL     1     -15.739   8.860  -5.412  1.00  0.00     0.135 A 
ATOM     86  C   UNL     1     -14.502   9.748  -3.553  1.00  0.00     0.135 A 
ATOM     87  F   UNL     1     -16.041   7.861  -6.258  1.00  0.00    -0.206 F 
ATOM     88  C   UNL     1     -16.362  10.090  -5.598  1.00  0.00     0.059 A 
ATOM     89  C   UNL     1     -15.135  10.978  -3.700  1.00  0.00     0.059 A 
ATOM     90  F   UNL     1     -13.604   9.617  -2.563  1.00  0.00    -0.206 F 
ATOM     91  C   UNL     1     -16.047  11.146  -4.741  1.00  0.00     0.060 A 
BRANCH  91  92
ATOM     92  S   UNL     1     -16.849  12.743  -5.001  1.00  0.00     0.124 S 
ATOM     93  O   UNL     1     -16.135  13.242  -6.172  1.00  0.00    -0.237 OA
ATOM     94  O   UNL     1     -18.241  12.364  -5.221  1.00  0.00    -0.237 OA
ATOM     95  O   UNL     1     -16.590  13.459  -3.755  1.00  0.00    -0.744 OA
ENDBRANCH  91  92
ENDBRANCH  59  84
ENDBRANCH  33  34
ENDBRANCH  26  28
ENDBRANCH  25  26
ENDBRANCH  24  25
ENDBRANCH  23  24
ENDBRANCH   1  23
TORSDOF 17
