REMARK SMILES COc1ccc(-c2sc(N)nc2C(=O)OCCOC(=O)c2ccc(-c3c4nc(c(-c5c(F)cc(S(=O)(=O)[O-])cc5F)c5ccc([nH]5)c(-c5c(F)cc(S(=O)(=O)[O-])cc5F)c5nc(c(-c6c(F)cc(S(=O)(=O)[O-])cc6F)c6ccc3[nH]6)C=C5)C=C4)cc2)cc1OC
REMARK SMILES IDX 17 1 16 2 15 3 13 4 14 5 12 6 7 7 8 8 9 9 11 10 6 11 3 12
REMARK SMILES IDX 4 13 88 14 5 15 87 16 2 17 1 18 89 19 90 20 10 21 18 24
REMARK SMILES IDX 19 25 20 26 21 27 22 28 86 29 23 30 85 31 24 32 25 33 26 34
REMARK SMILES IDX 79 35 27 36 84 37 78 38 80 39 28 40 83 41 77 42 76 43 29 45
REMARK SMILES IDX 63 46 42 47 62 48 43 49 46 50 61 51 81 52 44 53 45 54 60 56
REMARK SMILES IDX 82 57 47 58 30 59 31 60 40 61 32 62 33 63 39 64 41 65 34 66
REMARK SMILES IDX 35 67 36 68 37 69 38 70 64 71 65 72 74 73 66 74 67 75 73 76
REMARK SMILES IDX 75 77 68 78 69 79 70 80 71 81 72 82 48 83 49 84 58 85 50 86
REMARK SMILES IDX 51 87 57 88 59 89 52 90 53 91 54 92 55 93 56 94
REMARK H PARENT 10 22 10 23 80 44 46 55
REMARK Flexibility Score: inf
ROOT
ATOM      1  C   UNL     1       6.153  -6.189  -3.300  1.00  0.00     0.275 C 
ENDROOT
BRANCH   1   2
ATOM      2  C   UNL     1       5.261  -7.081  -4.160  1.00  0.00     0.275 C 
BRANCH   2   3
ATOM      3  O   UNL     1       4.620  -6.308  -5.196  1.00  0.00    -0.457 OA
BRANCH   3   4
ATOM      4  C   UNL     1       3.303  -6.012  -4.985  1.00  0.00     0.358 C 
ATOM      5  O   UNL     1       2.638  -6.473  -4.065  1.00  0.00    -0.244 OA
BRANCH   4   6
ATOM      6  C   UNL     1       2.755  -5.087  -5.978  1.00  0.00     0.169 A 
ATOM      7  C   UNL     1       2.066  -3.912  -5.683  1.00  0.00     0.071 A 
ATOM      8  S   UNL     1       1.442  -3.233  -7.119  1.00  0.00    -0.096 S 
ATOM      9  C   UNL     1       2.067  -4.561  -8.013  1.00  0.00     0.181 A 
ATOM     10  N   UNL     1       2.790  -5.412  -7.333  1.00  0.00    -0.213 NA
BRANCH   7  11
ATOM     11  C   UNL     1       1.745  -3.340  -4.375  1.00  0.00    -0.002 A 
ATOM     12  C   UNL     1       1.522  -3.010  -0.676  1.00  0.00     0.160 A 
ATOM     13  C   UNL     1       0.528  -4.109  -1.609  1.00  0.00     0.051 A 
ATOM     14  C   UNL     1       2.743  -1.996  -1.525  1.00  0.00     0.161 A 
ATOM     15  C   UNL     1       0.638  -4.285  -3.370  1.00  0.00     0.014 A 
ATOM     16  C   UNL     1       2.820  -2.128  -3.552  1.00  0.00     0.060 A 
BRANCH  12  17
ATOM     17  O   UNL     1       1.318  -2.942   0.674  1.00  0.00    -0.493 OA
ATOM     18  C   UNL     1       0.804  -1.663   1.060  1.00  0.00     0.278 C 
ENDBRANCH  12  17
BRANCH  14  19
ATOM     19  O   UNL     1       3.778  -1.733  -0.572  1.00  0.00    -0.493 OA
ATOM     20  C   UNL     1       3.633  -0.638   0.318  1.00  0.00     0.278 C 
ENDBRANCH  14  19
ENDBRANCH   7  11
BRANCH   9  21
ATOM     21  N   UNL     1       1.797  -4.735  -9.311  1.00  0.00    -0.375 N 
ATOM     22  H   UNL     1       1.249  -4.074  -9.792  1.00  0.00     0.159 HD
ATOM     23  H   UNL     1       2.147  -5.524  -9.785  1.00  0.00     0.159 HD
ENDBRANCH   9  21
ENDBRANCH   4   6
ENDBRANCH   3   4
ENDBRANCH   2   3
ENDBRANCH   1   2
BRANCH   1  24
ATOM     24  O   UNL     1       5.343  -5.241  -2.582  1.00  0.00    -0.458 OA
BRANCH  24  25
ATOM     25  C   UNL     1       5.351  -4.006  -3.120  1.00  0.00     0.338 C 
ATOM     26  O   UNL     1       6.009  -3.620  -4.076  1.00  0.00    -0.246 OA
BRANCH  25  27
ATOM     27  C   UNL     1       4.350  -3.133  -2.513  1.00  0.00     0.060 A 
ATOM     28  C   UNL     1       2.628  -3.654  -2.454  1.00  0.00     0.016 A 
ATOM     29  C   UNL     1       4.681  -1.396  -2.636  1.00  0.00     0.016 A 
ATOM     30  C   UNL     1       1.206  -2.229  -2.620  1.00  0.00     0.010 A 
ATOM     31  C   UNL     1       3.385  -0.164  -2.653  1.00  0.00     0.010 A 
ATOM     32  C   UNL     1       1.637  -0.500  -2.651  1.00  0.00    -0.014 A 
BRANCH  32  33
ATOM     33  C   UNL     1       0.538   0.537  -2.281  1.00  0.00     0.031 A 
ATOM     34  C   UNL     1       0.867   2.024  -2.307  1.00  0.00     0.074 A 
ATOM     35  C   UNL     1      -0.667   0.204  -1.718  1.00  0.00     0.049 A 
ATOM     36  N   UNL     1       0.310   3.019  -1.657  1.00  0.00    -0.248 NA
ATOM     37  C   UNL     1       1.980   2.449  -3.165  1.00  0.00     0.031 C 
ATOM     38  C   UNL     1      -1.332  -1.097  -1.663  1.00  0.00     0.029 A 
ATOM     39  N   UNL     1      -1.538   0.964  -0.940  1.00  0.00    -0.354 N 
ATOM     40  C   UNL     1       1.039   4.157  -1.996  1.00  0.00     0.074 A 
ATOM     41  C   UNL     1       2.165   3.705  -2.782  1.00  0.00     0.031 C 
ATOM     42  C   UNL     1      -2.296  -1.127  -0.743  1.00  0.00     0.029 A 
ATOM     43  C   UNL     1      -2.453   0.203  -0.223  1.00  0.00     0.049 A 
ATOM     44  H   UNL     1      -1.509   1.947  -0.902  1.00  0.00     0.167 HD
ATOM     45  C   UNL     1       0.750   5.466  -1.780  1.00  0.00     0.037 A 
ATOM     46  C   UNL     1      -3.380   0.476   0.715  1.00  0.00     0.037 A 
ATOM     47  C   UNL     1      -0.462   5.926  -1.147  1.00  0.00     0.049 A 
ATOM     48  C   UNL     1      -3.691   1.905   0.968  1.00  0.00     0.074 A 
ATOM     49  C   UNL     1      -0.945   7.220  -1.050  1.00  0.00     0.029 A 
ATOM     50  N   UNL     1      -1.394   5.108  -0.527  1.00  0.00    -0.354 N 
ATOM     51  N   UNL     1      -3.032   2.956   0.554  1.00  0.00    -0.248 NA
ATOM     52  C   UNL     1      -4.922   2.194   1.708  1.00  0.00     0.031 C 
ATOM     53  C   UNL     1      -2.142   7.190  -0.328  1.00  0.00     0.029 A 
ATOM     54  C   UNL     1      -2.433   5.873  -0.020  1.00  0.00     0.049 A 
ATOM     55  H   UNL     1      -1.328   4.128  -0.457  1.00  0.00     0.167 HD
ATOM     56  C   UNL     1      -3.807   4.040   0.921  1.00  0.00     0.074 A 
ATOM     57  C   UNL     1      -4.975   3.514   1.601  1.00  0.00     0.031 C 
ATOM     58  C   UNL     1      -3.578   5.351   0.680  1.00  0.00     0.037 A 
BRANCH  45  59
ATOM     59  C   UNL     1       1.709   6.510  -2.309  1.00  0.00     0.058 A 
ATOM     60  C   UNL     1       1.924   6.692  -3.686  1.00  0.00     0.135 A 
ATOM     61  C   UNL     1       2.379   7.380  -1.431  1.00  0.00     0.135 A 
ATOM     62  F   UNL     1       1.312   5.897  -4.579  1.00  0.00    -0.206 F 
ATOM     63  C   UNL     1       2.803   7.656  -4.170  1.00  0.00     0.059 A 
ATOM     64  C   UNL     1       3.232   8.380  -1.896  1.00  0.00     0.059 A 
ATOM     65  F   UNL     1       2.203   7.270  -0.105  1.00  0.00    -0.206 F 
ATOM     66  C   UNL     1       3.450   8.498  -3.267  1.00  0.00     0.060 A 
BRANCH  66  67
ATOM     67  S   UNL     1       4.568   9.758  -3.920  1.00  0.00     0.124 S 
ATOM     68  O   UNL     1       5.689   8.943  -4.378  1.00  0.00    -0.237 OA
ATOM     69  O   UNL     1       3.762  10.373  -4.969  1.00  0.00    -0.237 OA
ATOM     70  O   UNL     1       4.840  10.605  -2.763  1.00  0.00    -0.744 OA
ENDBRANCH  66  67
ENDBRANCH  45  59
BRANCH  46  71
ATOM     71  C   UNL     1      -4.161  -0.626   1.356  1.00  0.00     0.058 A 
ATOM     72  C   UNL     1      -5.472  -0.931   0.958  1.00  0.00     0.135 A 
ATOM     73  C   UNL     1      -3.583  -1.435   2.349  1.00  0.00     0.135 A 
ATOM     74  F   UNL     1      -6.064  -0.207  -0.004  1.00  0.00    -0.206 F 
ATOM     75  C   UNL     1      -6.194  -1.969   1.542  1.00  0.00     0.059 A 
ATOM     76  C   UNL     1      -4.277  -2.493   2.934  1.00  0.00     0.059 A 
ATOM     77  F   UNL     1      -2.320  -1.212   2.744  1.00  0.00    -0.206 F 
ATOM     78  C   UNL     1      -5.589  -2.744   2.534  1.00  0.00     0.060 A 
BRANCH  78  79
ATOM     79  S   UNL     1      -6.540  -4.092   3.275  1.00  0.00     0.124 S 
ATOM     80  O   UNL     1      -7.572  -3.360   4.000  1.00  0.00    -0.237 OA
ATOM     81  O   UNL     1      -6.989  -4.830   2.098  1.00  0.00    -0.237 OA
ATOM     82  O   UNL     1      -5.558  -4.783   4.104  1.00  0.00    -0.744 OA
ENDBRANCH  78  79
ENDBRANCH  46  71
BRANCH  58  83
ATOM     83  C   UNL     1      -4.632   6.304   1.145  1.00  0.00     0.058 A 
ATOM     84  C   UNL     1      -4.849   6.545   2.510  1.00  0.00     0.135 A 
ATOM     85  C   UNL     1      -5.439   6.976   0.215  1.00  0.00     0.135 A 
ATOM     86  F   UNL     1      -4.116   5.905   3.435  1.00  0.00    -0.206 F 
ATOM     87  C   UNL     1      -5.854   7.399   2.939  1.00  0.00     0.059 A 
ATOM     88  C   UNL     1      -6.426   7.864   0.621  1.00  0.00     0.059 A 
ATOM     89  F   UNL     1      -5.271   6.773  -1.102  1.00  0.00    -0.206 F 
ATOM     90  C   UNL     1      -6.635   8.056   1.987  1.00  0.00     0.060 A 
BRANCH  90  91
ATOM     91  S   UNL     1      -7.914   9.187   2.561  1.00  0.00     0.124 S 
ATOM     92  O   UNL     1      -8.916   8.259   3.075  1.00  0.00    -0.237 OA
ATOM     93  O   UNL     1      -7.203   9.974   3.564  1.00  0.00    -0.237 OA
ATOM     94  O   UNL     1      -8.291   9.915   1.353  1.00  0.00    -0.744 OA
ENDBRANCH  90  91
ENDBRANCH  58  83
ENDBRANCH  32  33
ENDBRANCH  25  27
ENDBRANCH  24  25
ENDBRANCH   1  24
TORSDOF 18
