REMARK SMILES COc1cc(C(=O)N[C@H]2CCCC[C@H]2C(=O)OCCOC(=O)c2ccc(-c3c4nc(c(-c5c(F)cc(S(=O)(=O)[O-])cc5F)c5ccc([nH]5)c(-c5c(F)cc(S(=O)(=O)[O-])cc5F)c5nc(c(-c6c(F)cc(S(=O)(=O)[O-])cc6F)c6ccc3[nH]6)C=C5)C=C4)cc2)cc(Cl)c1OC
REMARK SMILES IDX 18 1 17 2 15 3 16 4 14 5 9 6 10 7 11 8 13 9 12 10 8 11 6 12
REMARK SMILES IDX 7 13 5 15 3 16 4 17 92 18 90 19 89 20 91 21 2 22 1 23 93 24
REMARK SMILES IDX 94 25 19 26 20 27 21 28 22 29 23 30 24 31 88 32 25 33 87 34
REMARK SMILES IDX 26 35 27 36 28 37 81 38 29 39 86 40 80 41 82 42 30 43 85 44
REMARK SMILES IDX 79 45 78 46 31 48 65 49 44 50 64 51 45 52 48 53 63 54 83 55
REMARK SMILES IDX 46 56 47 57 62 59 84 60 49 61 32 62 33 63 42 64 34 65 35 66
REMARK SMILES IDX 41 67 43 68 36 69 37 70 38 71 39 72 40 73 66 74 67 75 76 76
REMARK SMILES IDX 68 77 69 78 75 79 77 80 70 81 71 82 72 83 73 84 74 85 50 86
REMARK SMILES IDX 51 87 60 88 52 89 53 90 59 91 61 92 54 93 55 94 56 95 57 96
REMARK SMILES IDX 58 97
REMARK H PARENT 8 14 82 47 48 58
REMARK Flexibility Score: inf
ROOT
ATOM      1  C   UNL     1       0.741   0.350   5.597  1.00  0.00     0.274 C 
ENDROOT
BRANCH   1   2
ATOM      2  O   UNL     1       1.087   1.724   5.871  1.00  0.00    -0.462 OA
BRANCH   2   3
ATOM      3  C   UNL     1       1.757   1.949   7.028  1.00  0.00     0.311 C 
ATOM      4  O   UNL     1       1.994   1.091   7.870  1.00  0.00    -0.252 OA
BRANCH   3   5
ATOM      5  C   UNL     1       2.145   3.402   7.230  1.00  0.00     0.121 C 
ATOM      6  C   UNL     1       2.672   4.165   5.991  1.00  0.00     0.096 C 
ATOM      7  C   UNL     1       3.112   5.582   6.410  1.00  0.00     0.026 C 
ATOM      8  C   UNL     1       2.049   6.333   7.210  1.00  0.00     0.002 C 
ATOM      9  C   UNL     1       1.058   4.159   7.991  1.00  0.00     0.017 C 
ATOM     10  C   UNL     1       1.573   5.531   8.414  1.00  0.00     0.001 C 
BRANCH   6  11
ATOM     11  N   UNL     1       1.738   4.198   4.863  1.00  0.00    -0.348 N 
ATOM     12  C   UNL     1       1.869   4.553   3.541  1.00  0.00     0.251 C 
ATOM     13  O   UNL     1       0.888   4.396   2.810  1.00  0.00    -0.269 OA
ATOM     14  H   UNL     1       0.828   3.906   5.101  1.00  0.00     0.164 HD
BRANCH  12  15
ATOM     15  C   UNL     1       3.088   5.189   2.962  1.00  0.00     0.045 A 
ATOM     16  C   UNL     1       3.993   6.761   1.337  1.00  0.00     0.163 A 
ATOM     17  C   UNL     1       2.903   6.088   1.905  1.00  0.00     0.064 A 
ATOM     18  C   UNL     1       5.308   6.558   1.819  1.00  0.00     0.179 A 
ATOM     19  C   UNL     1       5.491   5.616   2.841  1.00  0.00     0.087 A 
ATOM     20  C   UNL     1       4.391   4.917   3.371  1.00  0.00     0.038 A 
ATOM     21  Cl  UNL     1       7.010   5.185   3.549  1.00  0.00    -0.080 Cl
BRANCH  16  22
ATOM     22  O   UNL     1       3.861   7.596   0.250  1.00  0.00    -0.493 OA
ATOM     23  C   UNL     1       2.675   8.377   0.204  1.00  0.00     0.278 C 
ENDBRANCH  16  22
BRANCH  18  24
ATOM     24  O   UNL     1       6.239   7.325   1.171  1.00  0.00    -0.491 OA
ATOM     25  C   UNL     1       7.548   7.488   1.688  1.00  0.00     0.278 C 
ENDBRANCH  18  24
ENDBRANCH  12  15
ENDBRANCH   6  11
ENDBRANCH   3   5
ENDBRANCH   2   3
ENDBRANCH   1   2
BRANCH   1  26
ATOM     26  C   UNL     1       1.765  -0.331   4.683  1.00  0.00     0.275 C 
BRANCH  26  27
ATOM     27  O   UNL     1       3.034  -0.523   5.338  1.00  0.00    -0.458 OA
BRANCH  27  28
ATOM     28  C   UNL     1       3.942   0.458   5.129  1.00  0.00     0.338 C 
ATOM     29  O   UNL     1       3.805   1.454   4.438  1.00  0.00    -0.246 OA
BRANCH  28  30
ATOM     30  C   UNL     1       5.122   0.249   5.983  1.00  0.00     0.060 A 
ATOM     31  C   UNL     1       5.428   1.235   6.926  1.00  0.00     0.016 A 
ATOM     32  C   UNL     1       5.971  -0.842   5.798  1.00  0.00     0.016 A 
ATOM     33  C   UNL     1       6.591   1.142   7.683  1.00  0.00     0.010 A 
ATOM     34  C   UNL     1       7.140  -0.936   6.562  1.00  0.00     0.010 A 
ATOM     35  C   UNL     1       7.462   0.062   7.499  1.00  0.00    -0.014 A 
BRANCH  35  36
ATOM     36  C   UNL     1       8.732   0.011   8.262  1.00  0.00     0.031 A 
ATOM     37  C   UNL     1      10.030   0.333   7.577  1.00  0.00     0.074 A 
ATOM     38  C   UNL     1       8.713  -0.298   9.572  1.00  0.00     0.049 A 
ATOM     39  N   UNL     1      11.248   0.281   8.051  1.00  0.00    -0.248 NA
ATOM     40  C   UNL     1       9.947   0.773   6.176  1.00  0.00     0.031 C 
ATOM     41  C   UNL     1       7.509  -0.591  10.352  1.00  0.00     0.029 A 
ATOM     42  N   UNL     1       9.736  -0.420  10.478  1.00  0.00    -0.354 N 
ATOM     43  C   UNL     1      12.079   0.659   7.003  1.00  0.00     0.074 A 
ATOM     44  C   UNL     1      11.227   0.929   5.865  1.00  0.00     0.031 C 
ATOM     45  C   UNL     1       7.865  -0.865  11.619  1.00  0.00     0.029 A 
ATOM     46  C   UNL     1       9.320  -0.807  11.729  1.00  0.00     0.049 A 
ATOM     47  H   UNL     1      10.679  -0.248  10.252  1.00  0.00     0.167 HD
ATOM     48  C   UNL     1      13.428   0.772   6.996  1.00  0.00     0.037 A 
ATOM     49  C   UNL     1      10.033  -1.108  12.832  1.00  0.00     0.037 A 
ATOM     50  C   UNL     1      14.268   0.520   8.139  1.00  0.00     0.049 A 
ATOM     51  C   UNL     1      11.534  -1.013  12.785  1.00  0.00     0.074 A 
ATOM     52  C   UNL     1      15.646   0.624   8.234  1.00  0.00     0.029 A 
ATOM     53  N   UNL     1      13.812   0.116   9.384  1.00  0.00    -0.354 N 
ATOM     54  N   UNL     1      12.306  -0.655  11.787  1.00  0.00    -0.248 NA
ATOM     55  C   UNL     1      12.262  -1.365  14.012  1.00  0.00     0.031 C 
ATOM     56  C   UNL     1      16.024   0.250   9.528  1.00  0.00     0.029 A 
ATOM     57  C   UNL     1      14.880  -0.049  10.250  1.00  0.00     0.049 A 
ATOM     58  H   UNL     1      12.867  -0.031   9.619  1.00  0.00     0.167 HD
ATOM     59  C   UNL     1      13.608  -0.721  12.270  1.00  0.00     0.074 A 
ATOM     60  C   UNL     1      13.519  -1.141  13.654  1.00  0.00     0.031 C 
ATOM     61  C   UNL     1      14.772  -0.461  11.627  1.00  0.00     0.037 A 
BRANCH  48  62
ATOM     62  C   UNL     1      14.089   1.165   5.705  1.00  0.00     0.058 A 
ATOM     63  C   UNL     1      14.049   2.483   5.226  1.00  0.00     0.135 A 
ATOM     64  C   UNL     1      14.813   0.217   4.963  1.00  0.00     0.135 A 
ATOM     65  F   UNL     1      13.357   3.422   5.889  1.00  0.00    -0.206 F 
ATOM     66  C   UNL     1      14.692   2.846   4.046  1.00  0.00     0.059 A 
ATOM     67  C   UNL     1      15.480   0.562   3.791  1.00  0.00     0.059 A 
ATOM     68  F   UNL     1      14.879  -1.058   5.377  1.00  0.00    -0.206 F 
ATOM     69  C   UNL     1      15.405   1.878   3.336  1.00  0.00     0.060 A 
BRANCH  69  70
ATOM     70  S   UNL     1      16.248   2.366   1.815  1.00  0.00     0.124 S 
ATOM     71  O   UNL     1      15.127   2.491   0.889  1.00  0.00    -0.237 OA
ATOM     72  O   UNL     1      16.893   3.617   2.202  1.00  0.00    -0.237 OA
ATOM     73  O   UNL     1      17.155   1.252   1.557  1.00  0.00    -0.744 OA
ENDBRANCH  69  70
ENDBRANCH  48  62
BRANCH  49  74
ATOM     74  C   UNL     1       9.338  -1.557  14.066  1.00  0.00     0.058 A 
ATOM     75  C   UNL     1       9.284  -0.743  15.206  1.00  0.00     0.135 A 
ATOM     76  C   UNL     1       8.714  -2.813  14.128  1.00  0.00     0.135 A 
ATOM     77  F   UNL     1       9.874   0.462  15.198  1.00  0.00    -0.206 F 
ATOM     78  C   UNL     1       8.649  -1.163  16.371  1.00  0.00     0.059 A 
ATOM     79  C   UNL     1       8.053  -3.245  15.273  1.00  0.00     0.059 A 
ATOM     80  F   UNL     1       8.728  -3.625  13.059  1.00  0.00    -0.206 F 
ATOM     81  C   UNL     1       8.037  -2.417  16.394  1.00  0.00     0.060 A 
BRANCH  81  82
ATOM     82  S   UNL     1       7.179  -2.940  17.895  1.00  0.00     0.124 S 
ATOM     83  O   UNL     1       8.295  -3.326  18.750  1.00  0.00    -0.237 OA
ATOM     84  O   UNL     1       6.465  -1.727  18.283  1.00  0.00    -0.237 OA
ATOM     85  O   UNL     1       6.330  -4.034  17.429  1.00  0.00    -0.744 OA
ENDBRANCH  81  82
ENDBRANCH  49  74
BRANCH  61  86
ATOM     86  C   UNL     1      16.042  -0.592  12.419  1.00  0.00     0.058 A 
ATOM     87  C   UNL     1      16.582  -1.846  12.739  1.00  0.00     0.135 A 
ATOM     88  C   UNL     1      16.750   0.552  12.822  1.00  0.00     0.135 A 
ATOM     89  F   UNL     1      15.939  -2.969  12.382  1.00  0.00    -0.206 F 
ATOM     90  C   UNL     1      17.772  -1.964  13.449  1.00  0.00     0.059 A 
ATOM     91  C   UNL     1      17.953   0.458  13.513  1.00  0.00     0.059 A 
ATOM     92  F   UNL     1      16.279   1.776  12.532  1.00  0.00    -0.206 F 
ATOM     93  C   UNL     1      18.451  -0.805  13.833  1.00  0.00     0.060 A 
BRANCH  93  94
ATOM     94  S   UNL     1      20.012  -0.967  14.726  1.00  0.00     0.124 S 
ATOM     95  O   UNL     1      19.548  -1.301  16.068  1.00  0.00    -0.237 OA
ATOM     96  O   UNL     1      20.680  -2.042  14.000  1.00  0.00    -0.237 OA
ATOM     97  O   UNL     1      20.622   0.351  14.582  1.00  0.00    -0.744 OA
ENDBRANCH  93  94
ENDBRANCH  61  86
ENDBRANCH  35  36
ENDBRANCH  28  30
ENDBRANCH  27  28
ENDBRANCH  26  27
ENDBRANCH   1  26
TORSDOF 18
