REMARK SMILES O=C(OCCOC(=O)[C@@H]1[C@H](C(=O)Nc2ccccc2OC(F)F)[C@@H]2C=C[C@H]1C2)c1ccc(-c2c3nc(c(-c4c(F)cc(S(=O)(=O)[O-])cc4F)c4ccc([nH]4)c(-c4c(F)cc(S(=O)(=O)[O-])cc4F)c4nc(c(-c5c(F)cc(S(=O)(=O)[O-])cc5F)c5ccc2[nH]5)C=C4)C=C3)cc1
REMARK SMILES IDX 5 1 4 2 3 3 2 4 1 5 29 6 30 7 94 8 31 9 93 10 32 11 33 12
REMARK SMILES IDX 34 13 87 14 35 15 92 16 86 17 88 18 36 19 91 20 85 21 84 22
REMARK SMILES IDX 37 24 71 25 50 26 70 27 51 28 54 29 69 30 89 31 52 32 53 33
REMARK SMILES IDX 68 35 90 36 55 37 38 38 39 39 48 40 40 41 41 42 47 43 49 44
REMARK SMILES IDX 42 45 43 46 44 47 45 48 46 49 72 50 73 51 82 52 74 53 75 54
REMARK SMILES IDX 81 55 83 56 76 57 77 58 78 59 79 60 80 61 56 62 57 63 66 64
REMARK SMILES IDX 58 65 59 66 65 67 67 68 60 69 61 70 62 71 63 72 64 73 6 74
REMARK SMILES IDX 7 75 8 76 9 77 10 78 27 79 24 80 26 81 28 82 25 83 11 84
REMARK SMILES IDX 12 85 13 86 14 88 15 89 19 90 16 91 18 92 17 93 20 94 21 95
REMARK SMILES IDX 22 96 23 97
REMARK H PARENT 88 23 54 34 13 87
REMARK Flexibility Score: inf
ROOT
ATOM      1  C   UNL     1       2.411  -0.836  -3.119  1.00  0.00     0.274 C 
ENDROOT
BRANCH   1   2
ATOM      2  C   UNL     1       3.302  -1.598  -2.127  1.00  0.00     0.275 C 
BRANCH   2   3
ATOM      3  O   UNL     1       4.415  -0.727  -1.856  1.00  0.00    -0.458 OA
BRANCH   3   4
ATOM      4  C   UNL     1       4.021   0.259  -1.026  1.00  0.00     0.338 C 
ATOM      5  O   UNL     1       3.085   0.134  -0.265  1.00  0.00    -0.246 OA
BRANCH   4   6
ATOM      6  C   UNL     1       4.651   1.580  -1.318  1.00  0.00     0.060 A 
ATOM      7  C   UNL     1       5.925   1.947  -0.883  1.00  0.00     0.016 A 
ATOM      8  C   UNL     1       3.753   2.584  -1.646  1.00  0.00     0.016 A 
ATOM      9  C   UNL     1       6.215   3.257  -0.562  1.00  0.00     0.010 A 
ATOM     10  C   UNL     1       3.990   3.888  -1.270  1.00  0.00     0.010 A 
ATOM     11  C   UNL     1       5.233   4.216  -0.745  1.00  0.00    -0.014 A 
BRANCH  11  12
ATOM     12  C   UNL     1       5.653   5.601  -0.765  1.00  0.00     0.031 A 
ATOM     13  C   UNL     1       6.085   6.263   0.487  1.00  0.00     0.074 A 
ATOM     14  C   UNL     1       5.757   6.085  -2.013  1.00  0.00     0.049 A 
ATOM     15  N   UNL     1       6.875   7.286   0.601  1.00  0.00    -0.248 NA
ATOM     16  C   UNL     1       5.669   5.665   1.768  1.00  0.00     0.031 C 
ATOM     17  C   UNL     1       5.415   5.344  -3.247  1.00  0.00     0.029 A 
ATOM     18  N   UNL     1       6.167   7.288  -2.469  1.00  0.00    -0.354 N 
ATOM     19  C   UNL     1       7.121   7.417   1.958  1.00  0.00     0.074 A 
ATOM     20  C   UNL     1       6.368   6.388   2.638  1.00  0.00     0.031 C 
ATOM     21  C   UNL     1       5.526   6.147  -4.302  1.00  0.00     0.029 A 
ATOM     22  C   UNL     1       6.060   7.403  -3.830  1.00  0.00     0.049 A 
ATOM     23  H   UNL     1       6.507   8.005  -1.887  1.00  0.00     0.167 HD
ATOM     24  C   UNL     1       7.916   8.346   2.535  1.00  0.00     0.037 A 
ATOM     25  C   UNL     1       6.431   8.411  -4.623  1.00  0.00     0.037 A 
ATOM     26  C   UNL     1       8.486   9.417   1.754  1.00  0.00     0.049 A 
ATOM     27  C   UNL     1       7.234   9.463  -3.946  1.00  0.00     0.074 A 
ATOM     28  C   UNL     1       9.223  10.506   2.168  1.00  0.00     0.029 A 
ATOM     29  N   UNL     1       8.318   9.546   0.372  1.00  0.00    -0.354 N 
ATOM     30  N   UNL     1       7.547   9.546  -2.670  1.00  0.00    -0.248 NA
ATOM     31  C   UNL     1       7.786  10.511  -4.791  1.00  0.00     0.031 C 
ATOM     32  C   UNL     1       9.426  11.330   1.052  1.00  0.00     0.029 A 
ATOM     33  C   UNL     1       8.883  10.722  -0.075  1.00  0.00     0.049 A 
ATOM     34  H   UNL     1       7.860   8.889  -0.201  1.00  0.00     0.167 HD
ATOM     35  C   UNL     1       8.353  10.656  -2.549  1.00  0.00     0.074 A 
ATOM     36  C   UNL     1       8.493  11.194  -3.899  1.00  0.00     0.031 C 
ATOM     37  C   UNL     1       8.925  11.194  -1.442  1.00  0.00     0.037 A 
BRANCH  24  38
ATOM     38  C   UNL     1       8.106   8.285   4.025  1.00  0.00     0.058 A 
ATOM     39  C   UNL     1       8.874   7.279   4.637  1.00  0.00     0.135 A 
ATOM     40  C   UNL     1       7.501   9.234   4.863  1.00  0.00     0.135 A 
ATOM     41  F   UNL     1       9.460   6.327   3.891  1.00  0.00    -0.206 F 
ATOM     42  C   UNL     1       9.024   7.210   6.022  1.00  0.00     0.059 A 
ATOM     43  C   UNL     1       7.649   9.194   6.249  1.00  0.00     0.059 A 
ATOM     44  F   UNL     1       6.741  10.208   4.339  1.00  0.00    -0.206 F 
ATOM     45  C   UNL     1       8.403   8.171   6.821  1.00  0.00     0.060 A 
BRANCH  45  46
ATOM     46  S   UNL     1       8.595   8.066   8.615  1.00  0.00     0.124 S 
ATOM     47  O   UNL     1       7.793   6.887   8.929  1.00  0.00    -0.237 OA
ATOM     48  O   UNL     1      10.038   7.908   8.767  1.00  0.00    -0.237 OA
ATOM     49  O   UNL     1       8.053   9.335   9.092  1.00  0.00    -0.744 OA
ENDBRANCH  45  46
ENDBRANCH  24  38
BRANCH  25  50
ATOM     50  C   UNL     1       6.140   8.317  -6.069  1.00  0.00     0.058 A 
ATOM     51  C   UNL     1       7.141   8.025  -7.002  1.00  0.00     0.135 A 
ATOM     52  C   UNL     1       4.807   8.341  -6.519  1.00  0.00     0.135 A 
ATOM     53  F   UNL     1       8.418   7.917  -6.606  1.00  0.00    -0.206 F 
ATOM     54  C   UNL     1       6.837   7.806  -8.342  1.00  0.00     0.059 A 
ATOM     55  C   UNL     1       4.477   8.102  -7.846  1.00  0.00     0.059 A 
ATOM     56  F   UNL     1       3.804   8.528  -5.644  1.00  0.00    -0.206 F 
ATOM     57  C   UNL     1       5.503   7.857  -8.755  1.00  0.00     0.060 A 
BRANCH  57  58
ATOM     58  S   UNL     1       5.123   7.589 -10.498  1.00  0.00     0.124 S 
ATOM     59  O   UNL     1       5.625   8.821 -11.095  1.00  0.00    -0.237 OA
ATOM     60  O   UNL     1       5.880   6.378 -10.797  1.00  0.00    -0.237 OA
ATOM     61  O   UNL     1       3.671   7.430 -10.506  1.00  0.00    -0.744 OA
ENDBRANCH  57  58
ENDBRANCH  25  50
BRANCH  37  62
ATOM     62  C   UNL     1       9.695  12.446  -1.689  1.00  0.00     0.058 A 
ATOM     63  C   UNL     1       9.036  13.648  -1.984  1.00  0.00     0.135 A 
ATOM     64  C   UNL     1      11.093  12.442  -1.598  1.00  0.00     0.135 A 
ATOM     65  F   UNL     1       7.698  13.679  -2.097  1.00  0.00    -0.206 F 
ATOM     66  C   UNL     1       9.748  14.812  -2.213  1.00  0.00     0.059 A 
ATOM     67  C   UNL     1      11.822  13.604  -1.786  1.00  0.00     0.059 A 
ATOM     68  F   UNL     1      11.752  11.308  -1.313  1.00  0.00    -0.206 F 
ATOM     69  C   UNL     1      11.139  14.779  -2.105  1.00  0.00     0.060 A 
BRANCH  69  70
ATOM     70  S   UNL     1      12.048  16.312  -2.359  1.00  0.00     0.124 S 
ATOM     71  O   UNL     1      11.965  16.461  -3.808  1.00  0.00    -0.237 OA
ATOM     72  O   UNL     1      11.269  17.266  -1.576  1.00  0.00    -0.237 OA
ATOM     73  O   UNL     1      13.374  16.009  -1.831  1.00  0.00    -0.744 OA
ENDBRANCH  69  70
ENDBRANCH  37  62
ENDBRANCH  11  12
ENDBRANCH   4   6
ENDBRANCH   3   4
ENDBRANCH   2   3
ENDBRANCH   1   2
BRANCH   1  74
ATOM     74  O   UNL     1       1.868   0.406  -2.573  1.00  0.00    -0.462 OA
BRANCH  74  75
ATOM     75  C   UNL     1       0.953   0.352  -1.547  1.00  0.00     0.310 C 
ATOM     76  O   UNL     1       0.312  -0.665  -1.311  1.00  0.00    -0.252 OA
BRANCH  75  77
ATOM     77  C   UNL     1       0.711   1.757  -0.919  1.00  0.00     0.119 C 
ATOM     78  C   UNL     1       1.398   2.658   0.274  1.00  0.00     0.100 C 
ATOM     79  C   UNL     1      -0.795   1.820  -0.550  1.00  0.00     0.027 C 
ATOM     80  C   UNL     1       0.076   3.252   0.919  1.00  0.00     0.025 C 
ATOM     81  C   UNL     1      -0.989   1.233   0.829  1.00  0.00    -0.027 C 
ATOM     82  C   UNL     1      -0.937   3.303  -0.226  1.00  0.00     0.017 C 
ATOM     83  C   UNL     1      -0.520   2.122   1.714  1.00  0.00    -0.027 C 
BRANCH  78  84
ATOM     84  C   UNL     1       2.432   2.456   1.527  1.00  0.00     0.229 C 
ATOM     85  O   UNL     1       2.236   3.161   2.536  1.00  0.00    -0.274 OA
ATOM     86  N   UNL     1       3.675   1.837   1.463  1.00  0.00    -0.323 N 
ATOM     87  H   UNL     1       4.322   2.187   0.809  1.00  0.00     0.170 HD
BRANCH  86  88
ATOM     88  C   UNL     1       4.092   0.716   2.281  1.00  0.00     0.084 A 
ATOM     89  C   UNL     1       3.380   0.501   3.459  1.00  0.00     0.030 A 
ATOM     90  C   UNL     1       5.089  -0.259   1.895  1.00  0.00     0.149 A 
ATOM     91  C   UNL     1       3.516  -0.684   4.169  1.00  0.00     0.002 A 
ATOM     92  C   UNL     1       5.141  -1.479   2.576  1.00  0.00     0.049 A 
ATOM     93  C   UNL     1       4.337  -1.696   3.690  1.00  0.00     0.004 A 
BRANCH  90  94
ATOM     94  O   UNL     1       5.963  -0.011   0.874  1.00  0.00    -0.433 OA
BRANCH  94  95
ATOM     95  C   UNL     1       6.760  -1.020   0.229  1.00  0.00     0.542 C 
ATOM     96  F   UNL     1       6.723  -0.803  -1.119  1.00  0.00    -0.167 F 
ATOM     97  F   UNL     1       8.060  -0.814   0.560  1.00  0.00    -0.167 F 
ENDBRANCH  94  95
ENDBRANCH  90  94
ENDBRANCH  86  88
ENDBRANCH  78  84
ENDBRANCH  75  77
ENDBRANCH  74  75
ENDBRANCH   1  74
TORSDOF 18
