REMARK SMILES CC1(C)[C@H](C(=O)Nc2ccc(C(=O)NCCc3ccccc3)cc2)[C@H]1C(=O)OCCOC(=O)c1ccc(-c2c3nc(c(-c4c(F)cc(S(=O)(=O)[O-])cc4F)c4ccc([nH]4)c(-c4c(F)cc(S(=O)(=O)[O-])cc4F)c4nc(c(-c5c(F)cc(S(=O)(=O)[O-])cc5F)c5ccc2[nH]5)C=C4)C=C3)cc1
REMARK SMILES IDX 28 1 26 2 27 3 25 4 1 5 2 6 3 7 4 8 5 9 6 10 7 11 8 13 9 14
REMARK SMILES IDX 24 15 10 16 23 17 11 18 12 19 13 20 14 21 15 23 16 24 17 25
REMARK SMILES IDX 18 26 22 27 19 28 21 29 20 30 29 31 30 32 31 33 32 34 33 35
REMARK SMILES IDX 34 36 35 37 99 38 36 39 98 40 37 41 38 42 39 43 92 44 40 45
REMARK SMILES IDX 97 46 91 47 93 48 41 49 96 50 90 51 89 52 42 54 76 55 55 56
REMARK SMILES IDX 75 57 56 58 59 59 74 60 94 61 57 62 58 63 73 65 95 66 60 67
REMARK SMILES IDX 43 68 44 69 53 70 45 71 46 72 52 73 54 74 47 75 48 76 49 77
REMARK SMILES IDX 50 78 51 79 77 80 78 81 87 82 79 83 80 84 86 85 88 86 81 87
REMARK SMILES IDX 82 88 83 89 84 90 85 91 61 92 62 93 71 94 63 95 64 96 70 97
REMARK SMILES IDX 72 98 65 99 66 100 67 101 68 102 69 103
REMARK H PARENT 7 12 14 22 93 53 59 64
REMARK Flexibility Score: inf
ROOT
ATOM      1  O   UNL     1      -1.350  -2.276   1.543  1.00  0.00    -0.462 OA
ENDROOT
BRANCH   1   2
ATOM      2  C   UNL     1      -2.064  -1.357   0.853  1.00  0.00     0.310 C 
ATOM      3  O   UNL     1      -3.282  -1.272   0.799  1.00  0.00    -0.252 OA
BRANCH   2   4
ATOM      4  C   UNL     1      -1.203  -0.323   0.245  1.00  0.00     0.118 C 
ATOM      5  C   UNL     1       0.690  -1.990  -0.566  1.00  0.00     0.013 C 
ATOM      6  C   UNL     1       0.161  -0.588  -0.371  1.00  0.00    -0.009 C 
ATOM      7  C   UNL     1       1.242   0.355   0.087  1.00  0.00     0.013 C 
ATOM      8  C   UNL     1      -1.046  -0.212  -1.245  1.00  0.00     0.100 C 
BRANCH   8   9
ATOM      9  C   UNL     1      -1.258   1.062  -2.006  1.00  0.00     0.228 C 
ATOM     10  O   UNL     1      -1.183   1.028  -3.230  1.00  0.00    -0.274 OA
ATOM     11  N   UNL     1      -1.790   2.139  -1.335  1.00  0.00    -0.326 N 
ATOM     12  H   UNL     1      -2.769   2.242  -1.340  1.00  0.00     0.169 HD
BRANCH  11  13
ATOM     13  C   UNL     1      -1.039   3.101  -0.642  1.00  0.00     0.041 A 
ATOM     14  C   UNL     1      -1.684   3.925   0.280  1.00  0.00     0.027 A 
ATOM     15  C   UNL     1       0.341   3.219  -0.819  1.00  0.00     0.027 A 
ATOM     16  C   UNL     1      -0.923   4.707   1.155  1.00  0.00     0.016 A 
ATOM     17  C   UNL     1       1.102   3.991   0.059  1.00  0.00     0.016 A 
ATOM     18  C   UNL     1       0.475   4.654   1.111  1.00  0.00     0.039 A 
BRANCH  18  19
ATOM     19  C   UNL     1       1.230   5.302   2.204  1.00  0.00     0.251 C 
ATOM     20  O   UNL     1       0.883   6.414   2.585  1.00  0.00    -0.269 OA
ATOM     21  N   UNL     1       2.254   4.649   2.842  1.00  0.00    -0.352 N 
ATOM     22  H   UNL     1       2.680   5.173   3.558  1.00  0.00     0.163 HD
BRANCH  21  23
ATOM     23  C   UNL     1       2.829   3.321   2.657  1.00  0.00     0.121 C 
BRANCH  23  24
ATOM     24  C   UNL     1       4.248   3.389   2.075  1.00  0.00     0.057 C 
BRANCH  24  25
ATOM     25  C   UNL     1       5.254   3.840   3.108  1.00  0.00    -0.046 A 
ATOM     26  C   UNL     1       5.943   2.899   3.886  1.00  0.00     0.004 A 
ATOM     27  C   UNL     1       5.454   5.204   3.356  1.00  0.00     0.004 A 
ATOM     28  C   UNL     1       6.795   3.317   4.910  1.00  0.00     0.000 A 
ATOM     29  C   UNL     1       6.303   5.619   4.382  1.00  0.00     0.000 A 
ATOM     30  C   UNL     1       6.965   4.676   5.166  1.00  0.00     0.000 A 
ENDBRANCH  24  25
ENDBRANCH  23  24
ENDBRANCH  21  23
ENDBRANCH  18  19
ENDBRANCH  11  13
ENDBRANCH   8   9
ENDBRANCH   2   4
ENDBRANCH   1   2
BRANCH   1  31
ATOM     31  C   UNL     1      -2.078  -3.141   2.429  1.00  0.00     0.274 C 
BRANCH  31  32
ATOM     32  C   UNL     1      -1.482  -3.033   3.834  1.00  0.00     0.275 C 
BRANCH  32  33
ATOM     33  O   UNL     1      -1.715  -1.721   4.386  1.00  0.00    -0.458 OA
BRANCH  33  34
ATOM     34  C   UNL     1      -0.708  -0.835   4.202  1.00  0.00     0.338 C 
ATOM     35  O   UNL     1       0.369  -1.031   3.665  1.00  0.00    -0.246 OA
BRANCH  34  36
ATOM     36  C   UNL     1      -1.138   0.497   4.647  1.00  0.00     0.060 A 
ATOM     37  C   UNL     1      -1.553   1.397   3.673  1.00  0.00     0.016 A 
ATOM     38  C   UNL     1      -1.008   0.905   5.973  1.00  0.00     0.016 A 
ATOM     39  C   UNL     1      -1.769   2.728   4.005  1.00  0.00     0.010 A 
ATOM     40  C   UNL     1      -1.272   2.242   6.311  1.00  0.00     0.010 A 
ATOM     41  C   UNL     1      -1.617   3.179   5.321  1.00  0.00    -0.014 A 
BRANCH  41  42
ATOM     42  C   UNL     1      -1.760   4.635   5.611  1.00  0.00     0.031 A 
ATOM     43  C   UNL     1      -0.587   5.425   6.138  1.00  0.00     0.074 A 
ATOM     44  C   UNL     1      -2.916   5.273   5.333  1.00  0.00     0.049 A 
ATOM     45  N   UNL     1      -0.540   6.669   6.541  1.00  0.00    -0.248 NA
ATOM     46  C   UNL     1       0.698   4.715   6.244  1.00  0.00     0.031 C 
ATOM     47  C   UNL     1      -4.117   4.645   4.776  1.00  0.00     0.029 A 
ATOM     48  N   UNL     1      -3.267   6.595   5.460  1.00  0.00    -0.354 N 
ATOM     49  C   UNL     1       0.764   6.883   6.975  1.00  0.00     0.074 A 
ATOM     50  C   UNL     1       1.470   5.630   6.814  1.00  0.00     0.031 C 
ATOM     51  C   UNL     1      -5.053   5.584   4.572  1.00  0.00     0.029 A 
ATOM     52  C   UNL     1      -4.551   6.868   5.052  1.00  0.00     0.049 A 
ATOM     53  H   UNL     1      -2.656   7.282   5.811  1.00  0.00     0.167 HD
ATOM     54  C   UNL     1       1.323   8.020   7.458  1.00  0.00     0.037 A 
ATOM     55  C   UNL     1      -5.262   8.013   5.086  1.00  0.00     0.037 A 
ATOM     56  C   UNL     1       0.636   9.283   7.558  1.00  0.00     0.049 A 
ATOM     57  C   UNL     1      -4.627   9.257   5.643  1.00  0.00     0.074 A 
ATOM     58  C   UNL     1       1.117  10.490   8.037  1.00  0.00     0.029 A 
ATOM     59  N   UNL     1      -0.669   9.511   7.145  1.00  0.00    -0.354 N 
ATOM     60  N   UNL     1      -3.414   9.422   6.114  1.00  0.00    -0.248 NA
ATOM     61  C   UNL     1      -5.460  10.467   5.686  1.00  0.00     0.031 C 
ATOM     62  C   UNL     1       0.092  11.439   7.946  1.00  0.00     0.029 A 
ATOM     63  C   UNL     1      -1.015  10.833   7.373  1.00  0.00     0.049 A 
ATOM     64  H   UNL     1      -1.262   8.832   6.749  1.00  0.00     0.167 HD
ATOM     65  C   UNL     1      -3.332  10.756   6.493  1.00  0.00     0.074 A 
ATOM     66  C   UNL     1      -4.613  11.358   6.184  1.00  0.00     0.031 C 
ATOM     67  C   UNL     1      -2.291  11.421   7.052  1.00  0.00     0.037 A 
BRANCH  54  68
ATOM     68  C   UNL     1       2.744   7.944   7.949  1.00  0.00     0.058 A 
ATOM     69  C   UNL     1       3.832   7.839   7.070  1.00  0.00     0.135 A 
ATOM     70  C   UNL     1       3.019   8.008   9.326  1.00  0.00     0.135 A 
ATOM     71  F   UNL     1       3.630   7.754   5.746  1.00  0.00    -0.206 F 
ATOM     72  C   UNL     1       5.140   7.772   7.541  1.00  0.00     0.059 A 
ATOM     73  C   UNL     1       4.321   7.965   9.817  1.00  0.00     0.059 A 
ATOM     74  F   UNL     1       2.015   8.111  10.212  1.00  0.00    -0.206 F 
ATOM     75  C   UNL     1       5.375   7.830   8.915  1.00  0.00     0.060 A 
BRANCH  75  76
ATOM     76  S   UNL     1       7.079   7.722   9.502  1.00  0.00     0.124 S 
ATOM     77  O   UNL     1       7.378   6.311   9.271  1.00  0.00    -0.237 OA
ATOM     78  O   UNL     1       7.772   8.663   8.628  1.00  0.00    -0.237 OA
ATOM     79  O   UNL     1       6.984   8.122  10.902  1.00  0.00    -0.744 OA
ENDBRANCH  75  76
ENDBRANCH  54  68
BRANCH  55  80
ATOM     80  C   UNL     1      -6.669   8.026   4.602  1.00  0.00     0.058 A 
ATOM     81  C   UNL     1      -7.028   8.703   3.427  1.00  0.00     0.135 A 
ATOM     82  C   UNL     1      -7.680   7.343   5.297  1.00  0.00     0.135 A 
ATOM     83  F   UNL     1      -6.100   9.379   2.733  1.00  0.00    -0.206 F 
ATOM     84  C   UNL     1      -8.339   8.709   2.962  1.00  0.00     0.059 A 
ATOM     85  C   UNL     1      -8.992   7.311   4.837  1.00  0.00     0.059 A 
ATOM     86  F   UNL     1      -7.387   6.669   6.420  1.00  0.00    -0.206 F 
ATOM     87  C   UNL     1      -9.314   8.006   3.672  1.00  0.00     0.060 A 
BRANCH  87  88
ATOM     88  S   UNL     1     -11.001   7.962   3.028  1.00  0.00     0.124 S 
ATOM     89  O   UNL     1     -11.488   9.287   3.393  1.00  0.00    -0.237 OA
ATOM     90  O   UNL     1     -10.782   7.730   1.604  1.00  0.00    -0.237 OA
ATOM     91  O   UNL     1     -11.604   6.846   3.750  1.00  0.00    -0.744 OA
ENDBRANCH  87  88
ENDBRANCH  55  80
BRANCH  67  92
ATOM     92  C   UNL     1      -2.483  12.885   7.336  1.00  0.00     0.058 A 
ATOM     93  C   UNL     1      -3.275  13.330   8.406  1.00  0.00     0.135 A 
ATOM     94  C   UNL     1      -1.839  13.853   6.549  1.00  0.00     0.135 A 
ATOM     95  F   UNL     1      -3.918  12.445   9.184  1.00  0.00    -0.206 F 
ATOM     96  C   UNL     1      -3.442  14.685   8.671  1.00  0.00     0.059 A 
ATOM     97  C   UNL     1      -1.973  15.213   6.811  1.00  0.00     0.059 A 
ATOM     98  F   UNL     1      -1.062  13.480   5.520  1.00  0.00    -0.206 F 
ATOM     99  C   UNL     1      -2.788  15.620   7.866  1.00  0.00     0.060 A 
BRANCH  99 100
ATOM    100  S   UNL     1      -2.993  17.376   8.233  1.00  0.00     0.124 S 
ATOM    101  O   UNL     1      -4.332  17.631   7.711  1.00  0.00    -0.237 OA
ATOM    102  O   UNL     1      -2.863  17.412   9.686  1.00  0.00    -0.237 OA
ATOM    103  O   UNL     1      -1.901  18.006   7.497  1.00  0.00    -0.744 OA
ENDBRANCH  99 100
ENDBRANCH  67  92
ENDBRANCH  41  42
ENDBRANCH  34  36
ENDBRANCH  33  34
ENDBRANCH  32  33
ENDBRANCH  31  32
ENDBRANCH   1  31
TORSDOF 20
