REMARK SMILES CC[NH2+][C@]1(C(=O)OCCOC(=O)c2ccc(-c3c4nc(c(-c5c(F)cc(S(=O)(=O)[O-])cc5F)c5ccc([nH]5)c(-c5c(F)cc(S(=O)(=O)[O-])cc5F)c5nc(c(-c6c(F)cc(S(=O)(=O)[O-])cc6F)c6ccc3[nH]6)C=C5)C=C4)cc2)CC[C@@H](Sc2ccccc2C)C1
REMARK SMILES IDX 9 1 8 2 7 3 5 4 6 5 4 6 79 7 90 8 80 9 81 10 3 11 2 14 1 15
REMARK SMILES IDX 82 16 83 17 84 18 88 19 85 20 87 21 89 22 86 23 10 24 11 25
REMARK SMILES IDX 12 26 13 27 14 28 78 29 15 30 77 31 16 32 17 33 18 34 71 35
REMARK SMILES IDX 19 36 76 37 70 38 72 39 20 40 75 41 69 42 68 43 21 45 55 46
REMARK SMILES IDX 34 47 54 48 35 49 38 50 53 51 73 52 36 53 37 54 52 56 74 57
REMARK SMILES IDX 39 58 22 59 23 60 32 61 24 62 25 63 31 64 33 65 26 66 27 67
REMARK SMILES IDX 28 68 29 69 30 70 56 71 57 72 66 73 58 74 59 75 65 76 67 77
REMARK SMILES IDX 60 78 61 79 62 80 63 81 64 82 40 83 41 84 50 85 42 86 43 87
REMARK SMILES IDX 49 88 51 89 44 90 45 91 46 92 47 93 48 94
REMARK H PARENT 3 12 3 13 72 44 38 55
REMARK Flexibility Score: inf
ROOT
ATOM      1  C   UNL     1       2.706  -0.487  -1.095  1.00  0.00     0.275 C 
ENDROOT
BRANCH   1   2
ATOM      2  C   UNL     1       1.654  -0.563  -2.196  1.00  0.00     0.274 C 
BRANCH   2   3
ATOM      3  O   UNL     1       1.420   0.750  -2.751  1.00  0.00    -0.457 OA
BRANCH   3   4
ATOM      4  C   UNL     1       0.252   1.350  -2.389  1.00  0.00     0.368 C 
ATOM      5  O   UNL     1      -0.564   0.835  -1.631  1.00  0.00    -0.245 OA
BRANCH   4   6
ATOM      6  C   UNL     1       0.051   2.750  -3.050  1.00  0.00     0.195 C 
ATOM      7  C   UNL     1       0.696   3.884  -2.237  1.00  0.00     0.082 C 
ATOM      8  C   UNL     1       0.801   2.906  -4.392  1.00  0.00     0.096 C 
ATOM      9  C   UNL     1       0.772   5.058  -3.203  1.00  0.00     0.022 C 
ATOM     10  C   UNL     1       1.052   4.416  -4.561  1.00  0.00     0.059 C 
BRANCH   6  11
ATOM     11  N   UNL     1      -1.405   2.962  -3.324  1.00  0.00    -0.332 N 
ATOM     12  H   UNL     1      -1.496   3.717  -4.003  1.00  0.00     0.347 HD
ATOM     13  H   UNL     1      -1.770   2.073  -3.669  1.00  0.00     0.347 HD
BRANCH  11  14
ATOM     14  C   UNL     1      -2.201   3.311  -2.137  1.00  0.00     0.257 C 
ATOM     15  C   UNL     1      -3.645   2.860  -2.314  1.00  0.00     0.071 C 
ENDBRANCH  11  14
ENDBRANCH   6  11
BRANCH  10  16
ATOM     16  S   UNL     1       2.686   4.790  -5.334  1.00  0.00    -0.122 SA
BRANCH  16  17
ATOM     17  C   UNL     1       3.854   4.659  -3.977  1.00  0.00     0.010 A 
ATOM     18  C   UNL     1       4.136   5.838  -3.262  1.00  0.00     0.015 A 
ATOM     19  C   UNL     1       4.578   3.491  -3.671  1.00  0.00    -0.038 A 
ATOM     20  C   UNL     1       5.064   5.851  -2.219  1.00  0.00     0.001 A 
ATOM     21  C   UNL     1       5.494   3.516  -2.599  1.00  0.00     0.004 A 
ATOM     22  C   UNL     1       4.445   2.193  -4.415  1.00  0.00     0.045 C 
ATOM     23  C   UNL     1       5.737   4.685  -1.881  1.00  0.00     0.000 A 
ENDBRANCH  16  17
ENDBRANCH  10  16
ENDBRANCH   4   6
ENDBRANCH   3   4
ENDBRANCH   2   3
ENDBRANCH   1   2
BRANCH   1  24
ATOM     24  O   UNL     1       2.260   0.442  -0.098  1.00  0.00    -0.458 OA
BRANCH  24  25
ATOM     25  C   UNL     1       3.228   1.185   0.489  1.00  0.00     0.338 C 
ATOM     26  O   UNL     1       4.431   1.044   0.357  1.00  0.00    -0.246 OA
BRANCH  25  27
ATOM     27  C   UNL     1       2.604   2.241   1.319  1.00  0.00     0.060 A 
ATOM     28  C   UNL     1       1.404   2.837   0.931  1.00  0.00     0.016 A 
ATOM     29  C   UNL     1       3.265   2.709   2.455  1.00  0.00     0.016 A 
ATOM     30  C   UNL     1       0.922   3.959   1.604  1.00  0.00     0.010 A 
ATOM     31  C   UNL     1       2.717   3.764   3.197  1.00  0.00     0.010 A 
ATOM     32  C   UNL     1       1.559   4.431   2.760  1.00  0.00    -0.014 A 
BRANCH  32  33
ATOM     33  C   UNL     1       1.037   5.633   3.478  1.00  0.00     0.031 A 
ATOM     34  C   UNL     1       1.934   6.824   3.720  1.00  0.00     0.074 A 
ATOM     35  C   UNL     1      -0.245   5.682   3.898  1.00  0.00     0.049 A 
ATOM     36  N   UNL     1       1.731   7.872   4.479  1.00  0.00    -0.248 NA
ATOM     37  C   UNL     1       3.237   6.830   3.035  1.00  0.00     0.031 C 
ATOM     38  C   UNL     1      -1.244   4.626   3.712  1.00  0.00     0.029 A 
ATOM     39  N   UNL     1      -0.936   6.670   4.558  1.00  0.00    -0.354 N 
ATOM     40  C   UNL     1       2.899   8.624   4.415  1.00  0.00     0.074 A 
ATOM     41  C   UNL     1       3.807   7.916   3.539  1.00  0.00     0.031 C 
ATOM     42  C   UNL     1      -2.426   5.044   4.190  1.00  0.00     0.029 A 
ATOM     43  C   UNL     1      -2.254   6.357   4.800  1.00  0.00     0.049 A 
ATOM     44  H   UNL     1      -0.526   7.522   4.832  1.00  0.00     0.167 HD
ATOM     45  C   UNL     1       3.188   9.796   5.031  1.00  0.00     0.037 A 
ATOM     46  C   UNL     1      -3.211   7.028   5.470  1.00  0.00     0.037 A 
ATOM     47  C   UNL     1       2.260  10.539   5.845  1.00  0.00     0.049 A 
ATOM     48  C   UNL     1      -2.871   8.335   6.128  1.00  0.00     0.074 A 
ATOM     49  C   UNL     1       2.465  11.731   6.519  1.00  0.00     0.029 A 
ATOM     50  N   UNL     1       0.940  10.178   6.069  1.00  0.00    -0.354 N 
ATOM     51  N   UNL     1      -1.729   8.979   6.137  1.00  0.00    -0.248 NA
ATOM     52  C   UNL     1      -3.942   8.992   6.890  1.00  0.00     0.031 C 
ATOM     53  C   UNL     1       1.272  12.085   7.161  1.00  0.00     0.029 A 
ATOM     54  C   UNL     1       0.318  11.127   6.864  1.00  0.00     0.049 A 
ATOM     55  H   UNL     1       0.509   9.367   5.715  1.00  0.00     0.167 HD
ATOM     56  C   UNL     1      -1.942  10.111   6.915  1.00  0.00     0.074 A 
ATOM     57  C   UNL     1      -3.330  10.083   7.327  1.00  0.00     0.031 C 
ATOM     58  C   UNL     1      -1.062  11.079   7.270  1.00  0.00     0.037 A 
BRANCH  45  59
ATOM     59  C   UNL     1       4.578  10.347   4.870  1.00  0.00     0.058 A 
ATOM     60  C   UNL     1       4.993  10.980   3.690  1.00  0.00     0.135 A 
ATOM     61  C   UNL     1       5.490  10.283   5.937  1.00  0.00     0.135 A 
ATOM     62  F   UNL     1       4.167  11.050   2.634  1.00  0.00    -0.206 F 
ATOM     63  C   UNL     1       6.269  11.521   3.566  1.00  0.00     0.059 A 
ATOM     64  C   UNL     1       6.764  10.835   5.843  1.00  0.00     0.059 A 
ATOM     65  F   UNL     1       5.143   9.686   7.088  1.00  0.00    -0.206 F 
ATOM     66  C   UNL     1       7.148  11.443   4.649  1.00  0.00     0.060 A 
BRANCH  66  67
ATOM     67  S   UNL     1       8.795  12.165   4.484  1.00  0.00     0.124 S 
ATOM     68  O   UNL     1       9.471  11.163   3.667  1.00  0.00    -0.237 OA
ATOM     69  O   UNL     1       8.517  13.438   3.825  1.00  0.00    -0.237 OA
ATOM     70  O   UNL     1       9.260  12.268   5.864  1.00  0.00    -0.744 OA
ENDBRANCH  66  67
ENDBRANCH  45  59
BRANCH  46  71
ATOM     71  C   UNL     1      -4.576   6.451   5.598  1.00  0.00     0.058 A 
ATOM     72  C   UNL     1      -5.667   7.023   4.929  1.00  0.00     0.135 A 
ATOM     73  C   UNL     1      -4.814   5.317   6.390  1.00  0.00     0.135 A 
ATOM     74  F   UNL     1      -5.491   8.116   4.170  1.00  0.00    -0.206 F 
ATOM     75  C   UNL     1      -6.951   6.499   5.049  1.00  0.00     0.059 A 
ATOM     76  C   UNL     1      -6.082   4.760   6.504  1.00  0.00     0.059 A 
ATOM     77  F   UNL     1      -3.800   4.726   7.041  1.00  0.00    -0.206 F 
ATOM     78  C   UNL     1      -7.147   5.366   5.839  1.00  0.00     0.060 A 
BRANCH  78  79
ATOM     79  S   UNL     1      -8.802   4.650   5.953  1.00  0.00     0.124 S 
ATOM     80  O   UNL     1      -9.410   5.484   6.982  1.00  0.00    -0.237 OA
ATOM     81  O   UNL     1      -9.316   4.828   4.599  1.00  0.00    -0.237 OA
ATOM     82  O   UNL     1      -8.535   3.265   6.334  1.00  0.00    -0.744 OA
ENDBRANCH  78  79
ENDBRANCH  46  71
BRANCH  58  83
ATOM     83  C   UNL     1      -1.587  12.182   8.142  1.00  0.00     0.058 A 
ATOM     84  C   UNL     1      -1.816  11.981   9.512  1.00  0.00     0.135 A 
ATOM     85  C   UNL     1      -1.864  13.448   7.605  1.00  0.00     0.135 A 
ATOM     86  F   UNL     1      -1.572  10.784  10.069  1.00  0.00    -0.206 F 
ATOM     87  C   UNL     1      -2.338  12.989  10.315  1.00  0.00     0.059 A 
ATOM     88  C   UNL     1      -2.369  14.477   8.393  1.00  0.00     0.059 A 
ATOM     89  F   UNL     1      -1.653  13.691   6.302  1.00  0.00    -0.206 F 
ATOM     90  C   UNL     1      -2.620  14.232   9.744  1.00  0.00     0.060 A 
BRANCH  90  91
ATOM     91  S   UNL     1      -3.304  15.536  10.789  1.00  0.00     0.124 S 
ATOM     92  O   UNL     1      -4.712  15.156  10.844  1.00  0.00    -0.237 OA
ATOM     93  O   UNL     1      -2.554  15.374  12.031  1.00  0.00    -0.237 OA
ATOM     94  O   UNL     1      -3.009  16.755  10.041  1.00  0.00    -0.744 OA
ENDBRANCH  90  91
ENDBRANCH  58  83
ENDBRANCH  32  33
ENDBRANCH  25  27
ENDBRANCH  24  25
ENDBRANCH   1  24
TORSDOF 18
