REMARK SMILES CCOC(=O)[C@H]1CCCN(c2cc(C(=O)OCCOC(=O)c3ccc(-c4c5nc(c(-c6c(F)cc(S(=O)(=O)[O-])cc6F)c6ccc([nH]6)c(-c6c(F)cc(S(=O)(=O)[O-])cc6F)c6nc(c(-c7c(F)cc(S(=O)(=O)[O-])cc7F)c7ccc4[nH]7)C=C6)C=C5)cc3)c3cc(NC(=O)c4ccc(Cl)cc4)ccc3n2)C1
REMARK SMILES IDX 17 1 16 2 14 3 15 4 13 5 11 6 12 7 104 8 103 9 88 10 102 11
REMARK SMILES IDX 89 12 101 13 90 14 10 15 6 16 7 17 105 18 8 19 9 20 4 21
REMARK SMILES IDX 5 22 3 23 2 24 1 25 91 26 92 27 93 29 94 30 95 31 100 32
REMARK SMILES IDX 96 33 99 34 97 35 98 36 18 37 19 38 20 39 21 40 22 41 23 42
REMARK SMILES IDX 87 43 24 44 86 45 25 46 26 47 27 48 80 49 28 50 85 51 79 52
REMARK SMILES IDX 81 53 29 54 84 55 78 56 77 57 30 59 64 60 43 61 63 62 44 63
REMARK SMILES IDX 47 64 62 65 82 66 45 67 46 68 61 70 83 71 48 72 31 73 32 74
REMARK SMILES IDX 41 75 33 76 34 77 40 78 42 79 35 80 36 81 37 82 38 83 39 84
REMARK SMILES IDX 65 85 66 86 75 87 67 88 68 89 74 90 76 91 69 92 70 93 71 94
REMARK SMILES IDX 72 95 73 96 49 97 50 98 59 99 51 100 52 101 58 102 60 103
REMARK SMILES IDX 53 104 54 105 55 106 56 107 57 108
REMARK H PARENT 91 28 81 58 47 69
REMARK Flexibility Score: inf
ROOT
ATOM      1  C   UNL     1      -2.029   4.591   1.269  1.00  0.00     0.275 C 
ENDROOT
BRANCH   1   2
ATOM      2  O   UNL     1      -1.175   5.254   0.314  1.00  0.00    -0.458 OA
BRANCH   2   3
ATOM      3  C   UNL     1       0.157   5.177   0.549  1.00  0.00     0.339 C 
ATOM      4  O   UNL     1       0.694   4.648   1.508  1.00  0.00    -0.246 OA
BRANCH   3   5
ATOM      5  C   UNL     1       0.932   5.754  -0.572  1.00  0.00     0.073 A 
ATOM      6  C   UNL     1       2.692   5.470  -2.175  1.00  0.00     0.130 A 
ATOM      7  C   UNL     1       1.807   4.927  -1.261  1.00  0.00     0.063 A 
ATOM      8  N   UNL     1       2.828   6.803  -2.306  1.00  0.00    -0.231 NA
ATOM      9  C   UNL     1       1.996   7.614  -1.621  1.00  0.00     0.074 A 
ATOM     10  C   UNL     1       0.974   7.128  -0.789  1.00  0.00     0.017 A 
ATOM     11  C   UNL     1       2.143   8.993  -1.701  1.00  0.00     0.031 A 
ATOM     12  C   UNL     1       0.084   8.009  -0.159  1.00  0.00     0.037 A 
ATOM     13  C   UNL     1       1.326   9.870  -0.965  1.00  0.00     0.028 A 
ATOM     14  C   UNL     1       0.299   9.372  -0.164  1.00  0.00     0.042 A 
BRANCH   6  15
ATOM     15  N   UNL     1       3.405   4.615  -2.977  1.00  0.00    -0.356 N 
ATOM     16  C   UNL     1       3.061   2.380  -3.845  1.00  0.00     0.118 C 
ATOM     17  C   UNL     1       4.575   2.145  -3.774  1.00  0.00     0.019 C 
ATOM     18  C   UNL     1       2.700   3.852  -3.996  1.00  0.00     0.133 C 
ATOM     19  C   UNL     1       5.242   3.077  -2.752  1.00  0.00     0.022 C 
ATOM     20  C   UNL     1       4.851   4.545  -2.971  1.00  0.00     0.118 C 
BRANCH  16  21
ATOM     21  C   UNL     1       2.400   1.601  -4.954  1.00  0.00     0.310 C 
ATOM     22  O   UNL     1       1.744   2.084  -5.864  1.00  0.00    -0.252 OA
BRANCH  21  23
ATOM     23  O   UNL     1       2.550   0.282  -4.696  1.00  0.00    -0.466 OA
BRANCH  23  24
ATOM     24  C   UNL     1       1.937  -0.827  -5.619  1.00  0.00     0.229 C 
ATOM     25  C   UNL     1       0.352  -2.324  -5.010  1.00  0.00     0.049 C 
ENDBRANCH  23  24
ENDBRANCH  21  23
ENDBRANCH  16  21
ENDBRANCH   6  15
BRANCH  14  26
ATOM     26  N   UNL     1      -0.486  10.259   0.586  1.00  0.00    -0.322 N 
ATOM     27  C   UNL     1      -1.432  10.058   1.571  1.00  0.00     0.255 C 
ATOM     28  H   UNL     1      -0.333  11.207   0.369  1.00  0.00     0.170 HD
ATOM     29  O   UNL     1      -2.178  10.994   1.869  1.00  0.00    -0.269 OA
BRANCH  27  30
ATOM     30  C   UNL     1      -1.576   8.803   2.361  1.00  0.00     0.040 A 
ATOM     31  C   UNL     1      -2.876   8.358   2.650  1.00  0.00     0.015 A 
ATOM     32  C   UNL     1      -0.480   8.127   2.918  1.00  0.00     0.015 A 
ATOM     33  C   UNL     1      -3.081   7.270   3.505  1.00  0.00     0.021 A 
ATOM     34  C   UNL     1      -0.686   7.013   3.745  1.00  0.00     0.021 A 
ATOM     35  C   UNL     1      -1.984   6.611   4.062  1.00  0.00     0.041 A 
ATOM     36  Cl  UNL     1      -2.240   5.229   5.057  1.00  0.00    -0.084 Cl
ENDBRANCH  27  30
ENDBRANCH  14  26
ENDBRANCH   3   5
ENDBRANCH   2   3
ENDBRANCH   1   2
BRANCH   1  37
ATOM     37  C   UNL     1      -3.327   4.108   0.620  1.00  0.00     0.275 C 
BRANCH  37  38
ATOM     38  O   UNL     1      -3.065   2.891  -0.076  1.00  0.00    -0.458 OA
BRANCH  38  39
ATOM     39  C   UNL     1      -2.371   3.083  -1.215  1.00  0.00     0.338 C 
ATOM     40  O   UNL     1      -2.282   4.089  -1.895  1.00  0.00    -0.246 OA
BRANCH  39  41
ATOM     41  C   UNL     1      -1.478   1.941  -1.337  1.00  0.00     0.060 A 
ATOM     42  C   UNL     1      -0.183   2.071  -0.854  1.00  0.00     0.016 A 
ATOM     43  C   UNL     1      -1.890   0.789  -1.972  1.00  0.00     0.016 A 
ATOM     44  C   UNL     1       0.778   1.147  -1.203  1.00  0.00     0.010 A 
ATOM     45  C   UNL     1      -0.946  -0.204  -2.199  1.00  0.00     0.010 A 
ATOM     46  C   UNL     1       0.414   0.005  -1.913  1.00  0.00    -0.014 A 
BRANCH  46  47
ATOM     47  C   UNL     1       1.434  -0.920  -2.431  1.00  0.00     0.031 A 
ATOM     48  C   UNL     1       1.377  -1.299  -3.874  1.00  0.00     0.074 A 
ATOM     49  C   UNL     1       2.458  -1.390  -1.703  1.00  0.00     0.049 A 
ATOM     50  N   UNL     1       2.217  -2.454  -4.711  1.00  0.00    -0.248 NA
ATOM     51  C   UNL     1       0.095  -0.384  -5.143  1.00  0.00     0.031 C 
ATOM     52  C   UNL     1       2.739  -1.049  -0.311  1.00  0.00     0.029 A 
ATOM     53  N   UNL     1       3.446  -2.281  -2.043  1.00  0.00    -0.354 N 
ATOM     54  C   UNL     1       1.586  -2.521  -6.449  1.00  0.00     0.074 A 
ATOM     55  C   UNL     1       0.212  -1.153  -6.574  1.00  0.00     0.031 C 
ATOM     56  C   UNL     1       3.826  -1.719   0.090  1.00  0.00     0.029 A 
ATOM     57  C   UNL     1       4.228  -2.633  -0.973  1.00  0.00     0.049 A 
ATOM     58  H   UNL     1       3.578  -2.630  -2.954  1.00  0.00     0.167 HD
ATOM     59  C   UNL     1       2.005  -3.307  -7.454  1.00  0.00     0.037 A 
ATOM     60  C   UNL     1       5.100  -3.644  -0.816  1.00  0.00     0.037 A 
ATOM     61  C   UNL     1       3.018  -4.289  -7.250  1.00  0.00     0.049 A 
ATOM     62  C   UNL     1       5.380  -4.571  -1.967  1.00  0.00     0.074 A 
ATOM     63  C   UNL     1       3.526  -5.194  -8.156  1.00  0.00     0.029 A 
ATOM     64  N   UNL     1       3.674  -4.500  -6.036  1.00  0.00    -0.354 N 
ATOM     65  N   UNL     1       4.920  -4.556  -3.198  1.00  0.00    -0.248 NA
ATOM     66  C   UNL     1       6.314  -5.665  -1.683  1.00  0.00     0.031 C 
ATOM     67  C   UNL     1       4.437  -6.005  -7.473  1.00  0.00     0.029 A 
ATOM     68  C   UNL     1       4.554  -5.557  -6.162  1.00  0.00     0.049 A 
ATOM     69  H   UNL     1       3.530  -3.975  -5.216  1.00  0.00     0.167 HD
ATOM     70  C   UNL     1       5.534  -5.626  -3.847  1.00  0.00     0.074 A 
ATOM     71  C   UNL     1       6.412  -6.244  -2.869  1.00  0.00     0.031 C 
ATOM     72  C   UNL     1       5.405  -6.084  -5.119  1.00  0.00     0.037 A 
BRANCH  59  73
ATOM     73  C   UNL     1       1.314  -3.100  -8.751  1.00  0.00     0.058 A 
ATOM     74  C   UNL     1       1.491  -1.921  -9.492  1.00  0.00     0.135 A 
ATOM     75  C   UNL     1       0.441  -4.071  -9.260  1.00  0.00     0.135 A 
ATOM     76  F   UNL     1       2.298  -0.951  -9.034  1.00  0.00    -0.206 F 
ATOM     77  C   UNL     1       0.807  -1.700 -10.681  1.00  0.00     0.059 A 
ATOM     78  C   UNL     1      -0.235  -3.885 -10.461  1.00  0.00     0.059 A 
ATOM     79  F   UNL     1       0.223  -5.207  -8.578  1.00  0.00    -0.206 F 
ATOM     80  C   UNL     1      -0.052  -2.692 -11.159  1.00  0.00     0.060 A 
BRANCH  80  81
ATOM     81  S   UNL     1      -0.917  -2.397 -12.714  1.00  0.00     0.124 S 
ATOM     82  O   UNL     1      -1.838  -1.329 -12.339  1.00  0.00    -0.237 OA
ATOM     83  O   UNL     1       0.174  -2.013 -13.603  1.00  0.00    -0.237 OA
ATOM     84  O   UNL     1      -1.538  -3.686 -13.006  1.00  0.00    -0.744 OA
ENDBRANCH  80  81
ENDBRANCH  59  73
BRANCH  60  85
ATOM     85  C   UNL     1       5.700  -3.859   0.532  1.00  0.00     0.058 A 
ATOM     86  C   UNL     1       7.067  -3.654   0.757  1.00  0.00     0.135 A 
ATOM     87  C   UNL     1       4.900  -4.210   1.636  1.00  0.00     0.135 A 
ATOM     88  F   UNL     1       7.872  -3.320  -0.263  1.00  0.00    -0.206 F 
ATOM     89  C   UNL     1       7.623  -3.797   2.023  1.00  0.00     0.059 A 
ATOM     90  C   UNL     1       5.426  -4.316   2.918  1.00  0.00     0.059 A 
ATOM     91  F   UNL     1       3.579  -4.395   1.481  1.00  0.00    -0.206 F 
ATOM     92  C   UNL     1       6.792  -4.118   3.099  1.00  0.00     0.060 A 
BRANCH  92  93
ATOM     93  S   UNL     1       7.520  -4.237   4.746  1.00  0.00     0.124 S 
ATOM     94  O   UNL     1       8.319  -5.451   4.625  1.00  0.00    -0.237 OA
ATOM     95  O   UNL     1       8.267  -2.987   4.839  1.00  0.00    -0.237 OA
ATOM     96  O   UNL     1       6.357  -4.331   5.623  1.00  0.00    -0.744 OA
ENDBRANCH  92  93
ENDBRANCH  60  85
BRANCH  72  97
ATOM     97  C   UNL     1       6.258  -7.264  -5.499  1.00  0.00     0.058 A 
ATOM     98  C   UNL     1       5.992  -8.553  -5.011  1.00  0.00     0.135 A 
ATOM     99  C   UNL     1       7.299  -7.109  -6.429  1.00  0.00     0.135 A 
ATOM    100  F   UNL     1       5.016  -8.749  -4.111  1.00  0.00    -0.206 F 
ATOM    101  C   UNL     1       6.744  -9.646  -5.418  1.00  0.00     0.059 A 
ATOM    102  C   UNL     1       8.033  -8.196  -6.885  1.00  0.00     0.059 A 
ATOM    103  F   UNL     1       7.581  -5.898  -6.934  1.00  0.00    -0.206 F 
ATOM    104  C   UNL     1       7.753  -9.459  -6.366  1.00  0.00     0.060 A 
BRANCH 104 105
ATOM    105  S   UNL     1       8.670 -10.902  -6.939  1.00  0.00     0.124 S 
ATOM    106  O   UNL     1       9.459 -11.236  -5.758  1.00  0.00    -0.237 OA
ATOM    107  O   UNL     1       7.598 -11.835  -7.272  1.00  0.00    -0.237 OA
ATOM    108  O   UNL     1       9.428 -10.394  -8.078  1.00  0.00    -0.744 OA
ENDBRANCH 104 105
ENDBRANCH  72  97
ENDBRANCH  46  47
ENDBRANCH  39  41
ENDBRANCH  38  39
ENDBRANCH  37  38
ENDBRANCH   1  37
TORSDOF 20
