REMARK SMILES O=C(OCCOC(=O)C1CCN(S(=O)(=O)c2ccc3nc(O)sc3c2)CC1)c1ccc(-c2c3nc(c(-c4c(F)cc(S(=O)(=O)[O-])cc4F)c4ccc([nH]4)c(-c4c(F)cc(S(=O)(=O)[O-])cc4F)c4nc(c(-c5c(F)cc(S(=O)(=O)[O-])cc5F)c5ccc2[nH]5)C=C4)C=C3)cc1
REMARK SMILES IDX 4 1 3 2 2 3 1 4 28 5 29 6 93 7 30 8 92 9 31 10 32 11 33 12
REMARK SMILES IDX 86 13 34 14 91 15 85 16 87 17 35 18 90 19 84 20 83 21 36 23
REMARK SMILES IDX 70 24 49 25 69 26 50 27 53 28 68 29 88 30 51 31 52 32 67 34
REMARK SMILES IDX 89 35 54 36 37 37 38 38 47 39 39 40 40 41 46 42 48 43 41 44
REMARK SMILES IDX 42 45 43 46 44 47 45 48 71 49 72 50 81 51 73 52 74 53 80 54
REMARK SMILES IDX 82 55 75 56 76 57 77 58 78 59 79 60 55 61 56 62 65 63 57 64
REMARK SMILES IDX 58 65 64 66 66 67 59 68 60 69 61 70 62 71 63 72 5 73 6 74
REMARK SMILES IDX 7 75 8 76 9 77 10 78 27 79 11 80 26 81 12 82 13 83 14 84
REMARK SMILES IDX 15 85 16 86 17 87 25 88 18 89 24 90 19 91 23 92 20 93 21 94
REMARK SMILES IDX 22 95
REMARK H PARENT 87 22 53 33 22 96
REMARK Flexibility Score: inf
ROOT
ATOM      1  C   UNL     1       4.860   1.003   0.589  1.00  0.00     0.275 C 
ENDROOT
BRANCH   1   2
ATOM      2  O   UNL     1       4.584  -0.117  -0.262  1.00  0.00    -0.458 OA
BRANCH   2   3
ATOM      3  C   UNL     1       4.646  -1.442   0.005  1.00  0.00     0.338 C 
ATOM      4  O   UNL     1       4.420  -2.225  -0.917  1.00  0.00    -0.246 OA
BRANCH   3   5
ATOM      5  C   UNL     1       4.810  -2.030   1.378  1.00  0.00     0.060 A 
ATOM      6  C   UNL     1       4.451  -3.385   1.506  1.00  0.00     0.016 A 
ATOM      7  C   UNL     1       5.114  -1.335   2.546  1.00  0.00     0.016 A 
ATOM      8  C   UNL     1       4.157  -3.941   2.751  1.00  0.00     0.010 A 
ATOM      9  C   UNL     1       4.761  -1.861   3.792  1.00  0.00     0.010 A 
ATOM     10  C   UNL     1       4.224  -3.151   3.898  1.00  0.00    -0.014 A 
BRANCH  10  11
ATOM     11  C   UNL     1       3.997  -3.819   5.197  1.00  0.00     0.031 A 
ATOM     12  C   UNL     1       5.315  -3.877   5.891  1.00  0.00     0.074 A 
ATOM     13  C   UNL     1       2.919  -3.729   6.007  1.00  0.00     0.049 A 
ATOM     14  N   UNL     1       5.775  -2.830   6.509  1.00  0.00    -0.248 NA
ATOM     15  C   UNL     1       6.333  -4.841   5.481  1.00  0.00     0.031 C 
ATOM     16  C   UNL     1       2.032  -2.568   6.129  1.00  0.00     0.029 A 
ATOM     17  N   UNL     1       2.554  -4.550   7.061  1.00  0.00    -0.354 N 
ATOM     18  C   UNL     1       7.146  -2.905   6.423  1.00  0.00     0.074 A 
ATOM     19  C   UNL     1       7.452  -4.187   5.822  1.00  0.00     0.031 C 
ATOM     20  C   UNL     1       1.365  -2.662   7.301  1.00  0.00     0.029 A 
ATOM     21  C   UNL     1       1.672  -3.939   7.952  1.00  0.00     0.049 A 
ATOM     22  H   UNL     1       2.885  -5.471   7.171  1.00  0.00     0.167 HD
ATOM     23  C   UNL     1       7.957  -1.876   6.770  1.00  0.00     0.037 A 
ATOM     24  C   UNL     1       1.668  -4.150   9.303  1.00  0.00     0.037 A 
ATOM     25  C   UNL     1       7.325  -0.692   7.270  1.00  0.00     0.049 A 
ATOM     26  C   UNL     1       2.835  -3.298   9.731  1.00  0.00     0.074 A 
ATOM     27  C   UNL     1       7.053   0.588   6.836  1.00  0.00     0.029 A 
ATOM     28  N   UNL     1       6.780  -0.753   8.531  1.00  0.00    -0.354 N 
ATOM     29  N   UNL     1       2.833  -2.004   9.914  1.00  0.00    -0.248 NA
ATOM     30  C   UNL     1       4.168  -3.892   9.608  1.00  0.00     0.031 C 
ATOM     31  C   UNL     1       5.992   1.064   7.672  1.00  0.00     0.029 A 
ATOM     32  C   UNL     1       5.655   0.031   8.543  1.00  0.00     0.049 A 
ATOM     33  H   UNL     1       7.135  -1.269   9.291  1.00  0.00     0.167 HD
ATOM     34  C   UNL     1       4.139  -1.594   9.632  1.00  0.00     0.074 A 
ATOM     35  C   UNL     1       4.920  -2.806   9.520  1.00  0.00     0.031 C 
ATOM     36  C   UNL     1       4.467  -0.313   9.298  1.00  0.00     0.037 A 
BRANCH  23  37
ATOM     37  C   UNL     1       9.406  -2.067   6.869  1.00  0.00     0.058 A 
ATOM     38  C   UNL     1       9.901  -2.446   8.123  1.00  0.00     0.135 A 
ATOM     39  C   UNL     1      10.306  -1.822   5.829  1.00  0.00     0.135 A 
ATOM     40  F   UNL     1       9.049  -2.703   9.130  1.00  0.00    -0.206 F 
ATOM     41  C   UNL     1      11.256  -2.539   8.362  1.00  0.00     0.059 A 
ATOM     42  C   UNL     1      11.678  -1.915   6.044  1.00  0.00     0.059 A 
ATOM     43  F   UNL     1       9.862  -1.476   4.610  1.00  0.00    -0.206 F 
ATOM     44  C   UNL     1      12.138  -2.255   7.320  1.00  0.00     0.060 A 
BRANCH  44  45
ATOM     45  S   UNL     1      13.899  -2.310   7.695  1.00  0.00     0.124 S 
ATOM     46  O   UNL     1      14.018  -1.267   8.709  1.00  0.00    -0.237 OA
ATOM     47  O   UNL     1      14.059  -3.681   8.169  1.00  0.00    -0.237 OA
ATOM     48  O   UNL     1      14.528  -2.014   6.412  1.00  0.00    -0.744 OA
ENDBRANCH  44  45
ENDBRANCH  23  37
BRANCH  24  49
ATOM     49  C   UNL     1       1.460  -5.559   9.780  1.00  0.00     0.058 A 
ATOM     50  C   UNL     1       0.322  -6.252   9.320  1.00  0.00     0.135 A 
ATOM     51  C   UNL     1       2.296  -6.275  10.654  1.00  0.00     0.135 A 
ATOM     52  F   UNL     1      -0.615  -5.608   8.603  1.00  0.00    -0.206 F 
ATOM     53  C   UNL     1       0.119  -7.609   9.565  1.00  0.00     0.059 A 
ATOM     54  C   UNL     1       2.137  -7.644  10.886  1.00  0.00     0.059 A 
ATOM     55  F   UNL     1       3.308  -5.678  11.298  1.00  0.00    -0.206 F 
ATOM     56  C   UNL     1       1.067  -8.310  10.302  1.00  0.00     0.060 A 
BRANCH  56  57
ATOM     57  S   UNL     1       0.925 -10.107  10.406  1.00  0.00     0.124 S 
ATOM     58  O   UNL     1      -0.302 -10.271  11.177  1.00  0.00    -0.237 OA
ATOM     59  O   UNL     1       0.845 -10.478   8.996  1.00  0.00    -0.237 OA
ATOM     60  O   UNL     1       2.155 -10.505  11.083  1.00  0.00    -0.744 OA
ENDBRANCH  56  57
ENDBRANCH  24  49
BRANCH  36  61
ATOM     61  C   UNL     1       3.415   0.714   9.549  1.00  0.00     0.058 A 
ATOM     62  C   UNL     1       3.126   1.098  10.867  1.00  0.00     0.135 A 
ATOM     63  C   UNL     1       2.745   1.377   8.509  1.00  0.00     0.135 A 
ATOM     64  F   UNL     1       3.741   0.496  11.898  1.00  0.00    -0.206 F 
ATOM     65  C   UNL     1       2.245   2.137  11.144  1.00  0.00     0.059 A 
ATOM     66  C   UNL     1       1.875   2.435   8.763  1.00  0.00     0.059 A 
ATOM     67  F   UNL     1       2.958   1.036   7.227  1.00  0.00    -0.206 F 
ATOM     68  C   UNL     1       1.644   2.817  10.084  1.00  0.00     0.060 A 
BRANCH  68  69
ATOM     69  S   UNL     1       0.633   4.265  10.460  1.00  0.00     0.124 S 
ATOM     70  O   UNL     1      -0.512   3.672  11.141  1.00  0.00    -0.237 OA
ATOM     71  O   UNL     1       1.530   5.057  11.297  1.00  0.00    -0.237 OA
ATOM     72  O   UNL     1       0.353   4.836   9.145  1.00  0.00    -0.744 OA
ENDBRANCH  68  69
ENDBRANCH  36  61
ENDBRANCH  10  11
ENDBRANCH   3   5
ENDBRANCH   2   3
ENDBRANCH   1   2
BRANCH   1  73
ATOM     73  C   UNL     1       3.740   1.370   1.573  1.00  0.00     0.274 C 
BRANCH  73  74
ATOM     74  O   UNL     1       2.924   0.263   2.016  1.00  0.00    -0.462 OA
BRANCH  74  75
ATOM     75  C   UNL     1       1.655   0.232   1.542  1.00  0.00     0.309 C 
ATOM     76  O   UNL     1       1.230   1.029   0.712  1.00  0.00    -0.252 OA
BRANCH  75  77
ATOM     77  C   UNL     1       0.751  -0.773   2.271  1.00  0.00     0.102 C 
ATOM     78  C   UNL     1       1.171  -2.227   2.389  1.00  0.00     0.032 C 
ATOM     79  C   UNL     1      -0.612  -0.815   1.604  1.00  0.00     0.032 C 
ATOM     80  C   UNL     1       1.171  -3.046   1.105  1.00  0.00     0.103 C 
ATOM     81  C   UNL     1      -0.484  -1.371   0.196  1.00  0.00     0.103 C 
ATOM     82  N   UNL     1       0.086  -2.744   0.138  1.00  0.00    -0.198 NA
BRANCH  82  83
ATOM     83  S   UNL     1       0.553  -3.249  -1.472  1.00  0.00     0.243 S 
ATOM     84  O   UNL     1       1.332  -2.195  -2.088  1.00  0.00    -0.207 OA
ATOM     85  O   UNL     1       1.041  -4.608  -1.393  1.00  0.00    -0.207 OA
BRANCH  83  86
ATOM     86  C   UNL     1      -1.011  -3.286  -2.309  1.00  0.00     0.084 A 
ATOM     87  C   UNL     1      -1.619  -2.073  -2.635  1.00  0.00     0.024 A 
ATOM     88  C   UNL     1      -1.629  -4.515  -2.556  1.00  0.00     0.043 A 
ATOM     89  C   UNL     1      -2.950  -2.052  -3.039  1.00  0.00     0.031 A 
ATOM     90  C   UNL     1      -2.957  -4.473  -3.003  1.00  0.00     0.059 A 
ATOM     91  C   UNL     1      -3.640  -3.267  -3.206  1.00  0.00     0.085 A 
ATOM     92  S   UNL     1      -4.027  -5.779  -3.356  1.00  0.00    -0.077 S 
ATOM     93  N   UNL     1      -4.973  -3.388  -3.549  1.00  0.00    -0.203 NA
ATOM     94  C   UNL     1      -5.268  -4.656  -3.628  1.00  0.00     0.271 A 
BRANCH  94  95
ATOM     95  O   UNL     1      -6.510  -4.998  -3.907  1.00  0.00    -0.486 OA
ATOM     96  H   UNL     1      -7.157  -4.337  -4.049  1.00  0.00     0.296 HD
ENDBRANCH  94  95
ENDBRANCH  83  86
ENDBRANCH  82  83
ENDBRANCH  75  77
ENDBRANCH  74  75
ENDBRANCH  73  74
ENDBRANCH   1  73
TORSDOF 17
