REMARK SMILES CC1(C)S[C@@H]2[C@H]([NH2+]Cn3nnc4ccccc43)C(=O)N2[C@@H]1C(=O)OCCOC(=O)c1ccc(-c2c3nc(c(-c4c(F)cc(S(=O)(=O)[O-])cc4F)c4ccc([nH]4)c(-c4c(F)cc(S(=O)(=O)[O-])cc4F)c4nc(c(-c5c(F)cc(S(=O)(=O)[O-])cc5F)c5ccc2[nH]5)C=C4)C=C3)cc1
REMARK SMILES IDX 25 1 24 2 22 3 23 4 21 5 1 6 2 7 3 8 4 9 5 10 20 11 6 12
REMARK SMILES IDX 18 13 19 14 7 15 8 18 9 19 10 20 17 21 11 22 12 23 16 24
REMARK SMILES IDX 13 25 15 26 14 27 26 28 27 29 28 30 29 31 30 32 31 33 95 34
REMARK SMILES IDX 32 35 94 36 33 37 34 38 35 39 88 40 36 41 93 42 87 43 89 44
REMARK SMILES IDX 37 45 92 46 86 47 85 48 38 50 72 51 51 52 71 53 52 54 55 55
REMARK SMILES IDX 70 56 90 57 53 58 54 59 69 61 91 62 56 63 39 64 40 65 49 66
REMARK SMILES IDX 41 67 42 68 48 69 50 70 43 71 44 72 45 73 46 74 47 75 73 76
REMARK SMILES IDX 74 77 83 78 75 79 76 80 82 81 84 82 77 83 78 84 79 85 80 86
REMARK SMILES IDX 81 87 57 88 58 89 67 90 59 91 60 92 66 93 68 94 61 95 62 96
REMARK SMILES IDX 63 97 64 98 65 99
REMARK H PARENT 7 16 7 17 89 49 55 60
REMARK Flexibility Score: inf
ROOT
ATOM      1  C   UNL     1      -1.124   1.741  -3.393  1.00  0.00     0.274 C 
ENDROOT
BRANCH   1   2
ATOM      2  O   UNL     1      -0.873   0.937  -2.217  1.00  0.00    -0.460 OA
BRANCH   2   3
ATOM      3  C   UNL     1       0.226   1.247  -1.473  1.00  0.00     0.330 C 
ATOM      4  O   UNL     1       1.050   2.089  -1.804  1.00  0.00    -0.250 OA
BRANCH   3   5
ATOM      5  C   UNL     1       0.287   0.472  -0.134  1.00  0.00     0.212 C 
ATOM      6  C   UNL     1       2.657  -0.217  -0.997  1.00  0.00     0.026 C 
ATOM      7  C   UNL     1       1.605  -0.321   0.112  1.00  0.00     0.044 C 
ATOM      8  C   UNL     1       2.165   0.014   1.499  1.00  0.00     0.026 C 
ATOM      9  S   UNL     1       1.157  -2.144   0.262  1.00  0.00    -0.121 SA
ATOM     10  C   UNL     1      -0.545  -1.760   0.716  1.00  0.00     0.213 C 
ATOM     11  N   UNL     1      -0.756  -0.499   0.035  1.00  0.00    -0.304 N 
ATOM     12  C   UNL     1      -1.887  -2.201   0.041  1.00  0.00     0.307 C 
ATOM     13  C   UNL     1      -2.091  -0.599  -0.021  1.00  0.00     0.285 C 
ATOM     14  O   UNL     1      -2.958   0.205  -0.220  1.00  0.00    -0.268 OA
BRANCH  12  15
ATOM     15  N   UNL     1      -1.938  -2.824  -1.322  1.00  0.00    -0.315 N 
ATOM     16  H   UNL     1      -2.627  -2.320  -1.881  1.00  0.00     0.348 HD
ATOM     17  H   UNL     1      -2.184  -3.805  -1.192  1.00  0.00     0.348 HD
BRANCH  15  18
ATOM     18  C   UNL     1      -0.666  -2.795  -2.026  1.00  0.00     0.415 C 
BRANCH  18  19
ATOM     19  N   UNL     1      -0.710  -3.288  -3.400  1.00  0.00    -0.194 N 
ATOM     20  N   UNL     1      -1.821  -3.675  -4.050  1.00  0.00    -0.061 NA
ATOM     21  C   UNL     1       0.421  -3.446  -4.163  1.00  0.00     0.095 A 
ATOM     22  N   UNL     1      -1.431  -4.157  -5.228  1.00  0.00    -0.130 NA
ATOM     23  C   UNL     1      -0.064  -4.036  -5.316  1.00  0.00     0.113 A 
ATOM     24  C   UNL     1       1.774  -3.162  -3.940  1.00  0.00     0.030 A 
ATOM     25  C   UNL     1       0.845  -4.400  -6.320  1.00  0.00     0.032 A 
ATOM     26  C   UNL     1       2.664  -3.515  -4.955  1.00  0.00     0.002 A 
ATOM     27  C   UNL     1       2.211  -4.133  -6.122  1.00  0.00     0.002 A 
ENDBRANCH  18  19
ENDBRANCH  15  18
ENDBRANCH  12  15
ENDBRANCH   3   5
ENDBRANCH   2   3
ENDBRANCH   1   2
BRANCH   1  28
ATOM     28  C   UNL     1      -2.128   2.862  -3.091  1.00  0.00     0.275 C 
BRANCH  28  29
ATOM     29  O   UNL     1      -1.455   3.878  -2.334  1.00  0.00    -0.458 OA
BRANCH  29  30
ATOM     30  C   UNL     1      -1.925   4.122  -1.087  1.00  0.00     0.338 C 
ATOM     31  O   UNL     1      -3.051   3.928  -0.668  1.00  0.00    -0.246 OA
BRANCH  30  32
ATOM     32  C   UNL     1      -0.729   4.337  -0.246  1.00  0.00     0.060 A 
ATOM     33  C   UNL     1       0.378   5.053  -0.715  1.00  0.00     0.016 A 
ATOM     34  C   UNL     1      -0.647   3.600   0.937  1.00  0.00     0.016 A 
ATOM     35  C   UNL     1       1.605   4.935  -0.060  1.00  0.00     0.010 A 
ATOM     36  C   UNL     1       0.586   3.471   1.574  1.00  0.00     0.010 A 
ATOM     37  C   UNL     1       1.729   4.094   1.052  1.00  0.00    -0.014 A 
BRANCH  37  38
ATOM     38  C   UNL     1       2.949   4.134   1.867  1.00  0.00     0.031 A 
ATOM     39  C   UNL     1       2.893   5.236   2.838  1.00  0.00     0.074 A 
ATOM     40  C   UNL     1       4.053   3.354   1.857  1.00  0.00     0.049 A 
ATOM     41  N   UNL     1       3.451   6.383   2.650  1.00  0.00    -0.248 NA
ATOM     42  C   UNL     1       2.026   5.158   4.016  1.00  0.00     0.031 C 
ATOM     43  C   UNL     1       4.339   2.216   0.998  1.00  0.00     0.029 A 
ATOM     44  N   UNL     1       5.159   3.386   2.673  1.00  0.00    -0.354 N 
ATOM     45  C   UNL     1       3.237   7.079   3.820  1.00  0.00     0.074 A 
ATOM     46  C   UNL     1       2.184   6.385   4.520  1.00  0.00     0.031 C 
ATOM     47  C   UNL     1       5.388   1.507   1.480  1.00  0.00     0.029 A 
ATOM     48  C   UNL     1       5.976   2.263   2.576  1.00  0.00     0.049 A 
ATOM     49  H   UNL     1       5.357   4.140   3.274  1.00  0.00     0.167 HD
ATOM     50  C   UNL     1       4.165   7.970   4.252  1.00  0.00     0.037 A 
ATOM     51  C   UNL     1       7.221   2.059   3.074  1.00  0.00     0.037 A 
ATOM     52  C   UNL     1       5.157   8.252   3.243  1.00  0.00     0.049 A 
ATOM     53  C   UNL     1       7.891   3.374   3.125  1.00  0.00     0.074 A 
ATOM     54  C   UNL     1       5.259   9.045   2.120  1.00  0.00     0.029 A 
ATOM     55  N   UNL     1       6.172   7.334   3.177  1.00  0.00    -0.354 N 
ATOM     56  N   UNL     1       8.242   4.037   2.058  1.00  0.00    -0.248 NA
ATOM     57  C   UNL     1       7.941   4.120   4.378  1.00  0.00     0.031 C 
ATOM     58  C   UNL     1       6.318   8.507   1.327  1.00  0.00     0.029 A 
ATOM     59  C   UNL     1       6.846   7.401   1.983  1.00  0.00     0.049 A 
ATOM     60  H   UNL     1       6.392   6.703   3.900  1.00  0.00     0.167 HD
ATOM     61  C   UNL     1       8.128   5.355   2.438  1.00  0.00     0.074 A 
ATOM     62  C   UNL     1       8.122   5.350   3.893  1.00  0.00     0.031 C 
ATOM     63  C   UNL     1       7.689   6.302   1.565  1.00  0.00     0.037 A 
BRANCH  50  64
ATOM     64  C   UNL     1       4.437   8.231   5.704  1.00  0.00     0.058 A 
ATOM     65  C   UNL     1       5.152   9.382   6.074  1.00  0.00     0.135 A 
ATOM     66  C   UNL     1       4.248   7.263   6.716  1.00  0.00     0.135 A 
ATOM     67  F   UNL     1       5.418  10.339   5.171  1.00  0.00    -0.206 F 
ATOM     68  C   UNL     1       5.660   9.554   7.360  1.00  0.00     0.059 A 
ATOM     69  C   UNL     1       4.690   7.441   8.019  1.00  0.00     0.059 A 
ATOM     70  F   UNL     1       3.715   6.061   6.459  1.00  0.00    -0.206 F 
ATOM     71  C   UNL     1       5.423   8.576   8.324  1.00  0.00     0.060 A 
BRANCH  71  72
ATOM     72  S   UNL     1       6.127   8.769   9.969  1.00  0.00     0.124 S 
ATOM     73  O   UNL     1       7.547   8.568   9.703  1.00  0.00    -0.237 OA
ATOM     74  O   UNL     1       5.725  10.129  10.311  1.00  0.00    -0.237 OA
ATOM     75  O   UNL     1       5.471   7.716  10.739  1.00  0.00    -0.744 OA
ENDBRANCH  71  72
ENDBRANCH  50  64
BRANCH  51  76
ATOM     76  C   UNL     1       7.727   0.891   3.843  1.00  0.00     0.058 A 
ATOM     77  C   UNL     1       9.090   0.812   4.195  1.00  0.00     0.135 A 
ATOM     78  C   UNL     1       6.863  -0.012   4.489  1.00  0.00     0.135 A 
ATOM     79  F   UNL     1       9.985   1.626   3.614  1.00  0.00    -0.206 F 
ATOM     80  C   UNL     1       9.555  -0.037   5.199  1.00  0.00     0.059 A 
ATOM     81  C   UNL     1       7.307  -0.876   5.494  1.00  0.00     0.059 A 
ATOM     82  F   UNL     1       5.549  -0.014   4.216  1.00  0.00    -0.206 F 
ATOM     83  C   UNL     1       8.648  -0.855   5.869  1.00  0.00     0.060 A 
BRANCH  83  84
ATOM     84  S   UNL     1       9.221  -1.790   7.309  1.00  0.00     0.124 S 
ATOM     85  O   UNL     1      10.115  -2.768   6.697  1.00  0.00    -0.237 OA
ATOM     86  O   UNL     1       9.864  -0.753   8.110  1.00  0.00    -0.237 OA
ATOM     87  O   UNL     1       7.988  -2.335   7.870  1.00  0.00    -0.744 OA
ENDBRANCH  83  84
ENDBRANCH  51  76
BRANCH  63  88
ATOM     88  C   UNL     1       7.988   6.099   0.112  1.00  0.00     0.058 A 
ATOM     89  C   UNL     1       7.416   5.110  -0.704  1.00  0.00     0.135 A 
ATOM     90  C   UNL     1       8.887   6.992  -0.492  1.00  0.00     0.135 A 
ATOM     91  F   UNL     1       6.509   4.252  -0.216  1.00  0.00    -0.206 F 
ATOM     92  C   UNL     1       7.741   5.004  -2.060  1.00  0.00     0.059 A 
ATOM     93  C   UNL     1       9.206   6.921  -1.845  1.00  0.00     0.059 A 
ATOM     94  F   UNL     1       9.450   7.972   0.233  1.00  0.00    -0.206 F 
ATOM     95  C   UNL     1       8.633   5.918  -2.622  1.00  0.00     0.060 A 
BRANCH  95  96
ATOM     96  S   UNL     1       8.992   5.829  -4.390  1.00  0.00     0.124 S 
ATOM     97  O   UNL     1       9.753   4.588  -4.489  1.00  0.00    -0.237 OA
ATOM     98  O   UNL     1       7.656   5.801  -4.980  1.00  0.00    -0.237 OA
ATOM     99  O   UNL     1       9.752   7.049  -4.648  1.00  0.00    -0.744 OA
ENDBRANCH  95  96
ENDBRANCH  63  88
ENDBRANCH  37  38
ENDBRANCH  30  32
ENDBRANCH  29  30
ENDBRANCH  28  29
ENDBRANCH   1  28
TORSDOF 17
