REMARK SMILES O=CN1CC[NH+](C[C@@H](CC(=O)Nc2ccc(C(F)(F)F)nc2)C(=O)OCCOC(=O)c2ccc(-c3c4nc(c(-c5c(F)cc(S(=O)(=O)[O-])cc5F)c5ccc([nH]5)c(-c5c(F)cc(S(=O)(=O)[O-])cc5F)c5nc(c(-c6c(F)cc(S(=O)(=O)[O-])cc6F)c6ccc3[nH]6)C=C5)C=C4)cc2)CC1
REMARK SMILES IDX 26 1 25 2 23 3 24 4 8 5 7 6 6 7 1 8 2 9 3 10 4 11 98 12 5 13
REMARK SMILES IDX 97 14 9 16 10 17 11 18 12 19 13 21 14 22 22 23 15 24 21 25
REMARK SMILES IDX 16 26 17 27 18 28 19 29 20 30 27 31 28 32 29 33 30 34 31 35
REMARK SMILES IDX 32 36 96 37 33 38 95 39 34 40 35 41 36 42 89 43 37 44 94 45
REMARK SMILES IDX 88 46 90 47 38 48 93 49 87 50 86 51 39 53 73 54 52 55 72 56
REMARK SMILES IDX 53 57 56 58 71 59 91 60 54 61 55 62 70 64 92 65 57 66 40 67
REMARK SMILES IDX 41 68 50 69 42 70 43 71 49 72 51 73 44 74 45 75 46 76 47 77
REMARK SMILES IDX 48 78 74 79 75 80 84 81 76 82 77 83 83 84 85 85 78 86 79 87
REMARK SMILES IDX 80 88 81 89 82 90 58 91 59 92 68 93 60 94 61 95 67 96 69 97
REMARK SMILES IDX 62 98 63 99 64 100 65 101 66 102
REMARK H PARENT 6 15 12 20 90 52 56 63
REMARK Flexibility Score: inf
ROOT
ATOM      1  C   UNL     1       8.386   0.360  -4.767  1.00  0.00     0.274 C 
ENDROOT
BRANCH   1   2
ATOM      2  O   UNL     1       7.385  -0.448  -4.109  1.00  0.00    -0.462 OA
BRANCH   2   3
ATOM      3  C   UNL     1       6.653   0.170  -3.147  1.00  0.00     0.315 C 
ATOM      4  O   UNL     1       6.673   1.376  -2.927  1.00  0.00    -0.252 OA
BRANCH   3   5
ATOM      5  C   UNL     1       5.761  -0.784  -2.355  1.00  0.00     0.163 C 
BRANCH   5   6
ATOM      6  C   UNL     1       4.566  -1.203  -3.229  1.00  0.00     0.278 C 
BRANCH   6   7
ATOM      7  N   UNL     1       3.386  -1.953  -2.760  1.00  0.00    -0.331 N 
ATOM      8  O   UNL     1       0.311   1.113  -0.046  1.00  0.00    -0.279 OA
ATOM      9  C   UNL     1       1.151   0.256   0.188  1.00  0.00     0.340 C 
ATOM     10  N   UNL     1       1.877  -0.439  -0.754  1.00  0.00    -0.334 N 
ATOM     11  C   UNL     1       2.982  -1.291  -0.348  1.00  0.00     0.180 C 
ATOM     12  C   UNL     1       1.756  -0.098  -2.173  1.00  0.00     0.180 C 
ATOM     13  C   UNL     1       3.278  -2.394  -1.368  1.00  0.00     0.284 C 
ATOM     14  C   UNL     1       2.111  -1.271  -3.113  1.00  0.00     0.284 C 
ATOM     15  H   UNL     1       3.556  -2.818  -3.274  1.00  0.00     0.348 HD
ENDBRANCH   6   7
ENDBRANCH   5   6
BRANCH   5  16
ATOM     16  C   UNL     1       6.582  -1.833  -1.596  1.00  0.00     0.121 C 
BRANCH  16  17
ATOM     17  C   UNL     1       7.653  -2.625  -2.319  1.00  0.00     0.225 C 
ATOM     18  O   UNL     1       8.832  -2.262  -2.261  1.00  0.00    -0.275 OA
ATOM     19  N   UNL     1       7.377  -3.768  -3.012  1.00  0.00    -0.325 N 
ATOM     20  H   UNL     1       8.145  -4.352  -3.210  1.00  0.00     0.169 HD
BRANCH  19  21
ATOM     21  C   UNL     1       6.135  -4.207  -3.472  1.00  0.00     0.059 A 
ATOM     22  C   UNL     1       5.807  -3.977  -4.802  1.00  0.00     0.030 A 
ATOM     23  C   UNL     1       5.242  -4.928  -2.692  1.00  0.00     0.137 A 
ATOM     24  C   UNL     1       4.544  -4.339  -5.265  1.00  0.00     0.035 A 
ATOM     25  N   UNL     1       4.027  -5.343  -3.130  1.00  0.00    -0.250 NA
ATOM     26  C   UNL     1       3.660  -4.991  -4.402  1.00  0.00     0.144 A 
BRANCH  26  27
ATOM     27  C   UNL     1       2.258  -5.307  -4.913  1.00  0.00     0.433 C 
ATOM     28  F   UNL     1       2.251  -6.373  -5.768  1.00  0.00    -0.165 F 
ATOM     29  F   UNL     1       1.357  -5.609  -3.936  1.00  0.00    -0.165 F 
ATOM     30  F   UNL     1       1.707  -4.275  -5.618  1.00  0.00    -0.165 F 
ENDBRANCH  26  27
ENDBRANCH  19  21
ENDBRANCH  16  17
ENDBRANCH   5  16
ENDBRANCH   3   5
ENDBRANCH   2   3
ENDBRANCH   1   2
BRANCH   1  31
ATOM     31  C   UNL     1       8.015   0.688  -6.215  1.00  0.00     0.275 C 
BRANCH  31  32
ATOM     32  O   UNL     1       6.907   1.602  -6.290  1.00  0.00    -0.458 OA
BRANCH  32  33
ATOM     33  C   UNL     1       5.695   1.005  -6.341  1.00  0.00     0.338 C 
ATOM     34  O   UNL     1       5.463  -0.192  -6.353  1.00  0.00    -0.246 OA
BRANCH  33  35
ATOM     35  C   UNL     1       4.631   2.014  -6.267  1.00  0.00     0.060 A 
ATOM     36  C   UNL     1       3.894   2.088  -5.087  1.00  0.00     0.016 A 
ATOM     37  C   UNL     1       4.261   2.770  -7.378  1.00  0.00     0.016 A 
ATOM     38  C   UNL     1       2.718   2.821  -5.040  1.00  0.00     0.010 A 
ATOM     39  C   UNL     1       3.122   3.581  -7.301  1.00  0.00     0.010 A 
ATOM     40  C   UNL     1       2.321   3.584  -6.144  1.00  0.00    -0.014 A 
BRANCH  40  41
ATOM     41  C   UNL     1       1.064   4.372  -6.070  1.00  0.00     0.031 A 
ATOM     42  C   UNL     1      -0.083   4.055  -6.991  1.00  0.00     0.074 A 
ATOM     43  C   UNL     1       0.951   5.358  -5.157  1.00  0.00     0.049 A 
ATOM     44  N   UNL     1      -1.202   4.707  -7.167  1.00  0.00    -0.248 NA
ATOM     45  C   UNL     1       0.048   2.853  -7.831  1.00  0.00     0.031 C 
ATOM     46  C   UNL     1       1.980   5.735  -4.184  1.00  0.00     0.029 A 
ATOM     47  N   UNL     1      -0.080   6.225  -4.897  1.00  0.00    -0.354 N 
ATOM     48  C   UNL     1      -1.887   4.027  -8.166  1.00  0.00     0.074 A 
ATOM     49  C   UNL     1      -1.060   2.907  -8.559  1.00  0.00     0.031 C 
ATOM     50  C   UNL     1       1.526   6.745  -3.428  1.00  0.00     0.029 A 
ATOM     51  C   UNL     1       0.205   7.136  -3.906  1.00  0.00     0.049 A 
ATOM     52  H   UNL     1      -0.941   6.198  -5.373  1.00  0.00     0.167 HD
ATOM     53  C   UNL     1      -3.095   4.316  -8.705  1.00  0.00     0.037 A 
ATOM     54  C   UNL     1      -0.496   8.196  -3.463  1.00  0.00     0.037 A 
ATOM     55  C   UNL     1      -3.935   5.401  -8.265  1.00  0.00     0.049 A 
ATOM     56  C   UNL     1      -1.828   8.500  -4.088  1.00  0.00     0.074 A 
ATOM     57  C   UNL     1      -5.193   5.754  -8.723  1.00  0.00     0.029 A 
ATOM     58  N   UNL     1      -3.610   6.298  -7.259  1.00  0.00    -0.354 N 
ATOM     59  N   UNL     1      -2.453   7.857  -5.046  1.00  0.00    -0.248 NA
ATOM     60  C   UNL     1      -2.547   9.677  -3.583  1.00  0.00     0.031 C 
ATOM     61  C   UNL     1      -5.612   6.887  -8.019  1.00  0.00     0.029 A 
ATOM     62  C   UNL     1      -4.634   7.215  -7.095  1.00  0.00     0.049 A 
ATOM     63  H   UNL     1      -2.774   6.285  -6.739  1.00  0.00     0.167 HD
ATOM     64  C   UNL     1      -3.645   8.542  -5.246  1.00  0.00     0.074 A 
ATOM     65  C   UNL     1      -3.662   9.639  -4.300  1.00  0.00     0.031 C 
ATOM     66  C   UNL     1      -4.635   8.291  -6.137  1.00  0.00     0.037 A 
BRANCH  53  67
ATOM     67  C   UNL     1      -3.582   3.474  -9.850  1.00  0.00     0.058 A 
ATOM     68  C   UNL     1      -4.101   2.185  -9.658  1.00  0.00     0.135 A 
ATOM     69  C   UNL     1      -3.603   4.003 -11.151  1.00  0.00     0.135 A 
ATOM     70  F   UNL     1      -4.086   1.625  -8.438  1.00  0.00    -0.206 F 
ATOM     71  C   UNL     1      -4.622   1.448 -10.717  1.00  0.00     0.059 A 
ATOM     72  C   UNL     1      -4.138   3.293 -12.221  1.00  0.00     0.059 A 
ATOM     73  F   UNL     1      -3.114   5.231 -11.389  1.00  0.00    -0.206 F 
ATOM     74  C   UNL     1      -4.641   2.013 -11.995  1.00  0.00     0.060 A 
BRANCH  74  75
ATOM     75  S   UNL     1      -5.359   1.063 -13.353  1.00  0.00     0.124 S 
ATOM     76  O   UNL     1      -4.319   0.068 -13.594  1.00  0.00    -0.237 OA
ATOM     77  O   UNL     1      -6.595   0.557 -12.763  1.00  0.00    -0.237 OA
ATOM     78  O   UNL     1      -5.532   2.056 -14.408  1.00  0.00    -0.744 OA
ENDBRANCH  74  75
ENDBRANCH  53  67
BRANCH  54  79
ATOM     79  C   UNL     1       0.076   9.084  -2.416  1.00  0.00     0.058 A 
ATOM     80  C   UNL     1      -0.481   9.150  -1.131  1.00  0.00     0.135 A 
ATOM     81  C   UNL     1       1.187   9.898  -2.689  1.00  0.00     0.135 A 
ATOM     82  F   UNL     1      -1.548   8.397  -0.824  1.00  0.00    -0.206 F 
ATOM     83  C   UNL     1       0.025  10.010  -0.161  1.00  0.00     0.059 A 
ATOM     84  C   UNL     1       1.728  10.745  -1.729  1.00  0.00     0.059 A 
ATOM     85  F   UNL     1       1.768   9.861  -3.899  1.00  0.00    -0.206 F 
ATOM     86  C   UNL     1       1.128  10.808  -0.472  1.00  0.00     0.060 A 
BRANCH  86  87
ATOM     87  S   UNL     1       1.792  11.914   0.791  1.00  0.00     0.124 S 
ATOM     88  O   UNL     1       0.843  13.020   0.739  1.00  0.00    -0.237 OA
ATOM     89  O   UNL     1       1.742  11.085   1.991  1.00  0.00    -0.237 OA
ATOM     90  O   UNL     1       3.135  12.211   0.300  1.00  0.00    -0.744 OA
ENDBRANCH  86  87
ENDBRANCH  54  79
BRANCH  66  91
ATOM     91  C   UNL     1      -5.831   9.196  -6.106  1.00  0.00     0.058 A 
ATOM     92  C   UNL     1      -5.781  10.495  -6.633  1.00  0.00     0.135 A 
ATOM     93  C   UNL     1      -7.052   8.742  -5.584  1.00  0.00     0.135 A 
ATOM     94  F   UNL     1      -4.634  10.977  -7.136  1.00  0.00    -0.206 F 
ATOM     95  C   UNL     1      -6.899  11.323  -6.625  1.00  0.00     0.059 A 
ATOM     96  C   UNL     1      -8.188   9.543  -5.587  1.00  0.00     0.059 A 
ATOM     97  F   UNL     1      -7.152   7.503  -5.077  1.00  0.00    -0.206 F 
ATOM     98  C   UNL     1      -8.098  10.837  -6.100  1.00  0.00     0.060 A 
BRANCH  98  99
ATOM     99  S   UNL     1      -9.553  11.906  -6.127  1.00  0.00     0.124 S 
ATOM    100  O   UNL     1      -9.275  12.808  -5.015  1.00  0.00    -0.237 OA
ATOM    101  O   UNL     1      -9.483  12.501  -7.458  1.00  0.00    -0.237 OA
ATOM    102  O   UNL     1     -10.660  10.976  -5.921  1.00  0.00    -0.744 OA
ENDBRANCH  98  99
ENDBRANCH  66  91
ENDBRANCH  40  41
ENDBRANCH  33  35
ENDBRANCH  32  33
ENDBRANCH  31  32
ENDBRANCH   1  31
TORSDOF 20
