REMARK SMILES C[C@H](Cc1cccs1)N(C)C(=O)N1CC[C@@H](CC(=O)OCCOC(=O)c2ccc(-c3c4nc(c(-c5c(F)cc(S(=O)(=O)[O-])cc5F)c5ccc([nH]5)c(-c5c(F)cc(S(=O)(=O)[O-])cc5F)c5nc(c(-c6c(F)cc(S(=O)(=O)[O-])cc6F)c6ccc3[nH]6)C=C5)C=C4)cc2)C1
REMARK SMILES IDX 20 1 18 2 19 3 17 4 16 5 13 6 14 7 92 8 15 9 11 10 12 11
REMARK SMILES IDX 9 12 10 13 2 14 1 15 3 16 4 17 5 18 8 19 6 20 7 21 21 22
REMARK SMILES IDX 22 23 23 24 24 25 25 26 26 27 27 28 91 29 28 30 90 31 29 32
REMARK SMILES IDX 30 33 31 34 84 35 32 36 89 37 83 38 85 39 33 40 88 41 82 42
REMARK SMILES IDX 81 43 34 45 68 46 47 47 67 48 48 49 51 50 66 51 86 52 49 53
REMARK SMILES IDX 50 54 65 56 87 57 52 58 35 59 36 60 45 61 37 62 38 63 44 64
REMARK SMILES IDX 46 65 39 66 40 67 41 68 42 69 43 70 69 71 70 72 79 73 71 74
REMARK SMILES IDX 72 75 78 76 80 77 73 78 74 79 75 80 76 81 77 82 53 83 54 84
REMARK SMILES IDX 63 85 55 86 56 87 62 88 64 89 57 90 58 91 59 92 60 93 61 94
REMARK H PARENT 85 44 51 55
REMARK Flexibility Score: inf
ROOT
ATOM      1  O   UNL     1      -4.951   3.738   1.343  1.00  0.00    -0.462 OA
ENDROOT
BRANCH   1   2
ATOM      2  C   UNL     1      -6.179   3.386   0.907  1.00  0.00     0.306 C 
ATOM      3  O   UNL     1      -7.045   4.176   0.549  1.00  0.00    -0.252 OA
BRANCH   2   4
ATOM      4  C   UNL     1      -6.461   1.911   1.038  1.00  0.00     0.128 C 
BRANCH   4   5
ATOM      5  C   UNL     1      -5.455   0.824   0.610  1.00  0.00     0.021 C 
ATOM      6  N   UNL     1      -3.214   0.707   1.411  1.00  0.00    -0.324 N 
ATOM      7  C   UNL     1      -4.079   0.310   2.494  1.00  0.00     0.122 C 
ATOM      8  C   UNL     1      -3.998   1.192   0.286  1.00  0.00     0.125 C 
ATOM      9  C   UNL     1      -5.295  -0.208   1.750  1.00  0.00     0.027 C 
BRANCH   6  10
ATOM     10  C   UNL     1      -1.915   1.117   1.591  1.00  0.00     0.320 C 
ATOM     11  O   UNL     1      -1.627   2.310   1.608  1.00  0.00    -0.248 OA
BRANCH  10  12
ATOM     12  N   UNL     1      -0.981   0.078   1.654  1.00  0.00    -0.325 N 
ATOM     13  C   UNL     1      -1.398  -1.319   1.580  1.00  0.00     0.149 C 
BRANCH  12  14
ATOM     14  C   UNL     1       0.461   0.331   1.455  1.00  0.00     0.088 C 
ATOM     15  C   UNL     1       1.032   1.592   2.110  1.00  0.00     0.031 C 
BRANCH  14  16
ATOM     16  C   UNL     1       0.936   0.138  -0.008  1.00  0.00     0.071 C 
BRANCH  16  17
ATOM     17  C   UNL     1       0.194   0.865  -1.099  1.00  0.00     0.007 A 
ATOM     18  C   UNL     1      -0.241   2.174  -1.175  1.00  0.00     0.015 A 
ATOM     19  S   UNL     1      -0.155   0.025  -2.563  1.00  0.00    -0.149 S 
ATOM     20  C   UNL     1      -0.892   2.470  -2.407  1.00  0.00     0.012 A 
ATOM     21  C   UNL     1      -0.904   1.391  -3.258  1.00  0.00     0.065 A 
ENDBRANCH  16  17
ENDBRANCH  14  16
ENDBRANCH  12  14
ENDBRANCH  10  12
ENDBRANCH   6  10
ENDBRANCH   4   5
ENDBRANCH   2   4
ENDBRANCH   1   2
BRANCH   1  22
ATOM     22  C   UNL     1      -4.635   5.141   1.265  1.00  0.00     0.274 C 
BRANCH  22  23
ATOM     23  C   UNL     1      -4.055   5.538  -0.096  1.00  0.00     0.275 C 
BRANCH  23  24
ATOM     24  O   UNL     1      -5.042   5.451  -1.143  1.00  0.00    -0.458 OA
BRANCH  24  25
ATOM     25  C   UNL     1      -4.890   4.428  -2.014  1.00  0.00     0.338 C 
ATOM     26  O   UNL     1      -3.996   3.601  -2.044  1.00  0.00    -0.246 OA
BRANCH  25  27
ATOM     27  C   UNL     1      -6.029   4.373  -2.937  1.00  0.00     0.060 A 
ATOM     28  C   UNL     1      -7.058   3.465  -2.677  1.00  0.00     0.016 A 
ATOM     29  C   UNL     1      -6.015   5.118  -4.117  1.00  0.00     0.016 A 
ATOM     30  C   UNL     1      -8.088   3.299  -3.599  1.00  0.00     0.010 A 
ATOM     31  C   UNL     1      -7.056   4.958  -5.036  1.00  0.00     0.010 A 
ATOM     32  C   UNL     1      -8.093   4.042  -4.786  1.00  0.00    -0.014 A 
BRANCH  32  33
ATOM     33  C   UNL     1      -9.180   3.859  -5.776  1.00  0.00     0.031 A 
ATOM     34  C   UNL     1      -8.908   3.153  -7.071  1.00  0.00     0.074 A 
ATOM     35  C   UNL     1     -10.404   4.352  -5.513  1.00  0.00     0.049 A 
ATOM     36  N   UNL     1      -9.682   3.018  -8.116  1.00  0.00    -0.248 NA
ATOM     37  C   UNL     1      -7.588   2.520  -7.211  1.00  0.00     0.031 C 
ATOM     38  C   UNL     1     -10.790   5.029  -4.274  1.00  0.00     0.029 A 
ATOM     39  N   UNL     1     -11.541   4.379  -6.280  1.00  0.00    -0.354 N 
ATOM     40  C   UNL     1      -8.938   2.309  -9.050  1.00  0.00     0.074 A 
ATOM     41  C   UNL     1      -7.647   2.046  -8.448  1.00  0.00     0.031 C 
ATOM     42  C   UNL     1     -12.069   5.425  -4.373  1.00  0.00     0.029 A 
ATOM     43  C   UNL     1     -12.574   5.074  -5.698  1.00  0.00     0.049 A 
ATOM     44  H   UNL     1     -11.610   3.944  -7.160  1.00  0.00     0.167 HD
ATOM     45  C   UNL     1      -9.300   1.919 -10.296  1.00  0.00     0.037 A 
ATOM     46  C   UNL     1     -13.774   5.433  -6.193  1.00  0.00     0.037 A 
ATOM     47  C   UNL     1     -10.592   2.175 -10.877  1.00  0.00     0.049 A 
ATOM     48  C   UNL     1     -14.138   5.038  -7.594  1.00  0.00     0.074 A 
ATOM     49  C   UNL     1     -11.075   1.784 -12.114  1.00  0.00     0.029 A 
ATOM     50  N   UNL     1     -11.605   2.900 -10.264  1.00  0.00    -0.354 N 
ATOM     51  N   UNL     1     -13.431   4.357  -8.465  1.00  0.00    -0.248 NA
ATOM     52  C   UNL     1     -15.452   5.468  -8.088  1.00  0.00     0.031 C 
ATOM     53  C   UNL     1     -12.366   2.306 -12.263  1.00  0.00     0.029 A 
ATOM     54  C   UNL     1     -12.699   2.995 -11.107  1.00  0.00     0.049 A 
ATOM     55  H   UNL     1     -11.552   3.291  -9.362  1.00  0.00     0.167 HD
ATOM     56  C   UNL     1     -14.209   4.282  -9.613  1.00  0.00     0.074 A 
ATOM     57  C   UNL     1     -15.452   4.970  -9.319  1.00  0.00     0.031 C 
ATOM     58  C   UNL     1     -13.919   3.701 -10.803  1.00  0.00     0.037 A 
BRANCH  45  59
ATOM     59  C   UNL     1      -8.267   1.207 -11.121  1.00  0.00     0.058 A 
ATOM     60  C   UNL     1      -7.909  -0.127 -10.871  1.00  0.00     0.135 A 
ATOM     61  C   UNL     1      -7.622   1.873 -12.175  1.00  0.00     0.135 A 
ATOM     62  F   UNL     1      -8.485  -0.804  -9.865  1.00  0.00    -0.206 F 
ATOM     63  C   UNL     1      -6.919  -0.764 -11.613  1.00  0.00     0.059 A 
ATOM     64  C   UNL     1      -6.643   1.249 -12.944  1.00  0.00     0.059 A 
ATOM     65  F   UNL     1      -7.928   3.149 -12.456  1.00  0.00    -0.206 F 
ATOM     66  C   UNL     1      -6.284  -0.064 -12.641  1.00  0.00     0.060 A 
BRANCH  66  67
ATOM     67  S   UNL     1      -4.977  -0.887 -13.576  1.00  0.00     0.124 S 
ATOM     68  O   UNL     1      -3.855  -0.795 -12.647  1.00  0.00    -0.237 OA
ATOM     69  O   UNL     1      -5.524  -2.226 -13.775  1.00  0.00    -0.237 OA
ATOM     70  O   UNL     1      -4.862  -0.076 -14.784  1.00  0.00    -0.744 OA
ENDBRANCH  66  67
ENDBRANCH  45  59
BRANCH  46  71
ATOM     71  C   UNL     1     -14.681   6.258  -5.356  1.00  0.00     0.058 A 
ATOM     72  C   UNL     1     -15.809   5.699  -4.741  1.00  0.00     0.135 A 
ATOM     73  C   UNL     1     -14.388   7.606  -5.094  1.00  0.00     0.135 A 
ATOM     74  F   UNL     1     -16.133   4.418  -4.971  1.00  0.00    -0.206 F 
ATOM     75  C   UNL     1     -16.609   6.444  -3.880  1.00  0.00     0.059 A 
ATOM     76  C   UNL     1     -15.161   8.365  -4.222  1.00  0.00     0.059 A 
ATOM     77  F   UNL     1     -13.311   8.181  -5.652  1.00  0.00    -0.206 F 
ATOM     78  C   UNL     1     -16.270   7.774  -3.618  1.00  0.00     0.060 A 
BRANCH  78  79
ATOM     79  S   UNL     1     -17.248   8.703  -2.416  1.00  0.00     0.124 S 
ATOM     80  O   UNL     1     -18.426   9.050  -3.203  1.00  0.00    -0.237 OA
ATOM     81  O   UNL     1     -17.455   7.719  -1.357  1.00  0.00    -0.237 OA
ATOM     82  O   UNL     1     -16.372   9.816  -2.062  1.00  0.00    -0.744 OA
ENDBRANCH  78  79
ENDBRANCH  46  71
BRANCH  58  83
ATOM     83  C   UNL     1     -14.957   3.795 -11.883  1.00  0.00     0.058 A 
ATOM     84  C   UNL     1     -15.125   4.972 -12.627  1.00  0.00     0.135 A 
ATOM     85  C   UNL     1     -15.744   2.683 -12.220  1.00  0.00     0.135 A 
ATOM     86  F   UNL     1     -14.402   6.065 -12.335  1.00  0.00    -0.206 F 
ATOM     87  C   UNL     1     -16.044   5.046 -13.668  1.00  0.00     0.059 A 
ATOM     88  C   UNL     1     -16.657   2.729 -13.268  1.00  0.00     0.059 A 
ATOM     89  F   UNL     1     -15.616   1.533 -11.540  1.00  0.00    -0.206 F 
ATOM     90  C   UNL     1     -16.804   3.918 -13.984  1.00  0.00     0.060 A 
BRANCH  90  91
ATOM     91  S   UNL     1     -17.957   4.007 -15.371  1.00  0.00     0.124 S 
ATOM     92  O   UNL     1     -19.066   4.751 -14.784  1.00  0.00    -0.237 OA
ATOM     93  O   UNL     1     -17.180   4.720 -16.381  1.00  0.00    -0.237 OA
ATOM     94  O   UNL     1     -18.230   2.606 -15.674  1.00  0.00    -0.744 OA
ENDBRANCH  90  91
ENDBRANCH  58  83
ENDBRANCH  32  33
ENDBRANCH  25  27
ENDBRANCH  24  25
ENDBRANCH  23  24
ENDBRANCH  22  23
ENDBRANCH   1  22
TORSDOF 20
