REMARK SMILES CC1(C(=O)N2CC(CC(=O)OCCOC(=O)c3ccc(-c4c5nc(c(-c6c(F)cc(S(=O)(=O)[O-])cc6F)c6ccc([nH]6)c(-c6c(F)cc(S(=O)(=O)[O-])cc6F)c6nc(c(-c7c(F)cc(S(=O)(=O)[O-])cc7F)c7ccc4[nH]7)C=C6)C=C5)cc3)C2)CCCC1
REMARK SMILES IDX 13 1 12 2 11 3 9 4 10 5 8 6 7 7 3 8 4 9 5 10 6 11 83 12 2 13
REMARK SMILES IDX 1 14 84 15 87 16 85 17 86 18 14 19 15 20 16 21 17 22 18 23
REMARK SMILES IDX 82 24 19 25 81 26 20 27 21 28 22 29 75 30 23 31 80 32 74 33
REMARK SMILES IDX 76 34 24 35 79 36 73 37 72 38 25 40 59 41 38 42 58 43 39 44
REMARK SMILES IDX 42 45 57 46 77 47 40 48 41 49 56 51 78 52 43 53 26 54 27 55
REMARK SMILES IDX 36 56 28 57 29 58 35 59 37 60 30 61 31 62 32 63 33 64 34 65
REMARK SMILES IDX 60 66 61 67 70 68 62 69 63 70 69 71 71 72 64 73 65 74 66 75
REMARK SMILES IDX 67 76 68 77 44 78 45 79 54 80 46 81 47 82 53 83 55 84 48 85
REMARK SMILES IDX 49 86 50 87 51 88 52 89
REMARK H PARENT 76 39 42 50
REMARK Flexibility Score: inf
ROOT
ATOM      1  C   UNL     1       8.798  -1.675   0.176  1.00  0.00     0.275 C 
ENDROOT
BRANCH   1   2
ATOM      2  C   UNL     1       7.911  -2.744  -0.465  1.00  0.00     0.274 C 
BRANCH   2   3
ATOM      3  O   UNL     1       6.609  -2.780   0.152  1.00  0.00    -0.462 OA
BRANCH   3   4
ATOM      4  C   UNL     1       6.374  -3.820   0.994  1.00  0.00     0.306 C 
ATOM      5  O   UNL     1       7.144  -4.750   1.193  1.00  0.00    -0.252 OA
BRANCH   4   6
ATOM      6  C   UNL     1       5.013  -3.742   1.637  1.00  0.00     0.130 C 
BRANCH   6   7
ATOM      7  C   UNL     1       4.483  -2.333   1.874  1.00  0.00     0.039 C 
ATOM      8  C   UNL     1       1.782  -0.407   1.613  1.00  0.00     0.228 C 
ATOM      9  O   UNL     1       1.620   0.196   2.674  1.00  0.00    -0.274 OA
ATOM     10  N   UNL     1       2.608  -1.504   1.526  1.00  0.00    -0.342 N 
ATOM     11  C   UNL     1       3.170  -2.241   2.651  1.00  0.00     0.125 C 
ATOM     12  C   UNL     1       3.788  -1.665   0.683  1.00  0.00     0.125 C 
BRANCH   8  13
ATOM     13  C   UNL     1       0.921  -0.118   0.369  1.00  0.00     0.047 C 
ATOM     14  C   UNL     1       1.738   0.092  -0.911  1.00  0.00     0.022 C 
ATOM     15  C   UNL     1      -0.012   1.087   0.604  1.00  0.00     0.016 C 
ATOM     16  C   UNL     1      -0.096  -1.264   0.211  1.00  0.00     0.016 C 
ATOM     17  C   UNL     1      -1.223   0.846  -0.291  1.00  0.00     0.001 C 
ATOM     18  C   UNL     1      -1.308  -0.664  -0.492  1.00  0.00     0.001 C 
ENDBRANCH   8  13
ENDBRANCH   6   7
ENDBRANCH   4   6
ENDBRANCH   3   4
ENDBRANCH   2   3
ENDBRANCH   1   2
BRANCH   1  19
ATOM     19  O   UNL     1       9.087  -1.992   1.550  1.00  0.00    -0.458 OA
BRANCH  19  20
ATOM     20  C   UNL     1       8.300  -1.367   2.457  1.00  0.00     0.338 C 
ATOM     21  O   UNL     1       7.420  -0.555   2.231  1.00  0.00    -0.246 OA
BRANCH  20  22
ATOM     22  C   UNL     1       8.581  -1.893   3.801  1.00  0.00     0.060 A 
ATOM     23  C   UNL     1       7.605  -2.669   4.431  1.00  0.00     0.016 A 
ATOM     24  C   UNL     1       9.755  -1.543   4.471  1.00  0.00     0.016 A 
ATOM     25  C   UNL     1       7.791  -3.086   5.747  1.00  0.00     0.010 A 
ATOM     26  C   UNL     1       9.942  -1.968   5.791  1.00  0.00     0.010 A 
ATOM     27  C   UNL     1       8.953  -2.726   6.442  1.00  0.00    -0.014 A 
BRANCH  27  28
ATOM     28  C   UNL     1       9.099  -3.099   7.871  1.00  0.00     0.031 A 
ATOM     29  C   UNL     1       8.895  -2.063   8.940  1.00  0.00     0.074 A 
ATOM     30  C   UNL     1       9.382  -4.371   8.207  1.00  0.00     0.049 A 
ATOM     31  N   UNL     1       8.993  -2.184  10.239  1.00  0.00    -0.248 NA
ATOM     32  C   UNL     1       8.534  -0.711   8.487  1.00  0.00     0.031 C 
ATOM     33  C   UNL     1       9.571  -5.471   7.261  1.00  0.00     0.029 A 
ATOM     34  N   UNL     1       9.554  -4.952   9.437  1.00  0.00    -0.354 N 
ATOM     35  C   UNL     1       8.719  -0.925  10.760  1.00  0.00     0.074 A 
ATOM     36  C   UNL     1       8.472  -0.049   9.634  1.00  0.00     0.031 C 
ATOM     37  C   UNL     1       9.821  -6.599   7.947  1.00  0.00     0.029 A 
ATOM     38  C   UNL     1       9.842  -6.294   9.376  1.00  0.00     0.049 A 
ATOM     39  H   UNL     1       9.478  -4.455  10.283  1.00  0.00     0.167 HD
ATOM     40  C   UNL     1       8.670  -0.537  12.058  1.00  0.00     0.037 A 
ATOM     41  C   UNL     1      10.103  -7.176  10.361  1.00  0.00     0.037 A 
ATOM     42  C   UNL     1       8.907  -1.413  13.176  1.00  0.00     0.049 A 
ATOM     43  C   UNL     1      10.084  -6.712  11.791  1.00  0.00     0.074 A 
ATOM     44  C   UNL     1       8.870  -1.116  14.528  1.00  0.00     0.029 A 
ATOM     45  N   UNL     1       9.227  -2.759  13.073  1.00  0.00    -0.354 N 
ATOM     46  N   UNL     1       9.821  -5.518  12.268  1.00  0.00    -0.248 NA
ATOM     47  C   UNL     1      10.400  -7.715  12.818  1.00  0.00     0.031 C 
ATOM     48  C   UNL     1       9.198  -2.276  15.241  1.00  0.00     0.029 A 
ATOM     49  C   UNL     1       9.404  -3.303  14.335  1.00  0.00     0.049 A 
ATOM     50  H   UNL     1       9.314  -3.255  12.227  1.00  0.00     0.167 HD
ATOM     51  C   UNL     1       9.917  -5.632  13.650  1.00  0.00     0.074 A 
ATOM     52  C   UNL     1      10.255  -7.012  13.933  1.00  0.00     0.031 C 
ATOM     53  C   UNL     1       9.739  -4.680  14.600  1.00  0.00     0.037 A 
BRANCH  40  54
ATOM     54  C   UNL     1       8.373   0.910  12.330  1.00  0.00     0.058 A 
ATOM     55  C   UNL     1       7.083   1.442  12.169  1.00  0.00     0.135 A 
ATOM     56  C   UNL     1       9.390   1.777  12.759  1.00  0.00     0.135 A 
ATOM     57  F   UNL     1       6.078   0.659  11.746  1.00  0.00    -0.206 F 
ATOM     58  C   UNL     1       6.820   2.790  12.391  1.00  0.00     0.059 A 
ATOM     59  C   UNL     1       9.145   3.124  13.008  1.00  0.00     0.059 A 
ATOM     60  F   UNL     1      10.641   1.320  12.928  1.00  0.00    -0.206 F 
ATOM     61  C   UNL     1       7.861   3.625  12.802  1.00  0.00     0.060 A 
BRANCH  61  62
ATOM     62  S   UNL     1       7.517   5.378  13.065  1.00  0.00     0.124 S 
ATOM     63  O   UNL     1       7.487   5.877  11.693  1.00  0.00    -0.237 OA
ATOM     64  O   UNL     1       6.232   5.349  13.756  1.00  0.00    -0.237 OA
ATOM     65  O   UNL     1       8.647   5.827  13.872  1.00  0.00    -0.744 OA
ENDBRANCH  61  62
ENDBRANCH  40  54
BRANCH  41  66
ATOM     66  C   UNL     1      10.396  -8.593  10.025  1.00  0.00     0.058 A 
ATOM     67  C   UNL     1       9.462  -9.603  10.292  1.00  0.00     0.135 A 
ATOM     68  C   UNL     1      11.607  -8.961   9.418  1.00  0.00     0.135 A 
ATOM     69  F   UNL     1       8.295  -9.300  10.879  1.00  0.00    -0.206 F 
ATOM     70  C   UNL     1       9.719 -10.933   9.976  1.00  0.00     0.059 A 
ATOM     71  C   UNL     1      11.879 -10.281   9.074  1.00  0.00     0.059 A 
ATOM     72  F   UNL     1      12.528  -8.027   9.134  1.00  0.00    -0.206 F 
ATOM     73  C   UNL     1      10.931 -11.262   9.364  1.00  0.00     0.060 A 
BRANCH  73  74
ATOM     74  S   UNL     1      11.234 -12.981   8.902  1.00  0.00     0.124 S 
ATOM     75  O   UNL     1      11.579 -13.574  10.189  1.00  0.00    -0.237 OA
ATOM     76  O   UNL     1       9.948 -13.382   8.338  1.00  0.00    -0.237 OA
ATOM     77  O   UNL     1      12.326 -12.879   7.939  1.00  0.00    -0.744 OA
ENDBRANCH  73  74
ENDBRANCH  41  66
BRANCH  53  78
ATOM     78  C   UNL     1       9.878  -5.109  16.033  1.00  0.00     0.058 A 
ATOM     79  C   UNL     1      11.134  -5.353  16.609  1.00  0.00     0.135 A 
ATOM     80  C   UNL     1       8.742  -5.255  16.845  1.00  0.00     0.135 A 
ATOM     81  F   UNL     1      12.250  -5.233  15.872  1.00  0.00    -0.206 F 
ATOM     82  C   UNL     1      11.259  -5.754  17.936  1.00  0.00     0.059 A 
ATOM     83  C   UNL     1       8.845  -5.635  18.179  1.00  0.00     0.059 A 
ATOM     84  F   UNL     1       7.519  -5.025  16.344  1.00  0.00    -0.206 F 
ATOM     85  C   UNL     1      10.107  -5.897  18.712  1.00  0.00     0.060 A 
BRANCH  85  86
ATOM     86  S   UNL     1      10.276  -6.404  20.437  1.00  0.00     0.124 S 
ATOM     87  O   UNL     1      10.479  -7.842  20.301  1.00  0.00    -0.237 OA
ATOM     88  O   UNL     1      11.437  -5.639  20.880  1.00  0.00    -0.237 OA
ATOM     89  O   UNL     1       9.005  -6.001  21.033  1.00  0.00    -0.744 OA
ENDBRANCH  85  86
ENDBRANCH  53  78
ENDBRANCH  27  28
ENDBRANCH  20  22
ENDBRANCH  19  20
ENDBRANCH   1  19
TORSDOF 16
