REMARK SMILES C[C@H]1[C@@H](C(=O)OCCOC(=O)c2ccc(-c3c4nc(c(-c5c(F)cc(S(=O)(=O)[O-])cc5F)c5ccc([nH]5)c(-c5c(F)cc(S(=O)(=O)[O-])cc5F)c5nc(c(-c6c(F)cc(S(=O)(=O)[O-])cc6F)c6ccc3[nH]6)C=C5)C=C4)cc2)CC[N@@H+]1CC1(O)CCCC1
REMARK SMILES IDX 7 1 6 2 4 3 5 4 3 5 1 6 2 7 80 8 78 9 79 10 81 12 82 13
REMARK SMILES IDX 84 14 87 15 85 16 86 17 83 18 8 20 9 21 10 22 11 23 12 24
REMARK SMILES IDX 13 25 77 26 14 27 76 28 15 29 16 30 17 31 70 32 18 33 75 34
REMARK SMILES IDX 69 35 71 36 19 37 74 38 68 39 67 40 20 42 54 43 33 44 53 45
REMARK SMILES IDX 34 46 37 47 52 48 72 49 35 50 36 51 51 53 73 54 38 55 21 56
REMARK SMILES IDX 22 57 31 58 23 59 24 60 30 61 32 62 25 63 26 64 27 65 28 66
REMARK SMILES IDX 29 67 55 68 56 69 65 70 57 71 58 72 64 73 66 74 59 75 60 76
REMARK SMILES IDX 61 77 62 78 63 79 39 80 40 81 49 82 41 83 42 84 48 85 50 86
REMARK SMILES IDX 43 87 44 88 45 89 46 90 47 91
REMARK H PARENT 80 11 83 19 71 41 37 52
REMARK Flexibility Score: inf
ROOT
ATOM      1  C   UNL     1       2.121   2.444  -2.905  1.00  0.00     0.274 C 
ENDROOT
BRANCH   1   2
ATOM      2  O   UNL     1       1.646   1.498  -1.927  1.00  0.00    -0.462 OA
BRANCH   2   3
ATOM      3  C   UNL     1       1.068   2.020  -0.820  1.00  0.00     0.315 C 
ATOM      4  O   UNL     1       0.955   3.221  -0.597  1.00  0.00    -0.252 OA
BRANCH   3   5
ATOM      5  C   UNL     1       0.478   0.982   0.109  1.00  0.00     0.162 C 
ATOM      6  C   UNL     1       2.401  -0.705  -0.340  1.00  0.00     0.076 C 
ATOM      7  C   UNL     1       1.327  -0.182   0.617  1.00  0.00     0.195 C 
ATOM      8  N   UNL     1       0.373  -1.279   0.834  1.00  0.00    -0.330 N 
ATOM      9  C   UNL     1      -0.813   0.368  -0.412  1.00  0.00     0.083 C 
ATOM     10  C   UNL     1      -0.713  -1.117  -0.129  1.00  0.00     0.263 C 
ATOM     11  H   UNL     1       0.880  -2.147   0.664  1.00  0.00     0.348 HD
BRANCH   8  12
ATOM     12  C   UNL     1      -0.055  -1.569   2.208  1.00  0.00     0.297 C 
BRANCH  12  13
ATOM     13  C   UNL     1      -0.998  -0.652   3.047  1.00  0.00     0.113 C 
ATOM     14  C   UNL     1      -0.420   0.697   3.476  1.00  0.00     0.041 C 
ATOM     15  C   UNL     1      -1.292  -1.322   4.400  1.00  0.00     0.041 C 
ATOM     16  C   UNL     1      -1.117   1.065   4.789  1.00  0.00     0.003 C 
ATOM     17  C   UNL     1      -1.802  -0.198   5.292  1.00  0.00     0.003 C 
BRANCH  13  18
ATOM     18  O   UNL     1      -2.237  -0.459   2.360  1.00  0.00    -0.384 OA
ATOM     19  H   UNL     1      -2.069  -0.036   1.503  1.00  0.00     0.211 HD
ENDBRANCH  13  18
ENDBRANCH  12  13
ENDBRANCH   8  12
ENDBRANCH   3   5
ENDBRANCH   2   3
ENDBRANCH   1   2
BRANCH   1  20
ATOM     20  C   UNL     1       1.261   2.357  -4.159  1.00  0.00     0.275 C 
BRANCH  20  21
ATOM     21  O   UNL     1      -0.102   2.672  -3.826  1.00  0.00    -0.458 OA
BRANCH  21  22
ATOM     22  C   UNL     1      -0.984   1.661  -3.992  1.00  0.00     0.338 C 
ATOM     23  O   UNL     1      -0.756   0.546  -4.430  1.00  0.00    -0.246 OA
BRANCH  22  24
ATOM     24  C   UNL     1      -2.331   2.094  -3.580  1.00  0.00     0.060 A 
ATOM     25  C   UNL     1      -2.566   2.622  -2.308  1.00  0.00     0.016 A 
ATOM     26  C   UNL     1      -3.391   1.855  -4.453  1.00  0.00     0.016 A 
ATOM     27  C   UNL     1      -3.878   2.844  -1.883  1.00  0.00     0.010 A 
ATOM     28  C   UNL     1      -4.690   2.170  -4.059  1.00  0.00     0.010 A 
ATOM     29  C   UNL     1      -4.954   2.646  -2.762  1.00  0.00    -0.014 A 
BRANCH  29  30
ATOM     30  C   UNL     1      -6.362   2.938  -2.378  1.00  0.00     0.031 A 
ATOM     31  C   UNL     1      -7.407   1.861  -2.495  1.00  0.00     0.074 A 
ATOM     32  C   UNL     1      -6.726   4.186  -2.024  1.00  0.00     0.049 A 
ATOM     33  N   UNL     1      -8.707   1.972  -2.568  1.00  0.00    -0.248 NA
ATOM     34  C   UNL     1      -6.918   0.474  -2.562  1.00  0.00     0.031 C 
ATOM     35  C   UNL     1      -5.816   5.315  -1.822  1.00  0.00     0.029 A 
ATOM     36  N   UNL     1      -7.972   4.723  -1.806  1.00  0.00    -0.354 N 
ATOM     37  C   UNL     1      -9.190   0.682  -2.758  1.00  0.00     0.074 A 
ATOM     38  C   UNL     1      -8.042  -0.200  -2.770  1.00  0.00     0.031 C 
ATOM     39  C   UNL     1      -6.530   6.407  -1.514  1.00  0.00     0.029 A 
ATOM     40  C   UNL     1      -7.949   6.081  -1.591  1.00  0.00     0.049 A 
ATOM     41  H   UNL     1      -8.799   4.189  -1.803  1.00  0.00     0.167 HD
ATOM     42  C   UNL     1     -10.473   0.280  -2.922  1.00  0.00     0.037 A 
ATOM     43  C   UNL     1      -8.950   6.981  -1.534  1.00  0.00     0.037 A 
ATOM     44  C   UNL     1     -11.607   1.165  -2.858  1.00  0.00     0.049 A 
ATOM     45  C   UNL     1     -10.363   6.523  -1.743  1.00  0.00     0.074 A 
ATOM     46  C   UNL     1     -12.950   0.859  -3.001  1.00  0.00     0.029 A 
ATOM     47  N   UNL     1     -11.532   2.529  -2.614  1.00  0.00    -0.354 N 
ATOM     48  N   UNL     1     -10.805   5.314  -1.994  1.00  0.00    -0.248 NA
ATOM     49  C   UNL     1     -11.413   7.549  -1.685  1.00  0.00     0.031 C 
ATOM     50  C   UNL     1     -13.685   2.042  -2.865  1.00  0.00     0.029 A 
ATOM     51  C   UNL     1     -12.803   3.078  -2.605  1.00  0.00     0.049 A 
ATOM     52  H   UNL     1     -10.698   3.031  -2.469  1.00  0.00     0.167 HD
ATOM     53  C   UNL     1     -12.184   5.431  -2.109  1.00  0.00     0.074 A 
ATOM     54  C   UNL     1     -12.506   6.827  -1.896  1.00  0.00     0.031 C 
ATOM     55  C   UNL     1     -13.101   4.468  -2.370  1.00  0.00     0.037 A 
BRANCH  42  56
ATOM     56  C   UNL     1     -10.722  -1.171  -3.224  1.00  0.00     0.058 A 
ATOM     57  C   UNL     1     -10.628  -2.164  -2.238  1.00  0.00     0.135 A 
ATOM     58  C   UNL     1     -11.108  -1.567  -4.516  1.00  0.00     0.135 A 
ATOM     59  F   UNL     1     -10.250  -1.843  -0.990  1.00  0.00    -0.206 F 
ATOM     60  C   UNL     1     -10.887  -3.502  -2.526  1.00  0.00     0.059 A 
ATOM     61  C   UNL     1     -11.392  -2.894  -4.822  1.00  0.00     0.059 A 
ATOM     62  F   UNL     1     -11.214  -0.656  -5.497  1.00  0.00    -0.206 F 
ATOM     63  C   UNL     1     -11.266  -3.857  -3.822  1.00  0.00     0.060 A 
BRANCH  63  64
ATOM     64  S   UNL     1     -11.607  -5.594  -4.184  1.00  0.00     0.124 S 
ATOM     65  O   UNL     1     -10.257  -6.141  -4.278  1.00  0.00    -0.237 OA
ATOM     66  O   UNL     1     -12.380  -6.013  -3.020  1.00  0.00    -0.237 OA
ATOM     67  O   UNL     1     -12.351  -5.539  -5.439  1.00  0.00    -0.744 OA
ENDBRANCH  63  64
ENDBRANCH  42  56
BRANCH  43  68
ATOM     68  C   UNL     1      -8.629   8.417  -1.322  1.00  0.00     0.058 A 
ATOM     69  C   UNL     1      -8.893   9.038  -0.094  1.00  0.00     0.135 A 
ATOM     70  C   UNL     1      -8.001   9.177  -2.321  1.00  0.00     0.135 A 
ATOM     71  F   UNL     1      -9.500   8.353   0.887  1.00  0.00    -0.206 F 
ATOM     72  C   UNL     1      -8.542  10.363   0.141  1.00  0.00     0.059 A 
ATOM     73  C   UNL     1      -7.619  10.496  -2.103  1.00  0.00     0.059 A 
ATOM     74  F   UNL     1      -7.714   8.622  -3.509  1.00  0.00    -0.206 F 
ATOM     75  C   UNL     1      -7.898  11.082  -0.869  1.00  0.00     0.060 A 
BRANCH  75  76
ATOM     76  S   UNL     1      -7.367  12.775  -0.529  1.00  0.00     0.124 S 
ATOM     77  O   UNL     1      -8.620  13.508  -0.672  1.00  0.00    -0.237 OA
ATOM     78  O   UNL     1      -6.840  12.670   0.828  1.00  0.00    -0.237 OA
ATOM     79  O   UNL     1      -6.366  13.023  -1.562  1.00  0.00    -0.744 OA
ENDBRANCH  75  76
ENDBRANCH  43  68
BRANCH  55  80
ATOM     80  C   UNL     1     -14.544   4.875  -2.393  1.00  0.00     0.058 A 
ATOM     81  C   UNL     1     -15.112   5.503  -3.511  1.00  0.00     0.135 A 
ATOM     82  C   UNL     1     -15.385   4.558  -1.315  1.00  0.00     0.135 A 
ATOM     83  F   UNL     1     -14.345   5.834  -4.562  1.00  0.00    -0.206 F 
ATOM     84  C   UNL     1     -16.469   5.803  -3.560  1.00  0.00     0.059 A 
ATOM     85  C   UNL     1     -16.747   4.835  -1.349  1.00  0.00     0.059 A 
ATOM     86  F   UNL     1     -14.886   3.953  -0.225  1.00  0.00    -0.206 F 
ATOM     87  C   UNL     1     -17.279   5.460  -2.476  1.00  0.00     0.060 A 
BRANCH  87  88
ATOM     88  S   UNL     1     -19.051   5.793  -2.575  1.00  0.00     0.124 S 
ATOM     89  O   UNL     1     -19.095   7.229  -2.320  1.00  0.00    -0.237 OA
ATOM     90  O   UNL     1     -19.373   5.382  -3.938  1.00  0.00    -0.237 OA
ATOM     91  O   UNL     1     -19.614   4.950  -1.525  1.00  0.00    -0.744 OA
ENDBRANCH  87  88
ENDBRANCH  55  80
ENDBRANCH  29  30
ENDBRANCH  22  24
ENDBRANCH  21  22
ENDBRANCH  20  21
ENDBRANCH   1  20
TORSDOF 17
