REMARK SMILES O=C(OCCOC(=O)[C@H]1Cc2c([nH]c3ccccc23)[C@@H](c2ccc(OC(F)(F)F)cc2)[NH2+]1)c1ccc(-c2c3nc(c(-c4c(F)cc(S(=O)(=O)[O-])cc4F)c4ccc([nH]4)c(-c4c(F)cc(S(=O)(=O)[O-])cc4F)c4nc(c(-c5c(F)cc(S(=O)(=O)[O-])cc5F)c5ccc2[nH]5)C=C4)C=C3)cc1
REMARK SMILES IDX 4 1 3 2 2 3 1 4 33 5 34 6 98 7 35 8 97 9 36 10 37 11 38 12
REMARK SMILES IDX 91 13 39 14 96 15 90 16 92 17 40 18 95 19 89 20 88 21 41 23
REMARK SMILES IDX 75 24 54 25 74 26 55 27 58 28 73 29 93 30 56 31 57 32 72 34
REMARK SMILES IDX 94 35 59 36 42 37 43 38 52 39 44 40 45 41 51 42 53 43 46 44
REMARK SMILES IDX 47 45 48 46 49 47 50 48 76 49 77 50 86 51 78 52 79 53 85 54
REMARK SMILES IDX 87 55 80 56 81 57 82 58 83 59 84 60 60 61 61 62 70 63 62 64
REMARK SMILES IDX 63 65 69 66 71 67 64 68 65 69 66 70 67 71 68 72 5 73 6 74
REMARK SMILES IDX 7 75 8 76 9 77 10 78 32 79 11 80 20 81 12 84 19 85 13 86
REMARK SMILES IDX 14 87 18 88 15 90 17 91 16 92 21 93 22 94 31 95 23 96 30 97
REMARK SMILES IDX 24 98 25 99 26 100 27 101 28 102 29 103
REMARK H PARENT 92 22 58 33 32 82 32 83 13 89
REMARK Flexibility Score: inf
ROOT
ATOM      1  C   UNL     1       4.059   1.799  -0.754  1.00  0.00     0.275 C 
ENDROOT
BRANCH   1   2
ATOM      2  O   UNL     1       3.284   0.699  -1.231  1.00  0.00    -0.458 OA
BRANCH   2   3
ATOM      3  C   UNL     1       3.431  -0.614  -0.952  1.00  0.00     0.338 C 
ATOM      4  O   UNL     1       2.663  -1.403  -1.502  1.00  0.00    -0.246 OA
BRANCH   3   5
ATOM      5  C   UNL     1       4.402  -1.159   0.062  1.00  0.00     0.060 A 
ATOM      6  C   UNL     1       5.497  -0.522   0.666  1.00  0.00     0.016 A 
ATOM      7  C   UNL     1       4.101  -2.443   0.513  1.00  0.00     0.016 A 
ATOM      8  C   UNL     1       6.151  -1.065   1.790  1.00  0.00     0.010 A 
ATOM      9  C   UNL     1       4.742  -2.966   1.633  1.00  0.00     0.010 A 
ATOM     10  C   UNL     1       5.739  -2.277   2.330  1.00  0.00    -0.014 A 
BRANCH  10  11
ATOM     11  C   UNL     1       6.353  -2.871   3.554  1.00  0.00     0.031 A 
ATOM     12  C   UNL     1       6.865  -4.291   3.496  1.00  0.00     0.074 A 
ATOM     13  C   UNL     1       6.359  -2.211   4.737  1.00  0.00     0.049 A 
ATOM     14  N   UNL     1       7.327  -5.046   4.459  1.00  0.00    -0.248 NA
ATOM     15  C   UNL     1       6.745  -4.993   2.205  1.00  0.00     0.031 C 
ATOM     16  C   UNL     1       5.743  -0.906   5.002  1.00  0.00     0.029 A 
ATOM     17  N   UNL     1       6.898  -2.559   5.955  1.00  0.00    -0.354 N 
ATOM     18  C   UNL     1       7.524  -6.292   3.877  1.00  0.00     0.074 A 
ATOM     19  C   UNL     1       6.927  -6.251   2.566  1.00  0.00     0.031 C 
ATOM     20  C   UNL     1       5.973  -0.552   6.281  1.00  0.00     0.029 A 
ATOM     21  C   UNL     1       6.758  -1.595   6.933  1.00  0.00     0.049 A 
ATOM     22  H   UNL     1       7.346  -3.421   6.115  1.00  0.00     0.167 HD
ATOM     23  C   UNL     1       8.264  -7.335   4.317  1.00  0.00     0.037 A 
ATOM     24  C   UNL     1       7.245  -1.552   8.192  1.00  0.00     0.037 A 
ATOM     25  C   UNL     1       8.967  -7.324   5.565  1.00  0.00     0.049 A 
ATOM     26  C   UNL     1       8.126  -2.691   8.655  1.00  0.00     0.074 A 
ATOM     27  C   UNL     1       9.829  -8.271   6.082  1.00  0.00     0.029 A 
ATOM     28  N   UNL     1       8.909  -6.282   6.478  1.00  0.00    -0.354 N 
ATOM     29  N   UNL     1       8.431  -3.805   8.030  1.00  0.00    -0.248 NA
ATOM     30  C   UNL     1       8.766  -2.552   9.972  1.00  0.00     0.031 C 
ATOM     31  C   UNL     1      10.282  -7.806   7.321  1.00  0.00     0.029 A 
ATOM     32  C   UNL     1       9.728  -6.556   7.555  1.00  0.00     0.049 A 
ATOM     33  H   UNL     1       8.365  -5.468   6.374  1.00  0.00     0.167 HD
ATOM     34  C   UNL     1       9.328  -4.475   8.856  1.00  0.00     0.074 A 
ATOM     35  C   UNL     1       9.530  -3.634  10.018  1.00  0.00     0.031 C 
ATOM     36  C   UNL     1       9.932  -5.677   8.678  1.00  0.00     0.037 A 
BRANCH  23  37
ATOM     37  C   UNL     1       8.440  -8.490   3.370  1.00  0.00     0.058 A 
ATOM     38  C   UNL     1       9.133  -8.327   2.154  1.00  0.00     0.135 A 
ATOM     39  C   UNL     1       7.893  -9.751   3.644  1.00  0.00     0.135 A 
ATOM     40  F   UNL     1       9.658  -7.134   1.829  1.00  0.00    -0.206 F 
ATOM     41  C   UNL     1       9.223  -9.351   1.222  1.00  0.00     0.059 A 
ATOM     42  C   UNL     1       8.008 -10.805   2.740  1.00  0.00     0.059 A 
ATOM     43  F   UNL     1       7.222  -9.964   4.787  1.00  0.00    -0.206 F 
ATOM     44  C   UNL     1       8.657 -10.588   1.524  1.00  0.00     0.060 A 
BRANCH  44  45
ATOM     45  S   UNL     1       8.796 -11.909   0.303  1.00  0.00     0.124 S 
ATOM     46  O   UNL     1       7.855 -11.458  -0.720  1.00  0.00    -0.237 OA
ATOM     47  O   UNL     1      10.209 -11.839  -0.066  1.00  0.00    -0.237 OA
ATOM     48  O   UNL     1       8.401 -13.098   1.042  1.00  0.00    -0.744 OA
ENDBRANCH  44  45
ENDBRANCH  23  37
BRANCH  24  49
ATOM     49  C   UNL     1       7.010  -0.373   9.082  1.00  0.00     0.058 A 
ATOM     50  C   UNL     1       8.060   0.497   9.423  1.00  0.00     0.135 A 
ATOM     51  C   UNL     1       5.754  -0.118   9.655  1.00  0.00     0.135 A 
ATOM     52  F   UNL     1       9.283   0.302   8.907  1.00  0.00    -0.206 F 
ATOM     53  C   UNL     1       7.890   1.540  10.331  1.00  0.00     0.059 A 
ATOM     54  C   UNL     1       5.551   0.937  10.546  1.00  0.00     0.059 A 
ATOM     55  F   UNL     1       4.707  -0.901   9.353  1.00  0.00    -0.206 F 
ATOM     56  C   UNL     1       6.631   1.749  10.894  1.00  0.00     0.060 A 
BRANCH  56  57
ATOM     57  S   UNL     1       6.425   3.108  12.069  1.00  0.00     0.124 S 
ATOM     58  O   UNL     1       7.150   2.606  13.231  1.00  0.00    -0.237 OA
ATOM     59  O   UNL     1       7.048   4.222  11.360  1.00  0.00    -0.237 OA
ATOM     60  O   UNL     1       4.976   3.204  12.222  1.00  0.00    -0.744 OA
ENDBRANCH  56  57
ENDBRANCH  24  49
BRANCH  36  61
ATOM     61  C   UNL     1      10.903  -6.130   9.730  1.00  0.00     0.058 A 
ATOM     62  C   UNL     1      10.472  -6.559  10.993  1.00  0.00     0.135 A 
ATOM     63  C   UNL     1      12.275  -6.203   9.440  1.00  0.00     0.135 A 
ATOM     64  F   UNL     1       9.170  -6.509  11.316  1.00  0.00    -0.206 F 
ATOM     65  C   UNL     1      11.372  -7.021  11.945  1.00  0.00     0.059 A 
ATOM     66  C   UNL     1      13.189  -6.692  10.365  1.00  0.00     0.059 A 
ATOM     67  F   UNL     1      12.735  -5.819   8.238  1.00  0.00    -0.206 F 
ATOM     68  C   UNL     1      12.729  -7.086  11.621  1.00  0.00     0.060 A 
BRANCH  68  69
ATOM     69  S   UNL     1      13.881  -7.721  12.854  1.00  0.00     0.124 S 
ATOM     70  O   UNL     1      13.952  -6.603  13.790  1.00  0.00    -0.237 OA
ATOM     71  O   UNL     1      13.193  -8.913  13.340  1.00  0.00    -0.237 OA
ATOM     72  O   UNL     1      15.096  -7.975  12.085  1.00  0.00    -0.744 OA
ENDBRANCH  68  69
ENDBRANCH  36  61
ENDBRANCH  10  11
ENDBRANCH   3   5
ENDBRANCH   2   3
ENDBRANCH   1   2
BRANCH   1  73
ATOM     73  C   UNL     1       3.688   2.272   0.657  1.00  0.00     0.274 C 
BRANCH  73  74
ATOM     74  O   UNL     1       3.371   1.221   1.599  1.00  0.00    -0.458 OA
BRANCH  74  75
ATOM     75  C   UNL     1       2.036   1.025   1.845  1.00  0.00     0.365 C 
ATOM     76  O   UNL     1       1.152   1.634   1.253  1.00  0.00    -0.245 OA
BRANCH  75  77
ATOM     77  C   UNL     1       1.792   0.034   3.011  1.00  0.00     0.298 C 
ATOM     78  C   UNL     1       0.349   0.272   3.505  1.00  0.00     0.115 C 
ATOM     79  N   UNL     1       2.012  -1.384   2.592  1.00  0.00    -0.323 N 
ATOM     80  C   UNL     1       0.002  -0.748   4.521  1.00  0.00    -0.006 A 
ATOM     81  C   UNL     1       1.710  -2.430   3.615  1.00  0.00     0.262 C 
ATOM     82  H   UNL     1       2.993  -1.481   2.328  1.00  0.00     0.347 HD
ATOM     83  H   UNL     1       1.353  -1.548   1.831  1.00  0.00     0.347 HD
ATOM     84  C   UNL     1       0.637  -1.968   4.541  1.00  0.00     0.083 A 
ATOM     85  C   UNL     1      -0.957  -0.735   5.557  1.00  0.00     0.003 A 
ATOM     86  N   UNL     1       0.124  -2.695   5.581  1.00  0.00    -0.353 N 
ATOM     87  C   UNL     1      -0.875  -1.973   6.198  1.00  0.00     0.046 A 
ATOM     88  C   UNL     1      -1.894   0.211   6.007  1.00  0.00     0.010 A 
ATOM     89  H   UNL     1       0.422  -3.595   5.847  1.00  0.00     0.166 HD
ATOM     90  C   UNL     1      -1.706  -2.318   7.268  1.00  0.00     0.026 A 
ATOM     91  C   UNL     1      -2.728  -0.118   7.077  1.00  0.00     0.001 A 
ATOM     92  C   UNL     1      -2.637  -1.365   7.693  1.00  0.00     0.002 A 
BRANCH  81  93
ATOM     93  C   UNL     1       1.351  -3.759   2.928  1.00  0.00     0.016 A 
ATOM     94  C   UNL     1       0.099  -3.966   2.329  1.00  0.00     0.014 A 
ATOM     95  C   UNL     1       2.273  -4.816   2.853  1.00  0.00     0.014 A 
ATOM     96  C   UNL     1      -0.182  -5.144   1.623  1.00  0.00     0.047 A 
ATOM     97  C   UNL     1       2.030  -5.956   2.067  1.00  0.00     0.047 A 
ATOM     98  C   UNL     1       0.803  -6.113   1.431  1.00  0.00     0.129 A 
BRANCH  98  99
ATOM     99  O   UNL     1       0.433  -7.188   0.675  1.00  0.00    -0.406 OA
BRANCH  99 100
ATOM    100  C   UNL     1       1.436  -7.740  -0.170  1.00  0.00     0.573 C 
ATOM    101  F   UNL     1       2.031  -6.786  -0.917  1.00  0.00    -0.132 F 
ATOM    102  F   UNL     1       2.365  -8.407   0.543  1.00  0.00    -0.132 F 
ATOM    103  F   UNL     1       0.843  -8.619  -1.013  1.00  0.00    -0.132 F 
ENDBRANCH  99 100
ENDBRANCH  98  99
ENDBRANCH  81  93
ENDBRANCH  75  77
ENDBRANCH  74  75
ENDBRANCH  73  74
ENDBRANCH   1  73
TORSDOF 17
