REMARK SMILES Cc1ccc(-c2c(C)sc(NC(=O)[C@H]3CC=CC[C@H]3C(=O)OCCOC(=O)c3ccc(-c4c5nc(c(-c6c(F)cc(S(=O)(=O)[O-])cc6F)c6ccc([nH]6)c(-c6c(F)cc(S(=O)(=O)[O-])cc6F)c6nc(c(-c7c(F)cc(S(=O)(=O)[O-])cc7F)c7ccc4[nH]7)C=C6)C=C5)cc3)c2C(N)=O)cc1
REMARK SMILES IDX 23 1 22 2 20 3 21 4 19 5 14 6 15 7 16 8 18 9 17 10 12 11
REMARK SMILES IDX 11 12 13 14 10 15 6 16 7 17 94 18 8 19 9 20 5 21 1 22 2 23
REMARK SMILES IDX 3 24 99 25 4 26 98 27 95 28 96 29 97 30 24 33 25 34 26 35
REMARK SMILES IDX 27 36 28 37 29 38 93 39 30 40 92 41 31 42 32 43 33 44 86 45
REMARK SMILES IDX 34 46 91 47 85 48 87 49 35 50 90 51 84 52 83 53 36 55 70 56
REMARK SMILES IDX 49 57 69 58 50 59 53 60 68 61 88 62 51 63 52 64 67 66 89 67
REMARK SMILES IDX 54 68 37 69 38 70 47 71 39 72 40 73 46 74 48 75 41 76 42 77
REMARK SMILES IDX 43 78 44 79 45 80 71 81 72 82 81 83 73 84 74 85 80 86 82 87
REMARK SMILES IDX 75 88 76 89 77 90 78 91 79 92 55 93 56 94 65 95 57 96 58 97
REMARK SMILES IDX 64 98 66 99 59 100 60 101 61 102 62 103 63 104
REMARK H PARENT 11 13 96 31 96 32 87 54 53 65
REMARK Flexibility Score: inf
ROOT
ATOM      1  C   UNL     1     -10.639  -3.568   1.779  1.00  0.00     0.274 C 
ENDROOT
BRANCH   1   2
ATOM      2  O   UNL     1      -9.390  -2.904   1.687  1.00  0.00    -0.462 OA
BRANCH   2   3
ATOM      3  C   UNL     1      -8.672  -3.282   0.587  1.00  0.00     0.310 C 
ATOM      4  O   UNL     1      -8.236  -4.416   0.485  1.00  0.00    -0.252 OA
BRANCH   3   5
ATOM      5  C   UNL     1      -8.848  -2.038  -0.485  1.00  0.00     0.116 C 
ATOM      6  C   UNL     1      -8.095  -0.508   0.524  1.00  0.00     0.097 C 
ATOM      7  C   UNL     1      -7.583   0.951  -0.439  1.00  0.00     0.041 C 
ATOM      8  C   UNL     1      -7.195   0.884  -2.169  1.00  0.00    -0.030 C 
ATOM      9  C   UNL     1      -8.667  -1.702  -2.675  1.00  0.00     0.043 C 
ATOM     10  C   UNL     1      -7.637  -0.101  -3.121  1.00  0.00    -0.030 C 
BRANCH   6  11
ATOM     11  C   UNL     1      -7.370  -0.718   1.866  1.00  0.00     0.229 C 
ATOM     12  N   UNL     1      -6.039  -0.704   2.129  1.00  0.00    -0.317 N 
ATOM     13  H   UNL     1      -5.826  -1.006   3.042  1.00  0.00     0.170 HD
ATOM     14  O   UNL     1      -8.057  -0.951   2.876  1.00  0.00    -0.274 OA
BRANCH  12  15
ATOM     15  C   UNL     1      -4.923  -0.362   1.405  1.00  0.00     0.109 A 
ATOM     16  C   UNL     1      -2.817  -0.115   0.462  1.00  0.00     0.010 A 
ATOM     17  C   UNL     1      -3.606   0.706  -0.327  1.00  0.00     0.012 A 
ATOM     18  C   UNL     1      -3.589  -0.732   1.548  1.00  0.00     0.082 A 
ATOM     19  C   UNL     1      -3.400   1.383  -1.640  1.00  0.00     0.057 C 
ATOM     20  S   UNL     1      -4.866   1.177   0.689  1.00  0.00    -0.122 S 
BRANCH  16  21
ATOM     21  C   UNL     1      -1.388  -0.133   0.244  1.00  0.00    -0.016 A 
ATOM     22  C   UNL     1       2.877  -0.062  -0.093  1.00  0.00     0.044 C 
ATOM     23  C   UNL     1       1.382  -0.070  -0.032  1.00  0.00    -0.051 A 
ATOM     24  C   UNL     1       0.686  -1.288  -0.092  1.00  0.00     0.004 A 
ATOM     25  C   UNL     1       0.680   1.123   0.138  1.00  0.00     0.004 A 
ATOM     26  C   UNL     1      -0.700  -1.321   0.035  1.00  0.00     0.009 A 
ATOM     27  C   UNL     1      -0.698   1.089   0.289  1.00  0.00     0.009 A 
ENDBRANCH  16  21
BRANCH  18  28
ATOM     28  C   UNL     1      -3.043  -1.542   2.634  1.00  0.00     0.252 C 
ATOM     29  N   UNL     1      -3.915  -2.321   3.344  1.00  0.00    -0.365 N 
ATOM     30  O   UNL     1      -1.864  -1.524   2.968  1.00  0.00    -0.269 OA
ATOM     31  H   UNL     1      -4.867  -2.349   3.091  1.00  0.00     0.159 HD
ATOM     32  H   UNL     1      -3.592  -2.852   4.107  1.00  0.00     0.159 HD
ENDBRANCH  18  28
ENDBRANCH  12  15
ENDBRANCH   6  11
ENDBRANCH   3   5
ENDBRANCH   2   3
ENDBRANCH   1   2
BRANCH   1  33
ATOM     33  C   UNL     1     -11.814  -3.000   0.913  1.00  0.00     0.275 C 
BRANCH  33  34
ATOM     34  O   UNL     1     -11.874  -1.565   0.517  1.00  0.00    -0.458 OA
BRANCH  34  35
ATOM     35  C   UNL     1     -11.695  -0.826  -0.651  1.00  0.00     0.338 C 
ATOM     36  O   UNL     1     -12.149   0.308  -0.737  1.00  0.00    -0.246 OA
BRANCH  35  37
ATOM     37  C   UNL     1     -10.623  -1.247  -1.616  1.00  0.00     0.060 A 
ATOM     38  C   UNL     1      -9.075  -0.440  -1.408  1.00  0.00     0.016 A 
ATOM     39  C   UNL     1     -10.617  -2.817  -1.893  1.00  0.00     0.016 A 
ATOM     40  C   UNL     1      -7.370  -1.445  -1.380  1.00  0.00     0.010 A 
ATOM     41  C   UNL     1      -9.264  -3.701  -1.876  1.00  0.00     0.010 A 
ATOM     42  C   UNL     1      -7.591  -3.194  -1.710  1.00  0.00    -0.014 A 
BRANCH  42  43
ATOM     43  C   UNL     1      -6.751  -4.374  -2.010  1.00  0.00     0.031 A 
ATOM     44  C   UNL     1      -5.389  -4.482  -1.481  1.00  0.00     0.074 A 
ATOM     45  C   UNL     1      -7.306  -5.399  -2.744  1.00  0.00     0.049 A 
ATOM     46  N   UNL     1      -4.396  -4.970  -2.146  1.00  0.00    -0.248 NA
ATOM     47  C   UNL     1      -4.997  -3.963  -0.173  1.00  0.00     0.031 C 
ATOM     48  C   UNL     1      -6.967  -6.817  -2.799  1.00  0.00     0.029 A 
ATOM     49  N   UNL     1      -8.384  -5.341  -3.650  1.00  0.00    -0.354 N 
ATOM     50  C   UNL     1      -3.412  -5.219  -1.212  1.00  0.00     0.074 A 
ATOM     51  C   UNL     1      -3.716  -4.347  -0.102  1.00  0.00     0.031 C 
ATOM     52  C   UNL     1      -7.633  -7.413  -3.815  1.00  0.00     0.029 A 
ATOM     53  C   UNL     1      -8.389  -6.399  -4.529  1.00  0.00     0.049 A 
ATOM     54  H   UNL     1      -9.059  -4.623  -3.653  1.00  0.00     0.167 HD
ATOM     55  C   UNL     1      -2.675  -6.366  -1.300  1.00  0.00     0.037 A 
ATOM     56  C   UNL     1      -8.524  -6.126  -5.853  1.00  0.00     0.037 A 
ATOM     57  C   UNL     1      -3.206  -7.211  -2.376  1.00  0.00     0.049 A 
ATOM     58  C   UNL     1      -7.219  -6.493  -6.468  1.00  0.00     0.074 A 
ATOM     59  C   UNL     1      -4.010  -8.339  -2.342  1.00  0.00     0.029 A 
ATOM     60  N   UNL     1      -3.226  -6.765  -3.692  1.00  0.00    -0.354 N 
ATOM     61  N   UNL     1      -6.108  -6.510  -5.786  1.00  0.00    -0.248 NA
ATOM     62  C   UNL     1      -7.080  -7.024  -7.812  1.00  0.00     0.031 C 
ATOM     63  C   UNL     1      -4.447  -8.614  -3.661  1.00  0.00     0.029 A 
ATOM     64  C   UNL     1      -3.942  -7.630  -4.497  1.00  0.00     0.049 A 
ATOM     65  H   UNL     1      -2.789  -5.942  -4.009  1.00  0.00     0.167 HD
ATOM     66  C   UNL     1      -5.159  -7.173  -6.500  1.00  0.00     0.074 A 
ATOM     67  C   UNL     1      -5.806  -7.449  -7.773  1.00  0.00     0.031 C 
ATOM     68  C   UNL     1      -3.949  -7.478  -5.949  1.00  0.00     0.037 A 
BRANCH  55  69
ATOM     69  C   UNL     1      -1.752  -6.913  -0.214  1.00  0.00     0.058 A 
ATOM     70  C   UNL     1      -1.460  -8.296  -0.136  1.00  0.00     0.135 A 
ATOM     71  C   UNL     1      -1.090  -6.129   0.755  1.00  0.00     0.135 A 
ATOM     72  F   UNL     1      -1.926  -9.171  -1.035  1.00  0.00    -0.206 F 
ATOM     73  C   UNL     1      -0.657  -8.861   0.856  1.00  0.00     0.059 A 
ATOM     74  C   UNL     1      -0.306  -6.676   1.783  1.00  0.00     0.059 A 
ATOM     75  F   UNL     1      -1.127  -4.790   0.709  1.00  0.00    -0.206 F 
ATOM     76  C   UNL     1      -0.091  -8.047   1.823  1.00  0.00     0.060 A 
BRANCH  76  77
ATOM     77  S   UNL     1       0.971  -8.807   3.065  1.00  0.00     0.124 S 
ATOM     78  O   UNL     1       0.086  -9.804   3.660  1.00  0.00    -0.237 OA
ATOM     79  O   UNL     1       2.062  -9.334   2.252  1.00  0.00    -0.237 OA
ATOM     80  O   UNL     1       1.324  -7.693   3.940  1.00  0.00    -0.744 OA
ENDBRANCH  76  77
ENDBRANCH  55  69
BRANCH  56  81
ATOM     81  C   UNL     1      -9.394  -4.931  -6.138  1.00  0.00     0.058 A 
ATOM     82  C   UNL     1     -10.786  -5.075  -5.934  1.00  0.00     0.135 A 
ATOM     83  C   UNL     1      -8.907  -3.613  -6.183  1.00  0.00     0.135 A 
ATOM     84  F   UNL     1     -11.325  -6.303  -5.861  1.00  0.00    -0.206 F 
ATOM     85  C   UNL     1     -11.629  -3.989  -5.679  1.00  0.00     0.059 A 
ATOM     86  C   UNL     1      -9.740  -2.505  -5.940  1.00  0.00     0.059 A 
ATOM     87  F   UNL     1      -7.595  -3.387  -6.337  1.00  0.00    -0.206 F 
ATOM     88  C   UNL     1     -11.091  -2.705  -5.650  1.00  0.00     0.060 A 
BRANCH  88  89
ATOM     89  S   UNL     1     -12.149  -1.353  -5.046  1.00  0.00     0.124 S 
ATOM     90  O   UNL     1     -13.018  -1.114  -6.191  1.00  0.00    -0.237 OA
ATOM     91  O   UNL     1     -12.790  -1.971  -3.885  1.00  0.00    -0.237 OA
ATOM     92  O   UNL     1     -11.201  -0.290  -4.736  1.00  0.00    -0.744 OA
ENDBRANCH  88  89
ENDBRANCH  56  81
BRANCH  68  93
ATOM     93  C   UNL     1      -2.682  -7.779  -6.708  1.00  0.00     0.058 A 
ATOM     94  C   UNL     1      -2.539  -7.632  -8.094  1.00  0.00     0.135 A 
ATOM     95  C   UNL     1      -1.484  -8.092  -6.011  1.00  0.00     0.135 A 
ATOM     96  F   UNL     1      -3.529  -7.195  -8.879  1.00  0.00    -0.206 F 
ATOM     97  C   UNL     1      -1.337  -7.865  -8.748  1.00  0.00     0.059 A 
ATOM     98  C   UNL     1      -0.255  -8.241  -6.635  1.00  0.00     0.059 A 
ATOM     99  F   UNL     1      -1.437  -8.237  -4.680  1.00  0.00    -0.206 F 
ATOM    100  C   UNL     1      -0.199  -8.157  -8.011  1.00  0.00     0.060 A 
BRANCH 100 101
ATOM    101  S   UNL     1       1.348  -8.383  -8.881  1.00  0.00     0.124 S 
ATOM    102  O   UNL     1       1.115  -9.657  -9.554  1.00  0.00    -0.237 OA
ATOM    103  O   UNL     1       1.385  -7.207  -9.745  1.00  0.00    -0.237 OA
ATOM    104  O   UNL     1       2.343  -8.404  -7.814  1.00  0.00    -0.744 OA
ENDBRANCH 100 101
ENDBRANCH  68  93
ENDBRANCH  42  43
ENDBRANCH  35  37
ENDBRANCH  34  35
ENDBRANCH  33  34
ENDBRANCH   1  33
TORSDOF 18
