REMARK SMILES C[C@H](CCC(=O)OCCOC(=O)c1ccc(-c2c3nc(c(-c4c(F)cc(S(=O)(=O)[O-])cc4F)c4ccc([nH]4)c(-c4c(F)cc(S(=O)(=O)[O-])cc4F)c4nc(c(-c5c(F)cc(S(=O)(=O)[O-])cc5F)c5ccc2[nH]5)C=C4)C=C3)cc1)NC(=O)c1ccc(C[NH3+])o1
REMARK SMILES IDX 7 1 5 2 6 3 4 4 3 5 2 6 1 7 79 8 80 9 81 11 82 12 83 13
REMARK SMILES IDX 88 14 84 15 85 16 86 17 87 18 8 22 9 23 10 24 11 25 12 26
REMARK SMILES IDX 13 27 14 28 78 29 15 30 77 31 16 32 17 33 18 34 71 35 19 36
REMARK SMILES IDX 76 37 70 38 72 39 20 40 75 41 69 42 68 43 21 45 55 46 34 47
REMARK SMILES IDX 54 48 35 49 38 50 53 51 73 52 36 53 37 54 52 56 74 57 39 58
REMARK SMILES IDX 22 59 23 60 32 61 24 62 25 63 31 64 33 65 26 66 27 67 28 68
REMARK SMILES IDX 29 69 30 70 56 71 57 72 66 73 58 74 59 75 65 76 67 77 60 78
REMARK SMILES IDX 61 79 62 80 63 81 64 82 40 83 41 84 50 85 42 86 43 87 49 88
REMARK SMILES IDX 51 89 44 90 45 91 46 92 47 93 48 94
REMARK H PARENT 79 10 87 19 87 20 87 21 72 44 38 55
REMARK Flexibility Score: inf
ROOT
ATOM      1  O   UNL     1       0.664  -3.214   0.933  1.00  0.00    -0.462 OA
ENDROOT
BRANCH   1   2
ATOM      2  C   UNL     1       0.208  -2.323   1.842  1.00  0.00     0.305 C 
ATOM      3  O   UNL     1       0.253  -2.476   3.055  1.00  0.00    -0.252 OA
BRANCH   2   4
ATOM      4  C   UNL     1      -0.450  -1.132   1.187  1.00  0.00     0.125 C 
BRANCH   4   5
ATOM      5  C   UNL     1       0.357  -0.410   0.101  1.00  0.00     0.036 C 
BRANCH   5   6
ATOM      6  C   UNL     1       0.225  -0.884  -1.364  1.00  0.00     0.080 C 
ATOM      7  C   UNL     1       0.981  -2.169  -1.684  1.00  0.00     0.031 C 
BRANCH   6   8
ATOM      8  N   UNL     1      -1.178  -0.980  -1.764  1.00  0.00    -0.347 N 
ATOM      9  C   UNL     1      -1.792  -0.517  -2.904  1.00  0.00     0.287 C 
ATOM     10  H   UNL     1      -1.767  -1.442  -1.126  1.00  0.00     0.164 HD
ATOM     11  O   UNL     1      -3.023  -0.523  -2.930  1.00  0.00    -0.266 OA
BRANCH   9  12
ATOM     12  C   UNL     1      -0.973  -0.079  -4.005  1.00  0.00     0.191 A 
ATOM     13  C   UNL     1      -0.036  -0.739  -4.777  1.00  0.00     0.057 A 
ATOM     14  O   UNL     1      -1.123   1.200  -4.466  1.00  0.00    -0.450 OA
ATOM     15  C   UNL     1       0.443   0.192  -5.725  1.00  0.00     0.052 A 
ATOM     16  C   UNL     1      -0.251   1.362  -5.502  1.00  0.00     0.159 A 
BRANCH  16  17
ATOM     17  C   UNL     1      -0.230   2.694  -6.154  1.00  0.00     0.335 C 
BRANCH  17  18
ATOM     18  N   UNL     1       1.095   3.297  -6.048  1.00  0.00    -0.351 N 
ATOM     19  H   UNL     1       1.338   3.416  -5.065  1.00  0.00     0.344 HD
ATOM     20  H   UNL     1       1.092   4.207  -6.510  1.00  0.00     0.344 HD
ATOM     21  H   UNL     1       1.782   2.691  -6.497  1.00  0.00     0.344 HD
ENDBRANCH  17  18
ENDBRANCH  16  17
ENDBRANCH   9  12
ENDBRANCH   6   8
ENDBRANCH   5   6
ENDBRANCH   4   5
ENDBRANCH   2   4
ENDBRANCH   1   2
BRANCH   1  22
ATOM     22  C   UNL     1       1.314  -4.394   1.439  1.00  0.00     0.274 C 
BRANCH  22  23
ATOM     23  C   UNL     1       2.835  -4.236   1.421  1.00  0.00     0.275 C 
BRANCH  23  24
ATOM     24  O   UNL     1       3.266  -3.310   2.433  1.00  0.00    -0.458 OA
BRANCH  24  25
ATOM     25  C   UNL     1       3.523  -2.051   2.006  1.00  0.00     0.338 C 
ATOM     26  O   UNL     1       3.511  -1.643   0.859  1.00  0.00    -0.246 OA
BRANCH  25  27
ATOM     27  C   UNL     1       3.690  -1.177   3.176  1.00  0.00     0.060 A 
ATOM     28  C   UNL     1       2.747  -0.167   3.390  1.00  0.00     0.016 A 
ATOM     29  C   UNL     1       4.781  -1.327   4.032  1.00  0.00     0.016 A 
ATOM     30  C   UNL     1       2.885   0.694   4.475  1.00  0.00     0.010 A 
ATOM     31  C   UNL     1       4.918  -0.462   5.121  1.00  0.00     0.010 A 
ATOM     32  C   UNL     1       3.973   0.554   5.346  1.00  0.00    -0.014 A 
BRANCH  32  33
ATOM     33  C   UNL     1       4.133   1.490   6.483  1.00  0.00     0.031 A 
ATOM     34  C   UNL     1       5.170   2.573   6.416  1.00  0.00     0.074 A 
ATOM     35  C   UNL     1       3.345   1.363   7.566  1.00  0.00     0.049 A 
ATOM     36  N   UNL     1       5.521   3.438   7.331  1.00  0.00    -0.248 NA
ATOM     37  C   UNL     1       5.913   2.696   5.152  1.00  0.00     0.031 C 
ATOM     38  C   UNL     1       2.284   0.366   7.724  1.00  0.00     0.029 A 
ATOM     39  N   UNL     1       3.318   2.069   8.741  1.00  0.00    -0.354 N 
ATOM     40  C   UNL     1       6.533   4.201   6.762  1.00  0.00     0.074 A 
ATOM     41  C   UNL     1       6.754   3.684   5.428  1.00  0.00     0.031 C 
ATOM     42  C   UNL     1       1.713   0.522   8.930  1.00  0.00     0.029 A 
ATOM     43  C   UNL     1       2.393   1.600   9.643  1.00  0.00     0.049 A 
ATOM     44  H   UNL     1       3.905   2.838   8.921  1.00  0.00     0.167 HD
ATOM     45  C   UNL     1       7.212   5.240   7.306  1.00  0.00     0.037 A 
ATOM     46  C   UNL     1       2.143   1.980  10.911  1.00  0.00     0.037 A 
ATOM     47  C   UNL     1       6.979   5.749   8.633  1.00  0.00     0.049 A 
ATOM     48  C   UNL     1       2.944   3.105  11.509  1.00  0.00     0.074 A 
ATOM     49  C   UNL     1       7.606   6.803   9.274  1.00  0.00     0.029 A 
ATOM     50  N   UNL     1       6.045   5.239   9.523  1.00  0.00    -0.354 N 
ATOM     51  N   UNL     1       3.898   3.820  10.959  1.00  0.00    -0.248 NA
ATOM     52  C   UNL     1       2.639   3.475  12.897  1.00  0.00     0.031 C 
ATOM     53  C   UNL     1       7.078   6.906  10.566  1.00  0.00     0.029 A 
ATOM     54  C   UNL     1       6.091   5.945  10.714  1.00  0.00     0.049 A 
ATOM     55  H   UNL     1       5.438   4.486   9.336  1.00  0.00     0.167 HD
ATOM     56  C   UNL     1       4.294   4.735  11.928  1.00  0.00     0.074 A 
ATOM     57  C   UNL     1       3.466   4.492  13.093  1.00  0.00     0.031 C 
ATOM     58  C   UNL     1       5.255   5.689  11.861  1.00  0.00     0.037 A 
BRANCH  45  59
ATOM     59  C   UNL     1       8.289   5.878   6.474  1.00  0.00     0.058 A 
ATOM     60  C   UNL     1       7.985   6.701   5.379  1.00  0.00     0.135 A 
ATOM     61  C   UNL     1       9.642   5.686   6.794  1.00  0.00     0.135 A 
ATOM     62  F   UNL     1       6.708   6.903   5.018  1.00  0.00    -0.206 F 
ATOM     63  C   UNL     1       8.986   7.295   4.616  1.00  0.00     0.059 A 
ATOM     64  C   UNL     1      10.660   6.287   6.059  1.00  0.00     0.059 A 
ATOM     65  F   UNL     1       9.988   4.904   7.829  1.00  0.00    -0.206 F 
ATOM     66  C   UNL     1      10.322   7.079   4.963  1.00  0.00     0.060 A 
BRANCH  66  67
ATOM     67  S   UNL     1      11.611   7.855   3.964  1.00  0.00     0.124 S 
ATOM     68  O   UNL     1      11.579   7.032   2.759  1.00  0.00    -0.237 OA
ATOM     69  O   UNL     1      11.112   9.218   3.812  1.00  0.00    -0.237 OA
ATOM     70  O   UNL     1      12.808   7.717   4.787  1.00  0.00    -0.744 OA
ENDBRANCH  66  67
ENDBRANCH  45  59
BRANCH  46  71
ATOM     71  C   UNL     1       1.101   1.277  11.706  1.00  0.00     0.058 A 
ATOM     72  C   UNL     1      -0.102   1.911  12.045  1.00  0.00     0.135 A 
ATOM     73  C   UNL     1       1.286  -0.047  12.135  1.00  0.00     0.135 A 
ATOM     74  F   UNL     1      -0.322   3.180  11.666  1.00  0.00    -0.206 F 
ATOM     75  C   UNL     1      -1.081   1.264  12.793  1.00  0.00     0.059 A 
ATOM     76  C   UNL     1       0.313  -0.723  12.863  1.00  0.00     0.059 A 
ATOM     77  F   UNL     1       2.417  -0.702  11.826  1.00  0.00    -0.206 F 
ATOM     78  C   UNL     1      -0.864  -0.055  13.196  1.00  0.00     0.060 A 
BRANCH  78  79
ATOM     79  S   UNL     1      -2.158  -0.903  14.128  1.00  0.00     0.124 S 
ATOM     80  O   UNL     1      -2.009  -0.304  15.449  1.00  0.00    -0.237 OA
ATOM     81  O   UNL     1      -3.363  -0.534  13.391  1.00  0.00    -0.237 OA
ATOM     82  O   UNL     1      -1.777  -2.309  14.024  1.00  0.00    -0.744 OA
ENDBRANCH  78  79
ENDBRANCH  46  71
BRANCH  58  83
ATOM     83  C   UNL     1       5.444   6.560  13.071  1.00  0.00     0.058 A 
ATOM     84  C   UNL     1       6.078   6.083  14.229  1.00  0.00     0.135 A 
ATOM     85  C   UNL     1       5.026   7.900  13.055  1.00  0.00     0.135 A 
ATOM     86  F   UNL     1       6.489   4.807  14.297  1.00  0.00    -0.206 F 
ATOM     87  C   UNL     1       6.271   6.899  15.339  1.00  0.00     0.059 A 
ATOM     88  C   UNL     1       5.230   8.741  14.144  1.00  0.00     0.059 A 
ATOM     89  F   UNL     1       4.424   8.407  11.968  1.00  0.00    -0.206 F 
ATOM     90  C   UNL     1       5.843   8.227  15.287  1.00  0.00     0.060 A 
BRANCH  90  91
ATOM     91  S   UNL     1       6.126   9.287  16.721  1.00  0.00     0.124 S 
ATOM     92  O   UNL     1       5.086   8.827  17.635  1.00  0.00    -0.237 OA
ATOM     93  O   UNL     1       7.495   8.948  17.097  1.00  0.00    -0.237 OA
ATOM     94  O   UNL     1       5.945  10.634  16.188  1.00  0.00    -0.744 OA
ENDBRANCH  90  91
ENDBRANCH  58  83
ENDBRANCH  32  33
ENDBRANCH  25  27
ENDBRANCH  24  25
ENDBRANCH  23  24
ENDBRANCH  22  23
ENDBRANCH   1  22
TORSDOF 20
