REMARK SMILES COc1ccc(-c2ccc(/C=C3\SC(=S)N([C@H](Cc4ccccc4)C(=O)OCCOC(=O)c4ccc(-c5c6nc(c(-c7c(F)cc(S(=O)(=O)[O-])cc7F)c7ccc([nH]7)c(-c7c(F)cc(S(=O)(=O)[O-])cc7F)c7nc(c(-c8c(F)cc(S(=O)(=O)[O-])cc8F)c8ccc5[nH]8)C=C7)C=C6)cc4)C3=O)o2)cc1
REMARK SMILES IDX 28 1 27 2 25 3 26 4 17 5 16 6 11 7 12 8 13 9 99 10 14 11
REMARK SMILES IDX 100 12 15 13 10 14 7 15 8 16 101 17 9 18 6 19 3 20 4 21
REMARK SMILES IDX 103 22 5 23 102 24 2 25 1 26 18 27 19 28 20 29 24 30 21 31
REMARK SMILES IDX 23 32 22 33 29 34 30 35 31 36 32 37 33 38 34 39 98 40 35 41
REMARK SMILES IDX 97 42 36 43 37 44 38 45 91 46 39 47 96 48 90 49 92 50 40 51
REMARK SMILES IDX 95 52 89 53 88 54 41 56 75 57 54 58 74 59 55 60 58 61 73 62
REMARK SMILES IDX 93 63 56 64 57 65 72 67 94 68 59 69 42 70 43 71 52 72 44 73
REMARK SMILES IDX 45 74 51 75 53 76 46 77 47 78 48 79 49 80 50 81 76 82 77 83
REMARK SMILES IDX 86 84 78 85 79 86 85 87 87 88 80 89 81 90 82 91 83 92 84 93
REMARK SMILES IDX 60 94 61 95 70 96 62 97 63 98 69 99 71 100 64 101 65 102
REMARK SMILES IDX 66 103 67 104 68 105
REMARK H PARENT 92 55 58 66
REMARK Flexibility Score: inf
ROOT
ATOM      1  C   UNL     1       2.373 -13.636   7.600  1.00  0.00     0.274 C 
ENDROOT
BRANCH   1   2
ATOM      2  O   UNL     1       1.473 -12.514   7.658  1.00  0.00    -0.461 OA
BRANCH   2   3
ATOM      3  C   UNL     1       0.281 -12.725   8.265  1.00  0.00     0.329 C 
ATOM      4  O   UNL     1      -0.075 -13.796   8.748  1.00  0.00    -0.250 OA
BRANCH   3   5
ATOM      5  C   UNL     1      -0.611 -11.482   8.312  1.00  0.00     0.206 C 
BRANCH   5   6
ATOM      6  N   UNL     1      -1.938 -11.822   7.783  1.00  0.00    -0.278 N 
ATOM      7  C   UNL     1      -3.741 -12.479   4.771  1.00  0.00     0.068 C 
ATOM      8  C   UNL     1      -3.445 -12.321   6.062  1.00  0.00     0.084 C 
ATOM      9  S   UNL     1      -4.462 -12.193   7.433  1.00  0.00    -0.054 SA
ATOM     10  C   UNL     1      -2.028 -12.245   6.472  1.00  0.00     0.267 C 
ATOM     11  C   UNL     1      -3.114 -11.816   8.502  1.00  0.00     0.149 C 
ATOM     12  O   UNL     1      -1.098 -12.575   5.750  1.00  0.00    -0.268 OA
ATOM     13  S   UNL     1      -3.346 -11.466  10.115  1.00  0.00    -0.052 S 
BRANCH   7  14
ATOM     14  C   UNL     1      -5.045 -12.639   4.250  1.00  0.00     0.128 A 
ATOM     15  C   UNL     1      -6.604 -13.581   2.981  1.00  0.00     0.134 A 
ATOM     16  C   UNL     1      -7.242 -12.588   3.685  1.00  0.00     0.051 A 
ATOM     17  O   UNL     1      -5.283 -13.584   3.288  1.00  0.00    -0.457 OA
ATOM     18  C   UNL     1      -6.248 -11.990   4.503  1.00  0.00     0.051 A 
BRANCH  15  19
ATOM     19  C   UNL     1      -6.995 -14.591   2.019  1.00  0.00     0.017 A 
ATOM     20  C   UNL     1      -7.672 -16.561   0.135  1.00  0.00     0.118 A 
ATOM     21  C   UNL     1      -6.788 -16.857   1.171  1.00  0.00     0.047 A 
ATOM     22  C   UNL     1      -8.236 -15.286   0.054  1.00  0.00     0.047 A 
ATOM     23  C   UNL     1      -6.442 -15.876   2.100  1.00  0.00     0.016 A 
ATOM     24  C   UNL     1      -7.903 -14.306   0.997  1.00  0.00     0.016 A 
BRANCH  20  25
ATOM     25  O   UNL     1      -7.921 -17.600  -0.719  1.00  0.00    -0.497 OA
ATOM     26  C   UNL     1      -8.435 -17.246  -1.995  1.00  0.00     0.278 C 
ENDBRANCH  20  25
ENDBRANCH  15  19
ENDBRANCH   7  14
ENDBRANCH   5   6
BRANCH   5  27
ATOM     27  C   UNL     1      -0.050 -10.114   7.864  1.00  0.00     0.073 C 
BRANCH  27  28
ATOM     28  C   UNL     1      -0.080  -9.780   6.393  1.00  0.00    -0.045 A 
ATOM     29  C   UNL     1       1.012 -10.092   5.574  1.00  0.00     0.004 A 
ATOM     30  C   UNL     1      -1.208  -9.173   5.819  1.00  0.00     0.004 A 
ATOM     31  C   UNL     1       0.960  -9.848   4.202  1.00  0.00     0.000 A 
ATOM     32  C   UNL     1      -1.260  -8.933   4.446  1.00  0.00     0.000 A 
ATOM     33  C   UNL     1      -0.179  -9.278   3.636  1.00  0.00     0.000 A 
ENDBRANCH  27  28
ENDBRANCH   5  27
ENDBRANCH   3   5
ENDBRANCH   2   3
ENDBRANCH   1   2
BRANCH   1  34
ATOM     34  C   UNL     1       3.624 -13.370   8.440  1.00  0.00     0.275 C 
BRANCH  34  35
ATOM     35  O   UNL     1       3.304 -13.207   9.836  1.00  0.00    -0.458 OA
BRANCH  35  36
ATOM     36  C   UNL     1       3.014 -11.934  10.194  1.00  0.00     0.338 C 
ATOM     37  O   UNL     1       3.028 -10.947   9.478  1.00  0.00    -0.246 OA
BRANCH  36  38
ATOM     38  C   UNL     1       2.513 -11.884  11.575  1.00  0.00     0.060 A 
ATOM     39  C   UNL     1       1.224 -11.383  11.767  1.00  0.00     0.016 A 
ATOM     40  C   UNL     1       3.330 -12.174  12.667  1.00  0.00     0.016 A 
ATOM     41  C   UNL     1       0.749 -11.133  13.047  1.00  0.00     0.010 A 
ATOM     42  C   UNL     1       2.856 -11.915  13.959  1.00  0.00     0.010 A 
ATOM     43  C   UNL     1       1.576 -11.363  14.151  1.00  0.00    -0.014 A 
BRANCH  43  44
ATOM     44  C   UNL     1       1.129 -10.889  15.482  1.00  0.00     0.031 A 
ATOM     45  C   UNL     1       1.720  -9.626  16.047  1.00  0.00     0.074 A 
ATOM     46  C   UNL     1       0.151 -11.539  16.139  1.00  0.00     0.049 A 
ATOM     47  N   UNL     1       1.506  -9.060  17.206  1.00  0.00    -0.248 NA
ATOM     48  C   UNL     1       2.679  -8.904  15.194  1.00  0.00     0.031 C 
ATOM     49  C   UNL     1      -0.533 -12.742  15.662  1.00  0.00     0.029 A 
ATOM     50  N   UNL     1      -0.441 -11.273  17.346  1.00  0.00    -0.354 N 
ATOM     51  C   UNL     1       2.326  -7.938  17.237  1.00  0.00     0.074 A 
ATOM     52  C   UNL     1       3.043  -7.901  15.981  1.00  0.00     0.031 C 
ATOM     53  C   UNL     1      -1.451 -13.112  16.572  1.00  0.00     0.029 A 
ATOM     54  C   UNL     1      -1.396 -12.193  17.705  1.00  0.00     0.049 A 
ATOM     55  H   UNL     1      -0.205 -10.496  17.903  1.00  0.00     0.167 HD
ATOM     56  C   UNL     1       2.467  -7.024  18.225  1.00  0.00     0.037 A 
ATOM     57  C   UNL     1      -2.127 -12.293  18.832  1.00  0.00     0.037 A 
ATOM     58  C   UNL     1       1.719  -7.042  19.454  1.00  0.00     0.049 A 
ATOM     59  C   UNL     1      -1.956 -11.256  19.910  1.00  0.00     0.074 A 
ATOM     60  C   UNL     1       1.788  -6.160  20.519  1.00  0.00     0.029 A 
ATOM     61  N   UNL     1       0.753  -7.983  19.776  1.00  0.00    -0.354 N 
ATOM     62  N   UNL     1      -1.155 -10.218  19.936  1.00  0.00    -0.248 NA
ATOM     63  C   UNL     1      -2.791 -11.403  21.110  1.00  0.00     0.031 C 
ATOM     64  C   UNL     1       0.875  -6.579  21.494  1.00  0.00     0.029 A 
ATOM     65  C   UNL     1       0.217  -7.703  21.022  1.00  0.00     0.049 A 
ATOM     66  H   UNL     1       0.487  -8.738  19.203  1.00  0.00     0.167 HD
ATOM     67  C   UNL     1      -1.405  -9.577  21.144  1.00  0.00     0.074 A 
ATOM     68  C   UNL     1      -2.441 -10.335  21.814  1.00  0.00     0.031 C 
ATOM     69  C   UNL     1      -0.827  -8.463  21.658  1.00  0.00     0.037 A 
BRANCH  56  70
ATOM     70  C   UNL     1       3.486  -5.939  18.033  1.00  0.00     0.058 A 
ATOM     71  C   UNL     1       3.245  -4.836  17.200  1.00  0.00     0.135 A 
ATOM     72  C   UNL     1       4.702  -5.981  18.734  1.00  0.00     0.135 A 
ATOM     73  F   UNL     1       2.109  -4.761  16.490  1.00  0.00    -0.206 F 
ATOM     74  C   UNL     1       4.179  -3.814  17.063  1.00  0.00     0.059 A 
ATOM     75  C   UNL     1       5.642  -4.961  18.627  1.00  0.00     0.059 A 
ATOM     76  F   UNL     1       4.983  -7.019  19.537  1.00  0.00    -0.206 F 
ATOM     77  C   UNL     1       5.375  -3.885  17.782  1.00  0.00     0.060 A 
BRANCH  77  78
ATOM     78  S   UNL     1       6.567  -2.538  17.620  1.00  0.00     0.124 S 
ATOM     79  O   UNL     1       7.158  -2.828  16.317  1.00  0.00    -0.237 OA
ATOM     80  O   UNL     1       5.716  -1.354  17.680  1.00  0.00    -0.237 OA
ATOM     81  O   UNL     1       7.450  -2.729  18.767  1.00  0.00    -0.744 OA
ENDBRANCH  77  78
ENDBRANCH  56  70
BRANCH  57  82
ATOM     82  C   UNL     1      -3.066 -13.429  19.017  1.00  0.00     0.058 A 
ATOM     83  C   UNL     1      -4.454 -13.237  19.010  1.00  0.00     0.135 A 
ATOM     84  C   UNL     1      -2.585 -14.730  19.234  1.00  0.00     0.135 A 
ATOM     85  F   UNL     1      -4.960 -12.009  18.814  1.00  0.00    -0.206 F 
ATOM     86  C   UNL     1      -5.336 -14.288  19.241  1.00  0.00     0.059 A 
ATOM     87  C   UNL     1      -3.447 -15.801  19.444  1.00  0.00     0.059 A 
ATOM     88  F   UNL     1      -1.264 -14.968  19.235  1.00  0.00    -0.206 F 
ATOM     89  C   UNL     1      -4.821 -15.566  19.465  1.00  0.00     0.060 A 
BRANCH  89  90
ATOM     90  S   UNL     1      -5.964 -16.934  19.753  1.00  0.00     0.124 S 
ATOM     91  O   UNL     1      -6.281 -16.757  21.165  1.00  0.00    -0.237 OA
ATOM     92  O   UNL     1      -7.044 -16.644  18.815  1.00  0.00    -0.237 OA
ATOM     93  O   UNL     1      -5.162 -18.110  19.427  1.00  0.00    -0.744 OA
ENDBRANCH  89  90
ENDBRANCH  57  82
BRANCH  69  94
ATOM     94  C   UNL     1      -1.337  -7.981  22.985  1.00  0.00     0.058 A 
ATOM     95  C   UNL     1      -0.993  -8.625  24.183  1.00  0.00     0.135 A 
ATOM     96  C   UNL     1      -2.165  -6.850  23.057  1.00  0.00     0.135 A 
ATOM     97  F   UNL     1      -0.206  -9.713  24.163  1.00  0.00    -0.206 F 
ATOM     98  C   UNL     1      -1.482  -8.185  25.408  1.00  0.00     0.059 A 
ATOM     99  C   UNL     1      -2.648  -6.380  24.273  1.00  0.00     0.059 A 
ATOM    100  F   UNL     1      -2.511  -6.193  21.939  1.00  0.00    -0.206 F 
ATOM    101  C   UNL     1      -2.316  -7.065  25.442  1.00  0.00     0.060 A 
BRANCH 101 102
ATOM    102  S   UNL     1      -2.946  -6.493  27.034  1.00  0.00     0.124 S 
ATOM    103  O   UNL     1      -4.068  -7.401  27.247  1.00  0.00    -0.237 OA
ATOM    104  O   UNL     1      -1.800  -6.683  27.918  1.00  0.00    -0.237 OA
ATOM    105  O   UNL     1      -3.303  -5.101  26.773  1.00  0.00    -0.744 OA
ENDBRANCH 101 102
ENDBRANCH  69  94
ENDBRANCH  43  44
ENDBRANCH  36  38
ENDBRANCH  35  36
ENDBRANCH  34  35
ENDBRANCH   1  34
TORSDOF 20
