REMARK SMILES Cc1c(/C=C2/SC(=S)N(CCC(=O)OCCOC(=O)c3ccc(-c4c5nc(c(-c6c(F)cc(S(=O)(=O)[O-])cc6F)c6ccc([nH]6)c(-c6c(F)cc(S(=O)(=O)[O-])cc6F)c6nc(c(-c7c(F)cc(S(=O)(=O)[O-])cc7F)c7ccc4[nH]7)C=C6)C=C5)cc3)C2=O)c(N2C[C@@H](C)C[C@H](C)C2)n(C)c(=O)c1C#N
REMARK SMILES IDX 15 1 14 2 12 3 13 4 11 5 10 6 9 7 4 8 5 9 6 10 86 11 7 12
REMARK SMILES IDX 87 13 8 14 3 15 1 16 2 17 101 18 88 19 99 20 97 21 100 22
REMARK SMILES IDX 98 23 102 24 103 25 89 26 90 27 96 28 91 29 94 30 92 31
REMARK SMILES IDX 93 32 95 33 16 34 17 35 18 36 19 37 20 38 21 39 85 40 22 41
REMARK SMILES IDX 84 42 23 43 24 44 25 45 78 46 26 47 83 48 77 49 79 50 27 51
REMARK SMILES IDX 82 52 76 53 75 54 28 56 62 57 41 58 61 59 42 60 45 61 60 62
REMARK SMILES IDX 80 63 43 64 44 65 59 67 81 68 46 69 29 70 30 71 39 72 31 73
REMARK SMILES IDX 32 74 38 75 40 76 33 77 34 78 35 79 36 80 37 81 63 82 64 83
REMARK SMILES IDX 73 84 65 85 66 86 72 87 74 88 67 89 68 90 69 91 70 92 71 93
REMARK SMILES IDX 47 94 48 95 57 96 49 97 50 98 56 99 58 100 51 101 52 102
REMARK SMILES IDX 53 103 54 104 55 105
REMARK H PARENT 79 55 45 66
REMARK Flexibility Score: inf
ROOT
ATOM      1  C   UNL     1      -1.486  -0.022   1.343  1.00  0.00     0.274 C 
ENDROOT
BRANCH   1   2
ATOM      2  O   UNL     1      -0.434   0.206   2.298  1.00  0.00    -0.462 OA
BRANCH   2   3
ATOM      3  C   UNL     1      -0.302   1.442   2.812  1.00  0.00     0.307 C 
ATOM      4  O   UNL     1      -0.928   2.421   2.428  1.00  0.00    -0.252 OA
BRANCH   3   5
ATOM      5  C   UNL     1       0.715   1.515   3.930  1.00  0.00     0.144 C 
BRANCH   5   6
ATOM      6  C   UNL     1       1.278   0.193   4.470  1.00  0.00     0.139 C 
BRANCH   6   7
ATOM      7  N   UNL     1       2.280  -0.429   3.587  1.00  0.00    -0.292 N 
ATOM      8  C   UNL     1       2.850  -2.275   0.530  1.00  0.00     0.033 C 
ATOM      9  C   UNL     1       2.984  -1.729   1.752  1.00  0.00     0.081 C 
ATOM     10  S   UNL     1       4.464  -1.131   2.395  1.00  0.00    -0.054 SA
ATOM     11  C   UNL     1       1.898  -1.438   2.719  1.00  0.00     0.266 C 
ATOM     12  C   UNL     1       3.634  -0.171   3.627  1.00  0.00     0.148 C 
ATOM     13  O   UNL     1       0.877  -2.103   2.761  1.00  0.00    -0.268 OA
ATOM     14  S   UNL     1       4.458   0.873   4.633  1.00  0.00    -0.052 S 
BRANCH   8  15
ATOM     15  C   UNL     1       1.584  -2.527  -0.189  1.00  0.00     0.021 A 
ATOM     16  C   UNL     1       1.584  -0.043  -0.824  1.00  0.00     0.047 C 
ATOM     17  C   UNL     1       0.912  -1.401  -0.890  1.00  0.00    -0.017 A 
ATOM     18  C   UNL     1      -0.226  -1.595  -1.586  1.00  0.00     0.121 A 
ATOM     19  C   UNL     1       1.059  -3.790  -0.292  1.00  0.00     0.118 A 
ATOM     20  C   UNL     1      -0.858  -2.929  -1.594  1.00  0.00     0.270 A 
ATOM     21  N   UNL     1      -0.175  -3.951  -0.953  1.00  0.00    -0.296 N 
ATOM     22  O   UNL     1      -1.944  -3.077  -2.153  1.00  0.00    -0.268 OA
ATOM     23  C   UNL     1      -0.863  -5.235  -0.914  1.00  0.00     0.155 C 
BRANCH  18  24
ATOM     24  C   UNL     1      -0.920  -0.560  -2.273  1.00  0.00     0.105 C 
ATOM     25  N   UNL     1      -1.463   0.327  -2.796  1.00  0.00    -0.192 NA
ENDBRANCH  18  24
BRANCH  19  26
ATOM     26  N   UNL     1       1.728  -4.942   0.164  1.00  0.00    -0.357 N 
ATOM     27  C   UNL     1       2.230  -5.124   1.534  1.00  0.00     0.121 C 
ATOM     28  C   UNL     1       2.295  -5.884  -0.812  1.00  0.00     0.121 C 
ATOM     29  C   UNL     1       2.030  -6.569   2.029  1.00  0.00     0.006 C 
ATOM     30  C   UNL     1       1.952  -7.322  -0.405  1.00  0.00     0.006 C 
ATOM     31  C   UNL     1       0.580  -6.819   2.453  1.00  0.00     0.009 C 
ATOM     32  C   UNL     1       2.513  -7.602   0.995  1.00  0.00     0.010 C 
ATOM     33  C   UNL     1       2.449  -8.324  -1.448  1.00  0.00     0.009 C 
ENDBRANCH  19  26
ENDBRANCH   8  15
ENDBRANCH   6   7
ENDBRANCH   5   6
ENDBRANCH   3   5
ENDBRANCH   2   3
ENDBRANCH   1   2
BRANCH   1  34
ATOM     34  C   UNL     1      -2.040  -1.441   1.523  1.00  0.00     0.275 C 
BRANCH  34  35
ATOM     35  O   UNL     1      -3.061  -1.410   2.524  1.00  0.00    -0.458 OA
BRANCH  35  36
ATOM     36  C   UNL     1      -2.616  -1.282   3.791  1.00  0.00     0.338 C 
ATOM     37  O   UNL     1      -1.533  -1.554   4.268  1.00  0.00    -0.246 OA
BRANCH  36  38
ATOM     38  C   UNL     1      -3.610  -0.465   4.468  1.00  0.00     0.060 A 
ATOM     39  C   UNL     1      -3.269   0.848   4.812  1.00  0.00     0.016 A 
ATOM     40  C   UNL     1      -4.872  -0.997   4.706  1.00  0.00     0.016 A 
ATOM     41  C   UNL     1      -4.209   1.645   5.438  1.00  0.00     0.010 A 
ATOM     42  C   UNL     1      -5.814  -0.197   5.326  1.00  0.00     0.010 A 
ATOM     43  C   UNL     1      -5.470   1.109   5.713  1.00  0.00    -0.014 A 
BRANCH  43  44
ATOM     44  C   UNL     1      -6.413   1.869   6.537  1.00  0.00     0.031 A 
ATOM     45  C   UNL     1      -6.558   1.471   7.971  1.00  0.00     0.074 A 
ATOM     46  C   UNL     1      -7.117   2.866   5.978  1.00  0.00     0.049 A 
ATOM     47  N   UNL     1      -7.402   1.909   8.860  1.00  0.00    -0.248 NA
ATOM     48  C   UNL     1      -5.639   0.429   8.470  1.00  0.00     0.031 C 
ATOM     49  C   UNL     1      -6.988   3.314   4.589  1.00  0.00     0.029 A 
ATOM     50  N   UNL     1      -8.091   3.668   6.503  1.00  0.00    -0.354 N 
ATOM     51  C   UNL     1      -7.125   1.196  10.017  1.00  0.00     0.074 A 
ATOM     52  C   UNL     1      -6.059   0.271   9.717  1.00  0.00     0.031 C 
ATOM     53  C   UNL     1      -7.867   4.306   4.369  1.00  0.00     0.029 A 
ATOM     54  C   UNL     1      -8.643   4.527   5.585  1.00  0.00     0.049 A 
ATOM     55  H   UNL     1      -8.369   3.633   7.447  1.00  0.00     0.167 HD
ATOM     56  C   UNL     1      -7.713   1.326  11.224  1.00  0.00     0.037 A 
ATOM     57  C   UNL     1      -9.683   5.369   5.720  1.00  0.00     0.037 A 
ATOM     58  C   UNL     1      -8.765   2.271  11.482  1.00  0.00     0.049 A 
ATOM     59  C   UNL     1     -10.360   5.445   7.064  1.00  0.00     0.074 A 
ATOM     60  C   UNL     1      -9.426   2.512  12.671  1.00  0.00     0.029 A 
ATOM     61  N   UNL     1      -9.307   3.127  10.533  1.00  0.00    -0.354 N 
ATOM     62  N   UNL     1     -10.073   4.790   8.167  1.00  0.00    -0.248 NA
ATOM     63  C   UNL     1     -11.494   6.367   7.191  1.00  0.00     0.031 C 
ATOM     64  C   UNL     1     -10.411   3.470  12.426  1.00  0.00     0.029 A 
ATOM     65  C   UNL     1     -10.316   3.879  11.103  1.00  0.00     0.049 A 
ATOM     66  H   UNL     1      -9.016   3.188   9.595  1.00  0.00     0.167 HD
ATOM     67  C   UNL     1     -10.970   5.246   9.125  1.00  0.00     0.074 A 
ATOM     68  C   UNL     1     -11.800   6.240   8.475  1.00  0.00     0.031 C 
ATOM     69  C   UNL     1     -11.102   4.879  10.424  1.00  0.00     0.037 A 
BRANCH  56  70
ATOM     70  C   UNL     1      -7.252   0.449  12.349  1.00  0.00     0.058 A 
ATOM     71  C   UNL     1      -6.017   0.657  12.982  1.00  0.00     0.135 A 
ATOM     72  C   UNL     1      -8.106  -0.532  12.876  1.00  0.00     0.135 A 
ATOM     73  F   UNL     1      -5.150   1.559  12.497  1.00  0.00    -0.206 F 
ATOM     74  C   UNL     1      -5.656  -0.061  14.116  1.00  0.00     0.059 A 
ATOM     75  C   UNL     1      -7.776  -1.244  14.025  1.00  0.00     0.059 A 
ATOM     76  F   UNL     1      -9.289  -0.783  12.293  1.00  0.00    -0.206 F 
ATOM     77  C   UNL     1      -6.552  -0.994  14.643  1.00  0.00     0.060 A 
BRANCH  77  78
ATOM     78  S   UNL     1      -6.105  -1.841  16.172  1.00  0.00     0.124 S 
ATOM     79  O   UNL     1      -4.962  -2.641  15.742  1.00  0.00    -0.237 OA
ATOM     80  O   UNL     1      -5.800  -0.726  17.062  1.00  0.00    -0.237 OA
ATOM     81  O   UNL     1      -7.306  -2.599  16.507  1.00  0.00    -0.744 OA
ENDBRANCH  77  78
ENDBRANCH  56  70
BRANCH  57  82
ATOM     82  C   UNL     1     -10.148   6.182   4.565  1.00  0.00     0.058 A 
ATOM     83  C   UNL     1     -10.051   7.580   4.578  1.00  0.00     0.135 A 
ATOM     84  C   UNL     1     -10.706   5.579   3.425  1.00  0.00     0.135 A 
ATOM     85  F   UNL     1      -9.522   8.206   5.640  1.00  0.00    -0.206 F 
ATOM     86  C   UNL     1     -10.524   8.354   3.523  1.00  0.00     0.059 A 
ATOM     87  C   UNL     1     -11.155   6.329   2.343  1.00  0.00     0.059 A 
ATOM     88  F   UNL     1     -10.804   4.242   3.349  1.00  0.00    -0.206 F 
ATOM     89  C   UNL     1     -11.078   7.719   2.411  1.00  0.00     0.060 A 
BRANCH  89  90
ATOM     90  S   UNL     1     -11.700   8.737   1.057  1.00  0.00     0.124 S 
ATOM     91  O   UNL     1     -12.849   9.384   1.681  1.00  0.00    -0.237 OA
ATOM     92  O   UNL     1     -10.557   9.600   0.775  1.00  0.00    -0.237 OA
ATOM     93  O   UNL     1     -12.014   7.762   0.017  1.00  0.00    -0.744 OA
ENDBRANCH  89  90
ENDBRANCH  57  82
BRANCH  69  94
ATOM     94  C   UNL     1     -12.149   5.576  11.242  1.00  0.00     0.058 A 
ATOM     95  C   UNL     1     -13.514   5.307  11.070  1.00  0.00     0.135 A 
ATOM     96  C   UNL     1     -11.769   6.431  12.291  1.00  0.00     0.135 A 
ATOM     97  F   UNL     1     -13.925   4.500  10.079  1.00  0.00    -0.206 F 
ATOM     98  C   UNL     1     -14.470   5.868  11.907  1.00  0.00     0.059 A 
ATOM     99  C   UNL     1     -12.706   6.973  13.162  1.00  0.00     0.059 A 
ATOM    100  F   UNL     1     -10.473   6.706  12.505  1.00  0.00    -0.206 F 
ATOM    101  C   UNL     1     -14.055   6.688  12.958  1.00  0.00     0.060 A 
BRANCH 101 102
ATOM    102  S   UNL     1     -15.307   7.349  14.075  1.00  0.00     0.124 S 
ATOM    103  O   UNL     1     -16.022   8.274  13.202  1.00  0.00    -0.237 OA
ATOM    104  O   UNL     1     -16.039   6.148  14.463  1.00  0.00    -0.237 OA
ATOM    105  O   UNL     1     -14.523   7.971  15.139  1.00  0.00    -0.744 OA
ENDBRANCH 101 102
ENDBRANCH  69  94
ENDBRANCH  43  44
ENDBRANCH  36  38
ENDBRANCH  35  36
ENDBRANCH  34  35
ENDBRANCH   1  34
TORSDOF 19
