REMARK SMILES CCc1c(C(=O)OCCOC(=O)c2ccc(-c3c4nc(c(-c5c(F)cc(S(=O)(=O)[O-])cc5F)c5ccc([nH]5)c(-c5c(F)cc(S(=O)(=O)[O-])cc5F)c5nc(c(-c6c(F)cc(S(=O)(=O)[O-])cc6F)c6ccc3[nH]6)C=C5)C=C4)cc2)nnn1-c1ccc(OC)cc1
REMARK SMILES IDX 9 1 8 2 7 3 5 4 6 5 4 6 3 7 81 8 79 9 80 10 2 11 1 12 82 13
REMARK SMILES IDX 83 14 89 15 84 16 88 17 85 18 86 19 87 20 10 21 11 22 12 23
REMARK SMILES IDX 13 24 14 25 78 26 15 27 77 28 16 29 17 30 18 31 71 32 19 33
REMARK SMILES IDX 76 34 70 35 72 36 20 37 75 38 69 39 68 40 21 42 55 43 34 44
REMARK SMILES IDX 54 45 35 46 38 47 53 48 73 49 36 50 37 51 52 53 74 54 39 55
REMARK SMILES IDX 22 56 23 57 32 58 24 59 25 60 31 61 33 62 26 63 27 64 28 65
REMARK SMILES IDX 29 66 30 67 56 68 57 69 66 70 58 71 59 72 65 73 67 74 60 75
REMARK SMILES IDX 61 76 62 77 63 78 64 79 40 80 41 81 50 82 42 83 43 84 49 85
REMARK SMILES IDX 51 86 44 87 45 88 46 89 47 90 48 91
REMARK H PARENT 72 41 38 52
REMARK Flexibility Score: inf
ROOT
ATOM      1  C   UNL     1      -2.456   3.337  -0.965  1.00  0.00     0.275 C 
ENDROOT
BRANCH   1   2
ATOM      2  C   UNL     1      -1.111   2.881  -1.508  1.00  0.00     0.275 C 
BRANCH   2   3
ATOM      3  O   UNL     1      -0.289   2.354  -0.455  1.00  0.00    -0.457 OA
BRANCH   3   4
ATOM      4  C   UNL     1       0.516   3.242   0.205  1.00  0.00     0.360 C 
ATOM      5  O   UNL     1       0.718   4.392  -0.178  1.00  0.00    -0.244 OA
BRANCH   4   6
ATOM      6  C   UNL     1       1.077   2.695   1.434  1.00  0.00     0.194 A 
ATOM      7  C   UNL     1       1.201   1.370   1.839  1.00  0.00     0.079 A 
ATOM      8  N   UNL     1       1.815   1.464   3.079  1.00  0.00    -0.217 N 
ATOM      9  N   UNL     1       1.510   3.512   2.451  1.00  0.00    -0.122 NA
ATOM     10  N   UNL     1       1.854   2.754   3.480  1.00  0.00    -0.061 NA
BRANCH   7  11
ATOM     11  C   UNL     1       0.691   0.100   1.240  1.00  0.00     0.055 C 
ATOM     12  C   UNL     1       1.353  -0.253  -0.083  1.00  0.00     0.011 C 
ENDBRANCH   7  11
BRANCH   8  13
ATOM     13  C   UNL     1       2.493   0.475   3.826  1.00  0.00     0.067 A 
ATOM     14  C   UNL     1       2.471   0.513   5.223  1.00  0.00     0.032 A 
ATOM     15  C   UNL     1       3.268  -0.484   3.166  1.00  0.00     0.032 A 
ATOM     16  C   UNL     1       3.190  -0.442   5.949  1.00  0.00     0.048 A 
ATOM     17  C   UNL     1       4.016  -1.408   3.900  1.00  0.00     0.048 A 
ATOM     18  C   UNL     1       3.974  -1.398   5.294  1.00  0.00     0.119 A 
BRANCH  18  19
ATOM     19  O   UNL     1       4.652  -2.255   6.117  1.00  0.00    -0.497 OA
ATOM     20  C   UNL     1       5.520  -3.190   5.488  1.00  0.00     0.278 C 
ENDBRANCH  18  19
ENDBRANCH   8  13
ENDBRANCH   4   6
ENDBRANCH   3   4
ENDBRANCH   2   3
ENDBRANCH   1   2
BRANCH   1  21
ATOM     21  O   UNL     1      -2.305   4.503  -0.160  1.00  0.00    -0.458 OA
BRANCH  21  22
ATOM     22  C   UNL     1      -2.185   4.265   1.167  1.00  0.00     0.338 C 
ATOM     23  O   UNL     1      -1.884   3.206   1.694  1.00  0.00    -0.246 OA
BRANCH  22  24
ATOM     24  C   UNL     1      -2.739   5.405   1.902  1.00  0.00     0.060 A 
ATOM     25  C   UNL     1      -2.769   5.301   3.295  1.00  0.00     0.016 A 
ATOM     26  C   UNL     1      -3.499   6.358   1.208  1.00  0.00     0.016 A 
ATOM     27  C   UNL     1      -3.716   6.028   3.982  1.00  0.00     0.010 A 
ATOM     28  C   UNL     1      -4.462   7.059   1.890  1.00  0.00     0.010 A 
ATOM     29  C   UNL     1      -4.603   6.830   3.257  1.00  0.00    -0.014 A 
BRANCH  29  30
ATOM     30  C   UNL     1      -5.639   7.526   3.986  1.00  0.00     0.031 A 
ATOM     31  C   UNL     1      -5.135   8.710   4.719  1.00  0.00     0.074 A 
ATOM     32  C   UNL     1      -6.939   7.204   3.864  1.00  0.00     0.049 A 
ATOM     33  N   UNL     1      -5.114   8.913   5.993  1.00  0.00    -0.248 NA
ATOM     34  C   UNL     1      -4.409   9.725   3.935  1.00  0.00     0.031 C 
ATOM     35  C   UNL     1      -7.558   6.280   2.910  1.00  0.00     0.029 A 
ATOM     36  N   UNL     1      -8.008   7.744   4.502  1.00  0.00    -0.354 N 
ATOM     37  C   UNL     1      -4.566  10.182   6.155  1.00  0.00     0.074 A 
ATOM     38  C   UNL     1      -3.969  10.534   4.896  1.00  0.00     0.031 C 
ATOM     39  C   UNL     1      -8.892   6.511   2.877  1.00  0.00     0.029 A 
ATOM     40  C   UNL     1      -9.226   7.511   3.879  1.00  0.00     0.049 A 
ATOM     41  H   UNL     1      -7.926   8.258   5.337  1.00  0.00     0.167 HD
ATOM     42  C   UNL     1      -4.869  10.954   7.233  1.00  0.00     0.037 A 
ATOM     43  C   UNL     1     -10.380   8.187   4.118  1.00  0.00     0.037 A 
ATOM     44  C   UNL     1      -5.387  10.158   8.316  1.00  0.00     0.049 A 
ATOM     45  C   UNL     1     -10.217   8.884   5.427  1.00  0.00     0.074 A 
ATOM     46  C   UNL     1      -4.904   9.076   9.030  1.00  0.00     0.029 A 
ATOM     47  N   UNL     1      -6.741  10.184   8.555  1.00  0.00    -0.354 N 
ATOM     48  N   UNL     1     -10.143   8.276   6.579  1.00  0.00    -0.248 NA
ATOM     49  C   UNL     1      -9.680  10.239   5.407  1.00  0.00     0.031 C 
ATOM     50  C   UNL     1      -6.036   8.236   9.242  1.00  0.00     0.029 A 
ATOM     51  C   UNL     1      -7.149   8.881   8.701  1.00  0.00     0.049 A 
ATOM     52  H   UNL     1      -7.310  10.985   8.610  1.00  0.00     0.167 HD
ATOM     53  C   UNL     1      -9.192   8.987   7.300  1.00  0.00     0.074 A 
ATOM     54  C   UNL     1      -9.005  10.232   6.559  1.00  0.00     0.031 C 
ATOM     55  C   UNL     1      -8.437   8.388   8.269  1.00  0.00     0.037 A 
BRANCH  42  56
ATOM     56  C   UNL     1      -5.034  12.455   7.158  1.00  0.00     0.058 A 
ATOM     57  C   UNL     1      -5.216  13.186   8.348  1.00  0.00     0.135 A 
ATOM     58  C   UNL     1      -5.293  13.167   5.963  1.00  0.00     0.135 A 
ATOM     59  F   UNL     1      -5.007  12.611   9.543  1.00  0.00    -0.206 F 
ATOM     60  C   UNL     1      -5.695  14.497   8.353  1.00  0.00     0.059 A 
ATOM     61  C   UNL     1      -5.711  14.491   5.944  1.00  0.00     0.059 A 
ATOM     62  F   UNL     1      -5.255  12.593   4.755  1.00  0.00    -0.206 F 
ATOM     63  C   UNL     1      -5.956  15.133   7.143  1.00  0.00     0.060 A 
BRANCH  63  64
ATOM     64  S   UNL     1      -6.689  16.776   7.142  1.00  0.00     0.124 S 
ATOM     65  O   UNL     1      -8.038  16.490   7.615  1.00  0.00    -0.237 OA
ATOM     66  O   UNL     1      -5.822  17.495   8.070  1.00  0.00    -0.237 OA
ATOM     67  O   UNL     1      -6.582  17.190   5.746  1.00  0.00    -0.744 OA
ENDBRANCH  63  64
ENDBRANCH  42  56
BRANCH  43  68
ATOM     68  C   UNL     1     -11.445   8.572   3.149  1.00  0.00     0.058 A 
ATOM     69  C   UNL     1     -12.651   9.139   3.601  1.00  0.00     0.135 A 
ATOM     70  C   UNL     1     -11.199   8.669   1.764  1.00  0.00     0.135 A 
ATOM     71  F   UNL     1     -12.968   9.103   4.905  1.00  0.00    -0.206 F 
ATOM     72  C   UNL     1     -13.522   9.825   2.747  1.00  0.00     0.059 A 
ATOM     73  C   UNL     1     -12.061   9.332   0.892  1.00  0.00     0.059 A 
ATOM     74  F   UNL     1     -10.063   8.209   1.222  1.00  0.00    -0.206 F 
ATOM     75  C   UNL     1     -13.203   9.939   1.396  1.00  0.00     0.060 A 
BRANCH  75  76
ATOM     76  S   UNL     1     -14.205  11.001   0.330  1.00  0.00     0.124 S 
ATOM     77  O   UNL     1     -15.441  10.234   0.214  1.00  0.00    -0.237 OA
ATOM     78  O   UNL     1     -14.287  12.231   1.109  1.00  0.00    -0.237 OA
ATOM     79  O   UNL     1     -13.413  11.096  -0.894  1.00  0.00    -0.744 OA
ENDBRANCH  75  76
ENDBRANCH  43  68
BRANCH  55  80
ATOM     80  C   UNL     1      -8.845   7.020   8.753  1.00  0.00     0.058 A 
ATOM     81  C   UNL     1      -8.928   5.876   7.939  1.00  0.00     0.135 A 
ATOM     82  C   UNL     1      -9.034   6.835  10.132  1.00  0.00     0.135 A 
ATOM     83  F   UNL     1      -8.644   5.937   6.630  1.00  0.00    -0.206 F 
ATOM     84  C   UNL     1      -9.247   4.621   8.462  1.00  0.00     0.059 A 
ATOM     85  C   UNL     1      -9.316   5.587  10.680  1.00  0.00     0.059 A 
ATOM     86  F   UNL     1      -8.902   7.873  10.975  1.00  0.00    -0.206 F 
ATOM     87  C   UNL     1      -9.443   4.487   9.836  1.00  0.00     0.060 A 
BRANCH  87  88
ATOM     88  S   UNL     1      -9.809   2.856  10.519  1.00  0.00     0.124 S 
ATOM     89  O   UNL     1     -11.178   2.635  10.066  1.00  0.00    -0.237 OA
ATOM     90  O   UNL     1      -8.792   2.014   9.896  1.00  0.00    -0.237 OA
ATOM     91  O   UNL     1      -9.651   3.045  11.959  1.00  0.00    -0.744 OA
ENDBRANCH  87  88
ENDBRANCH  55  80
ENDBRANCH  29  30
ENDBRANCH  22  24
ENDBRANCH  21  22
ENDBRANCH   1  21
TORSDOF 17
