REMARK SMILES O=C(OCCOC(=O)c1cc(Br)ccc1OCc1ccc(O)cc1)c1ccc(-c2c3nc(c(-c4c(F)cc(S(=O)(=O)[O-])cc4F)c4ccc([nH]4)c(-c4c(F)cc(S(=O)(=O)[O-])cc4F)c4nc(c(-c5c(F)cc(S(=O)(=O)[O-])cc5F)c5ccc2[nH]5)C=C4)C=C3)cc1
REMARK SMILES IDX 5 1 4 2 3 3 2 4 1 5 25 6 26 7 90 8 27 9 89 10 28 11 29 12
REMARK SMILES IDX 30 13 83 14 31 15 88 16 82 17 84 18 32 19 87 20 81 21 80 22
REMARK SMILES IDX 33 24 67 25 46 26 66 27 47 28 50 29 65 30 85 31 48 32 49 33
REMARK SMILES IDX 64 35 86 36 51 37 34 38 35 39 44 40 36 41 37 42 43 43 45 44
REMARK SMILES IDX 38 45 39 46 40 47 41 48 42 49 68 50 69 51 78 52 70 53 71 54
REMARK SMILES IDX 77 55 79 56 72 57 73 58 74 59 75 60 76 61 52 62 53 63 62 64
REMARK SMILES IDX 54 65 55 66 61 67 63 68 56 69 57 70 58 71 59 72 60 73 6 74
REMARK SMILES IDX 7 75 8 76 9 77 10 78 15 79 11 80 14 81 12 82 13 83 16 84
REMARK SMILES IDX 17 85 18 86 19 87 24 88 20 89 23 90 21 91 22 92
REMARK H PARENT 84 23 50 34 22 93
REMARK Flexibility Score: inf
ROOT
ATOM      1  C   UNL     1       4.022  -1.779  -0.391  1.00  0.00     0.275 C 
ENDROOT
BRANCH   1   2
ATOM      2  C   UNL     1       4.732  -1.183   0.821  1.00  0.00     0.275 C 
BRANCH   2   3
ATOM      3  O   UNL     1       3.990  -0.175   1.526  1.00  0.00    -0.458 OA
BRANCH   3   4
ATOM      4  C   UNL     1       3.965   1.156   1.258  1.00  0.00     0.338 C 
ATOM      5  O   UNL     1       3.485   1.930   2.083  1.00  0.00    -0.246 OA
BRANCH   4   6
ATOM      6  C   UNL     1       4.356   1.696  -0.074  1.00  0.00     0.060 A 
ATOM      7  C   UNL     1       5.540   1.392  -0.753  1.00  0.00     0.016 A 
ATOM      8  C   UNL     1       3.469   2.615  -0.650  1.00  0.00     0.016 A 
ATOM      9  C   UNL     1       5.793   1.929  -2.022  1.00  0.00     0.010 A 
ATOM     10  C   UNL     1       3.705   3.142  -1.919  1.00  0.00     0.010 A 
ATOM     11  C   UNL     1       4.885   2.820  -2.601  1.00  0.00    -0.014 A 
BRANCH  11  12
ATOM     12  C   UNL     1       5.291   3.662  -3.749  1.00  0.00     0.031 A 
ATOM     13  C   UNL     1       5.753   5.057  -3.437  1.00  0.00     0.074 A 
ATOM     14  C   UNL     1       5.231   3.229  -5.020  1.00  0.00     0.049 A 
ATOM     15  N   UNL     1       6.119   6.012  -4.248  1.00  0.00    -0.248 NA
ATOM     16  C   UNL     1       5.801   5.424  -2.010  1.00  0.00     0.031 C 
ATOM     17  C   UNL     1       4.816   1.897  -5.448  1.00  0.00     0.029 A 
ATOM     18  N   UNL     1       5.490   3.893  -6.194  1.00  0.00    -0.354 N 
ATOM     19  C   UNL     1       6.464   7.079  -3.428  1.00  0.00     0.074 A 
ATOM     20  C   UNL     1       6.177   6.689  -2.067  1.00  0.00     0.031 C 
ATOM     21  C   UNL     1       4.781   1.861  -6.792  1.00  0.00     0.029 A 
ATOM     22  C   UNL     1       5.170   3.168  -7.316  1.00  0.00     0.049 A 
ATOM     23  H   UNL     1       5.868   4.801  -6.228  1.00  0.00     0.167 HD
ATOM     24  C   UNL     1       7.018   8.263  -3.770  1.00  0.00     0.037 A 
ATOM     25  C   UNL     1       5.172   3.532  -8.614  1.00  0.00     0.037 A 
ATOM     26  C   UNL     1       7.289   8.651  -5.123  1.00  0.00     0.049 A 
ATOM     27  C   UNL     1       5.688   4.894  -8.992  1.00  0.00     0.074 A 
ATOM     28  C   UNL     1       7.885   9.806  -5.588  1.00  0.00     0.029 A 
ATOM     29  N   UNL     1       6.958   7.887  -6.233  1.00  0.00    -0.354 N 
ATOM     30  N   UNL     1       6.098   5.862  -8.208  1.00  0.00    -0.248 NA
ATOM     31  C   UNL     1       5.780   5.201 -10.427  1.00  0.00     0.031 C 
ATOM     32  C   UNL     1       7.886   9.756  -6.987  1.00  0.00     0.029 A 
ATOM     33  C   UNL     1       7.321   8.553  -7.388  1.00  0.00     0.049 A 
ATOM     34  H   UNL     1       6.528   7.002  -6.203  1.00  0.00     0.167 HD
ATOM     35  C   UNL     1       6.551   6.870  -9.051  1.00  0.00     0.074 A 
ATOM     36  C   UNL     1       6.333   6.409 -10.407  1.00  0.00     0.031 C 
ATOM     37  C   UNL     1       7.121   8.057  -8.728  1.00  0.00     0.037 A 
BRANCH  24  38
ATOM     38  C   UNL     1       7.357   9.187  -2.638  1.00  0.00     0.058 A 
ATOM     39  C   UNL     1       8.406   8.890  -1.750  1.00  0.00     0.135 A 
ATOM     40  C   UNL     1       6.569  10.315  -2.373  1.00  0.00     0.135 A 
ATOM     41  F   UNL     1       9.171   7.804  -1.947  1.00  0.00    -0.206 F 
ATOM     42  C   UNL     1       8.619   9.642  -0.602  1.00  0.00     0.059 A 
ATOM     43  C   UNL     1       6.782  11.098  -1.243  1.00  0.00     0.059 A 
ATOM     44  F   UNL     1       5.552  10.637  -3.188  1.00  0.00    -0.206 F 
ATOM     45  C   UNL     1       7.788  10.733  -0.347  1.00  0.00     0.060 A 
BRANCH  45  46
ATOM     46  S   UNL     1       8.014  11.652   1.190  1.00  0.00     0.124 S 
ATOM     47  O   UNL     1       7.353  10.774   2.150  1.00  0.00    -0.237 OA
ATOM     48  O   UNL     1       9.467  11.731   1.301  1.00  0.00    -0.237 OA
ATOM     49  O   UNL     1       7.339  12.919   0.927  1.00  0.00    -0.744 OA
ENDBRANCH  45  46
ENDBRANCH  24  38
BRANCH  25  50
ATOM     50  C   UNL     1       4.661   2.590  -9.642  1.00  0.00     0.058 A 
ATOM     51  C   UNL     1       5.526   1.826 -10.436  1.00  0.00     0.135 A 
ATOM     52  C   UNL     1       3.280   2.414  -9.820  1.00  0.00     0.135 A 
ATOM     53  F   UNL     1       6.854   1.971 -10.313  1.00  0.00    -0.206 F 
ATOM     54  C   UNL     1       5.040   0.911 -11.367  1.00  0.00     0.059 A 
ATOM     55  C   UNL     1       2.770   1.495 -10.734  1.00  0.00     0.059 A 
ATOM     56  F   UNL     1       2.413   3.130  -9.087  1.00  0.00    -0.206 F 
ATOM     57  C   UNL     1       3.660   0.747 -11.503  1.00  0.00     0.060 A 
BRANCH  57  58
ATOM     58  S   UNL     1       3.043  -0.498 -12.659  1.00  0.00     0.124 S 
ATOM     59  O   UNL     1       3.297   0.141 -13.945  1.00  0.00    -0.237 OA
ATOM     60  O   UNL     1       3.881  -1.651 -12.344  1.00  0.00    -0.237 OA
ATOM     61  O   UNL     1       1.637  -0.635 -12.289  1.00  0.00    -0.744 OA
ENDBRANCH  57  58
ENDBRANCH  25  50
BRANCH  37  62
ATOM     62  C   UNL     1       7.626   8.922  -9.844  1.00  0.00     0.058 A 
ATOM     63  C   UNL     1       6.767   9.743 -10.587  1.00  0.00     0.135 A 
ATOM     64  C   UNL     1       9.008   9.029 -10.071  1.00  0.00     0.135 A 
ATOM     65  F   UNL     1       5.439   9.670 -10.409  1.00  0.00    -0.206 F 
ATOM     66  C   UNL     1       7.265  10.658 -11.509  1.00  0.00     0.059 A 
ATOM     67  C   UNL     1       9.527   9.948 -10.974  1.00  0.00     0.059 A 
ATOM     68  F   UNL     1       9.867   8.267  -9.376  1.00  0.00    -0.206 F 
ATOM     69  C   UNL     1       8.647  10.762 -11.686  1.00  0.00     0.060 A 
BRANCH  69  70
ATOM     70  S   UNL     1       9.288  12.028 -12.802  1.00  0.00     0.124 S 
ATOM     71  O   UNL     1       9.040  11.423 -14.106  1.00  0.00    -0.237 OA
ATOM     72  O   UNL     1       8.462  13.186 -12.472  1.00  0.00    -0.237 OA
ATOM     73  O   UNL     1      10.692  12.140 -12.417  1.00  0.00    -0.744 OA
ENDBRANCH  69  70
ENDBRANCH  37  62
ENDBRANCH  11  12
ENDBRANCH   4   6
ENDBRANCH   3   4
ENDBRANCH   2   3
ENDBRANCH   1   2
BRANCH   1  74
ATOM     74  O   UNL     1       3.297  -0.800  -1.136  1.00  0.00    -0.458 OA
BRANCH  74  75
ATOM     75  C   UNL     1       2.812  -1.262  -2.318  1.00  0.00     0.342 C 
ATOM     76  O   UNL     1       3.039  -2.358  -2.787  1.00  0.00    -0.246 OA
BRANCH  75  77
ATOM     77  C   UNL     1       2.011  -0.232  -3.032  1.00  0.00     0.103 A 
ATOM     78  C   UNL     1       1.997  -0.334  -4.432  1.00  0.00     0.035 A 
ATOM     79  C   UNL     1       1.256   0.774  -2.407  1.00  0.00     0.134 A 
ATOM     80  C   UNL     1       1.316   0.610  -5.196  1.00  0.00     0.019 A 
ATOM     81  C   UNL     1       0.623   1.752  -3.188  1.00  0.00     0.048 A 
ATOM     82  Br  UNL     1       1.280   0.431  -7.075  1.00  0.00    -0.051 Br
ATOM     83  C   UNL     1       0.660   1.673  -4.583  1.00  0.00     0.019 A 
BRANCH  79  84
ATOM     84  O   UNL     1       1.220   0.925  -1.051  1.00  0.00    -0.488 OA
BRANCH  84  85
ATOM     85  C   UNL     1       0.227   0.208  -0.298  1.00  0.00     0.265 C 
BRANCH  85  86
ATOM     86  C   UNL     1      -0.016  -1.236  -0.675  1.00  0.00    -0.010 A 
ATOM     87  C   UNL     1      -0.728  -1.549  -1.843  1.00  0.00     0.011 A 
ATOM     88  C   UNL     1       0.536  -2.278   0.084  1.00  0.00     0.011 A 
ATOM     89  C   UNL     1      -0.769  -2.858  -2.316  1.00  0.00     0.046 A 
ATOM     90  C   UNL     1       0.466  -3.595  -0.371  1.00  0.00     0.046 A 
ATOM     91  C   UNL     1      -0.148  -3.865  -1.587  1.00  0.00     0.115 A 
BRANCH  91  92
ATOM     92  O   UNL     1      -0.098  -5.141  -2.064  1.00  0.00    -0.508 OA
ATOM     93  H   UNL     1      -0.503  -5.353  -2.882  1.00  0.00     0.293 HD
ENDBRANCH  91  92
ENDBRANCH  85  86
ENDBRANCH  84  85
ENDBRANCH  79  84
ENDBRANCH  75  77
ENDBRANCH  74  75
ENDBRANCH   1  74
TORSDOF 18
