REMARK SMILES CC(C)(C)OC(=O)[C@]1(C(=O)OCCOC(=O)c2ccc(-c3c4nc(c(-c5c(F)cc(S(=O)(=O)[O-])cc5F)c5ccc([nH]5)c(-c5c(F)cc(S(=O)(=O)[O-])cc5F)c5nc(c(-c6c(F)cc(S(=O)(=O)[O-])cc6F)c6ccc3[nH]6)C=C5)C=C4)cc2)CC=CC[C@@H]1[NH3+]
REMARK SMILES IDX 12 1 11 2 9 3 10 4 8 5 83 6 87 7 84 8 86 9 85 10 6 11 7 12
REMARK SMILES IDX 5 13 2 14 1 15 3 16 4 17 88 18 13 22 14 23 15 24 16 25 17 26
REMARK SMILES IDX 18 27 82 28 19 29 81 30 20 31 21 32 22 33 75 34 23 35 80 36
REMARK SMILES IDX 74 37 76 38 24 39 79 40 73 41 72 42 25 44 59 45 38 46 58 47
REMARK SMILES IDX 39 48 42 49 57 50 77 51 40 52 41 53 56 55 78 56 43 57 26 58
REMARK SMILES IDX 27 59 36 60 28 61 29 62 35 63 37 64 30 65 31 66 32 67 33 68
REMARK SMILES IDX 34 69 60 70 61 71 70 72 62 73 63 74 69 75 71 76 64 77 65 78
REMARK SMILES IDX 66 79 67 80 68 81 44 82 45 83 54 84 46 85 47 86 53 87 55 88
REMARK SMILES IDX 48 89 49 90 50 91 51 92 52 93
REMARK H PARENT 88 19 88 20 88 21 76 43 42 54
REMARK Flexibility Score: inf
ROOT
ATOM      1  C   UNL     1       0.931  -0.949   2.806  1.00  0.00     0.274 C 
ENDROOT
BRANCH   1   2
ATOM      2  O   UNL     1       1.666  -2.175   2.618  1.00  0.00    -0.461 OA
BRANCH   2   3
ATOM      3  C   UNL     1       0.974  -3.318   2.896  1.00  0.00     0.330 C 
ATOM      4  O   UNL     1      -0.193  -3.317   3.279  1.00  0.00    -0.251 OA
BRANCH   3   5
ATOM      5  C   UNL     1       1.784  -4.593   2.645  1.00  0.00     0.219 C 
ATOM      6  C   UNL     1       1.097  -5.717   3.479  1.00  0.00     0.064 C 
ATOM      7  C   UNL     1       1.737  -4.920   1.123  1.00  0.00     0.214 C 
ATOM      8  C   UNL     1       1.268  -7.115   2.971  1.00  0.00    -0.029 C 
ATOM      9  C   UNL     1       2.108  -6.374   0.742  1.00  0.00     0.093 C 
ATOM     10  C   UNL     1       1.715  -7.407   1.746  1.00  0.00    -0.025 C 
BRANCH   5  11
ATOM     11  C   UNL     1       3.180  -4.425   3.219  1.00  0.00     0.330 C 
ATOM     12  O   UNL     1       3.414  -3.853   4.278  1.00  0.00    -0.251 OA
BRANCH  11  13
ATOM     13  O   UNL     1       4.123  -5.043   2.460  1.00  0.00    -0.459 OA
BRANCH  13  14
ATOM     14  C   UNL     1       5.526  -4.998   2.814  1.00  0.00     0.104 C 
ATOM     15  C   UNL     1       6.227  -5.785   1.696  1.00  0.00     0.056 C 
ATOM     16  C   UNL     1       5.785  -5.701   4.149  1.00  0.00     0.056 C 
ATOM     17  C   UNL     1       6.047  -3.558   2.802  1.00  0.00     0.056 C 
ENDBRANCH  13  14
ENDBRANCH  11  13
ENDBRANCH   5  11
BRANCH   7  18
ATOM     18  N   UNL     1       2.484  -3.981   0.260  1.00  0.00    -0.353 N 
ATOM     19  H   UNL     1       3.484  -4.084   0.432  1.00  0.00     0.344 HD
ATOM     20  H   UNL     1       2.199  -3.025   0.471  1.00  0.00     0.344 HD
ATOM     21  H   UNL     1       2.284  -4.187  -0.719  1.00  0.00     0.344 HD
ENDBRANCH   7  18
ENDBRANCH   3   5
ENDBRANCH   2   3
ENDBRANCH   1   2
BRANCH   1  22
ATOM     22  C   UNL     1       0.301  -0.482   1.496  1.00  0.00     0.275 C 
BRANCH  22  23
ATOM     23  O   UNL     1      -0.590  -1.491   0.992  1.00  0.00    -0.458 OA
BRANCH  23  24
ATOM     24  C   UNL     1      -0.629  -1.603  -0.357  1.00  0.00     0.338 C 
ATOM     25  O   UNL     1      -0.062  -0.881  -1.160  1.00  0.00    -0.246 OA
BRANCH  24  26
ATOM     26  C   UNL     1      -1.483  -2.744  -0.764  1.00  0.00     0.060 A 
ATOM     27  C   UNL     1      -1.599  -3.896   0.015  1.00  0.00     0.016 A 
ATOM     28  C   UNL     1      -2.112  -2.695  -2.009  1.00  0.00     0.016 A 
ATOM     29  C   UNL     1      -2.218  -5.037  -0.501  1.00  0.00     0.010 A 
ATOM     30  C   UNL     1      -2.841  -3.795  -2.469  1.00  0.00     0.010 A 
ATOM     31  C   UNL     1      -2.868  -4.997  -1.743  1.00  0.00    -0.014 A 
BRANCH  31  32
ATOM     32  C   UNL     1      -3.570  -6.191  -2.300  1.00  0.00     0.031 A 
ATOM     33  C   UNL     1      -3.224  -6.696  -3.680  1.00  0.00     0.074 A 
ATOM     34  C   UNL     1      -4.547  -6.803  -1.599  1.00  0.00     0.049 A 
ATOM     35  N   UNL     1      -3.877  -7.532  -4.446  1.00  0.00    -0.248 NA
ATOM     36  C   UNL     1      -1.989  -6.173  -4.288  1.00  0.00     0.031 C 
ATOM     37  C   UNL     1      -4.972  -6.449  -0.243  1.00  0.00     0.029 A 
ATOM     38  N   UNL     1      -5.370  -7.850  -1.936  1.00  0.00    -0.354 N 
ATOM     39  C   UNL     1      -3.176  -7.581  -5.646  1.00  0.00     0.074 A 
ATOM     40  C   UNL     1      -2.039  -6.697  -5.506  1.00  0.00     0.031 C 
ATOM     41  C   UNL     1      -5.952  -7.278   0.146  1.00  0.00     0.029 A 
ATOM     42  C   UNL     1      -6.292  -8.160  -0.963  1.00  0.00     0.049 A 
ATOM     43  H   UNL     1      -5.307  -8.331  -2.793  1.00  0.00     0.167 HD
ATOM     44  C   UNL     1      -3.460  -8.293  -6.764  1.00  0.00     0.037 A 
ATOM     45  C   UNL     1      -7.331  -9.017  -0.973  1.00  0.00     0.037 A 
ATOM     46  C   UNL     1      -4.556  -9.221  -6.874  1.00  0.00     0.049 A 
ATOM     47  C   UNL     1      -7.625  -9.799  -2.220  1.00  0.00     0.074 A 
ATOM     48  C   UNL     1      -4.918 -10.004  -7.957  1.00  0.00     0.029 A 
ATOM     49  N   UNL     1      -5.454  -9.508  -5.857  1.00  0.00    -0.354 N 
ATOM     50  N   UNL     1      -6.994  -9.782  -3.369  1.00  0.00    -0.248 NA
ATOM     51  C   UNL     1      -8.786 -10.699  -2.181  1.00  0.00     0.031 C 
ATOM     52  C   UNL     1      -6.048 -10.750  -7.601  1.00  0.00     0.029 A 
ATOM     53  C   UNL     1      -6.370 -10.455  -6.287  1.00  0.00     0.049 A 
ATOM     54  H   UNL     1      -5.443  -9.099  -4.962  1.00  0.00     0.167 HD
ATOM     55  C   UNL     1      -7.677 -10.671  -4.189  1.00  0.00     0.074 A 
ATOM     56  C   UNL     1      -8.758 -11.224  -3.399  1.00  0.00     0.031 C 
ATOM     57  C   UNL     1      -7.435 -10.996  -5.483  1.00  0.00     0.037 A 
BRANCH  44  58
ATOM     58  C   UNL     1      -2.589  -8.081  -7.972  1.00  0.00     0.058 A 
ATOM     59  C   UNL     1      -1.295  -8.614  -8.060  1.00  0.00     0.135 A 
ATOM     60  C   UNL     1      -3.081  -7.369  -9.080  1.00  0.00     0.135 A 
ATOM     61  F   UNL     1      -0.770  -9.287  -7.024  1.00  0.00    -0.206 F 
ATOM     62  C   UNL     1      -0.509  -8.432  -9.195  1.00  0.00     0.059 A 
ATOM     63  C   UNL     1      -2.321  -7.194 -10.233  1.00  0.00     0.059 A 
ATOM     64  F   UNL     1      -4.313  -6.839  -9.049  1.00  0.00    -0.206 F 
ATOM     65  C   UNL     1      -1.030  -7.718 -10.276  1.00  0.00     0.060 A 
BRANCH  65  66
ATOM     66  S   UNL     1      -0.005  -7.496 -11.746  1.00  0.00     0.124 S 
ATOM     67  O   UNL     1       0.915  -6.453 -11.303  1.00  0.00    -0.237 OA
ATOM     68  O   UNL     1       0.581  -8.821 -11.925  1.00  0.00    -0.237 OA
ATOM     69  O   UNL     1      -0.964  -7.096 -12.771  1.00  0.00    -0.744 OA
ENDBRANCH  65  66
ENDBRANCH  44  58
BRANCH  45  70
ATOM     70  C   UNL     1      -8.194  -9.141   0.230  1.00  0.00     0.058 A 
ATOM     71  C   UNL     1      -8.148 -10.288   1.035  1.00  0.00     0.135 A 
ATOM     72  C   UNL     1      -9.054  -8.102   0.619  1.00  0.00     0.135 A 
ATOM     73  F   UNL     1      -7.349 -11.312   0.697  1.00  0.00    -0.206 F 
ATOM     74  C   UNL     1      -8.924 -10.403   2.183  1.00  0.00     0.059 A 
ATOM     75  C   UNL     1      -9.821  -8.182   1.776  1.00  0.00     0.059 A 
ATOM     76  F   UNL     1      -9.123  -6.978  -0.112  1.00  0.00    -0.206 F 
ATOM     77  C   UNL     1      -9.755  -9.341   2.549  1.00  0.00     0.060 A 
BRANCH  77  78
ATOM     78  S   UNL     1     -10.706  -9.463   4.079  1.00  0.00     0.124 S 
ATOM     79  O   UNL     1     -11.827 -10.295   3.661  1.00  0.00    -0.237 OA
ATOM     80  O   UNL     1      -9.752 -10.088   4.990  1.00  0.00    -0.237 OA
ATOM     81  O   UNL     1     -11.027  -8.071   4.381  1.00  0.00    -0.744 OA
ENDBRANCH  77  78
ENDBRANCH  45  70
BRANCH  57  82
ATOM     82  C   UNL     1      -8.338 -12.016  -6.111  1.00  0.00     0.058 A 
ATOM     83  C   UNL     1      -9.632 -11.682  -6.540  1.00  0.00     0.135 A 
ATOM     84  C   UNL     1      -7.891 -13.330  -6.317  1.00  0.00     0.135 A 
ATOM     85  F   UNL     1     -10.105 -10.440  -6.356  1.00  0.00    -0.206 F 
ATOM     86  C   UNL     1     -10.461 -12.626  -7.136  1.00  0.00     0.059 A 
ATOM     87  C   UNL     1      -8.697 -14.284  -6.928  1.00  0.00     0.059 A 
ATOM     88  F   UNL     1      -6.659 -13.694  -5.929  1.00  0.00    -0.206 F 
ATOM     89  C   UNL     1      -9.986 -13.925  -7.324  1.00  0.00     0.060 A 
BRANCH  89  90
ATOM     90  S   UNL     1     -11.059 -15.137  -8.123  1.00  0.00     0.124 S 
ATOM     91  O   UNL     1     -11.951 -15.505  -7.029  1.00  0.00    -0.237 OA
ATOM     92  O   UNL     1     -11.664 -14.362  -9.202  1.00  0.00    -0.237 OA
ATOM     93  O   UNL     1     -10.130 -16.178  -8.554  1.00  0.00    -0.744 OA
ENDBRANCH  89  90
ENDBRANCH  57  82
ENDBRANCH  31  32
ENDBRANCH  24  26
ENDBRANCH  23  24
ENDBRANCH  22  23
ENDBRANCH   1  22
TORSDOF 18
