REMARK SMILES COC[C@@H](C)Nc1cnn(-c2ccccc2C(=O)OCCOC(=O)c2ccc(-c3c4nc(c(-c5c(F)cc(S(=O)(=O)[O-])cc5F)c5ccc([nH]5)c(-c5c(F)cc(S(=O)(=O)[O-])cc5F)c5nc(c(-c6c(F)cc(S(=O)(=O)[O-])cc6F)c6ccc3[nH]6)C=C5)C=C4)cc2)c(=O)c1Cl
REMARK SMILES IDX 20 1 19 2 17 3 18 4 16 5 11 6 12 7 13 8 15 9 14 10 10 11
REMARK SMILES IDX 7 12 8 13 93 14 9 15 91 16 94 17 92 18 6 19 4 21 5 22 3 23
REMARK SMILES IDX 2 24 1 25 21 26 22 27 23 28 24 29 25 30 26 31 90 32 27 33
REMARK SMILES IDX 89 34 28 35 29 36 30 37 83 38 31 39 88 40 82 41 84 42 32 43
REMARK SMILES IDX 87 44 81 45 80 46 33 48 67 49 46 50 66 51 47 52 50 53 65 54
REMARK SMILES IDX 85 55 48 56 49 57 64 59 86 60 51 61 34 62 35 63 44 64 36 65
REMARK SMILES IDX 37 66 43 67 45 68 38 69 39 70 40 71 41 72 42 73 68 74 69 75
REMARK SMILES IDX 78 76 70 77 71 78 77 79 79 80 72 81 73 82 74 83 75 84 76 85
REMARK SMILES IDX 52 86 53 87 62 88 54 89 55 90 61 91 63 92 56 93 57 94 58 95
REMARK SMILES IDX 59 96 60 97
REMARK H PARENT 6 20 84 47 50 58
REMARK Flexibility Score: inf
ROOT
ATOM      1  C   UNL     1      -2.084  -5.230   5.344  1.00  0.00     0.275 C 
ENDROOT
BRANCH   1   2
ATOM      2  O   UNL     1      -2.368  -6.260   4.378  1.00  0.00    -0.458 OA
BRANCH   2   3
ATOM      3  C   UNL     1      -2.096  -7.542   4.738  1.00  0.00     0.340 C 
ATOM      4  O   UNL     1      -1.722  -7.912   5.840  1.00  0.00    -0.246 OA
BRANCH   3   5
ATOM      5  C   UNL     1      -2.467  -8.489   3.651  1.00  0.00     0.085 A 
ATOM      6  C   UNL     1      -2.287  -8.226   2.278  1.00  0.00     0.083 A 
ATOM      7  C   UNL     1      -2.871  -9.110   1.351  1.00  0.00     0.029 A 
ATOM      8  C   UNL     1      -3.592 -10.232   1.768  1.00  0.00     0.002 A 
ATOM      9  C   UNL     1      -3.142  -9.656   4.059  1.00  0.00     0.018 A 
ATOM     10  C   UNL     1      -3.719 -10.512   3.122  1.00  0.00     0.001 A 
BRANCH   6  11
ATOM     11  N   UNL     1      -1.499  -7.131   1.809  1.00  0.00    -0.195 N 
ATOM     12  C   UNL     1       0.078  -4.868   1.183  1.00  0.00     0.079 A 
ATOM     13  C   UNL     1       0.342  -5.877   2.245  1.00  0.00     0.161 A 
ATOM     14  C   UNL     1      -0.978  -5.189   0.416  1.00  0.00     0.132 A 
ATOM     15  N   UNL     1      -0.369  -6.905   2.551  1.00  0.00    -0.171 NA
ATOM     16  C   UNL     1      -1.834  -6.392   0.674  1.00  0.00     0.292 A 
ATOM     17  Cl  UNL     1      -1.462  -4.254  -0.968  1.00  0.00    -0.076 Cl
ATOM     18  O   UNL     1      -2.784  -6.632  -0.072  1.00  0.00    -0.266 OA
BRANCH  12  19
ATOM     19  N   UNL     1       0.959  -3.793   1.156  1.00  0.00    -0.378 N 
ATOM     20  H   UNL     1       1.829  -3.939   1.594  1.00  0.00     0.161 HD
BRANCH  19  21
ATOM     21  C   UNL     1       0.759  -2.471   0.560  1.00  0.00     0.102 C 
ATOM     22  C   UNL     1       1.455  -2.449  -0.802  1.00  0.00     0.033 C 
BRANCH  21  23
ATOM     23  C   UNL     1       1.308  -1.386   1.521  1.00  0.00     0.184 C 
BRANCH  23  24
ATOM     24  O   UNL     1       0.720  -0.094   1.367  1.00  0.00    -0.383 OA
ATOM     25  C   UNL     1       1.115   0.599   0.195  1.00  0.00     0.194 C 
ENDBRANCH  23  24
ENDBRANCH  21  23
ENDBRANCH  19  21
ENDBRANCH  12  19
ENDBRANCH   6  11
ENDBRANCH   3   5
ENDBRANCH   2   3
ENDBRANCH   1   2
BRANCH   1  26
ATOM     26  C   UNL     1      -3.306  -4.331   5.538  1.00  0.00     0.275 C 
BRANCH  26  27
ATOM     27  O   UNL     1      -4.354  -5.050   6.208  1.00  0.00    -0.458 OA
BRANCH  27  28
ATOM     28  C   UNL     1      -5.226  -5.684   5.390  1.00  0.00     0.338 C 
ATOM     29  O   UNL     1      -5.296  -5.607   4.172  1.00  0.00    -0.246 OA
BRANCH  28  30
ATOM     30  C   UNL     1      -5.988  -6.650   6.190  1.00  0.00     0.060 A 
ATOM     31  C   UNL     1      -6.887  -6.244   7.174  1.00  0.00     0.016 A 
ATOM     32  C   UNL     1      -5.792  -8.006   5.925  1.00  0.00     0.016 A 
ATOM     33  C   UNL     1      -7.563  -7.216   7.917  1.00  0.00     0.010 A 
ATOM     34  C   UNL     1      -6.475  -8.974   6.657  1.00  0.00     0.010 A 
ATOM     35  C   UNL     1      -7.357  -8.589   7.672  1.00  0.00    -0.014 A 
BRANCH  35  36
ATOM     36  C   UNL     1      -8.097  -9.610   8.459  1.00  0.00     0.031 A 
ATOM     37  C   UNL     1      -7.377 -10.525   9.413  1.00  0.00     0.074 A 
ATOM     38  C   UNL     1      -9.432  -9.709   8.306  1.00  0.00     0.049 A 
ATOM     39  N   UNL     1      -7.880 -11.384  10.263  1.00  0.00    -0.248 NA
ATOM     40  C   UNL     1      -5.906 -10.491   9.401  1.00  0.00     0.031 C 
ATOM     41  C   UNL     1     -10.225  -8.940   7.344  1.00  0.00     0.029 A 
ATOM     42  N   UNL     1     -10.360 -10.476   8.964  1.00  0.00    -0.354 N 
ATOM     43  C   UNL     1      -6.794 -11.979  10.894  1.00  0.00     0.074 A 
ATOM     44  C   UNL     1      -5.602 -11.437  10.280  1.00  0.00     0.031 C 
ATOM     45  C   UNL     1     -11.525  -9.227   7.518  1.00  0.00     0.029 A 
ATOM     46  C   UNL     1     -11.657 -10.216   8.585  1.00  0.00     0.049 A 
ATOM     47  H   UNL     1     -10.121 -11.148   9.643  1.00  0.00     0.167 HD
ATOM     48  C   UNL     1      -6.792 -12.866  11.918  1.00  0.00     0.037 A 
ATOM     49  C   UNL     1     -12.822 -10.700   9.058  1.00  0.00     0.037 A 
ATOM     50  C   UNL     1      -7.987 -13.380  12.537  1.00  0.00     0.049 A 
ATOM     51  C   UNL     1     -12.796 -11.679  10.201  1.00  0.00     0.074 A 
ATOM     52  C   UNL     1      -8.094 -14.221  13.631  1.00  0.00     0.029 A 
ATOM     53  N   UNL     1      -9.279 -13.108  12.113  1.00  0.00    -0.354 N 
ATOM     54  N   UNL     1     -11.762 -12.141  10.864  1.00  0.00    -0.248 NA
ATOM     55  C   UNL     1     -14.089 -12.201  10.662  1.00  0.00     0.031 C 
ATOM     56  C   UNL     1      -9.449 -14.495  13.840  1.00  0.00     0.029 A 
ATOM     57  C   UNL     1     -10.189 -13.790  12.903  1.00  0.00     0.049 A 
ATOM     58  H   UNL     1      -9.515 -12.518  11.362  1.00  0.00     0.167 HD
ATOM     59  C   UNL     1     -12.280 -13.005  11.822  1.00  0.00     0.074 A 
ATOM     60  C   UNL     1     -13.721 -12.979  11.672  1.00  0.00     0.031 C 
ATOM     61  C   UNL     1     -11.621 -13.758  12.737  1.00  0.00     0.037 A 
BRANCH  48  62
ATOM     62  C   UNL     1      -5.463 -13.312  12.468  1.00  0.00     0.058 A 
ATOM     63  C   UNL     1      -4.650 -12.436  13.206  1.00  0.00     0.135 A 
ATOM     64  C   UNL     1      -5.032 -14.642  12.330  1.00  0.00     0.135 A 
ATOM     65  F   UNL     1      -5.008 -11.152  13.364  1.00  0.00    -0.206 F 
ATOM     66  C   UNL     1      -3.450 -12.856  13.770  1.00  0.00     0.059 A 
ATOM     67  C   UNL     1      -3.848 -15.091  12.909  1.00  0.00     0.059 A 
ATOM     68  F   UNL     1      -5.772 -15.524  11.639  1.00  0.00    -0.206 F 
ATOM     69  C   UNL     1      -3.059 -14.188  13.621  1.00  0.00     0.060 A 
BRANCH  69  70
ATOM     70  S   UNL     1      -1.512 -14.717  14.387  1.00  0.00     0.124 S 
ATOM     71  O   UNL     1      -0.526 -14.011  13.574  1.00  0.00    -0.237 OA
ATOM     72  O   UNL     1      -1.664 -14.235  15.757  1.00  0.00    -0.237 OA
ATOM     73  O   UNL     1      -1.530 -16.167  14.229  1.00  0.00    -0.744 OA
ENDBRANCH  69  70
ENDBRANCH  48  62
BRANCH  49  74
ATOM     74  C   UNL     1     -14.108 -10.226   8.480  1.00  0.00     0.058 A 
ATOM     75  C   UNL     1     -14.966  -9.397   9.217  1.00  0.00     0.135 A 
ATOM     76  C   UNL     1     -14.489 -10.561   7.171  1.00  0.00     0.135 A 
ATOM     77  F   UNL     1     -14.650  -9.052  10.475  1.00  0.00    -0.206 F 
ATOM     78  C   UNL     1     -16.160  -8.923   8.682  1.00  0.00     0.059 A 
ATOM     79  C   UNL     1     -15.665 -10.079   6.605  1.00  0.00     0.059 A 
ATOM     80  F   UNL     1     -13.695 -11.339   6.419  1.00  0.00    -0.206 F 
ATOM     81  C   UNL     1     -16.498  -9.265   7.372  1.00  0.00     0.060 A 
BRANCH  81  82
ATOM     82  S   UNL     1     -18.025  -8.601   6.673  1.00  0.00     0.124 S 
ATOM     83  O   UNL     1     -19.036  -9.326   7.432  1.00  0.00    -0.237 OA
ATOM     84  O   UNL     1     -17.901  -7.177   6.970  1.00  0.00    -0.237 OA
ATOM     85  O   UNL     1     -17.928  -8.950   5.258  1.00  0.00    -0.744 OA
ENDBRANCH  81  82
ENDBRANCH  49  74
BRANCH  61  86
ATOM     86  C   UNL     1     -12.439 -14.639  13.639  1.00  0.00     0.058 A 
ATOM     87  C   UNL     1     -13.020 -15.823  13.161  1.00  0.00     0.135 A 
ATOM     88  C   UNL     1     -12.548 -14.359  15.011  1.00  0.00     0.135 A 
ATOM     89  F   UNL     1     -12.953 -16.130  11.856  1.00  0.00    -0.206 F 
ATOM     90  C   UNL     1     -13.679 -16.702  14.013  1.00  0.00     0.059 A 
ATOM     91  C   UNL     1     -13.179 -15.238  15.886  1.00  0.00     0.059 A 
ATOM     92  F   UNL     1     -12.002 -13.243  15.520  1.00  0.00    -0.206 F 
ATOM     93  C   UNL     1     -13.741 -16.408  15.377  1.00  0.00     0.060 A 
BRANCH  93  94
ATOM     94  S   UNL     1     -14.528 -17.603  16.477  1.00  0.00     0.124 S 
ATOM     95  O   UNL     1     -15.929 -17.489  16.084  1.00  0.00    -0.237 OA
ATOM     96  O   UNL     1     -13.865 -18.849  16.106  1.00  0.00    -0.237 OA
ATOM     97  O   UNL     1     -14.209 -17.102  17.811  1.00  0.00    -0.744 OA
ENDBRANCH  93  94
ENDBRANCH  61  86
ENDBRANCH  35  36
ENDBRANCH  28  30
ENDBRANCH  27  28
ENDBRANCH  26  27
ENDBRANCH   1  26
TORSDOF 19
