REMARK SMILES O=C(CCC(=O)OCCOC(=O)c1ccc(-c2c3nc(c(-c4c(F)cc(S(=O)(=O)[O-])cc4F)c4ccc([nH]4)c(-c4c(F)cc(S(=O)(=O)[O-])cc4F)c4nc(c(-c5c(F)cc(S(=O)(=O)[O-])cc5F)c5ccc2[nH]5)C=C4)C=C3)cc1)/[NH+]=C1\S[C@H]2CS(=O)(=O)C[C@@H]2N1c1ccc(Oc2ccccc2)cc1
REMARK SMILES IDX 8 1 7 2 5 3 6 4 4 5 3 6 2 7 1 8 79 9 80 10 81 12 89 13 82 14
REMARK SMILES IDX 88 15 83 16 87 17 84 18 85 19 86 20 90 21 91 22 102 23 92 24
REMARK SMILES IDX 101 25 93 26 94 27 95 28 96 29 100 30 97 31 99 32 98 33 9 34
REMARK SMILES IDX 10 35 11 36 12 37 13 38 14 39 78 40 15 41 77 42 16 43 17 44
REMARK SMILES IDX 18 45 71 46 19 47 76 48 70 49 72 50 20 51 75 52 69 53 68 54
REMARK SMILES IDX 21 56 55 57 34 58 54 59 35 60 38 61 53 62 73 63 36 64 37 65
REMARK SMILES IDX 52 67 74 68 39 69 22 70 23 71 32 72 24 73 25 74 31 75 33 76
REMARK SMILES IDX 26 77 27 78 28 79 29 80 30 81 56 82 57 83 66 84 58 85 59 86
REMARK SMILES IDX 65 87 67 88 60 89 61 90 62 91 63 92 64 93 40 94 41 95 50 96
REMARK SMILES IDX 42 97 43 98 49 99 51 100 44 101 45 102 46 103 47 104 48 105
REMARK H PARENT 79 11 72 55 38 66
REMARK Flexibility Score: inf
ROOT
ATOM      1  C   UNL     1       4.974   2.544   1.748  1.00  0.00     0.274 C 
ENDROOT
BRANCH   1   2
ATOM      2  O   UNL     1       3.732   1.979   1.297  1.00  0.00    -0.462 OA
BRANCH   2   3
ATOM      3  C   UNL     1       3.370   2.355   0.055  1.00  0.00     0.306 C 
ATOM      4  O   UNL     1       3.786   3.362  -0.509  1.00  0.00    -0.252 OA
BRANCH   3   5
ATOM      5  C   UNL     1       2.356   1.439  -0.567  1.00  0.00     0.135 C 
BRANCH   5   6
ATOM      6  C   UNL     1       2.465  -0.084  -0.476  1.00  0.00     0.139 C 
BRANCH   6   7
ATOM      7  C   UNL     1       2.498  -0.916   0.811  1.00  0.00     0.308 C 
ATOM      8  O   UNL     1       1.601  -1.744   0.984  1.00  0.00    -0.247 OA
ATOM      9  N   UNL     1       3.463  -0.758   1.770  1.00  0.00    -0.204 N 
ATOM     10  C   UNL     1       4.569  -1.435   1.777  1.00  0.00     0.319 C 
ATOM     11  H   UNL     1       3.310  -0.102   2.488  1.00  0.00     0.316 HD
ATOM     12  S   UNL     1       5.273  -2.374   0.437  1.00  0.00    -0.029 SA
ATOM     13  N   UNL     1       5.479  -1.440   2.837  1.00  0.00    -0.217 N 
ATOM     14  C   UNL     1       6.924  -2.436   1.218  1.00  0.00     0.120 C 
ATOM     15  C   UNL     1       6.858  -1.468   2.404  1.00  0.00     0.212 C 
ATOM     16  C   UNL     1       8.200  -1.976   0.533  1.00  0.00     0.156 C 
ATOM     17  C   UNL     1       8.055  -1.846   3.241  1.00  0.00     0.188 C 
ATOM     18  S   UNL     1       9.325  -1.784   1.949  1.00  0.00     0.155 S 
ATOM     19  O   UNL     1      10.163  -2.956   2.061  1.00  0.00    -0.229 OA
ATOM     20  O   UNL     1       9.860  -0.439   1.929  1.00  0.00    -0.229 OA
BRANCH  13  21
ATOM     21  C   UNL     1       5.130  -1.749   4.147  1.00  0.00     0.128 A 
ATOM     22  C   UNL     1       5.688  -1.075   5.240  1.00  0.00     0.056 A 
ATOM     23  C   UNL     1       4.222  -2.785   4.398  1.00  0.00     0.056 A 
ATOM     24  C   UNL     1       5.403  -1.473   6.549  1.00  0.00     0.051 A 
ATOM     25  C   UNL     1       3.934  -3.184   5.700  1.00  0.00     0.051 A 
ATOM     26  C   UNL     1       4.555  -2.555   6.781  1.00  0.00     0.127 A 
BRANCH  26  27
ATOM     27  O   UNL     1       4.378  -2.918   8.102  1.00  0.00    -0.457 OA
BRANCH  27  28
ATOM     28  C   UNL     1       3.817  -4.151   8.330  1.00  0.00     0.127 A 
ATOM     29  C   UNL     1       2.535  -4.196   8.872  1.00  0.00     0.047 A 
ATOM     30  C   UNL     1       4.496  -5.327   7.997  1.00  0.00     0.047 A 
ATOM     31  C   UNL     1       1.895  -5.426   9.017  1.00  0.00     0.004 A 
ATOM     32  C   UNL     1       3.848  -6.553   8.133  1.00  0.00     0.004 A 
ATOM     33  C   UNL     1       2.546  -6.601   8.634  1.00  0.00     0.000 A 
ENDBRANCH  27  28
ENDBRANCH  26  27
ENDBRANCH  13  21
ENDBRANCH   6   7
ENDBRANCH   5   6
ENDBRANCH   3   5
ENDBRANCH   2   3
ENDBRANCH   1   2
BRANCH   1  34
ATOM     34  C   UNL     1       6.122   1.766   1.121  1.00  0.00     0.275 C 
BRANCH  34  35
ATOM     35  O   UNL     1       6.400   2.072  -0.253  1.00  0.00    -0.458 OA
BRANCH  35  36
ATOM     36  C   UNL     1       6.007   1.124  -1.125  1.00  0.00     0.338 C 
ATOM     37  O   UNL     1       5.285   0.160  -0.902  1.00  0.00    -0.246 OA
BRANCH  36  38
ATOM     38  C   UNL     1       6.735   1.208  -2.362  1.00  0.00     0.060 A 
ATOM     39  C   UNL     1       6.402   2.177  -3.296  1.00  0.00     0.016 A 
ATOM     40  C   UNL     1       7.751   0.269  -2.572  1.00  0.00     0.016 A 
ATOM     41  C   UNL     1       7.168   2.250  -4.444  1.00  0.00     0.010 A 
ATOM     42  C   UNL     1       8.572   0.403  -3.667  1.00  0.00     0.010 A 
ATOM     43  C   UNL     1       8.286   1.407  -4.593  1.00  0.00    -0.014 A 
BRANCH  43  44
ATOM     44  C   UNL     1       9.237   1.667  -5.677  1.00  0.00     0.031 A 
ATOM     45  C   UNL     1       9.382   0.679  -6.784  1.00  0.00     0.074 A 
ATOM     46  C   UNL     1       9.952   2.803  -5.579  1.00  0.00     0.049 A 
ATOM     47  N   UNL     1      10.121   0.761  -7.852  1.00  0.00    -0.248 NA
ATOM     48  C   UNL     1       8.624  -0.581  -6.671  1.00  0.00     0.031 C 
ATOM     49  C   UNL     1       9.893   3.738  -4.444  1.00  0.00     0.029 A 
ATOM     50  N   UNL     1      10.836   3.386  -6.436  1.00  0.00    -0.354 N 
ATOM     51  C   UNL     1       9.935  -0.437  -8.530  1.00  0.00     0.074 A 
ATOM     52  C   UNL     1       9.042  -1.248  -7.738  1.00  0.00     0.031 C 
ATOM     53  C   UNL     1      10.647   4.812  -4.714  1.00  0.00     0.029 A 
ATOM     54  C   UNL     1      11.280   4.617  -6.009  1.00  0.00     0.049 A 
ATOM     55  H   UNL     1      11.130   2.968  -7.278  1.00  0.00     0.167 HD
ATOM     56  C   UNL     1      10.466  -0.795  -9.719  1.00  0.00     0.037 A 
ATOM     57  C   UNL     1      12.104   5.485  -6.619  1.00  0.00     0.037 A 
ATOM     58  C   UNL     1      11.320   0.086 -10.471  1.00  0.00     0.049 A 
ATOM     59  C   UNL     1      12.611   5.089  -7.976  1.00  0.00     0.074 A 
ATOM     60  C   UNL     1      11.879  -0.108 -11.718  1.00  0.00     0.029 A 
ATOM     61  N   UNL     1      11.732   1.341 -10.032  1.00  0.00    -0.354 N 
ATOM     62  N   UNL     1      12.366   3.986  -8.649  1.00  0.00    -0.248 NA
ATOM     63  C   UNL     1      13.493   6.035  -8.661  1.00  0.00     0.031 C 
ATOM     64  C   UNL     1      12.663   1.012 -12.014  1.00  0.00     0.029 A 
ATOM     65  C   UNL     1      12.553   1.927 -10.975  1.00  0.00     0.049 A 
ATOM     66  H   UNL     1      11.476   1.750  -9.174  1.00  0.00     0.167 HD
ATOM     67  C   UNL     1      13.054   4.109  -9.844  1.00  0.00     0.074 A 
ATOM     68  C   UNL     1      13.704   5.408  -9.810  1.00  0.00     0.031 C 
ATOM     69  C   UNL     1      13.157   3.234 -10.876  1.00  0.00     0.037 A 
BRANCH  56  70
ATOM     70  C   UNL     1      10.155  -2.163 -10.257  1.00  0.00     0.058 A 
ATOM     71  C   UNL     1       8.876  -2.511 -10.719  1.00  0.00     0.135 A 
ATOM     72  C   UNL     1      11.165  -3.136 -10.346  1.00  0.00     0.135 A 
ATOM     73  F   UNL     1       7.863  -1.633 -10.633  1.00  0.00    -0.206 F 
ATOM     74  C   UNL     1       8.606  -3.773 -11.242  1.00  0.00     0.059 A 
ATOM     75  C   UNL     1      10.925  -4.396 -10.888  1.00  0.00     0.059 A 
ATOM     76  F   UNL     1      12.403  -2.866  -9.904  1.00  0.00    -0.206 F 
ATOM     77  C   UNL     1       9.640  -4.708 -11.329  1.00  0.00     0.060 A 
BRANCH  77  78
ATOM     78  S   UNL     1       9.284  -6.325 -12.048  1.00  0.00     0.124 S 
ATOM     79  O   UNL     1       8.482  -6.943 -10.997  1.00  0.00    -0.237 OA
ATOM     80  O   UNL     1       8.565  -5.972 -13.268  1.00  0.00    -0.237 OA
ATOM     81  O   UNL     1      10.607  -6.907 -12.251  1.00  0.00    -0.744 OA
ENDBRANCH  77  78
ENDBRANCH  56  70
BRANCH  57  82
ATOM     82  C   UNL     1      12.465   6.772  -5.967  1.00  0.00     0.058 A 
ATOM     83  C   UNL     1      12.049   8.003  -6.495  1.00  0.00     0.135 A 
ATOM     84  C   UNL     1      13.214   6.797  -4.779  1.00  0.00     0.135 A 
ATOM     85  F   UNL     1      11.316   8.038  -7.619  1.00  0.00    -0.206 F 
ATOM     86  C   UNL     1      12.391   9.211  -5.892  1.00  0.00     0.059 A 
ATOM     87  C   UNL     1      13.543   7.989  -4.141  1.00  0.00     0.059 A 
ATOM     88  F   UNL     1      13.610   5.649  -4.209  1.00  0.00    -0.206 F 
ATOM     89  C   UNL     1      13.145   9.194  -4.717  1.00  0.00     0.060 A 
BRANCH  89  90
ATOM     90  S   UNL     1      13.589  10.763  -3.941  1.00  0.00     0.124 S 
ATOM     91  O   UNL     1      14.622  11.253  -4.846  1.00  0.00    -0.237 OA
ATOM     92  O   UNL     1      12.322  11.488  -3.965  1.00  0.00    -0.237 OA
ATOM     93  O   UNL     1      14.049  10.363  -2.614  1.00  0.00    -0.744 OA
ENDBRANCH  89  90
ENDBRANCH  57  82
BRANCH  69  94
ATOM     94  C   UNL     1      13.981   3.680 -12.042  1.00  0.00     0.058 A 
ATOM     95  C   UNL     1      15.381   3.702 -11.978  1.00  0.00     0.135 A 
ATOM     96  C   UNL     1      13.360   4.022 -13.253  1.00  0.00     0.135 A 
ATOM     97  F   UNL     1      16.012   3.390 -10.835  1.00  0.00    -0.206 F 
ATOM     98  C   UNL     1      16.143   4.068 -13.078  1.00  0.00     0.059 A 
ATOM     99  C   UNL     1      14.104   4.362 -14.373  1.00  0.00     0.059 A 
ATOM    100  F   UNL     1      12.021   4.003 -13.357  1.00  0.00    -0.206 F 
ATOM    101  C   UNL     1      15.495   4.391 -14.272  1.00  0.00     0.060 A 
BRANCH 101 102
ATOM    102  S   UNL     1      16.499   4.814 -15.707  1.00  0.00     0.124 S 
ATOM    103  O   UNL     1      16.944   6.161 -15.365  1.00  0.00    -0.237 OA
ATOM    104  O   UNL     1      17.528   3.780 -15.684  1.00  0.00    -0.237 OA
ATOM    105  O   UNL     1      15.556   4.727 -16.818  1.00  0.00    -0.744 OA
ENDBRANCH 101 102
ENDBRANCH  69  94
ENDBRANCH  43  44
ENDBRANCH  36  38
ENDBRANCH  35  36
ENDBRANCH  34  35
ENDBRANCH   1  34
TORSDOF 19
