REMARK SMILES O=C(OCCOC(=O)c1ccccc1C[N@H+]1CCCC[C@@H]1CCn1cccn1)c1ccc(-c2c3nc(c(-c4c(F)cc(S(=O)(=O)[O-])cc4F)c4ccc([nH]4)c(-c4c(F)cc(S(=O)(=O)[O-])cc4F)c4nc(c(-c5c(F)cc(S(=O)(=O)[O-])cc5F)c5ccc2[nH]5)C=C4)C=C3)cc1
REMARK SMILES IDX 5 1 4 2 3 3 2 4 1 5 29 6 30 7 94 8 31 9 93 10 32 11 33 12
REMARK SMILES IDX 34 13 87 14 35 15 92 16 86 17 88 18 36 19 91 20 85 21 84 22
REMARK SMILES IDX 37 24 71 25 50 26 70 27 51 28 54 29 69 30 89 31 52 32 53 33
REMARK SMILES IDX 68 35 90 36 55 37 38 38 39 39 48 40 40 41 41 42 47 43 49 44
REMARK SMILES IDX 42 45 43 46 44 47 45 48 46 49 72 50 73 51 82 52 74 53 75 54
REMARK SMILES IDX 81 55 83 56 76 57 77 58 78 59 79 60 80 61 56 62 57 63 66 64
REMARK SMILES IDX 58 65 59 66 65 67 67 68 60 69 61 70 62 71 63 72 64 73 6 74
REMARK SMILES IDX 7 75 8 76 9 77 10 78 14 79 11 80 13 81 12 82 15 83 16 84
REMARK SMILES IDX 17 85 21 86 18 88 20 89 19 90 22 91 23 92 24 93 25 94 28 95
REMARK SMILES IDX 26 96 27 97
REMARK H PARENT 88 23 54 34 16 87
REMARK Flexibility Score: inf
ROOT
ATOM      1  C   UNL     1       4.547  -0.223  -1.333  1.00  0.00     0.275 C 
ENDROOT
BRANCH   1   2
ATOM      2  C   UNL     1       4.692  -1.294  -0.254  1.00  0.00     0.275 C 
BRANCH   2   3
ATOM      3  O   UNL     1       3.478  -1.851   0.288  1.00  0.00    -0.458 OA
BRANCH   3   4
ATOM      4  C   UNL     1       2.385  -1.073   0.449  1.00  0.00     0.338 C 
ATOM      5  O   UNL     1       1.423  -1.115  -0.305  1.00  0.00    -0.246 OA
BRANCH   4   6
ATOM      6  C   UNL     1       2.320  -0.378   1.761  1.00  0.00     0.060 A 
ATOM      7  C   UNL     1       3.441  -0.087   2.545  1.00  0.00     0.016 A 
ATOM      8  C   UNL     1       1.040  -0.039   2.225  1.00  0.00     0.016 A 
ATOM      9  C   UNL     1       3.277   0.415   3.828  1.00  0.00     0.010 A 
ATOM     10  C   UNL     1       0.875   0.487   3.492  1.00  0.00     0.010 A 
ATOM     11  C   UNL     1       1.988   0.637   4.315  1.00  0.00    -0.014 A 
BRANCH  11  12
ATOM     12  C   UNL     1       1.819   1.110   5.682  1.00  0.00     0.031 A 
ATOM     13  C   UNL     1       2.357   2.475   5.911  1.00  0.00     0.074 A 
ATOM     14  C   UNL     1       1.093   0.419   6.588  1.00  0.00     0.049 A 
ATOM     15  N   UNL     1       3.390   2.815   6.611  1.00  0.00    -0.248 NA
ATOM     16  C   UNL     1       1.799   3.580   5.112  1.00  0.00     0.031 C 
ATOM     17  C   UNL     1       0.319  -0.805   6.357  1.00  0.00     0.029 A 
ATOM     18  N   UNL     1       0.795   0.714   7.885  1.00  0.00    -0.354 N 
ATOM     19  C   UNL     1       3.412   4.208   6.585  1.00  0.00     0.074 A 
ATOM     20  C   UNL     1       2.596   4.590   5.465  1.00  0.00     0.031 C 
ATOM     21  C   UNL     1      -0.539  -0.999   7.383  1.00  0.00     0.029 A 
ATOM     22  C   UNL     1      -0.284  -0.003   8.406  1.00  0.00     0.049 A 
ATOM     23  H   UNL     1       1.299   1.376   8.410  1.00  0.00     0.167 HD
ATOM     24  C   UNL     1       3.816   4.911   7.682  1.00  0.00     0.037 A 
ATOM     25  C   UNL     1      -0.948   0.244   9.569  1.00  0.00     0.037 A 
ATOM     26  C   UNL     1       4.582   4.064   8.572  1.00  0.00     0.049 A 
ATOM     27  C   UNL     1      -0.044   1.065  10.416  1.00  0.00     0.074 A 
ATOM     28  C   UNL     1       5.709   3.273   8.448  1.00  0.00     0.029 A 
ATOM     29  N   UNL     1       3.970   3.652   9.732  1.00  0.00    -0.354 N 
ATOM     30  N   UNL     1       1.080   0.619  10.909  1.00  0.00    -0.248 NA
ATOM     31  C   UNL     1      -0.142   2.511  10.299  1.00  0.00     0.031 C 
ATOM     32  C   UNL     1       5.449   2.127   9.258  1.00  0.00     0.029 A 
ATOM     33  C   UNL     1       4.225   2.319   9.897  1.00  0.00     0.049 A 
ATOM     34  H   UNL     1       3.440   4.219  10.338  1.00  0.00     0.167 HD
ATOM     35  C   UNL     1       1.978   1.662  10.734  1.00  0.00     0.074 A 
ATOM     36  C   UNL     1       1.149   2.827  10.426  1.00  0.00     0.031 C 
ATOM     37  C   UNL     1       3.312   1.416  10.558  1.00  0.00     0.037 A 
BRANCH  24  38
ATOM     38  C   UNL     1       3.127   6.174   8.188  1.00  0.00     0.058 A 
ATOM     39  C   UNL     1       3.611   6.766   9.376  1.00  0.00     0.135 A 
ATOM     40  C   UNL     1       1.851   6.621   7.776  1.00  0.00     0.135 A 
ATOM     41  F   UNL     1       4.830   6.459   9.847  1.00  0.00    -0.206 F 
ATOM     42  C   UNL     1       2.828   7.602  10.172  1.00  0.00     0.059 A 
ATOM     43  C   UNL     1       1.072   7.490   8.531  1.00  0.00     0.059 A 
ATOM     44  F   UNL     1       1.250   6.193   6.662  1.00  0.00    -0.206 F 
ATOM     45  C   UNL     1       1.546   7.933   9.752  1.00  0.00     0.060 A 
BRANCH  45  46
ATOM     46  S   UNL     1       0.488   8.916  10.825  1.00  0.00     0.124 S 
ATOM     47  O   UNL     1       0.236   7.980  11.914  1.00  0.00    -0.237 OA
ATOM     48  O   UNL     1       1.353  10.049  11.138  1.00  0.00    -0.237 OA
ATOM     49  O   UNL     1      -0.656   9.224   9.973  1.00  0.00    -0.744 OA
ENDBRANCH  45  46
ENDBRANCH  24  38
BRANCH  25  50
ATOM     50  C   UNL     1      -2.413   0.134   9.839  1.00  0.00     0.058 A 
ATOM     51  C   UNL     1      -2.936   0.268  11.141  1.00  0.00     0.135 A 
ATOM     52  C   UNL     1      -3.359   0.181   8.794  1.00  0.00     0.135 A 
ATOM     53  F   UNL     1      -2.114   0.253  12.201  1.00  0.00    -0.206 F 
ATOM     54  C   UNL     1      -4.299   0.491  11.386  1.00  0.00     0.059 A 
ATOM     55  C   UNL     1      -4.721   0.391   9.014  1.00  0.00     0.059 A 
ATOM     56  F   UNL     1      -2.977   0.119   7.510  1.00  0.00    -0.206 F 
ATOM     57  C   UNL     1      -5.183   0.572  10.311  1.00  0.00     0.060 A 
BRANCH  57  58
ATOM     58  S   UNL     1      -6.910   1.036  10.596  1.00  0.00     0.124 S 
ATOM     59  O   UNL     1      -7.436  -0.148  11.266  1.00  0.00    -0.237 OA
ATOM     60  O   UNL     1      -6.779   2.231  11.422  1.00  0.00    -0.237 OA
ATOM     61  O   UNL     1      -7.425   1.268   9.248  1.00  0.00    -0.744 OA
ENDBRANCH  57  58
ENDBRANCH  25  50
BRANCH  37  62
ATOM     62  C   UNL     1       3.838   0.046  10.894  1.00  0.00     0.058 A 
ATOM     63  C   UNL     1       3.465  -1.145  10.245  1.00  0.00     0.135 A 
ATOM     64  C   UNL     1       4.873  -0.036  11.837  1.00  0.00     0.135 A 
ATOM     65  F   UNL     1       2.562  -1.137   9.253  1.00  0.00    -0.206 F 
ATOM     66  C   UNL     1       4.059  -2.369  10.560  1.00  0.00     0.059 A 
ATOM     67  C   UNL     1       5.502  -1.238  12.143  1.00  0.00     0.059 A 
ATOM     68  F   UNL     1       5.320   1.076  12.444  1.00  0.00    -0.206 F 
ATOM     69  C   UNL     1       5.077  -2.405  11.514  1.00  0.00     0.060 A 
BRANCH  69  70
ATOM     70  S   UNL     1       5.879  -3.977  11.893  1.00  0.00     0.124 S 
ATOM     71  O   UNL     1       4.820  -4.703  12.585  1.00  0.00    -0.237 OA
ATOM     72  O   UNL     1       6.233  -4.480  10.569  1.00  0.00    -0.237 OA
ATOM     73  O   UNL     1       7.015  -3.589  12.726  1.00  0.00    -0.744 OA
ENDBRANCH  69  70
ENDBRANCH  37  62
ENDBRANCH  11  12
ENDBRANCH   4   6
ENDBRANCH   3   4
ENDBRANCH   2   3
ENDBRANCH   1   2
BRANCH   1  74
ATOM     74  O   UNL     1       3.881   0.934  -0.810  1.00  0.00    -0.458 OA
BRANCH  74  75
ATOM     75  C   UNL     1       2.795   1.358  -1.511  1.00  0.00     0.338 C 
ATOM     76  O   UNL     1       2.350   0.911  -2.546  1.00  0.00    -0.246 OA
BRANCH  75  77
ATOM     77  C   UNL     1       2.204   2.483  -0.764  1.00  0.00     0.068 A 
ATOM     78  C   UNL     1       0.919   2.313  -0.230  1.00  0.00     0.016 A 
ATOM     79  C   UNL     1       2.890   3.698  -0.624  1.00  0.00     0.021 A 
ATOM     80  C   UNL     1       0.330   3.331   0.517  1.00  0.00     0.001 A 
ATOM     81  C   UNL     1       2.288   4.687   0.163  1.00  0.00     0.010 A 
ATOM     82  C   UNL     1       1.021   4.518   0.722  1.00  0.00     0.001 A 
BRANCH  79  83
ATOM     83  C   UNL     1       4.171   4.006  -1.377  1.00  0.00     0.300 C 
BRANCH  83  84
ATOM     84  N   UNL     1       4.011   4.804  -2.621  1.00  0.00    -0.329 N 
ATOM     85  C   UNL     1       3.117   4.085  -3.555  1.00  0.00     0.262 C 
ATOM     86  C   UNL     1       3.624   6.229  -2.428  1.00  0.00     0.186 C 
ATOM     87  H   UNL     1       4.941   4.886  -3.033  1.00  0.00     0.348 HD
ATOM     88  C   UNL     1       2.961   4.764  -4.908  1.00  0.00     0.062 C 
ATOM     89  C   UNL     1       3.497   6.924  -3.806  1.00  0.00     0.065 C 
ATOM     90  C   UNL     1       2.519   6.202  -4.724  1.00  0.00     0.012 C 
BRANCH  86  91
ATOM     91  C   UNL     1       4.667   6.994  -1.563  1.00  0.00     0.088 C 
BRANCH  91  92
ATOM     92  C   UNL     1       4.301   8.433  -1.171  1.00  0.00     0.150 C 
BRANCH  92  93
ATOM     93  N   UNL     1       3.163   8.562  -0.281  1.00  0.00    -0.273 N 
ATOM     94  C   UNL     1       3.032   8.040   0.976  1.00  0.00     0.108 A 
ATOM     95  N   UNL     1       2.125   9.345  -0.633  1.00  0.00    -0.182 NA
ATOM     96  C   UNL     1       1.792   8.427   1.427  1.00  0.00     0.042 A 
ATOM     97  C   UNL     1       1.296   9.264   0.412  1.00  0.00     0.135 A 
ENDBRANCH  92  93
ENDBRANCH  91  92
ENDBRANCH  86  91
ENDBRANCH  83  84
ENDBRANCH  79  83
ENDBRANCH  75  77
ENDBRANCH  74  75
ENDBRANCH   1  74
TORSDOF 19
