REMARK SMILES CCCC1CN(c2cc(C(=O)OCCOC(=O)c3ccc(-c4c5nc(c(-c6c(F)cc(S(=O)(=O)[O-])cc6F)c6ccc([nH]6)c(-c6c(F)cc(S(=O)(=O)[O-])cc6F)c6nc(c(-c7c(F)cc(S(=O)(=O)[O-])cc7F)c7ccc4[nH]7)C=C6)C=C5)cc3)ccc2C)C1
REMARK SMILES IDX 13 1 12 2 10 3 11 4 9 5 7 6 8 7 86 8 85 9 87 10 84 11 6 12
REMARK SMILES IDX 4 13 5 14 88 15 3 16 2 17 1 18 14 19 15 20 16 21 17 22 18 23
REMARK SMILES IDX 19 24 83 25 20 26 82 27 21 28 22 29 23 30 76 31 24 32 81 33
REMARK SMILES IDX 75 34 77 35 25 36 80 37 74 38 73 39 26 41 60 42 39 43 59 44
REMARK SMILES IDX 40 45 43 46 58 47 78 48 41 49 42 50 57 52 79 53 44 54 27 55
REMARK SMILES IDX 28 56 37 57 29 58 30 59 36 60 38 61 31 62 32 63 33 64 34 65
REMARK SMILES IDX 35 66 61 67 62 68 71 69 63 70 64 71 70 72 72 73 65 74 66 75
REMARK SMILES IDX 67 76 68 77 69 78 45 79 46 80 55 81 47 82 48 83 54 84 56 85
REMARK SMILES IDX 49 86 50 87 51 88 52 89 53 90
REMARK H PARENT 77 40 43 51
REMARK Flexibility Score: inf
ROOT
ATOM      1  C   UNL     1      -5.300  -4.866  -1.418  1.00  0.00     0.275 C 
ENDROOT
BRANCH   1   2
ATOM      2  O   UNL     1      -4.068  -5.261  -2.041  1.00  0.00    -0.458 OA
BRANCH   2   3
ATOM      3  C   UNL     1      -2.985  -4.820  -1.349  1.00  0.00     0.338 C 
ATOM      4  O   UNL     1      -3.023  -4.083  -0.389  1.00  0.00    -0.246 OA
BRANCH   3   5
ATOM      5  C   UNL     1      -1.695  -5.216  -1.964  1.00  0.00     0.062 A 
ATOM      6  C   UNL     1       0.601  -4.460  -2.319  1.00  0.00     0.040 A 
ATOM      7  C   UNL     1      -0.717  -4.229  -1.909  1.00  0.00     0.041 A 
ATOM      8  C   UNL     1       0.961  -5.747  -2.743  1.00  0.00    -0.028 A 
ATOM      9  C   UNL     1      -0.035  -6.742  -2.816  1.00  0.00     0.006 A 
ATOM     10  C   UNL     1       2.389  -6.122  -3.026  1.00  0.00     0.046 C 
ATOM     11  C   UNL     1      -1.367  -6.469  -2.469  1.00  0.00     0.016 A 
BRANCH   6  12
ATOM     12  N   UNL     1       1.528  -3.381  -2.307  1.00  0.00    -0.371 N 
ATOM     13  C   UNL     1       0.918  -1.389  -2.273  1.00  0.00     0.028 C 
ATOM     14  C   UNL     1       1.475  -2.353  -3.333  1.00  0.00     0.122 C 
ATOM     15  C   UNL     1       1.543  -2.372  -1.266  1.00  0.00     0.122 C 
BRANCH  13  16
ATOM     16  C   UNL     1       1.399   0.051  -2.290  1.00  0.00     0.007 C 
BRANCH  16  17
ATOM     17  C   UNL     1       0.718   0.886  -1.201  1.00  0.00    -0.003 C 
ATOM     18  C   UNL     1       1.110   0.490   0.215  1.00  0.00     0.004 C 
ENDBRANCH  16  17
ENDBRANCH  13  16
ENDBRANCH   6  12
ENDBRANCH   3   5
ENDBRANCH   2   3
ENDBRANCH   1   2
BRANCH   1  19
ATOM     19  C   UNL     1      -6.489  -5.736  -1.857  1.00  0.00     0.275 C 
BRANCH  19  20
ATOM     20  O   UNL     1      -6.446  -7.161  -1.611  1.00  0.00    -0.458 OA
BRANCH  20  21
ATOM     21  C   UNL     1      -5.227  -7.764  -1.643  1.00  0.00     0.338 C 
ATOM     22  O   UNL     1      -4.632  -8.024  -2.678  1.00  0.00    -0.246 OA
BRANCH  21  23
ATOM     23  C   UNL     1      -4.650  -7.747  -0.268  1.00  0.00     0.060 A 
ATOM     24  C   UNL     1      -3.279  -7.973  -0.082  1.00  0.00     0.016 A 
ATOM     25  C   UNL     1      -5.419  -7.199   0.764  1.00  0.00     0.016 A 
ATOM     26  C   UNL     1      -2.651  -7.536   1.083  1.00  0.00     0.010 A 
ATOM     27  C   UNL     1      -4.788  -6.660   1.856  1.00  0.00     0.010 A 
ATOM     28  C   UNL     1      -3.411  -6.851   2.029  1.00  0.00    -0.014 A 
BRANCH  28  29
ATOM     29  C   UNL     1      -2.958  -6.590   3.384  1.00  0.00     0.031 A 
ATOM     30  C   UNL     1      -2.117  -5.444   3.757  1.00  0.00     0.074 A 
ATOM     31  C   UNL     1      -3.497  -7.460   4.264  1.00  0.00     0.049 A 
ATOM     32  N   UNL     1      -1.400  -5.401   4.826  1.00  0.00    -0.248 NA
ATOM     33  C   UNL     1      -1.999  -4.237   2.946  1.00  0.00     0.031 C 
ATOM     34  C   UNL     1      -3.519  -7.467   5.711  1.00  0.00     0.029 A 
ATOM     35  N   UNL     1      -4.017  -8.712   3.906  1.00  0.00    -0.354 N 
ATOM     36  C   UNL     1      -0.998  -4.092   5.009  1.00  0.00     0.074 A 
ATOM     37  C   UNL     1      -1.299  -3.434   3.760  1.00  0.00     0.031 C 
ATOM     38  C   UNL     1      -3.709  -8.739   6.117  1.00  0.00     0.029 A 
ATOM     39  C   UNL     1      -3.664  -9.587   4.926  1.00  0.00     0.049 A 
ATOM     40  H   UNL     1      -4.529  -8.928   3.094  1.00  0.00     0.167 HD
ATOM     41  C   UNL     1      -0.639  -3.685   6.263  1.00  0.00     0.037 A 
ATOM     42  C   UNL     1      -2.714 -10.529   4.648  1.00  0.00     0.037 A 
ATOM     43  C   UNL     1      -0.664  -4.828   7.179  1.00  0.00     0.049 A 
ATOM     44  C   UNL     1      -1.495 -10.307   5.508  1.00  0.00     0.074 A 
ATOM     45  C   UNL     1      -1.658  -5.294   8.025  1.00  0.00     0.029 A 
ATOM     46  N   UNL     1       0.230  -5.882   7.003  1.00  0.00    -0.354 N 
ATOM     47  N   UNL     1      -1.055  -9.134   5.881  1.00  0.00    -0.248 NA
ATOM     48  C   UNL     1      -0.766 -11.412   6.115  1.00  0.00     0.031 C 
ATOM     49  C   UNL     1      -1.420  -6.669   8.264  1.00  0.00     0.029 A 
ATOM     50  C   UNL     1      -0.269  -7.035   7.585  1.00  0.00     0.049 A 
ATOM     51  H   UNL     1       1.092  -5.817   6.533  1.00  0.00     0.167 HD
ATOM     52  C   UNL     1      -0.086  -9.309   6.837  1.00  0.00     0.074 A 
ATOM     53  C   UNL     1       0.077 -10.752   6.925  1.00  0.00     0.031 C 
ATOM     54  C   UNL     1       0.472  -8.285   7.551  1.00  0.00     0.037 A 
BRANCH  41  55
ATOM     55  C   UNL     1      -0.661  -2.232   6.715  1.00  0.00     0.058 A 
ATOM     56  C   UNL     1      -1.080  -1.889   8.023  1.00  0.00     0.135 A 
ATOM     57  C   UNL     1      -0.353  -1.127   5.897  1.00  0.00     0.135 A 
ATOM     58  F   UNL     1      -1.310  -2.822   8.956  1.00  0.00    -0.206 F 
ATOM     59  C   UNL     1      -1.296  -0.574   8.441  1.00  0.00     0.059 A 
ATOM     60  C   UNL     1      -0.594   0.203   6.281  1.00  0.00     0.059 A 
ATOM     61  F   UNL     1       0.230  -1.295   4.701  1.00  0.00    -0.206 F 
ATOM     62  C   UNL     1      -1.084   0.469   7.553  1.00  0.00     0.060 A 
BRANCH  62  63
ATOM     63  S   UNL     1      -1.442   2.151   8.101  1.00  0.00     0.124 S 
ATOM     64  O   UNL     1      -2.852   2.062   8.467  1.00  0.00    -0.237 OA
ATOM     65  O   UNL     1      -0.509   2.316   9.211  1.00  0.00    -0.237 OA
ATOM     66  O   UNL     1      -1.158   2.962   6.920  1.00  0.00    -0.744 OA
ENDBRANCH  62  63
ENDBRANCH  41  55
BRANCH  42  67
ATOM     67  C   UNL     1      -2.727 -11.063   3.240  1.00  0.00     0.058 A 
ATOM     68  C   UNL     1      -3.952 -11.523   2.700  1.00  0.00     0.135 A 
ATOM     69  C   UNL     1      -1.664 -10.934   2.335  1.00  0.00     0.135 A 
ATOM     70  F   UNL     1      -5.020 -11.690   3.500  1.00  0.00    -0.206 F 
ATOM     71  C   UNL     1      -4.145 -11.741   1.336  1.00  0.00     0.059 A 
ATOM     72  C   UNL     1      -1.828 -11.167   0.958  1.00  0.00     0.059 A 
ATOM     73  F   UNL     1      -0.461 -10.520   2.757  1.00  0.00    -0.206 F 
ATOM     74  C   UNL     1      -3.080 -11.542   0.465  1.00  0.00     0.060 A 
BRANCH  74  75
ATOM     75  S   UNL     1      -3.399 -11.619  -1.318  1.00  0.00     0.124 S 
ATOM     76  O   UNL     1      -3.285 -13.050  -1.580  1.00  0.00    -0.237 OA
ATOM     77  O   UNL     1      -4.748 -11.067  -1.411  1.00  0.00    -0.237 OA
ATOM     78  O   UNL     1      -2.339 -10.786  -1.877  1.00  0.00    -0.744 OA
ENDBRANCH  74  75
ENDBRANCH  42  67
BRANCH  54  79
ATOM     79  C   UNL     1       1.694  -8.407   8.427  1.00  0.00     0.058 A 
ATOM     80  C   UNL     1       2.724  -9.332   8.190  1.00  0.00     0.135 A 
ATOM     81  C   UNL     1       1.938  -7.470   9.461  1.00  0.00     0.135 A 
ATOM     82  F   UNL     1       2.671 -10.190   7.162  1.00  0.00    -0.206 F 
ATOM     83  C   UNL     1       3.874  -9.382   8.974  1.00  0.00     0.059 A 
ATOM     84  C   UNL     1       3.108  -7.461  10.211  1.00  0.00     0.059 A 
ATOM     85  F   UNL     1       1.054  -6.511   9.772  1.00  0.00    -0.206 F 
ATOM     86  C   UNL     1       4.059  -8.442   9.982  1.00  0.00     0.060 A 
BRANCH  86  87
ATOM     87  S   UNL     1       5.570  -8.459  10.955  1.00  0.00     0.124 S 
ATOM     88  O   UNL     1       5.193  -9.336  12.059  1.00  0.00    -0.237 OA
ATOM     89  O   UNL     1       6.551  -9.005  10.021  1.00  0.00    -0.237 OA
ATOM     90  O   UNL     1       5.760  -7.053  11.299  1.00  0.00    -0.744 OA
ENDBRANCH  86  87
ENDBRANCH  54  79
ENDBRANCH  28  29
ENDBRANCH  21  23
ENDBRANCH  20  21
ENDBRANCH  19  20
ENDBRANCH   1  19
TORSDOF 17
