REMARK SMILES CC(C)[NH2+][C@]1(C(=O)OCCOC(=O)c2ccc(-c3c4nc(c(-c5c(F)cc(S(=O)(=O)[O-])cc5F)c5ccc([nH]5)c(-c5c(F)cc(S(=O)(=O)[O-])cc5F)c5nc(c(-c6c(F)cc(S(=O)(=O)[O-])cc6F)c6ccc3[nH]6)C=C5)C=C4)cc2)CCC[C@H]([N@H+](C)C2CCCCC2)C1
REMARK SMILES IDX 10 1 9 2 8 3 6 4 7 5 5 6 80 7 92 8 81 9 83 10 82 11 4 12
REMARK SMILES IDX 2 15 1 16 3 17 84 18 85 19 86 21 87 22 91 23 88 24 90 25
REMARK SMILES IDX 89 26 11 27 12 28 13 29 14 30 15 31 79 32 16 33 78 34 17 35
REMARK SMILES IDX 18 36 19 37 72 38 20 39 77 40 71 41 73 42 21 43 76 44 70 45
REMARK SMILES IDX 69 46 22 48 56 49 35 50 55 51 36 52 39 53 54 54 74 55 37 56
REMARK SMILES IDX 38 57 53 59 75 60 40 61 23 62 24 63 33 64 25 65 26 66 32 67
REMARK SMILES IDX 34 68 27 69 28 70 29 71 30 72 31 73 57 74 58 75 67 76 59 77
REMARK SMILES IDX 60 78 66 79 68 80 61 81 62 82 63 83 64 84 65 85 41 86 42 87
REMARK SMILES IDX 51 88 43 89 44 90 50 91 52 92 45 93 46 94 47 95 48 96 49 97
REMARK H PARENT 4 13 4 14 84 20 73 47 39 58
REMARK Flexibility Score: inf
ROOT
ATOM      1  C   UNL     1      -0.774  -1.526  -0.614  1.00  0.00     0.275 C 
ENDROOT
BRANCH   1   2
ATOM      2  C   UNL     1       0.210  -0.945   0.399  1.00  0.00     0.274 C 
BRANCH   2   3
ATOM      3  O   UNL     1      -0.472  -0.078   1.327  1.00  0.00    -0.457 OA
BRANCH   3   4
ATOM      4  C   UNL     1      -0.438   1.249   1.033  1.00  0.00     0.368 C 
ATOM      5  O   UNL     1       0.220   1.707   0.104  1.00  0.00    -0.245 OA
BRANCH   4   6
ATOM      6  C   UNL     1      -1.273   2.123   2.031  1.00  0.00     0.200 C 
ATOM      7  C   UNL     1      -0.459   2.166   3.340  1.00  0.00     0.081 C 
ATOM      8  C   UNL     1      -1.292   3.564   1.408  1.00  0.00     0.146 C 
ATOM      9  C   UNL     1      -0.842   3.301   4.282  1.00  0.00     0.013 C 
ATOM     10  C   UNL     1      -1.633   4.775   2.312  1.00  0.00     0.190 C 
ATOM     11  C   UNL     1      -0.774   4.665   3.593  1.00  0.00     0.065 C 
BRANCH   6  12
ATOM     12  N   UNL     1      -2.685   1.670   2.123  1.00  0.00    -0.330 N 
ATOM     13  H   UNL     1      -3.240   2.513   2.269  1.00  0.00     0.347 HD
ATOM     14  H   UNL     1      -2.780   1.133   1.261  1.00  0.00     0.347 HD
BRANCH  12  15
ATOM     15  C   UNL     1      -3.158   0.703   3.116  1.00  0.00     0.176 C 
ATOM     16  C   UNL     1      -4.654   0.982   3.366  1.00  0.00     0.075 C 
ATOM     17  C   UNL     1      -3.061  -0.764   2.693  1.00  0.00     0.075 C 
ENDBRANCH  12  15
ENDBRANCH   6  12
BRANCH  10  18
ATOM     18  N   UNL     1      -3.046   5.185   2.508  1.00  0.00    -0.332 N 
ATOM     19  C   UNL     1      -3.698   4.684   3.700  1.00  0.00     0.333 C 
ATOM     20  H   UNL     1      -2.934   6.173   2.738  1.00  0.00     0.348 HD
BRANCH  18  21
ATOM     21  C   UNL     1      -3.888   5.264   1.285  1.00  0.00     0.184 C 
ATOM     22  C   UNL     1      -5.417   5.261   1.532  1.00  0.00     0.065 C 
ATOM     23  C   UNL     1      -3.506   6.533   0.485  1.00  0.00     0.065 C 
ATOM     24  C   UNL     1      -6.210   5.400   0.236  1.00  0.00     0.006 C 
ATOM     25  C   UNL     1      -4.357   6.754  -0.768  1.00  0.00     0.006 C 
ATOM     26  C   UNL     1      -5.851   6.691  -0.483  1.00  0.00     0.000 C 
ENDBRANCH  18  21
ENDBRANCH  10  18
ENDBRANCH   4   6
ENDBRANCH   3   4
ENDBRANCH   2   3
ENDBRANCH   1   2
BRANCH   1  27
ATOM     27  O   UNL     1      -1.426  -0.458  -1.324  1.00  0.00    -0.458 OA
BRANCH  27  28
ATOM     28  C   UNL     1      -2.777  -0.490  -1.344  1.00  0.00     0.338 C 
ATOM     29  O   UNL     1      -3.499  -1.372  -0.895  1.00  0.00    -0.246 OA
BRANCH  28  30
ATOM     30  C   UNL     1      -3.306   0.716  -2.008  1.00  0.00     0.060 A 
ATOM     31  C   UNL     1      -2.766   1.974  -1.744  1.00  0.00     0.016 A 
ATOM     32  C   UNL     1      -4.398   0.599  -2.869  1.00  0.00     0.016 A 
ATOM     33  C   UNL     1      -3.339   3.115  -2.302  1.00  0.00     0.010 A 
ATOM     34  C   UNL     1      -4.910   1.736  -3.505  1.00  0.00     0.010 A 
ATOM     35  C   UNL     1      -4.389   3.010  -3.227  1.00  0.00    -0.014 A 
BRANCH  35  36
ATOM     36  C   UNL     1      -4.867   4.206  -3.975  1.00  0.00     0.031 A 
ATOM     37  C   UNL     1      -6.305   4.652  -3.908  1.00  0.00     0.074 A 
ATOM     38  C   UNL     1      -3.993   4.878  -4.755  1.00  0.00     0.049 A 
ATOM     39  N   UNL     1      -6.906   5.594  -4.589  1.00  0.00    -0.248 NA
ATOM     40  C   UNL     1      -7.181   3.961  -2.948  1.00  0.00     0.031 C 
ATOM     41  C   UNL     1      -2.569   4.560  -4.899  1.00  0.00     0.029 A 
ATOM     42  N   UNL     1      -4.170   5.957  -5.586  1.00  0.00    -0.354 N 
ATOM     43  C   UNL     1      -8.223   5.612  -4.144  1.00  0.00     0.074 A 
ATOM     44  C   UNL     1      -8.341   4.579  -3.137  1.00  0.00     0.031 C 
ATOM     45  C   UNL     1      -2.003   5.426  -5.750  1.00  0.00     0.029 A 
ATOM     46  C   UNL     1      -3.037   6.301  -6.286  1.00  0.00     0.049 A 
ATOM     47  H   UNL     1      -5.025   6.438  -5.673  1.00  0.00     0.167 HD
ATOM     48  C   UNL     1      -9.238   6.416  -4.542  1.00  0.00     0.037 A 
ATOM     49  C   UNL     1      -2.851   7.170  -7.297  1.00  0.00     0.037 A 
ATOM     50  C   UNL     1      -9.120   7.428  -5.560  1.00  0.00     0.049 A 
ATOM     51  C   UNL     1      -4.025   7.941  -7.819  1.00  0.00     0.074 A 
ATOM     52  C   UNL     1     -10.085   8.314  -6.011  1.00  0.00     0.029 A 
ATOM     53  N   UNL     1      -7.976   7.673  -6.304  1.00  0.00    -0.354 N 
ATOM     54  N   UNL     1      -5.260   7.952  -7.379  1.00  0.00    -0.248 NA
ATOM     55  C   UNL     1      -3.793   8.789  -8.996  1.00  0.00     0.031 C 
ATOM     56  C   UNL     1      -9.540   9.056  -7.066  1.00  0.00     0.029 A 
ATOM     57  C   UNL     1      -8.225   8.659  -7.245  1.00  0.00     0.049 A 
ATOM     58  H   UNL     1      -7.114   7.215  -6.181  1.00  0.00     0.167 HD
ATOM     59  C   UNL     1      -5.956   8.799  -8.231  1.00  0.00     0.074 A 
ATOM     60  C   UNL     1      -4.999   9.303  -9.196  1.00  0.00     0.031 C 
ATOM     61  C   UNL     1      -7.271   9.124  -8.219  1.00  0.00     0.037 A 
BRANCH  48  62
ATOM     62  C   UNL     1     -10.585   6.228  -3.904  1.00  0.00     0.058 A 
ATOM     63  C   UNL     1     -10.882   6.765  -2.643  1.00  0.00     0.135 A 
ATOM     64  C   UNL     1     -11.620   5.588  -4.606  1.00  0.00     0.135 A 
ATOM     65  F   UNL     1      -9.925   7.374  -1.925  1.00  0.00    -0.206 F 
ATOM     66  C   UNL     1     -12.162   6.679  -2.100  1.00  0.00     0.059 A 
ATOM     67  C   UNL     1     -12.909   5.501  -4.088  1.00  0.00     0.059 A 
ATOM     68  F   UNL     1     -11.385   5.054  -5.815  1.00  0.00    -0.206 F 
ATOM     69  C   UNL     1     -13.170   6.049  -2.833  1.00  0.00     0.060 A 
BRANCH  69  70
ATOM     70  S   UNL     1     -14.835   5.981  -2.134  1.00  0.00     0.124 S 
ATOM     71  O   UNL     1     -14.666   4.993  -1.073  1.00  0.00    -0.237 OA
ATOM     72  O   UNL     1     -15.045   7.356  -1.692  1.00  0.00    -0.237 OA
ATOM     73  O   UNL     1     -15.661   5.555  -3.260  1.00  0.00    -0.744 OA
ENDBRANCH  69  70
ENDBRANCH  48  62
BRANCH  49  74
ATOM     74  C   UNL     1      -1.516   7.274  -7.943  1.00  0.00     0.058 A 
ATOM     75  C   UNL     1      -0.720   8.417  -7.792  1.00  0.00     0.135 A 
ATOM     76  C   UNL     1      -0.999   6.209  -8.700  1.00  0.00     0.135 A 
ATOM     77  F   UNL     1      -1.177   9.464  -7.089  1.00  0.00    -0.206 F 
ATOM     78  C   UNL     1       0.544   8.502  -8.366  1.00  0.00     0.059 A 
ATOM     79  C   UNL     1       0.272   6.260  -9.261  1.00  0.00     0.059 A 
ATOM     80  F   UNL     1      -1.719   5.089  -8.866  1.00  0.00    -0.206 F 
ATOM     81  C   UNL     1       1.033   7.416  -9.096  1.00  0.00     0.060 A 
BRANCH  81  82
ATOM     82  S   UNL     1       2.701   7.496  -9.783  1.00  0.00     0.124 S 
ATOM     83  O   UNL     1       2.476   8.253 -11.008  1.00  0.00    -0.237 OA
ATOM     84  O   UNL     1       3.442   8.187  -8.731  1.00  0.00    -0.237 OA
ATOM     85  O   UNL     1       3.053   6.090  -9.962  1.00  0.00    -0.744 OA
ENDBRANCH  81  82
ENDBRANCH  49  74
BRANCH  61  86
ATOM     86  C   UNL     1      -7.749  10.052  -9.295  1.00  0.00     0.058 A 
ATOM     87  C   UNL     1      -7.948   9.596 -10.607  1.00  0.00     0.135 A 
ATOM     88  C   UNL     1      -8.024  11.398  -9.014  1.00  0.00     0.135 A 
ATOM     89  F   UNL     1      -7.686   8.319 -10.926  1.00  0.00    -0.206 F 
ATOM     90  C   UNL     1      -8.384  10.452 -11.612  1.00  0.00     0.059 A 
ATOM     91  C   UNL     1      -8.480  12.267 -10.000  1.00  0.00     0.059 A 
ATOM     92  F   UNL     1      -7.853  11.879  -7.772  1.00  0.00    -0.206 F 
ATOM     93  C   UNL     1      -8.644  11.787 -11.299  1.00  0.00     0.060 A 
BRANCH  93  94
ATOM     94  S   UNL     1      -9.227  12.888 -12.606  1.00  0.00     0.124 S 
ATOM     95  O   UNL     1      -7.988  13.171 -13.323  1.00  0.00    -0.237 OA
ATOM     96  O   UNL     1     -10.192  12.054 -13.315  1.00  0.00    -0.237 OA
ATOM     97  O   UNL     1      -9.800  14.011 -11.871  1.00  0.00    -0.744 OA
ENDBRANCH  93  94
ENDBRANCH  61  86
ENDBRANCH  35  36
ENDBRANCH  28  30
ENDBRANCH  27  28
ENDBRANCH   1  27
TORSDOF 18
