REMARK SMILES C=Cc1cncc(-c2ccc([C@@H](C)C(=O)OCCOC(=O)c3ccc(-c4c5nc(c(-c6c(F)cc(S(=O)(=O)[O-])cc6F)c6ccc([nH]6)c(-c6c(F)cc(S(=O)(=O)[O-])cc6F)c6nc(c(-c7c(F)cc(S(=O)(=O)[O-])cc7F)c7ccc4[nH]7)C=C6)C=C5)cc3)cc2)c1
REMARK SMILES IDX 17 1 16 2 14 3 15 4 12 5 13 6 11 7 8 8 9 9 89 10 10 11 88 12
REMARK SMILES IDX 7 13 3 14 4 15 90 16 5 17 6 18 2 19 1 20 18 21 19 22 20 23
REMARK SMILES IDX 21 24 22 25 23 26 87 27 24 28 86 29 25 30 26 31 27 32 80 33
REMARK SMILES IDX 28 34 85 35 79 36 81 37 29 38 84 39 78 40 77 41 30 43 64 44
REMARK SMILES IDX 43 45 63 46 44 47 47 48 62 49 82 50 45 51 46 52 61 54 83 55
REMARK SMILES IDX 48 56 31 57 32 58 41 59 33 60 34 61 40 62 42 63 35 64 36 65
REMARK SMILES IDX 37 66 38 67 39 68 65 69 66 70 75 71 67 72 68 73 74 74 76 75
REMARK SMILES IDX 69 76 70 77 71 78 72 79 73 80 49 81 50 82 59 83 51 84 52 85
REMARK SMILES IDX 58 86 60 87 53 88 54 89 55 90 56 91 57 92
REMARK H PARENT 81 42 47 53
REMARK Flexibility Score: inf
ROOT
ATOM      1  C   UNL     1      -6.784  -5.011   4.234  1.00  0.00     0.274 C 
ENDROOT
BRANCH   1   2
ATOM      2  O   UNL     1      -6.826  -3.606   3.919  1.00  0.00    -0.462 OA
BRANCH   2   3
ATOM      3  C   UNL     1      -7.226  -2.772   4.915  1.00  0.00     0.313 C 
ATOM      4  O   UNL     1      -7.611  -3.154   6.016  1.00  0.00    -0.252 OA
BRANCH   3   5
ATOM      5  C   UNL     1      -7.232  -1.300   4.524  1.00  0.00     0.126 C 
ATOM      6  C   UNL     1      -8.647  -0.881   4.126  1.00  0.00     0.025 C 
BRANCH   5   7
ATOM      7  C   UNL     1      -6.191  -0.867   3.501  1.00  0.00    -0.034 A 
ATOM      8  C   UNL     1      -4.280   0.063   1.609  1.00  0.00    -0.017 A 
ATOM      9  C   UNL     1      -5.339  -0.774   1.224  1.00  0.00     0.009 A 
ATOM     10  C   UNL     1      -4.175   0.401   2.964  1.00  0.00     0.009 A 
ATOM     11  C   UNL     1      -6.280  -1.231   2.153  1.00  0.00     0.005 A 
ATOM     12  C   UNL     1      -5.119  -0.050   3.894  1.00  0.00     0.005 A 
BRANCH   8  13
ATOM     13  C   UNL     1      -3.346   0.606   0.613  1.00  0.00     0.001 A 
ATOM     14  C   UNL     1      -1.103   1.043  -0.228  1.00  0.00    -0.007 A 
ATOM     15  C   UNL     1      -1.699   1.714  -1.293  1.00  0.00     0.119 A 
ATOM     16  C   UNL     1      -1.954   0.494   0.740  1.00  0.00     0.020 A 
ATOM     17  N   UNL     1      -3.034   1.847  -1.467  1.00  0.00    -0.263 NA
ATOM     18  C   UNL     1      -3.815   1.294  -0.510  1.00  0.00     0.119 A 
BRANCH  14  19
ATOM     19  C   UNL     1       0.359   0.991  -0.130  1.00  0.00     0.002 C 
ATOM     20  C   UNL     1       1.046  -0.091   0.258  1.00  0.00     0.009 C 
ENDBRANCH  14  19
ENDBRANCH   8  13
ENDBRANCH   5   7
ENDBRANCH   3   5
ENDBRANCH   2   3
ENDBRANCH   1   2
BRANCH   1  21
ATOM     21  C   UNL     1      -5.360  -5.478   4.543  1.00  0.00     0.275 C 
BRANCH  21  22
ATOM     22  O   UNL     1      -4.883  -4.923   5.783  1.00  0.00    -0.458 OA
BRANCH  22  23
ATOM     23  C   UNL     1      -4.135  -3.804   5.650  1.00  0.00     0.338 C 
ATOM     24  O   UNL     1      -3.788  -3.267   4.612  1.00  0.00    -0.246 OA
BRANCH  23  25
ATOM     25  C   UNL     1      -3.871  -3.216   6.971  1.00  0.00     0.060 A 
ATOM     26  C   UNL     1      -4.413  -1.959   7.243  1.00  0.00     0.016 A 
ATOM     27  C   UNL     1      -3.008  -3.829   7.881  1.00  0.00     0.016 A 
ATOM     28  C   UNL     1      -4.065  -1.284   8.408  1.00  0.00     0.010 A 
ATOM     29  C   UNL     1      -2.665  -3.154   9.058  1.00  0.00     0.010 A 
ATOM     30  C   UNL     1      -3.168  -1.865   9.313  1.00  0.00    -0.014 A 
BRANCH  30  31
ATOM     31  C   UNL     1      -2.697  -1.069  10.471  1.00  0.00     0.031 A 
ATOM     32  C   UNL     1      -1.325  -0.456  10.441  1.00  0.00     0.074 A 
ATOM     33  C   UNL     1      -3.519  -0.843  11.512  1.00  0.00     0.049 A 
ATOM     34  N   UNL     1      -0.723   0.270  11.348  1.00  0.00    -0.248 NA
ATOM     35  C   UNL     1      -0.523  -0.691   9.230  1.00  0.00     0.031 C 
ATOM     36  C   UNL     1      -4.885  -1.354  11.636  1.00  0.00     0.029 A 
ATOM     37  N   UNL     1      -3.327  -0.117  12.660  1.00  0.00    -0.354 N 
ATOM     38  C   UNL     1       0.532   0.564  10.828  1.00  0.00     0.074 A 
ATOM     39  C   UNL     1       0.612  -0.076   9.532  1.00  0.00     0.031 C 
ATOM     40  C   UNL     1      -5.411  -0.917  12.793  1.00  0.00     0.029 A 
ATOM     41  C   UNL     1      -4.413  -0.120  13.502  1.00  0.00     0.049 A 
ATOM     42  H   UNL     1      -2.491   0.362  12.861  1.00  0.00     0.167 HD
ATOM     43  C   UNL     1       1.524   1.305  11.377  1.00  0.00     0.037 A 
ATOM     44  C   UNL     1      -4.579   0.448  14.711  1.00  0.00     0.037 A 
ATOM     45  C   UNL     1       1.436   1.953  12.660  1.00  0.00     0.049 A 
ATOM     46  C   UNL     1      -3.460   1.260  15.303  1.00  0.00     0.074 A 
ATOM     47  C   UNL     1       2.392   2.714  13.311  1.00  0.00     0.029 A 
ATOM     48  N   UNL     1       0.320   1.925  13.483  1.00  0.00    -0.354 N 
ATOM     49  N   UNL     1      -2.272   1.513  14.806  1.00  0.00    -0.248 NA
ATOM     50  C   UNL     1      -3.705   1.870  16.617  1.00  0.00     0.031 C 
ATOM     51  C   UNL     1       1.861   3.129  14.538  1.00  0.00     0.029 A 
ATOM     52  C   UNL     1       0.563   2.654  14.636  1.00  0.00     0.049 A 
ATOM     53  H   UNL     1      -0.521   1.456  13.279  1.00  0.00     0.167 HD
ATOM     54  C   UNL     1      -1.637   2.328  15.736  1.00  0.00     0.074 A 
ATOM     55  C   UNL     1      -2.576   2.535  16.820  1.00  0.00     0.031 C 
ATOM     56  C   UNL     1      -0.389   2.857  15.699  1.00  0.00     0.037 A 
BRANCH  43  57
ATOM     57  C   UNL     1       2.802   1.428  10.598  1.00  0.00     0.058 A 
ATOM     58  C   UNL     1       2.898   2.251   9.465  1.00  0.00     0.135 A 
ATOM     59  C   UNL     1       3.948   0.721  10.993  1.00  0.00     0.135 A 
ATOM     60  F   UNL     1       1.825   2.933   9.032  1.00  0.00    -0.206 F 
ATOM     61  C   UNL     1       4.079   2.348   8.735  1.00  0.00     0.059 A 
ATOM     62  C   UNL     1       5.145   0.818  10.290  1.00  0.00     0.059 A 
ATOM     63  F   UNL     1       3.909  -0.083  12.068  1.00  0.00    -0.206 F 
ATOM     64  C   UNL     1       5.196   1.621   9.152  1.00  0.00     0.060 A 
BRANCH  64  65
ATOM     65  S   UNL     1       6.719   1.742   8.191  1.00  0.00     0.124 S 
ATOM     66  O   UNL     1       6.413   0.882   7.052  1.00  0.00    -0.237 OA
ATOM     67  O   UNL     1       6.799   3.171   7.902  1.00  0.00    -0.237 OA
ATOM     68  O   UNL     1       7.737   1.235   9.106  1.00  0.00    -0.744 OA
ENDBRANCH  64  65
ENDBRANCH  43  57
BRANCH  44  69
ATOM     69  C   UNL     1      -5.860   0.271  15.442  1.00  0.00     0.058 A 
ATOM     70  C   UNL     1      -6.767   1.331  15.580  1.00  0.00     0.135 A 
ATOM     71  C   UNL     1      -6.205  -0.966  16.007  1.00  0.00     0.135 A 
ATOM     72  F   UNL     1      -6.477   2.534  15.062  1.00  0.00    -0.206 F 
ATOM     73  C   UNL     1      -7.968   1.176  16.265  1.00  0.00     0.059 A 
ATOM     74  C   UNL     1      -7.409  -1.151  16.678  1.00  0.00     0.059 A 
ATOM     75  F   UNL     1      -5.374  -2.014  15.891  1.00  0.00    -0.206 F 
ATOM     76  C   UNL     1      -8.280  -0.071  16.811  1.00  0.00     0.060 A 
BRANCH  76  77
ATOM     77  S   UNL     1      -9.863  -0.283  17.654  1.00  0.00     0.124 S 
ATOM     78  O   UNL     1      -9.588   0.322  18.951  1.00  0.00    -0.237 OA
ATOM     79  O   UNL     1     -10.778   0.453  16.787  1.00  0.00    -0.237 OA
ATOM     80  O   UNL     1     -10.046  -1.731  17.657  1.00  0.00    -0.744 OA
ENDBRANCH  76  77
ENDBRANCH  44  69
BRANCH  56  81
ATOM     81  C   UNL     1       0.013   3.740  16.845  1.00  0.00     0.058 A 
ATOM     82  C   UNL     1       0.347   3.210  18.101  1.00  0.00     0.135 A 
ATOM     83  C   UNL     1       0.078   5.132  16.679  1.00  0.00     0.135 A 
ATOM     84  F   UNL     1       0.296   1.885  18.310  1.00  0.00    -0.206 F 
ATOM     85  C   UNL     1       0.701   4.034  19.165  1.00  0.00     0.059 A 
ATOM     86  C   UNL     1       0.449   5.973  17.723  1.00  0.00     0.059 A 
ATOM     87  F   UNL     1      -0.221   5.686  15.494  1.00  0.00    -0.206 F 
ATOM     88  C   UNL     1       0.741   5.415  18.968  1.00  0.00     0.060 A 
BRANCH  88  89
ATOM     89  S   UNL     1       1.203   6.481  20.350  1.00  0.00     0.124 S 
ATOM     90  O   UNL     1      -0.050   6.555  21.093  1.00  0.00    -0.237 OA
ATOM     91  O   UNL     1       2.276   5.726  20.990  1.00  0.00    -0.237 OA
ATOM     92  O   UNL     1       1.621   7.718  19.696  1.00  0.00    -0.744 OA
ENDBRANCH  88  89
ENDBRANCH  56  81
ENDBRANCH  30  31
ENDBRANCH  23  25
ENDBRANCH  22  23
ENDBRANCH  21  22
ENDBRANCH   1  21
TORSDOF 17
