REMARK SMILES C[C@H]1[C@@H]([NH2+]C[C@H]2CC[C@@H](C(=O)OCCOC(=O)c3ccc(-c4c5nc(c(-c6c(F)cc(S(=O)(=O)[O-])cc6F)c6ccc([nH]6)c(-c6c(F)cc(S(=O)(=O)[O-])cc6F)c6nc(c(-c7c(F)cc(S(=O)(=O)[O-])cc7F)c7ccc4[nH]7)C=C6)C=C5)cc3)CC2)CCC[C@@H]1C
REMARK SMILES IDX 13 1 12 2 10 3 11 4 9 5 6 6 7 7 85 8 8 9 84 10 5 11 4 12
REMARK SMILES IDX 3 15 1 16 2 17 89 18 86 19 88 20 90 21 87 22 14 23 15 24
REMARK SMILES IDX 16 25 17 26 18 27 19 28 83 29 20 30 82 31 21 32 22 33 23 34
REMARK SMILES IDX 76 35 24 36 81 37 75 38 77 39 25 40 80 41 74 42 73 43 26 45
REMARK SMILES IDX 60 46 39 47 59 48 40 49 43 50 58 51 78 52 41 53 42 54 57 56
REMARK SMILES IDX 79 57 44 58 27 59 28 60 37 61 29 62 30 63 36 64 38 65 31 66
REMARK SMILES IDX 32 67 33 68 34 69 35 70 61 71 62 72 71 73 63 74 64 75 70 76
REMARK SMILES IDX 72 77 65 78 66 79 67 80 68 81 69 82 45 83 46 84 55 85 47 86
REMARK SMILES IDX 48 87 54 88 56 89 49 90 50 91 51 92 52 93 53 94
REMARK H PARENT 4 13 4 14 77 44 43 55
REMARK Flexibility Score: inf
ROOT
ATOM      1  C   UNL     1      -1.803  -2.256  -3.769  1.00  0.00     0.274 C 
ENDROOT
BRANCH   1   2
ATOM      2  O   UNL     1      -2.317  -2.215  -2.422  1.00  0.00    -0.462 OA
BRANCH   2   3
ATOM      3  C   UNL     1      -3.605  -1.811  -2.267  1.00  0.00     0.309 C 
ATOM      4  O   UNL     1      -4.338  -1.458  -3.183  1.00  0.00    -0.252 OA
BRANCH   3   5
ATOM      5  C   UNL     1      -4.045  -1.774  -0.807  1.00  0.00     0.099 C 
ATOM      6  C   UNL     1      -3.461  -1.322   2.108  1.00  0.00     0.044 C 
ATOM      7  C   UNL     1      -4.137  -0.269   1.221  1.00  0.00     0.010 C 
ATOM      8  C   UNL     1      -3.727  -2.732   1.555  1.00  0.00     0.010 C 
ATOM      9  C   UNL     1      -3.766  -0.378  -0.252  1.00  0.00     0.016 C 
ATOM     10  C   UNL     1      -3.463  -2.902   0.057  1.00  0.00     0.016 C 
BRANCH   6  11
ATOM     11  C   UNL     1      -1.966  -1.026   2.403  1.00  0.00     0.264 C 
BRANCH  11  12
ATOM     12  N   UNL     1      -1.085  -1.341   1.288  1.00  0.00    -0.343 N 
ATOM     13  H   UNL     1      -1.188  -2.335   1.082  1.00  0.00     0.346 HD
ATOM     14  H   UNL     1      -1.374  -0.722   0.530  1.00  0.00     0.346 HD
BRANCH  12  15
ATOM     15  C   UNL     1       0.341  -1.073   1.489  1.00  0.00     0.185 C 
ATOM     16  C   UNL     1       0.536  -0.318  -0.945  1.00  0.00     0.014 C 
ATOM     17  C   UNL     1       1.090  -1.262   0.133  1.00  0.00     0.047 C 
ATOM     18  C   UNL     1       1.084  -2.749  -0.331  1.00  0.00    -0.006 C 
ATOM     19  C   UNL     1       0.979  -1.996   2.542  1.00  0.00     0.065 C 
ATOM     20  C   UNL     1       1.649  -3.666   0.768  1.00  0.00     0.004 C 
ATOM     21  C   UNL     1       1.865  -2.976  -1.629  1.00  0.00     0.008 C 
ATOM     22  C   UNL     1       0.978  -3.465   2.123  1.00  0.00     0.006 C 
ENDBRANCH  12  15
ENDBRANCH  11  12
ENDBRANCH   6  11
ENDBRANCH   3   5
ENDBRANCH   2   3
ENDBRANCH   1   2
BRANCH   1  23
ATOM     23  C   UNL     1      -1.552  -3.698  -4.214  1.00  0.00     0.275 C 
BRANCH  23  24
ATOM     24  O   UNL     1      -2.796  -4.410  -4.334  1.00  0.00    -0.458 OA
BRANCH  24  25
ATOM     25  C   UNL     1      -3.147  -5.124  -3.241  1.00  0.00     0.338 C 
ATOM     26  O   UNL     1      -2.476  -5.328  -2.240  1.00  0.00    -0.246 OA
BRANCH  25  27
ATOM     27  C   UNL     1      -4.568  -5.483  -3.338  1.00  0.00     0.060 A 
ATOM     28  C   UNL     1      -5.442  -4.861  -2.448  1.00  0.00     0.016 A 
ATOM     29  C   UNL     1      -5.036  -6.451  -4.224  1.00  0.00     0.016 A 
ATOM     30  C   UNL     1      -6.776  -5.223  -2.394  1.00  0.00     0.010 A 
ATOM     31  C   UNL     1      -6.392  -6.798  -4.195  1.00  0.00     0.010 A 
ATOM     32  C   UNL     1      -7.262  -6.197  -3.267  1.00  0.00    -0.014 A 
BRANCH  32  33
ATOM     33  C   UNL     1      -8.678  -6.602  -3.139  1.00  0.00     0.031 A 
ATOM     34  C   UNL     1      -9.013  -7.926  -2.522  1.00  0.00     0.074 A 
ATOM     35  C   UNL     1      -9.647  -5.737  -3.492  1.00  0.00     0.049 A 
ATOM     36  N   UNL     1     -10.182  -8.486  -2.355  1.00  0.00    -0.248 NA
ATOM     37  C   UNL     1      -7.884  -8.726  -2.020  1.00  0.00     0.031 C 
ATOM     38  C   UNL     1      -9.424  -4.392  -4.029  1.00  0.00     0.029 A 
ATOM     39  N   UNL     1     -11.010  -5.851  -3.434  1.00  0.00    -0.354 N 
ATOM     40  C   UNL     1      -9.930  -9.715  -1.758  1.00  0.00     0.074 A 
ATOM     41  C   UNL     1      -8.496  -9.823  -1.597  1.00  0.00     0.031 C 
ATOM     42  C   UNL     1     -10.611  -3.801  -4.238  1.00  0.00     0.029 A 
ATOM     43  C   UNL     1     -11.674  -4.742  -3.899  1.00  0.00     0.049 A 
ATOM     44  H   UNL     1     -11.471  -6.651  -3.091  1.00  0.00     0.167 HD
ATOM     45  C   UNL     1     -10.820 -10.664  -1.383  1.00  0.00     0.037 A 
ATOM     46  C   UNL     1     -12.992  -4.522  -4.058  1.00  0.00     0.037 A 
ATOM     47  C   UNL     1     -12.245 -10.530  -1.534  1.00  0.00     0.049 A 
ATOM     48  C   UNL     1     -13.957  -5.609  -3.673  1.00  0.00     0.074 A 
ATOM     49  C   UNL     1     -13.237 -11.438  -1.207  1.00  0.00     0.029 A 
ATOM     50  N   UNL     1     -12.882  -9.409  -2.049  1.00  0.00    -0.354 N 
ATOM     51  N   UNL     1     -13.704  -6.790  -3.159  1.00  0.00    -0.248 NA
ATOM     52  C   UNL     1     -15.382  -5.340  -3.897  1.00  0.00     0.031 C 
ATOM     53  C   UNL     1     -14.473 -10.876  -1.552  1.00  0.00     0.029 A 
ATOM     54  C   UNL     1     -14.253  -9.605  -2.059  1.00  0.00     0.049 A 
ATOM     55  H   UNL     1     -12.426  -8.595  -2.361  1.00  0.00     0.167 HD
ATOM     56  C   UNL     1     -14.939  -7.403  -2.990  1.00  0.00     0.074 A 
ATOM     57  C   UNL     1     -15.938  -6.452  -3.437  1.00  0.00     0.031 C 
ATOM     58  C   UNL     1     -15.223  -8.641  -2.515  1.00  0.00     0.037 A 
BRANCH  45  59
ATOM     59  C   UNL     1     -10.267 -11.940  -0.816  1.00  0.00     0.058 A 
ATOM     60  C   UNL     1      -9.733 -12.007   0.480  1.00  0.00     0.135 A 
ATOM     61  C   UNL     1     -10.270 -13.114  -1.585  1.00  0.00     0.135 A 
ATOM     62  F   UNL     1      -9.683 -10.907   1.248  1.00  0.00    -0.206 F 
ATOM     63  C   UNL     1      -9.198 -13.188   0.986  1.00  0.00     0.059 A 
ATOM     64  C   UNL     1      -9.760 -14.312  -1.093  1.00  0.00     0.059 A 
ATOM     65  F   UNL     1     -10.762 -13.103  -2.834  1.00  0.00    -0.206 F 
ATOM     66  C   UNL     1      -9.211 -14.335   0.189  1.00  0.00     0.060 A 
BRANCH  66  67
ATOM     67  S   UNL     1      -8.504 -15.859   0.849  1.00  0.00     0.124 S 
ATOM     68  O   UNL     1      -7.074 -15.590   0.732  1.00  0.00    -0.237 OA
ATOM     69  O   UNL     1      -9.033 -15.889   2.209  1.00  0.00    -0.237 OA
ATOM     70  O   UNL     1      -9.024 -16.889  -0.044  1.00  0.00    -0.744 OA
ENDBRANCH  66  67
ENDBRANCH  45  59
BRANCH  46  71
ATOM     71  C   UNL     1     -13.468  -3.237  -4.633  1.00  0.00     0.058 A 
ATOM     72  C   UNL     1     -14.146  -2.296  -3.847  1.00  0.00     0.135 A 
ATOM     73  C   UNL     1     -13.237  -2.918  -5.981  1.00  0.00     0.135 A 
ATOM     74  F   UNL     1     -14.398  -2.558  -2.555  1.00  0.00    -0.206 F 
ATOM     75  C   UNL     1     -14.589  -1.088  -4.376  1.00  0.00     0.059 A 
ATOM     76  C   UNL     1     -13.648  -1.708  -6.528  1.00  0.00     0.059 A 
ATOM     77  F   UNL     1     -12.581  -3.781  -6.773  1.00  0.00    -0.206 F 
ATOM     78  C   UNL     1     -14.333  -0.802  -5.719  1.00  0.00     0.060 A 
BRANCH  78  79
ATOM     79  S   UNL     1     -14.864   0.789  -6.389  1.00  0.00     0.124 S 
ATOM     80  O   UNL     1     -16.293   0.566  -6.577  1.00  0.00    -0.237 OA
ATOM     81  O   UNL     1     -14.498   1.714  -5.320  1.00  0.00    -0.237 OA
ATOM     82  O   UNL     1     -14.077   0.915  -7.612  1.00  0.00    -0.744 OA
ENDBRANCH  78  79
ENDBRANCH  46  71
BRANCH  58  83
ATOM     83  C   UNL     1     -16.674  -9.019  -2.443  1.00  0.00     0.058 A 
ATOM     84  C   UNL     1     -17.403  -9.349  -3.595  1.00  0.00     0.135 A 
ATOM     85  C   UNL     1     -17.337  -9.067  -1.206  1.00  0.00     0.135 A 
ATOM     86  F   UNL     1     -16.814  -9.312  -4.801  1.00  0.00    -0.206 F 
ATOM     87  C   UNL     1     -18.752  -9.683  -3.529  1.00  0.00     0.059 A 
ATOM     88  C   UNL     1     -18.678  -9.420  -1.114  1.00  0.00     0.059 A 
ATOM     89  F   UNL     1     -16.679  -8.770  -0.074  1.00  0.00    -0.206 F 
ATOM     90  C   UNL     1     -19.382  -9.709  -2.283  1.00  0.00     0.060 A 
BRANCH  90  91
ATOM     91  S   UNL     1     -21.131 -10.148  -2.203  1.00  0.00     0.124 S 
ATOM     92  O   UNL     1     -21.765  -8.899  -2.611  1.00  0.00    -0.237 OA
ATOM     93  O   UNL     1     -21.225 -11.249  -3.156  1.00  0.00    -0.237 OA
ATOM     94  O   UNL     1     -21.320 -10.522  -0.804  1.00  0.00    -0.744 OA
ENDBRANCH  90  91
ENDBRANCH  58  83
ENDBRANCH  32  33
ENDBRANCH  25  27
ENDBRANCH  24  25
ENDBRANCH  23  24
ENDBRANCH   1  23
TORSDOF 17
