REMARK SMILES Cc1ccc(-c2cc(Cl)cc3c2O[C@H](C(F)(F)F)C(C(=O)OCCOC(=O)c2ccc(-c4c5nc(c(-c6c(F)cc(S(=O)(=O)[O-])cc6F)c6ccc([nH]6)c(-c6c(F)cc(S(=O)(=O)[O-])cc6F)c6nc(c(-c7c(F)cc(S(=O)(=O)[O-])cc7F)c7ccc4[nH]7)C=C6)C=C5)cc2)=C3)cc1F
REMARK SMILES IDX 24 1 23 2 22 3 20 4 21 5 19 6 6 7 7 8 12 9 8 10 11 11 13 12
REMARK SMILES IDX 9 13 10 14 94 15 14 16 5 17 1 18 2 19 3 20 96 21 4 22 95 23
REMARK SMILES IDX 97 24 15 25 16 26 17 27 18 28 25 29 26 30 27 31 28 32 29 33
REMARK SMILES IDX 93 34 30 35 92 36 31 37 32 38 33 39 86 40 34 41 91 42 85 43
REMARK SMILES IDX 87 44 35 45 90 46 84 47 83 48 36 50 70 51 49 52 69 53 50 54
REMARK SMILES IDX 53 55 68 56 88 57 51 58 52 59 67 61 89 62 54 63 37 64 38 65
REMARK SMILES IDX 47 66 39 67 40 68 46 69 48 70 41 71 42 72 43 73 44 74 45 75
REMARK SMILES IDX 71 76 72 77 81 78 73 79 74 80 80 81 82 82 75 83 76 84 77 85
REMARK SMILES IDX 78 86 79 87 55 88 56 89 65 90 57 91 58 92 64 93 66 94 59 95
REMARK SMILES IDX 60 96 61 97 62 98 63 99
REMARK H PARENT 87 49 53 60
REMARK Flexibility Score: inf
ROOT
ATOM      1  C   UNL     1      -4.631  -6.396   7.803  1.00  0.00     0.275 C 
ENDROOT
BRANCH   1   2
ATOM      2  C   UNL     1      -2.805  -6.083   7.386  1.00  0.00     0.275 C 
BRANCH   2   3
ATOM      3  O   UNL     1      -2.010  -5.285   5.977  1.00  0.00    -0.459 OA
BRANCH   3   4
ATOM      4  C   UNL     1      -1.699  -5.366   4.590  1.00  0.00     0.338 C 
ATOM      5  O   UNL     1      -0.973  -6.256   4.133  1.00  0.00    -0.246 OA
BRANCH   4   6
ATOM      6  C   UNL     1      -2.159  -4.355   3.529  1.00  0.00     0.087 C 
ATOM      7  C   UNL     1      -2.636  -1.650   0.240  1.00  0.00     0.026 A 
ATOM      8  C   UNL     1      -3.701  -1.798  -0.659  1.00  0.00     0.033 A 
ATOM      9  C   UNL     1      -2.555  -2.510   1.371  1.00  0.00     0.135 A 
ATOM     10  C   UNL     1      -4.649  -2.795  -0.438  1.00  0.00     0.042 A 
ATOM     11  C   UNL     1      -3.443  -3.563   1.548  1.00  0.00     0.019 A 
ATOM     12  O   UNL     1      -1.600  -2.220   2.314  1.00  0.00    -0.475 OA
ATOM     13  Cl  UNL     1      -5.974  -2.944  -1.534  1.00  0.00    -0.084 Cl
ATOM     14  C   UNL     1      -4.516  -3.683   0.641  1.00  0.00     0.032 A 
ATOM     15  C   UNL     1      -3.195  -4.507   2.660  1.00  0.00     0.027 C 
ATOM     16  C   UNL     1      -1.181  -3.252   3.255  1.00  0.00     0.316 C 
BRANCH   7  17
ATOM     17  C   UNL     1      -1.562  -0.681  -0.023  1.00  0.00    -0.012 A 
ATOM     18  C   UNL     1       1.788   2.026  -0.061  1.00  0.00     0.047 C 
ATOM     19  C   UNL     1       0.606   1.113  -0.148  1.00  0.00    -0.015 A 
ATOM     20  C   UNL     1      -0.707   1.595  -0.093  1.00  0.00     0.007 A 
ATOM     21  C   UNL     1       0.814  -0.263  -0.220  1.00  0.00     0.126 A 
ATOM     22  C   UNL     1      -1.786   0.703  -0.037  1.00  0.00     0.009 A 
ATOM     23  C   UNL     1      -0.249  -1.151  -0.177  1.00  0.00     0.048 A 
ATOM     24  F   UNL     1       2.063  -0.748  -0.286  1.00  0.00    -0.207 F 
ENDBRANCH   7  17
BRANCH  16  25
ATOM     25  C   UNL     1       0.151  -3.813   2.750  1.00  0.00     0.430 C 
ATOM     26  F   UNL     1       0.987  -2.810   2.372  1.00  0.00    -0.167 F 
ATOM     27  F   UNL     1       0.818  -4.503   3.701  1.00  0.00    -0.167 F 
ATOM     28  F   UNL     1      -0.001  -4.616   1.669  1.00  0.00    -0.167 F 
ENDBRANCH  16  25
ENDBRANCH   4   6
ENDBRANCH   3   4
ENDBRANCH   2   3
ENDBRANCH   1   2
BRANCH   1  29
ATOM     29  O   UNL     1      -6.236  -6.468   7.071  1.00  0.00    -0.458 OA
BRANCH  29  30
ATOM     30  C   UNL     1      -6.888  -5.956   5.864  1.00  0.00     0.338 C 
ATOM     31  O   UNL     1      -6.194  -5.550   4.919  1.00  0.00    -0.246 OA
BRANCH  30  32
ATOM     32  C   UNL     1      -8.221  -6.192   5.121  1.00  0.00     0.060 A 
ATOM     33  C   UNL     1      -8.358  -7.515   4.678  1.00  0.00     0.016 A 
ATOM     34  C   UNL     1      -8.273  -5.255   4.026  1.00  0.00     0.016 A 
ATOM     35  C   UNL     1      -7.846  -7.895   3.398  1.00  0.00     0.010 A 
ATOM     36  C   UNL     1      -7.653  -5.613   2.788  1.00  0.00     0.010 A 
ATOM     37  C   UNL     1      -7.308  -6.940   2.521  1.00  0.00    -0.014 A 
BRANCH  37  38
ATOM     38  C   UNL     1      -6.457  -7.281   1.343  1.00  0.00     0.031 A 
ATOM     39  C   UNL     1      -7.152  -7.368   0.051  1.00  0.00     0.074 A 
ATOM     40  C   UNL     1      -5.137  -7.626   1.327  1.00  0.00     0.049 A 
ATOM     41  N   UNL     1      -7.120  -8.389  -0.732  1.00  0.00    -0.248 NA
ATOM     42  C   UNL     1      -7.986  -6.277  -0.431  1.00  0.00     0.031 C 
ATOM     43  C   UNL     1      -4.309  -8.095   0.199  1.00  0.00     0.029 A 
ATOM     44  N   UNL     1      -4.290  -7.840   2.401  1.00  0.00    -0.354 N 
ATOM     45  C   UNL     1      -7.692  -7.991  -1.921  1.00  0.00     0.074 A 
ATOM     46  C   UNL     1      -8.337  -6.731  -1.636  1.00  0.00     0.031 C 
ATOM     47  C   UNL     1      -3.302  -8.858   0.675  1.00  0.00     0.029 A 
ATOM     48  C   UNL     1      -3.462  -8.934   2.109  1.00  0.00     0.049 A 
ATOM     49  H   UNL     1      -4.271  -7.312   3.232  1.00  0.00     0.167 HD
ATOM     50  C   UNL     1      -7.410  -8.654  -3.077  1.00  0.00     0.037 A 
ATOM     51  C   UNL     1      -3.501 -10.037   2.908  1.00  0.00     0.037 A 
ATOM     52  C   UNL     1      -6.383  -9.665  -2.844  1.00  0.00     0.049 A 
ATOM     53  C   UNL     1      -3.990 -11.233   2.139  1.00  0.00     0.074 A 
ATOM     54  C   UNL     1      -5.007  -9.624  -3.004  1.00  0.00     0.029 A 
ATOM     55  N   UNL     1      -6.654 -10.758  -2.033  1.00  0.00    -0.354 N 
ATOM     56  N   UNL     1      -4.656 -11.116   1.023  1.00  0.00    -0.248 NA
ATOM     57  C   UNL     1      -3.734 -12.629   2.486  1.00  0.00     0.031 C 
ATOM     58  C   UNL     1      -4.443 -10.653  -2.212  1.00  0.00     0.029 A 
ATOM     59  C   UNL     1      -5.476 -11.336  -1.593  1.00  0.00     0.049 A 
ATOM     60  H   UNL     1      -7.556 -11.077  -1.802  1.00  0.00     0.167 HD
ATOM     61  C   UNL     1      -4.874 -12.350   0.479  1.00  0.00     0.074 A 
ATOM     62  C   UNL     1      -4.291 -13.269   1.439  1.00  0.00     0.031 C 
ATOM     63  C   UNL     1      -5.494 -12.506  -0.727  1.00  0.00     0.037 A 
BRANCH  50  64
ATOM     64  C   UNL     1      -7.826  -8.161  -4.444  1.00  0.00     0.058 A 
ATOM     65  C   UNL     1      -7.010  -8.365  -5.577  1.00  0.00     0.135 A 
ATOM     66  C   UNL     1      -9.041  -7.490  -4.700  1.00  0.00     0.135 A 
ATOM     67  F   UNL     1      -5.852  -9.033  -5.497  1.00  0.00    -0.206 F 
ATOM     68  C   UNL     1      -7.343  -7.896  -6.848  1.00  0.00     0.059 A 
ATOM     69  C   UNL     1      -9.373  -6.965  -5.955  1.00  0.00     0.059 A 
ATOM     70  F   UNL     1      -9.973  -7.358  -3.744  1.00  0.00    -0.206 F 
ATOM     71  C   UNL     1      -8.522  -7.186  -7.028  1.00  0.00     0.060 A 
BRANCH  71  72
ATOM     72  S   UNL     1      -8.938  -6.612  -8.687  1.00  0.00     0.124 S 
ATOM     73  O   UNL     1      -7.742  -5.869  -9.069  1.00  0.00    -0.237 OA
ATOM     74  O   UNL     1      -9.155  -7.870  -9.393  1.00  0.00    -0.237 OA
ATOM     75  O   UNL     1     -10.132  -5.799  -8.477  1.00  0.00    -0.744 OA
ENDBRANCH  71  72
ENDBRANCH  50  64
BRANCH  51  76
ATOM     76  C   UNL     1      -3.722  -9.660   4.348  1.00  0.00     0.058 A 
ATOM     77  C   UNL     1      -2.716  -8.907   4.902  1.00  0.00     0.135 A 
ATOM     78  C   UNL     1      -4.930  -9.153   4.740  1.00  0.00     0.135 A 
ATOM     79  F   UNL     1      -1.465  -9.400   4.916  1.00  0.00    -0.206 F 
ATOM     80  C   UNL     1      -2.909  -7.538   5.341  1.00  0.00     0.059 A 
ATOM     81  C   UNL     1      -5.081  -7.769   5.181  1.00  0.00     0.059 A 
ATOM     82  F   UNL     1      -6.035  -9.905   4.604  1.00  0.00    -0.206 F 
ATOM     83  C   UNL     1      -4.104  -6.717   5.330  1.00  0.00     0.060 A 
BRANCH  83  84
ATOM     84  S   UNL     1      -4.415  -4.473   5.904  1.00  0.00     0.124 S 
ATOM     85  O   UNL     1      -3.356  -3.905   6.747  1.00  0.00    -0.237 OA
ATOM     86  O   UNL     1      -4.502  -3.780   4.629  1.00  0.00    -0.237 OA
ATOM     87  O   UNL     1      -5.602  -4.260   6.747  1.00  0.00    -0.744 OA
ENDBRANCH  83  84
ENDBRANCH  51  76
BRANCH  63  88
ATOM     88  C   UNL     1      -6.091 -13.786  -1.252  1.00  0.00     0.058 A 
ATOM     89  C   UNL     1      -6.549 -14.822  -0.422  1.00  0.00     0.135 A 
ATOM     90  C   UNL     1      -6.397 -13.924  -2.630  1.00  0.00     0.135 A 
ATOM     91  F   UNL     1      -6.419 -14.765   0.911  1.00  0.00    -0.206 F 
ATOM     92  C   UNL     1      -7.211 -15.939  -0.925  1.00  0.00     0.059 A 
ATOM     93  C   UNL     1      -7.121 -14.994  -3.141  1.00  0.00     0.059 A 
ATOM     94  F   UNL     1      -6.021 -13.004  -3.531  1.00  0.00    -0.206 F 
ATOM     95  C   UNL     1      -7.500 -16.012  -2.284  1.00  0.00     0.060 A 
BRANCH  95  96
ATOM     96  S   UNL     1      -8.417 -17.429  -2.904  1.00  0.00     0.124 S 
ATOM     97  O   UNL     1      -7.356 -18.415  -3.056  1.00  0.00    -0.237 OA
ATOM     98  O   UNL     1      -9.373 -17.683  -1.835  1.00  0.00    -0.237 OA
ATOM     99  O   UNL     1      -9.002 -16.931  -4.153  1.00  0.00    -0.744 OA
ENDBRANCH  95  96
ENDBRANCH  63  88
ENDBRANCH  37  38
ENDBRANCH  30  32
ENDBRANCH  29  30
ENDBRANCH   1  29
TORSDOF 16
