REMARK SMILES O=C(OCCOC(=O)[C@@H]1CCCC[C@@H]1C(=O)Nc1cc(C(F)(F)F)cc(C(F)(F)F)c1)c1ccc(-c2c3nc(c(-c4c(F)cc(S(=O)(=O)[O-])cc4F)c4ccc([nH]4)c(-c4c(F)cc(S(=O)(=O)[O-])cc4F)c4nc(c(-c5c(F)cc(S(=O)(=O)[O-])cc5F)c5ccc2[nH]5)C=C4)C=C3)cc1
REMARK SMILES IDX 4 1 3 2 2 3 1 4 32 5 33 6 97 7 34 8 96 9 35 10 36 11 37 12
REMARK SMILES IDX 90 13 38 14 95 15 89 16 91 17 39 18 94 19 88 20 87 21 40 23
REMARK SMILES IDX 74 24 53 25 73 26 54 27 57 28 72 29 92 30 55 31 56 32 71 34
REMARK SMILES IDX 93 35 58 36 41 37 42 38 51 39 43 40 44 41 50 42 52 43 45 44
REMARK SMILES IDX 46 45 47 46 48 47 49 48 75 49 76 50 85 51 77 52 78 53 84 54
REMARK SMILES IDX 86 55 79 56 80 57 81 58 82 59 83 60 59 61 60 62 69 63 61 64
REMARK SMILES IDX 62 65 68 66 70 67 63 68 64 69 65 70 66 71 67 72 5 73 6 74
REMARK SMILES IDX 7 75 8 76 9 77 10 78 14 79 11 80 13 81 12 82 15 83 16 84
REMARK SMILES IDX 17 85 18 87 19 88 31 89 20 90 26 91 25 92 21 93 22 94 23 95
REMARK SMILES IDX 24 96 27 97 28 98 29 99 30 100
REMARK H PARENT 91 22 57 33 17 86
REMARK Flexibility Score: inf
ROOT
ATOM      1  C   UNL     1       4.189   0.736   1.383  1.00  0.00     0.275 C 
ENDROOT
BRANCH   1   2
ATOM      2  O   UNL     1       3.178   1.013   0.395  1.00  0.00    -0.458 OA
BRANCH   2   3
ATOM      3  C   UNL     1       3.262   0.865  -0.952  1.00  0.00     0.338 C 
ATOM      4  O   UNL     1       2.546   1.565  -1.667  1.00  0.00    -0.246 OA
BRANCH   3   5
ATOM      5  C   UNL     1       4.001  -0.270  -1.599  1.00  0.00     0.060 A 
ATOM      6  C   UNL     1       5.197  -0.850  -1.162  1.00  0.00     0.016 A 
ATOM      7  C   UNL     1       3.390  -0.824  -2.739  1.00  0.00     0.016 A 
ATOM      8  C   UNL     1       5.721  -1.998  -1.778  1.00  0.00     0.010 A 
ATOM      9  C   UNL     1       3.897  -1.981  -3.342  1.00  0.00     0.010 A 
ATOM     10  C   UNL     1       5.067  -2.587  -2.858  1.00  0.00    -0.014 A 
BRANCH  10  11
ATOM     11  C   UNL     1       5.643  -3.752  -3.580  1.00  0.00     0.031 A 
ATOM     12  C   UNL     1       6.202  -3.512  -4.953  1.00  0.00     0.074 A 
ATOM     13  C   UNL     1       5.630  -4.999  -3.061  1.00  0.00     0.049 A 
ATOM     14  N   UNL     1       6.685  -4.373  -5.805  1.00  0.00    -0.248 NA
ATOM     15  C   UNL     1       6.254  -2.112  -5.414  1.00  0.00     0.031 C 
ATOM     16  C   UNL     1       5.218  -5.354  -1.706  1.00  0.00     0.029 A 
ATOM     17  N   UNL     1       5.919  -6.216  -3.631  1.00  0.00    -0.354 N 
ATOM     18  C   UNL     1       7.149  -3.617  -6.872  1.00  0.00     0.074 A 
ATOM     19  C   UNL     1       6.806  -2.239  -6.610  1.00  0.00     0.031 C 
ATOM     20  C   UNL     1       5.124  -6.692  -1.596  1.00  0.00     0.029 A 
ATOM     21  C   UNL     1       5.528  -7.293  -2.860  1.00  0.00     0.049 A 
ATOM     22  H   UNL     1       6.361  -6.311  -4.506  1.00  0.00     0.167 HD
ATOM     23  C   UNL     1       7.854  -4.035  -7.946  1.00  0.00     0.037 A 
ATOM     24  C   UNL     1       5.486  -8.609  -3.154  1.00  0.00     0.037 A 
ATOM     25  C   UNL     1       8.184  -5.410  -8.191  1.00  0.00     0.049 A 
ATOM     26  C   UNL     1       6.075  -9.059  -4.466  1.00  0.00     0.074 A 
ATOM     27  C   UNL     1       8.967  -5.942  -9.197  1.00  0.00     0.029 A 
ATOM     28  N   UNL     1       7.722  -6.474  -7.430  1.00  0.00    -0.354 N 
ATOM     29  N   UNL     1       6.629  -8.329  -5.405  1.00  0.00    -0.248 NA
ATOM     30  C   UNL     1       6.080 -10.502  -4.745  1.00  0.00     0.031 C 
ATOM     31  C   UNL     1       8.928  -7.336  -9.082  1.00  0.00     0.029 A 
ATOM     32  C   UNL     1       8.155  -7.667  -7.978  1.00  0.00     0.049 A 
ATOM     33  H   UNL     1       7.168  -6.392  -6.621  1.00  0.00     0.167 HD
ATOM     34  C   UNL     1       7.113  -9.227  -6.349  1.00  0.00     0.074 A 
ATOM     35  C   UNL     1       6.761 -10.552  -5.882  1.00  0.00     0.031 C 
ATOM     36  C   UNL     1       7.811  -8.976  -7.483  1.00  0.00     0.037 A 
BRANCH  23  37
ATOM     37  C   UNL     1       8.334  -2.991  -8.907  1.00  0.00     0.058 A 
ATOM     38  C   UNL     1       9.392  -2.130  -8.575  1.00  0.00     0.135 A 
ATOM     39  C   UNL     1       7.757  -2.869 -10.179  1.00  0.00     0.135 A 
ATOM     40  F   UNL     1       9.958  -2.190  -7.359  1.00  0.00    -0.206 F 
ATOM     41  C   UNL     1       9.859  -1.176  -9.471  1.00  0.00     0.059 A 
ATOM     42  C   UNL     1       8.221  -1.934 -11.099  1.00  0.00     0.059 A 
ATOM     43  F   UNL     1       6.732  -3.658 -10.534  1.00  0.00    -0.206 F 
ATOM     44  C   UNL     1       9.269  -1.089 -10.734  1.00  0.00     0.060 A 
BRANCH  44  45
ATOM     45  S   UNL     1       9.911   0.133 -11.896  1.00  0.00     0.124 S 
ATOM     46  O   UNL     1       9.430   1.378 -11.306  1.00  0.00    -0.237 OA
ATOM     47  O   UNL     1      11.351  -0.091 -11.818  1.00  0.00    -0.237 OA
ATOM     48  O   UNL     1       9.289  -0.243 -13.162  1.00  0.00    -0.744 OA
ENDBRANCH  44  45
ENDBRANCH  23  37
BRANCH  24  49
ATOM     49  C   UNL     1       4.852  -9.595  -2.230  1.00  0.00     0.058 A 
ATOM     50  C   UNL     1       5.594 -10.574  -1.554  1.00  0.00     0.135 A 
ATOM     51  C   UNL     1       3.457  -9.625  -2.073  1.00  0.00     0.135 A 
ATOM     52  F   UNL     1       6.930 -10.599  -1.672  1.00  0.00    -0.206 F 
ATOM     53  C   UNL     1       4.976 -11.567  -0.794  1.00  0.00     0.059 A 
ATOM     54  C   UNL     1       2.815 -10.597  -1.310  1.00  0.00     0.059 A 
ATOM     55  F   UNL     1       2.698  -8.700  -2.676  1.00  0.00    -0.206 F 
ATOM     56  C   UNL     1       3.584 -11.576  -0.687  1.00  0.00     0.060 A 
BRANCH  56  57
ATOM     57  S   UNL     1       2.790 -12.880   0.281  1.00  0.00     0.124 S 
ATOM     58  O   UNL     1       3.033 -14.054  -0.548  1.00  0.00    -0.237 OA
ATOM     59  O   UNL     1       3.531 -12.819   1.537  1.00  0.00    -0.237 OA
ATOM     60  O   UNL     1       1.400 -12.440   0.361  1.00  0.00    -0.744 OA
ENDBRANCH  56  57
ENDBRANCH  24  49
BRANCH  36  61
ATOM     61  C   UNL     1       8.293 -10.155  -8.273  1.00  0.00     0.058 A 
ATOM     62  C   UNL     1       7.422 -10.911  -9.070  1.00  0.00     0.135 A 
ATOM     63  C   UNL     1       9.660 -10.476  -8.297  1.00  0.00     0.135 A 
ATOM     64  F   UNL     1       6.105 -10.649  -9.069  1.00  0.00    -0.206 F 
ATOM     65  C   UNL     1       7.890 -11.950  -9.866  1.00  0.00     0.059 A 
ATOM     66  C   UNL     1      10.154 -11.493  -9.106  1.00  0.00     0.059 A 
ATOM     67  F   UNL     1      10.533  -9.776  -7.555  1.00  0.00    -0.206 F 
ATOM     68  C   UNL     1       9.259 -12.227  -9.883  1.00  0.00     0.060 A 
BRANCH  68  69
ATOM     69  S   UNL     1       9.863 -13.529 -10.976  1.00  0.00     0.124 S 
ATOM     70  O   UNL     1       9.446 -14.730 -10.261  1.00  0.00    -0.237 OA
ATOM     71  O   UNL     1       9.150 -13.250 -12.219  1.00  0.00    -0.237 OA
ATOM     72  O   UNL     1      11.303 -13.292 -11.022  1.00  0.00    -0.744 OA
ENDBRANCH  68  69
ENDBRANCH  36  61
ENDBRANCH  10  11
ENDBRANCH   3   5
ENDBRANCH   2   3
ENDBRANCH   1   2
BRANCH   1  73
ATOM     73  C   UNL     1       3.933  -0.561   2.158  1.00  0.00     0.274 C 
BRANCH  73  74
ATOM     74  O   UNL     1       3.503  -1.610   1.283  1.00  0.00    -0.462 OA
BRANCH  74  75
ATOM     75  C   UNL     1       2.175  -1.933   1.324  1.00  0.00     0.309 C 
ATOM     76  O   UNL     1       1.378  -1.576   2.187  1.00  0.00    -0.252 OA
BRANCH  75  77
ATOM     77  C   UNL     1       1.802  -2.634   0.036  1.00  0.00     0.111 C 
ATOM     78  C   UNL     1       0.371  -2.360  -0.413  1.00  0.00     0.016 C 
ATOM     79  C   UNL     1       2.193  -4.107  -0.082  1.00  0.00     0.093 C 
ATOM     80  C   UNL     1       0.245  -2.669  -1.900  1.00  0.00     0.001 C 
ATOM     81  C   UNL     1       1.979  -4.555  -1.532  1.00  0.00     0.014 C 
ATOM     82  C   UNL     1       0.704  -4.078  -2.237  1.00  0.00     0.001 C 
BRANCH  79  83
ATOM     83  C   UNL     1       1.782  -4.945   1.139  1.00  0.00     0.228 C 
ATOM     84  O   UNL     1       2.427  -4.783   2.187  1.00  0.00    -0.274 OA
ATOM     85  N   UNL     1       0.682  -5.735   1.240  1.00  0.00    -0.326 N 
ATOM     86  H   UNL     1       0.489  -6.044   2.154  1.00  0.00     0.169 HD
BRANCH  85  87
ATOM     87  C   UNL     1      -0.219  -6.184   0.282  1.00  0.00     0.042 A 
ATOM     88  C   UNL     1      -1.553  -5.807   0.429  1.00  0.00     0.039 A 
ATOM     89  C   UNL     1       0.173  -6.968  -0.803  1.00  0.00     0.039 A 
ATOM     90  C   UNL     1      -2.478  -6.068  -0.591  1.00  0.00     0.058 A 
ATOM     91  C   UNL     1      -0.723  -7.204  -1.860  1.00  0.00     0.058 A 
ATOM     92  C   UNL     1      -2.053  -6.763  -1.734  1.00  0.00     0.026 A 
BRANCH  90  93
ATOM     93  C   UNL     1      -3.868  -5.495  -0.491  1.00  0.00     0.416 C 
ATOM     94  F   UNL     1      -4.537  -5.924   0.614  1.00  0.00    -0.166 F 
ATOM     95  F   UNL     1      -3.856  -4.133  -0.412  1.00  0.00    -0.166 F 
ATOM     96  F   UNL     1      -4.663  -5.795  -1.554  1.00  0.00    -0.166 F 
ENDBRANCH  90  93
BRANCH  91  97
ATOM     97  C   UNL     1      -0.221  -7.761  -3.176  1.00  0.00     0.416 C 
ATOM     98  F   UNL     1      -0.047  -9.104  -3.163  1.00  0.00    -0.166 F 
ATOM     99  F   UNL     1      -1.076  -7.498  -4.208  1.00  0.00    -0.166 F 
ATOM    100  F   UNL     1       0.962  -7.202  -3.551  1.00  0.00    -0.166 F 
ENDBRANCH  91  97
ENDBRANCH  85  87
ENDBRANCH  79  83
ENDBRANCH  75  77
ENDBRANCH  74  75
ENDBRANCH  73  74
ENDBRANCH   1  73
TORSDOF 18
