REMARK SMILES CC[C@@H](Sc1nnc2ccc3ccccc3n12)C(=O)Nc1cccc(C(=O)OCCOC(=O)c2ccc(-c3c4nc(c(-c5c(F)cc(S(=O)(=O)[O-])cc5F)c5ccc([nH]5)c(-c5c(F)cc(S(=O)(=O)[O-])cc5F)c5nc(c(-c6c(F)cc(S(=O)(=O)[O-])cc6F)c6ccc3[nH]6)C=C5)C=C4)cc2)c1
REMARK SMILES IDX 29 1 28 2 26 3 27 4 25 5 21 6 22 7 100 8 23 9 24 10 20 11
REMARK SMILES IDX 18 12 19 13 3 15 2 16 1 17 4 18 5 19 6 20 17 21 7 22 8 23
REMARK SMILES IDX 16 24 9 25 11 26 15 27 10 28 12 29 14 30 13 31 30 32 31 33
REMARK SMILES IDX 32 34 33 35 34 36 35 37 99 38 36 39 98 40 37 41 38 42 39 43
REMARK SMILES IDX 92 44 40 45 97 46 91 47 93 48 41 49 96 50 90 51 89 52 42 54
REMARK SMILES IDX 76 55 55 56 75 57 56 58 59 59 74 60 94 61 57 62 58 63 73 65
REMARK SMILES IDX 95 66 60 67 43 68 44 69 53 70 45 71 46 72 52 73 54 74 47 75
REMARK SMILES IDX 48 76 49 77 50 78 51 79 77 80 78 81 87 82 79 83 80 84 86 85
REMARK SMILES IDX 88 86 81 87 82 88 83 89 84 90 85 91 61 92 62 93 71 94 63 95
REMARK SMILES IDX 64 96 70 97 72 98 65 99 66 100 67 101 68 102 69 103
REMARK H PARENT 20 14 93 53 59 64
REMARK Flexibility Score: inf
ROOT
ATOM      1  C   UNL     1      -5.404   4.771  -3.758  1.00  0.00     0.275 C 
ENDROOT
BRANCH   1   2
ATOM      2  O   UNL     1      -4.389   4.532  -2.750  1.00  0.00    -0.458 OA
BRANCH   2   3
ATOM      3  C   UNL     1      -4.829   3.919  -1.624  1.00  0.00     0.338 C 
ATOM      4  O   UNL     1      -5.975   3.549  -1.420  1.00  0.00    -0.246 OA
BRANCH   3   5
ATOM      5  C   UNL     1      -3.732   3.658  -0.649  1.00  0.00     0.062 A 
ATOM      6  C   UNL     1      -1.558   3.911   0.362  1.00  0.00     0.042 A 
ATOM      7  C   UNL     1      -1.816   2.867   1.255  1.00  0.00     0.026 A 
ATOM      8  C   UNL     1      -2.534   4.355  -0.551  1.00  0.00     0.041 A 
ATOM      9  C   UNL     1      -3.017   2.194   1.181  1.00  0.00     0.003 A 
ATOM     10  C   UNL     1      -3.941   2.590   0.219  1.00  0.00     0.016 A 
BRANCH   6  11
ATOM     11  N   UNL     1      -0.301   4.517   0.355  1.00  0.00    -0.325 N 
ATOM     12  C   UNL     1       0.938   3.946   0.207  1.00  0.00     0.237 C 
ATOM     13  O   UNL     1       1.914   4.669   0.456  1.00  0.00    -0.273 OA
ATOM     14  H   UNL     1      -0.304   5.495   0.472  1.00  0.00     0.169 HD
BRANCH  12  15
ATOM     15  C   UNL     1       1.181   2.489  -0.279  1.00  0.00     0.144 C 
BRANCH  15  16
ATOM     16  C   UNL     1       1.281   1.520   0.911  1.00  0.00     0.021 C 
ATOM     17  C   UNL     1       2.257   0.368   0.697  1.00  0.00     0.005 C 
ENDBRANCH  15  16
BRANCH  15  18
ATOM     18  S   UNL     1      -0.015   2.034  -1.601  1.00  0.00    -0.072 SA
BRANCH  18  19
ATOM     19  C   UNL     1       0.707   0.731  -2.461  1.00  0.00     0.196 A 
ATOM     20  N   UNL     1       1.509   0.930  -3.485  1.00  0.00    -0.122 NA
ATOM     21  N   UNL     1       0.446  -0.622  -2.314  1.00  0.00    -0.270 N 
ATOM     22  N   UNL     1       1.772  -0.282  -4.063  1.00  0.00    -0.129 NA
ATOM     23  C   UNL     1       1.136  -1.205  -3.374  1.00  0.00     0.161 A 
ATOM     24  C   UNL     1      -0.221  -1.399  -1.321  1.00  0.00     0.057 A 
ATOM     25  C   UNL     1       1.096  -2.608  -3.548  1.00  0.00     0.050 A 
ATOM     26  C   UNL     1      -0.095  -2.797  -1.431  1.00  0.00    -0.001 A 
ATOM     27  C   UNL     1      -0.892  -0.860  -0.226  1.00  0.00     0.027 A 
ATOM     28  C   UNL     1       0.520  -3.389  -2.624  1.00  0.00     0.014 A 
ATOM     29  C   UNL     1      -0.552  -3.619  -0.393  1.00  0.00     0.010 A 
ATOM     30  C   UNL     1      -1.325  -1.683   0.817  1.00  0.00     0.002 A 
ATOM     31  C   UNL     1      -1.135  -3.058   0.744  1.00  0.00     0.001 A 
ENDBRANCH  18  19
ENDBRANCH  15  18
ENDBRANCH  12  15
ENDBRANCH   6  11
ENDBRANCH   3   5
ENDBRANCH   2   3
ENDBRANCH   1   2
BRANCH   1  32
ATOM     32  C   UNL     1      -5.164   3.912  -5.004  1.00  0.00     0.275 C 
BRANCH  32  33
ATOM     33  O   UNL     1      -5.563   2.567  -4.714  1.00  0.00    -0.458 OA
BRANCH  33  34
ATOM     34  C   UNL     1      -4.566   1.647  -4.682  1.00  0.00     0.338 C 
ATOM     35  O   UNL     1      -3.494   1.701  -5.240  1.00  0.00    -0.246 OA
BRANCH  34  36
ATOM     36  C   UNL     1      -4.899   0.744  -3.562  1.00  0.00     0.060 A 
ATOM     37  C   UNL     1      -6.209   0.312  -3.314  1.00  0.00     0.016 A 
ATOM     38  C   UNL     1      -3.885   0.511  -2.638  1.00  0.00     0.016 A 
ATOM     39  C   UNL     1      -6.525  -0.268  -2.085  1.00  0.00     0.010 A 
ATOM     40  C   UNL     1      -4.214  -0.054  -1.416  1.00  0.00     0.010 A 
ATOM     41  C   UNL     1      -5.537  -0.399  -1.108  1.00  0.00    -0.014 A 
BRANCH  41  42
ATOM     42  C   UNL     1      -5.805  -1.102   0.153  1.00  0.00     0.031 A 
ATOM     43  C   UNL     1      -5.647  -2.573   0.044  1.00  0.00     0.074 A 
ATOM     44  C   UNL     1      -6.013  -0.569   1.381  1.00  0.00     0.049 A 
ATOM     45  N   UNL     1      -6.568  -3.452   0.258  1.00  0.00    -0.248 NA
ATOM     46  C   UNL     1      -4.378  -3.143  -0.426  1.00  0.00     0.031 C 
ATOM     47  C   UNL     1      -6.112   0.830   1.790  1.00  0.00     0.029 A 
ATOM     48  N   UNL     1      -6.096  -1.218   2.587  1.00  0.00    -0.354 N 
ATOM     49  C   UNL     1      -5.951  -4.686   0.142  1.00  0.00     0.074 A 
ATOM     50  C   UNL     1      -4.627  -4.450  -0.367  1.00  0.00     0.031 C 
ATOM     51  C   UNL     1      -5.935   0.947   3.128  1.00  0.00     0.029 A 
ATOM     52  C   UNL     1      -5.986  -0.385   3.698  1.00  0.00     0.049 A 
ATOM     53  H   UNL     1      -6.221  -2.192   2.661  1.00  0.00     0.167 HD
ATOM     54  C   UNL     1      -6.512  -5.806   0.658  1.00  0.00     0.037 A 
ATOM     55  C   UNL     1      -6.082  -0.719   5.007  1.00  0.00     0.037 A 
ATOM     56  C   UNL     1      -7.907  -5.627   0.949  1.00  0.00     0.049 A 
ATOM     57  C   UNL     1      -6.957  -1.907   5.069  1.00  0.00     0.074 A 
ATOM     58  C   UNL     1      -9.028  -5.360   0.190  1.00  0.00     0.029 A 
ATOM     59  N   UNL     1      -8.225  -5.315   2.246  1.00  0.00    -0.354 N 
ATOM     60  N   UNL     1      -8.222  -1.891   4.754  1.00  0.00    -0.248 NA
ATOM     61  C   UNL     1      -6.366  -3.227   5.230  1.00  0.00     0.031 C 
ATOM     62  C   UNL     1      -9.867  -4.551   1.011  1.00  0.00     0.029 A 
ATOM     63  C   UNL     1      -9.237  -4.384   2.244  1.00  0.00     0.049 A 
ATOM     64  H   UNL     1      -7.799  -5.695   3.047  1.00  0.00     0.167 HD
ATOM     65  C   UNL     1      -8.466  -3.154   4.256  1.00  0.00     0.074 A 
ATOM     66  C   UNL     1      -7.363  -3.970   4.745  1.00  0.00     0.031 C 
ATOM     67  C   UNL     1      -9.368  -3.350   3.254  1.00  0.00     0.037 A 
BRANCH  54  68
ATOM     68  C   UNL     1      -5.693  -6.931   1.210  1.00  0.00     0.058 A 
ATOM     69  C   UNL     1      -6.247  -8.213   1.347  1.00  0.00     0.135 A 
ATOM     70  C   UNL     1      -4.443  -6.716   1.837  1.00  0.00     0.135 A 
ATOM     71  F   UNL     1      -7.451  -8.493   0.824  1.00  0.00    -0.206 F 
ATOM     72  C   UNL     1      -5.604  -9.220   2.065  1.00  0.00     0.059 A 
ATOM     73  C   UNL     1      -3.764  -7.717   2.517  1.00  0.00     0.059 A 
ATOM     74  F   UNL     1      -3.878  -5.500   1.877  1.00  0.00    -0.206 F 
ATOM     75  C   UNL     1      -4.364  -8.960   2.648  1.00  0.00     0.060 A 
BRANCH  75  76
ATOM     76  S   UNL     1      -3.559 -10.246   3.620  1.00  0.00     0.124 S 
ATOM     77  O   UNL     1      -4.407 -10.288   4.805  1.00  0.00    -0.237 OA
ATOM     78  O   UNL     1      -3.645 -11.398   2.728  1.00  0.00    -0.237 OA
ATOM     79  O   UNL     1      -2.213  -9.717   3.821  1.00  0.00    -0.744 OA
ENDBRANCH  75  76
ENDBRANCH  54  68
BRANCH  55  80
ATOM     80  C   UNL     1      -5.417  -0.171   6.215  1.00  0.00     0.058 A 
ATOM     81  C   UNL     1      -5.901  -0.470   7.503  1.00  0.00     0.135 A 
ATOM     82  C   UNL     1      -4.114   0.358   6.143  1.00  0.00     0.135 A 
ATOM     83  F   UNL     1      -7.132  -0.977   7.662  1.00  0.00    -0.206 F 
ATOM     84  C   UNL     1      -5.107  -0.349   8.645  1.00  0.00     0.059 A 
ATOM     85  C   UNL     1      -3.304   0.495   7.273  1.00  0.00     0.059 A 
ATOM     86  F   UNL     1      -3.560   0.651   4.955  1.00  0.00    -0.206 F 
ATOM     87  C   UNL     1      -3.795   0.100   8.515  1.00  0.00     0.060 A 
BRANCH  87  88
ATOM     88  S   UNL     1      -2.700   0.015   9.955  1.00  0.00     0.124 S 
ATOM     89  O   UNL     1      -3.277   1.026  10.835  1.00  0.00    -0.237 OA
ATOM     90  O   UNL     1      -2.866  -1.371  10.381  1.00  0.00    -0.237 OA
ATOM     91  O   UNL     1      -1.389   0.341   9.401  1.00  0.00    -0.744 OA
ENDBRANCH  87  88
ENDBRANCH  55  80
BRANCH  67  92
ATOM     92  C   UNL     1     -10.442  -2.308   3.055  1.00  0.00     0.058 A 
ATOM     93  C   UNL     1     -10.222  -0.977   2.661  1.00  0.00     0.135 A 
ATOM     94  C   UNL     1     -11.779  -2.723   3.173  1.00  0.00     0.135 A 
ATOM     95  F   UNL     1      -8.983  -0.516   2.443  1.00  0.00    -0.206 F 
ATOM     96  C   UNL     1     -11.279  -0.093   2.425  1.00  0.00     0.059 A 
ATOM     97  C   UNL     1     -12.848  -1.869   2.912  1.00  0.00     0.059 A 
ATOM     98  F   UNL     1     -12.061  -3.994   3.504  1.00  0.00    -0.206 F 
ATOM     99  C   UNL     1     -12.591  -0.551   2.547  1.00  0.00     0.060 A 
BRANCH  99 100
ATOM    100  S   UNL     1     -13.956   0.565   2.152  1.00  0.00     0.124 S 
ATOM    101  O   UNL     1     -13.935   1.489   3.281  1.00  0.00    -0.237 OA
ATOM    102  O   UNL     1     -13.547   1.124   0.867  1.00  0.00    -0.237 OA
ATOM    103  O   UNL     1     -15.115  -0.322   2.093  1.00  0.00    -0.744 OA
ENDBRANCH  99 100
ENDBRANCH  67  92
ENDBRANCH  41  42
ENDBRANCH  34  36
ENDBRANCH  33  34
ENDBRANCH  32  33
ENDBRANCH   1  32
TORSDOF 19
