REMARK SMILES CCCC(=O)Nc1cccc(C(=O)N[C@@H](C(=O)OCCOC(=O)c2ccc(-c3c4nc(c(-c5c(F)cc(S(=O)(=O)[O-])cc5F)c5ccc([nH]5)c(-c5c(F)cc(S(=O)(=O)[O-])cc5F)c5nc(c(-c6c(F)cc(S(=O)(=O)[O-])cc6F)c6ccc3[nH]6)C=C5)C=C4)cc2)C2=C(C)N=N[C@@H]2C)c1
REMARK SMILES IDX 19 1 18 2 16 3 17 4 15 5 14 6 12 7 13 8 11 10 7 11 8 12
REMARK SMILES IDX 97 13 9 14 10 15 6 16 4 17 5 18 3 20 2 21 1 22 90 23 91 24
REMARK SMILES IDX 95 25 92 26 93 27 94 28 96 29 20 30 21 31 22 32 23 33 24 34
REMARK SMILES IDX 25 35 89 36 26 37 88 38 27 39 28 40 29 41 82 42 30 43 87 44
REMARK SMILES IDX 81 45 83 46 31 47 86 48 80 49 79 50 32 52 66 53 45 54 65 55
REMARK SMILES IDX 46 56 49 57 64 58 84 59 47 60 48 61 63 63 85 64 50 65 33 66
REMARK SMILES IDX 34 67 43 68 35 69 36 70 42 71 44 72 37 73 38 74 39 75 40 76
REMARK SMILES IDX 41 77 67 78 68 79 77 80 69 81 70 82 76 83 78 84 71 85 72 86
REMARK SMILES IDX 73 87 74 88 75 89 51 90 52 91 61 92 53 93 54 94 60 95 62 96
REMARK SMILES IDX 55 97 56 98 57 99 58 100 59 101
REMARK H PARENT 14 9 6 19 83 51 49 62
REMARK Flexibility Score: inf
ROOT
ATOM      1  C   UNL     1      -3.442  -1.383   1.491  1.00  0.00     0.274 C 
ENDROOT
BRANCH   1   2
ATOM      2  O   UNL     1      -2.019  -1.185   1.595  1.00  0.00    -0.460 OA
BRANCH   2   3
ATOM      3  C   UNL     1      -1.535   0.019   1.169  1.00  0.00     0.333 C 
ATOM      4  O   UNL     1      -2.240   0.917   0.725  1.00  0.00    -0.249 OA
BRANCH   3   5
ATOM      5  C   UNL     1       0.021   0.092   1.254  1.00  0.00     0.223 C 
BRANCH   5   6
ATOM      6  N   UNL     1       0.554  -1.176   1.759  1.00  0.00    -0.335 N 
ATOM      7  C   UNL     1       1.144  -2.236   1.110  1.00  0.00     0.252 C 
ATOM      8  O   UNL     1       1.353  -3.279   1.723  1.00  0.00    -0.269 OA
ATOM      9  H   UNL     1       0.476  -1.289   2.734  1.00  0.00     0.165 HD
BRANCH   7  10
ATOM     10  C   UNL     1       1.635  -2.120  -0.284  1.00  0.00     0.041 A 
ATOM     11  C   UNL     1       1.531  -1.120  -2.465  1.00  0.00     0.041 A 
ATOM     12  C   UNL     1       2.841  -1.521  -2.727  1.00  0.00     0.026 A 
ATOM     13  C   UNL     1       0.886  -1.528  -1.299  1.00  0.00     0.040 A 
ATOM     14  C   UNL     1       3.530  -2.287  -1.787  1.00  0.00     0.003 A 
ATOM     15  C   UNL     1       2.940  -2.557  -0.551  1.00  0.00     0.014 A 
BRANCH  11  16
ATOM     16  N   UNL     1       0.839  -0.241  -3.301  1.00  0.00    -0.326 N 
ATOM     17  C   UNL     1       1.162   1.065  -3.569  1.00  0.00     0.224 C 
ATOM     18  O   UNL     1       0.344   1.745  -4.193  1.00  0.00    -0.275 OA
ATOM     19  H   UNL     1       0.035  -0.596  -3.744  1.00  0.00     0.169 HD
BRANCH  17  20
ATOM     20  C   UNL     1       2.437   1.689  -3.017  1.00  0.00     0.100 C 
BRANCH  20  21
ATOM     21  C   UNL     1       2.310   2.079  -1.543  1.00  0.00     0.006 C 
ATOM     22  C   UNL     1       3.390   1.484  -0.651  1.00  0.00     0.004 C 
ENDBRANCH  20  21
ENDBRANCH  17  20
ENDBRANCH  11  16
ENDBRANCH   7  10
ENDBRANCH   5   6
BRANCH   5  23
ATOM     23  C   UNL     1       0.538   1.272   2.008  1.00  0.00     0.012 C 
ATOM     24  C   UNL     1       0.434   2.575   1.691  1.00  0.00     0.064 C 
ATOM     25  C   UNL     1       1.273   1.260   3.311  1.00  0.00     0.156 C 
ATOM     26  C   UNL     1      -0.262   3.240   0.548  1.00  0.00     0.069 C 
ATOM     27  N   UNL     1       1.032   3.389   2.618  1.00  0.00    -0.160 NA
ATOM     28  N   UNL     1       1.475   2.710   3.578  1.00  0.00    -0.181 NA
ATOM     29  C   UNL     1       2.657   0.623   3.307  1.00  0.00     0.040 C 
ENDBRANCH   5  23
ENDBRANCH   3   5
ENDBRANCH   2   3
ENDBRANCH   1   2
BRANCH   1  30
ATOM     30  C   UNL     1      -4.112  -1.229   2.853  1.00  0.00     0.275 C 
BRANCH  30  31
ATOM     31  O   UNL     1      -3.945   0.119   3.326  1.00  0.00    -0.458 OA
BRANCH  31  32
ATOM     32  C   UNL     1      -3.273   0.253   4.491  1.00  0.00     0.338 C 
ATOM     33  O   UNL     1      -2.841  -0.648   5.199  1.00  0.00    -0.246 OA
BRANCH  32  34
ATOM     34  C   UNL     1      -3.039   1.675   4.793  1.00  0.00     0.060 A 
ATOM     35  C   UNL     1      -2.368   2.462   3.867  1.00  0.00     0.016 A 
ATOM     36  C   UNL     1      -3.297   2.177   6.068  1.00  0.00     0.016 A 
ATOM     37  C   UNL     1      -1.816   3.680   4.264  1.00  0.00     0.010 A 
ATOM     38  C   UNL     1      -2.829   3.452   6.424  1.00  0.00     0.010 A 
ATOM     39  C   UNL     1      -2.003   4.188   5.554  1.00  0.00    -0.014 A 
BRANCH  39  40
ATOM     40  C   UNL     1      -1.211   5.372   6.035  1.00  0.00     0.031 A 
ATOM     41  C   UNL     1      -0.425   5.267   7.325  1.00  0.00     0.074 A 
ATOM     42  C   UNL     1      -1.084   6.510   5.319  1.00  0.00     0.049 A 
ATOM     43  N   UNL     1       0.094   6.215   8.064  1.00  0.00    -0.248 NA
ATOM     44  C   UNL     1      -0.219   3.914   7.867  1.00  0.00     0.031 C 
ATOM     45  C   UNL     1      -1.663   6.768   4.000  1.00  0.00     0.029 A 
ATOM     46  N   UNL     1      -0.380   7.662   5.593  1.00  0.00    -0.354 N 
ATOM     47  C   UNL     1       0.569   5.587   9.212  1.00  0.00     0.074 A 
ATOM     48  C   UNL     1       0.307   4.173   9.055  1.00  0.00     0.031 C 
ATOM     49  C   UNL     1      -1.209   7.945   3.540  1.00  0.00     0.029 A 
ATOM     50  C   UNL     1      -0.415   8.591   4.579  1.00  0.00     0.049 A 
ATOM     51  H   UNL     1       0.104   7.807   6.438  1.00  0.00     0.167 HD
ATOM     52  C   UNL     1       1.154   6.141  10.302  1.00  0.00     0.037 A 
ATOM     53  C   UNL     1       0.093   9.837   4.503  1.00  0.00     0.037 A 
ATOM     54  C   UNL     1       1.544   7.523  10.398  1.00  0.00     0.049 A 
ATOM     55  C   UNL     1       0.773  10.435   5.704  1.00  0.00     0.074 A 
ATOM     56  C   UNL     1       2.122   8.189  11.466  1.00  0.00     0.029 A 
ATOM     57  N   UNL     1       1.452   8.439   9.361  1.00  0.00    -0.354 N 
ATOM     58  N   UNL     1       1.034   9.886   6.865  1.00  0.00    -0.248 NA
ATOM     59  C   UNL     1       1.186  11.843   5.598  1.00  0.00     0.031 C 
ATOM     60  C   UNL     1       2.372   9.511  11.076  1.00  0.00     0.029 A 
ATOM     61  C   UNL     1       1.976   9.659   9.757  1.00  0.00     0.049 A 
ATOM     62  H   UNL     1       1.070   8.250   8.473  1.00  0.00     0.167 HD
ATOM     63  C   UNL     1       1.641  10.878   7.627  1.00  0.00     0.074 A 
ATOM     64  C   UNL     1       1.731  12.055   6.788  1.00  0.00     0.031 C 
ATOM     65  C   UNL     1       2.072  10.821   8.911  1.00  0.00     0.037 A 
BRANCH  52  66
ATOM     66  C   UNL     1       1.333   5.259  11.507  1.00  0.00     0.058 A 
ATOM     67  C   UNL     1       2.314   4.260  11.580  1.00  0.00     0.135 A 
ATOM     68  C   UNL     1       0.473   5.414  12.608  1.00  0.00     0.135 A 
ATOM     69  F   UNL     1       3.149   4.056  10.549  1.00  0.00    -0.206 F 
ATOM     70  C   UNL     1       2.405   3.412  12.681  1.00  0.00     0.059 A 
ATOM     71  C   UNL     1       0.563   4.596  13.729  1.00  0.00     0.059 A 
ATOM     72  F   UNL     1      -0.481   6.359  12.594  1.00  0.00    -0.206 F 
ATOM     73  C   UNL     1       1.516   3.580  13.745  1.00  0.00     0.060 A 
BRANCH  73  74
ATOM     74  S   UNL     1       1.605   2.450  15.150  1.00  0.00     0.124 S 
ATOM     75  O   UNL     1       0.893   1.286  14.630  1.00  0.00    -0.237 OA
ATOM     76  O   UNL     1       3.043   2.281  15.333  1.00  0.00    -0.237 OA
ATOM     77  O   UNL     1       0.924   3.180  16.214  1.00  0.00    -0.744 OA
ENDBRANCH  73  74
ENDBRANCH  52  66
BRANCH  53  78
ATOM     78  C   UNL     1      -0.064  10.631   3.253  1.00  0.00     0.058 A 
ATOM     79  C   UNL     1       1.046  10.932   2.450  1.00  0.00     0.135 A 
ATOM     80  C   UNL     1      -1.320  11.091   2.830  1.00  0.00     0.135 A 
ATOM     81  F   UNL     1       2.272  10.534   2.822  1.00  0.00    -0.206 F 
ATOM     82  C   UNL     1       0.917  11.659   1.270  1.00  0.00     0.059 A 
ATOM     83  C   UNL     1      -1.479  11.794   1.641  1.00  0.00     0.059 A 
ATOM     84  F   UNL     1      -2.415  10.828   3.561  1.00  0.00    -0.206 F 
ATOM     85  C   UNL     1      -0.353  12.080   0.870  1.00  0.00     0.060 A 
BRANCH  85  86
ATOM     86  S   UNL     1      -0.531  12.955  -0.700  1.00  0.00     0.124 S 
ATOM     87  O   UNL     1      -0.112  14.303  -0.333  1.00  0.00    -0.237 OA
ATOM     88  O   UNL     1       0.378  12.219  -1.573  1.00  0.00    -0.237 OA
ATOM     89  O   UNL     1      -1.949  12.795  -1.010  1.00  0.00    -0.744 OA
ENDBRANCH  85  86
ENDBRANCH  53  78
BRANCH  65  90
ATOM     90  C   UNL     1       2.712  12.056   9.476  1.00  0.00     0.058 A 
ATOM     91  C   UNL     1       1.950  13.167   9.867  1.00  0.00     0.135 A 
ATOM     92  C   UNL     1       4.104  12.119   9.651  1.00  0.00     0.135 A 
ATOM     93  F   UNL     1       0.616  13.158   9.716  1.00  0.00    -0.206 F 
ATOM     94  C   UNL     1       2.547  14.311  10.388  1.00  0.00     0.059 A 
ATOM     95  C   UNL     1       4.721  13.246  10.187  1.00  0.00     0.059 A 
ATOM     96  F   UNL     1       4.877  11.079   9.300  1.00  0.00    -0.206 F 
ATOM     97  C   UNL     1       3.935  14.343  10.539  1.00  0.00     0.060 A 
BRANCH  97  98
ATOM     98  S   UNL     1       4.703  15.824  11.229  1.00  0.00     0.124 S 
ATOM     99  O   UNL     1       4.705  16.718  10.075  1.00  0.00    -0.237 OA
ATOM    100  O   UNL     1       3.787  16.184  12.307  1.00  0.00    -0.237 OA
ATOM    101  O   UNL     1       6.015  15.354  11.662  1.00  0.00    -0.744 OA
ENDBRANCH  97  98
ENDBRANCH  65  90
ENDBRANCH  39  40
ENDBRANCH  32  34
ENDBRANCH  31  32
ENDBRANCH  30  31
ENDBRANCH   1  30
TORSDOF 20
