REMARK SMILES Cc1ncnc(OCCC(=O)OCCOC(=O)c2ccc(-c3c4nc(c(-c5c(F)cc(S(=O)(=O)[O-])cc5F)c5ccc([nH]5)c(-c5c(F)cc(S(=O)(=O)[O-])cc5F)c5nc(c(-c6c(F)cc(S(=O)(=O)[O-])cc6F)c6ccc3[nH]6)C=C5)C=C4)cc2)c1C
REMARK SMILES IDX 13 1 12 2 10 3 11 4 9 5 8 6 7 7 6 8 1 9 2 10 3 11 84 12 4 13
REMARK SMILES IDX 85 14 5 15 14 16 15 17 16 18 17 19 18 20 19 21 83 22 20 23
REMARK SMILES IDX 82 24 21 25 22 26 23 27 76 28 24 29 81 30 75 31 77 32 25 33
REMARK SMILES IDX 80 34 74 35 73 36 26 38 60 39 39 40 59 41 40 42 43 43 58 44
REMARK SMILES IDX 78 45 41 46 42 47 57 49 79 50 44 51 27 52 28 53 37 54 29 55
REMARK SMILES IDX 30 56 36 57 38 58 31 59 32 60 33 61 34 62 35 63 61 64 62 65
REMARK SMILES IDX 71 66 63 67 64 68 70 69 72 70 65 71 66 72 67 73 68 74 69 75
REMARK SMILES IDX 45 76 46 77 55 78 47 79 48 80 54 81 56 82 49 83 50 84 51 85
REMARK SMILES IDX 52 86 53 87
REMARK H PARENT 77 37 43 48
REMARK Flexibility Score: inf
ROOT
ATOM      1  C   UNL     1      -1.365   1.781   0.863  1.00  0.00     0.274 C 
ENDROOT
BRANCH   1   2
ATOM      2  O   UNL     1      -0.834   2.939   0.192  1.00  0.00    -0.462 OA
BRANCH   2   3
ATOM      3  C   UNL     1      -0.688   4.065   0.928  1.00  0.00     0.309 C 
ATOM      4  O   UNL     1      -0.948   4.163   2.121  1.00  0.00    -0.252 OA
BRANCH   3   5
ATOM      5  C   UNL     1      -0.245   5.238   0.091  1.00  0.00     0.164 C 
BRANCH   5   6
ATOM      6  C   UNL     1       1.022   4.994  -0.716  1.00  0.00     0.243 C 
BRANCH   6   7
ATOM      7  O   UNL     1       0.814   4.571  -2.067  1.00  0.00    -0.477 OA
BRANCH   7   8
ATOM      8  C   UNL     1       0.593   3.243  -2.300  1.00  0.00     0.219 A 
ATOM      9  C   UNL     1       1.897  -0.284  -2.055  1.00  0.00     0.067 C 
ATOM     10  C   UNL     1       1.093   0.946  -2.373  1.00  0.00     0.047 A 
ATOM     11  N   UNL     1      -0.077   0.706  -3.006  1.00  0.00    -0.241 NA
ATOM     12  C   UNL     1       1.507   2.231  -2.018  1.00  0.00     0.032 A 
ATOM     13  C   UNL     1      -0.834   1.772  -3.288  1.00  0.00     0.226 A 
ATOM     14  C   UNL     1       2.836   2.490  -1.383  1.00  0.00     0.052 C 
ATOM     15  N   UNL     1      -0.562   3.036  -2.961  1.00  0.00    -0.202 NA
ENDBRANCH   7   8
ENDBRANCH   6   7
ENDBRANCH   5   6
ENDBRANCH   3   5
ENDBRANCH   2   3
ENDBRANCH   1   2
BRANCH   1  16
ATOM     16  C   UNL     1      -0.241   0.865   1.327  1.00  0.00     0.275 C 
BRANCH  16  17
ATOM     17  O   UNL     1       0.569   1.552   2.291  1.00  0.00    -0.458 OA
BRANCH  17  18
ATOM     18  C   UNL     1       1.901   1.367   2.188  1.00  0.00     0.338 C 
ATOM     19  O   UNL     1       2.492   0.668   1.376  1.00  0.00    -0.246 OA
BRANCH  18  20
ATOM     20  C   UNL     1       2.574   2.081   3.285  1.00  0.00     0.060 A 
ATOM     21  C   UNL     1       2.217   3.387   3.639  1.00  0.00     0.016 A 
ATOM     22  C   UNL     1       3.579   1.404   3.981  1.00  0.00     0.016 A 
ATOM     23  C   UNL     1       2.855   4.008   4.711  1.00  0.00     0.010 A 
ATOM     24  C   UNL     1       4.181   2.008   5.081  1.00  0.00     0.010 A 
ATOM     25  C   UNL     1       3.815   3.308   5.458  1.00  0.00    -0.014 A 
BRANCH  25  26
ATOM     26  C   UNL     1       4.373   3.885   6.701  1.00  0.00     0.031 A 
ATOM     27  C   UNL     1       5.806   4.322   6.758  1.00  0.00     0.074 A 
ATOM     28  C   UNL     1       3.574   3.947   7.784  1.00  0.00     0.049 A 
ATOM     29  N   UNL     1       6.487   4.779   7.774  1.00  0.00    -0.248 NA
ATOM     30  C   UNL     1       6.581   4.218   5.511  1.00  0.00     0.031 C 
ATOM     31  C   UNL     1       2.171   3.521   7.815  1.00  0.00     0.029 A 
ATOM     32  N   UNL     1       3.815   4.382   9.060  1.00  0.00    -0.354 N 
ATOM     33  C   UNL     1       7.770   5.018   7.296  1.00  0.00     0.074 A 
ATOM     34  C   UNL     1       7.782   4.622   5.904  1.00  0.00     0.031 C 
ATOM     35  C   UNL     1       1.671   3.739   9.040  1.00  0.00     0.029 A 
ATOM     36  C   UNL     1       2.724   4.277   9.892  1.00  0.00     0.049 A 
ATOM     37  H   UNL     1       4.686   4.735   9.355  1.00  0.00     0.167 HD
ATOM     38  C   UNL     1       8.831   5.529   7.964  1.00  0.00     0.037 A 
ATOM     39  C   UNL     1       2.595   4.573  11.199  1.00  0.00     0.037 A 
ATOM     40  C   UNL     1       8.784   5.903   9.355  1.00  0.00     0.049 A 
ATOM     41  C   UNL     1       3.795   5.112  11.925  1.00  0.00     0.074 A 
ATOM     42  C   UNL     1       9.788   6.439  10.140  1.00  0.00     0.029 A 
ATOM     43  N   UNL     1       7.665   5.772  10.170  1.00  0.00    -0.354 N 
ATOM     44  N   UNL     1       4.995   5.356  11.452  1.00  0.00    -0.248 NA
ATOM     45  C   UNL     1       3.636   5.403  13.354  1.00  0.00     0.031 C 
ATOM     46  C   UNL     1       9.288   6.598  11.437  1.00  0.00     0.029 A 
ATOM     47  C   UNL     1       7.959   6.198  11.453  1.00  0.00     0.049 A 
ATOM     48  H   UNL     1       6.791   5.427   9.876  1.00  0.00     0.167 HD
ATOM     49  C   UNL     1       5.737   5.831  12.524  1.00  0.00     0.074 A 
ATOM     50  C   UNL     1       4.842   5.861  13.666  1.00  0.00     0.031 C 
ATOM     51  C   UNL     1       7.041   6.202  12.566  1.00  0.00     0.037 A 
BRANCH  38  52
ATOM     52  C   UNL     1      10.119   5.708   7.207  1.00  0.00     0.058 A 
ATOM     53  C   UNL     1      10.263   6.707   6.230  1.00  0.00     0.135 A 
ATOM     54  C   UNL     1      11.234   4.898   7.477  1.00  0.00     0.135 A 
ATOM     55  F   UNL     1       9.226   7.502   5.920  1.00  0.00    -0.206 F 
ATOM     56  C   UNL     1      11.455   6.880   5.532  1.00  0.00     0.059 A 
ATOM     57  C   UNL     1      12.444   5.067   6.806  1.00  0.00     0.059 A 
ATOM     58  F   UNL     1      11.155   3.925   8.399  1.00  0.00    -0.206 F 
ATOM     59  C   UNL     1      12.540   6.053   5.826  1.00  0.00     0.060 A 
BRANCH  59  60
ATOM     60  S   UNL     1      14.075   6.288   4.903  1.00  0.00     0.124 S 
ATOM     61  O   UNL     1      13.699   5.795   3.581  1.00  0.00    -0.237 OA
ATOM     62  O   UNL     1      14.283   7.729   5.006  1.00  0.00    -0.237 OA
ATOM     63  O   UNL     1      15.039   5.465   5.627  1.00  0.00    -0.744 OA
ENDBRANCH  59  60
ENDBRANCH  38  52
BRANCH  39  64
ATOM     64  C   UNL     1       1.283   4.385  11.872  1.00  0.00     0.058 A 
ATOM     65  C   UNL     1       0.497   5.489  12.233  1.00  0.00     0.135 A 
ATOM     66  C   UNL     1       0.750   3.105  12.097  1.00  0.00     0.135 A 
ATOM     67  F   UNL     1       0.963   6.733  12.043  1.00  0.00    -0.206 F 
ATOM     68  C   UNL     1      -0.771   5.334  12.784  1.00  0.00     0.059 A 
ATOM     69  C   UNL     1      -0.525   2.924  12.627  1.00  0.00     0.059 A 
ATOM     70  F   UNL     1       1.454   2.014  11.755  1.00  0.00    -0.206 F 
ATOM     71  C   UNL     1      -1.278   4.046  12.968  1.00  0.00     0.060 A 
BRANCH  71  72
ATOM     72  S   UNL     1      -2.959   3.860  13.606  1.00  0.00     0.124 S 
ATOM     73  O   UNL     1      -2.791   4.257  14.999  1.00  0.00    -0.237 OA
ATOM     74  O   UNL     1      -3.710   4.787  12.764  1.00  0.00    -0.237 OA
ATOM     75  O   UNL     1      -3.250   2.447  13.382  1.00  0.00    -0.744 OA
ENDBRANCH  71  72
ENDBRANCH  39  64
BRANCH  51  76
ATOM     76  C   UNL     1       7.579   6.653  13.891  1.00  0.00     0.058 A 
ATOM     77  C   UNL     1       7.908   5.726  14.891  1.00  0.00     0.135 A 
ATOM     78  C   UNL     1       7.855   8.009  14.126  1.00  0.00     0.135 A 
ATOM     79  F   UNL     1       7.651   4.420  14.713  1.00  0.00    -0.206 F 
ATOM     80  C   UNL     1       8.496   6.129  16.083  1.00  0.00     0.059 A 
ATOM     81  C   UNL     1       8.462   8.431  15.303  1.00  0.00     0.059 A 
ATOM     82  F   UNL     1       7.562   8.930  13.195  1.00  0.00    -0.206 F 
ATOM     83  C   UNL     1       8.779   7.483  16.276  1.00  0.00     0.060 A 
BRANCH  83  84
ATOM     84  S   UNL     1       9.612   7.979  17.798  1.00  0.00     0.124 S 
ATOM     85  O   UNL     1       8.546   7.823  18.781  1.00  0.00    -0.237 OA
ATOM     86  O   UNL     1      10.702   7.011  17.885  1.00  0.00    -0.237 OA
ATOM     87  O   UNL     1      10.023   9.354  17.528  1.00  0.00    -0.744 OA
ENDBRANCH  83  84
ENDBRANCH  51  76
ENDBRANCH  25  26
ENDBRANCH  18  20
ENDBRANCH  17  18
ENDBRANCH  16  17
ENDBRANCH   1  16
TORSDOF 17
