REMARK SMILES O=C(NCC(=O)OCCOC(=O)c1ccc(-c2c3nc(c(-c4c(F)cc(S(=O)(=O)[O-])cc4F)c4ccc([nH]4)c(-c4c(F)cc(S(=O)(=O)[O-])cc4F)c4nc(c(-c5c(F)cc(S(=O)(=O)[O-])cc5F)c5ccc2[nH]5)C=C4)C=C3)cc1)Nc1cccc2c1CCCC2
REMARK SMILES IDX 9 1 8 2 7 3 5 4 6 5 4 6 3 7 1 8 2 9 79 10 80 13 81 14 85 15
REMARK SMILES IDX 82 16 84 17 86 18 83 19 89 20 87 21 88 22 10 23 11 24 12 25
REMARK SMILES IDX 13 26 14 27 78 28 15 29 77 30 16 31 17 32 18 33 71 34 19 35
REMARK SMILES IDX 76 36 70 37 72 38 20 39 75 40 69 41 68 42 21 44 55 45 34 46
REMARK SMILES IDX 54 47 35 48 38 49 53 50 73 51 36 52 37 53 52 55 74 56 39 57
REMARK SMILES IDX 22 58 23 59 32 60 24 61 25 62 31 63 33 64 26 65 27 66 28 67
REMARK SMILES IDX 29 68 30 69 56 70 57 71 66 72 58 73 59 74 65 75 67 76 60 77
REMARK SMILES IDX 61 78 62 79 63 80 64 81 40 82 41 83 50 84 42 85 43 86 49 87
REMARK SMILES IDX 51 88 44 89 45 90 46 91 47 92 48 93
REMARK H PARENT 3 11 79 12 72 43 38 54
REMARK Flexibility Score: inf
ROOT
ATOM      1  C   UNL     1       4.451   2.527   4.257  1.00  0.00     0.275 C 
ENDROOT
BRANCH   1   2
ATOM      2  C   UNL     1       5.065   2.920   2.909  1.00  0.00     0.274 C 
BRANCH   2   3
ATOM      3  O   UNL     1       4.454   2.207   1.819  1.00  0.00    -0.461 OA
BRANCH   3   4
ATOM      4  C   UNL     1       5.154   1.161   1.293  1.00  0.00     0.325 C 
ATOM      5  O   UNL     1       6.264   0.802   1.666  1.00  0.00    -0.250 OA
BRANCH   4   6
ATOM      6  C   UNL     1       4.378   0.447   0.185  1.00  0.00     0.240 C 
BRANCH   6   7
ATOM      7  N   UNL     1       3.104   1.085  -0.100  1.00  0.00    -0.327 N 
ATOM      8  O   UNL     1       1.463   2.073  -1.190  1.00  0.00    -0.248 OA
ATOM      9  C   UNL     1       2.475   1.380  -1.265  1.00  0.00     0.319 C 
ATOM     10  N   UNL     1       2.981   0.789  -2.406  1.00  0.00    -0.308 N 
ATOM     11  H   UNL     1       2.604   1.356   0.704  1.00  0.00     0.166 HD
ATOM     12  H   UNL     1       3.915   0.478  -2.423  1.00  0.00     0.171 HD
BRANCH  10  13
ATOM     13  C   UNL     1       2.162   0.628  -3.557  1.00  0.00     0.046 A 
ATOM     14  C   UNL     1       1.980  -0.687  -3.985  1.00  0.00     0.026 A 
ATOM     15  C   UNL     1       1.250   1.605  -3.962  1.00  0.00    -0.021 A 
ATOM     16  C   UNL     1       0.744  -1.059  -4.510  1.00  0.00     0.002 A 
ATOM     17  C   UNL     1      -0.060   1.210  -4.248  1.00  0.00    -0.043 A 
ATOM     18  C   UNL     1       1.699   3.010  -4.293  1.00  0.00     0.038 C 
ATOM     19  C   UNL     1      -0.304  -0.135  -4.536  1.00  0.00     0.004 A 
ATOM     20  C   UNL     1      -1.180   2.217  -4.156  1.00  0.00     0.036 C 
ATOM     21  C   UNL     1       0.547   3.943  -4.691  1.00  0.00     0.005 C 
ATOM     22  C   UNL     1      -0.686   3.640  -3.856  1.00  0.00     0.005 C 
ENDBRANCH  10  13
ENDBRANCH   6   7
ENDBRANCH   4   6
ENDBRANCH   3   4
ENDBRANCH   2   3
ENDBRANCH   1   2
BRANCH   1  23
ATOM     23  O   UNL     1       4.876   1.222   4.692  1.00  0.00    -0.458 OA
BRANCH  23  24
ATOM     24  C   UNL     1       4.145   0.189   4.221  1.00  0.00     0.338 C 
ATOM     25  O   UNL     1       3.171   0.263   3.473  1.00  0.00    -0.246 OA
BRANCH  24  26
ATOM     26  C   UNL     1       4.751  -1.095   4.611  1.00  0.00     0.060 A 
ATOM     27  C   UNL     1       4.881  -2.074   3.621  1.00  0.00     0.016 A 
ATOM     28  C   UNL     1       5.139  -1.366   5.927  1.00  0.00     0.016 A 
ATOM     29  C   UNL     1       5.391  -3.329   3.945  1.00  0.00     0.010 A 
ATOM     30  C   UNL     1       5.655  -2.628   6.249  1.00  0.00     0.010 A 
ATOM     31  C   UNL     1       5.774  -3.620   5.262  1.00  0.00    -0.014 A 
BRANCH  31  32
ATOM     32  C   UNL     1       6.288  -4.976   5.579  1.00  0.00     0.031 A 
ATOM     33  C   UNL     1       5.416  -5.976   6.282  1.00  0.00     0.074 A 
ATOM     34  C   UNL     1       7.527  -5.322   5.180  1.00  0.00     0.049 A 
ATOM     35  N   UNL     1       5.672  -7.221   6.590  1.00  0.00    -0.248 NA
ATOM     36  C   UNL     1       4.081  -5.516   6.694  1.00  0.00     0.031 C 
ATOM     37  C   UNL     1       8.463  -4.439   4.481  1.00  0.00     0.029 A 
ATOM     38  N   UNL     1       8.207  -6.507   5.293  1.00  0.00    -0.354 N 
ATOM     39  C   UNL     1       4.536  -7.697   7.232  1.00  0.00     0.074 A 
ATOM     40  C   UNL     1       3.597  -6.596   7.295  1.00  0.00     0.031 C 
ATOM     41  C   UNL     1       9.590  -5.119   4.215  1.00  0.00     0.029 A 
ATOM     42  C   UNL     1       9.467  -6.474   4.747  1.00  0.00     0.049 A 
ATOM     43  H   UNL     1       7.828  -7.307   5.726  1.00  0.00     0.167 HD
ATOM     44  C   UNL     1       4.294  -8.940   7.715  1.00  0.00     0.037 A 
ATOM     45  C   UNL     1      10.419  -7.425   4.686  1.00  0.00     0.037 A 
ATOM     46  C   UNL     1       5.229 -10.034   7.645  1.00  0.00     0.049 A 
ATOM     47  C   UNL     1      10.137  -8.788   5.254  1.00  0.00     0.074 A 
ATOM     48  C   UNL     1       5.062 -11.338   8.081  1.00  0.00     0.029 A 
ATOM     49  N   UNL     1       6.507  -9.954   7.112  1.00  0.00    -0.354 N 
ATOM     50  N   UNL     1       9.043  -9.231   5.827  1.00  0.00    -0.248 NA
ATOM     51  C   UNL     1      11.216  -9.782   5.165  1.00  0.00     0.031 C 
ATOM     52  C   UNL     1       6.253 -12.035   7.846  1.00  0.00     0.029 A 
ATOM     53  C   UNL     1       7.148 -11.177   7.228  1.00  0.00     0.049 A 
ATOM     54  H   UNL     1       6.901  -9.146   6.711  1.00  0.00     0.167 HD
ATOM     55  C   UNL     1       9.297 -10.558   6.156  1.00  0.00     0.074 A 
ATOM     56  C   UNL     1      10.642 -10.850   5.701  1.00  0.00     0.031 C 
ATOM     57  C   UNL     1       8.490 -11.452   6.779  1.00  0.00     0.037 A 
BRANCH  44  58
ATOM     58  C   UNL     1       2.968  -9.180   8.381  1.00  0.00     0.058 A 
ATOM     59  C   UNL     1       1.780  -9.287   7.641  1.00  0.00     0.135 A 
ATOM     60  C   UNL     1       2.889  -9.337   9.774  1.00  0.00     0.135 A 
ATOM     61  F   UNL     1       1.798  -9.131   6.308  1.00  0.00    -0.206 F 
ATOM     62  C   UNL     1       0.556  -9.518   8.261  1.00  0.00     0.059 A 
ATOM     63  C   UNL     1       1.679  -9.590  10.413  1.00  0.00     0.059 A 
ATOM     64  F   UNL     1       3.995  -9.244  10.529  1.00  0.00    -0.206 F 
ATOM     65  C   UNL     1       0.515  -9.664   9.649  1.00  0.00     0.060 A 
BRANCH  65  66
ATOM     66  S   UNL     1      -1.080  -9.959  10.442  1.00  0.00     0.124 S 
ATOM     67  O   UNL     1      -1.683  -8.630  10.383  1.00  0.00    -0.237 OA
ATOM     68  O   UNL     1      -1.682 -10.966   9.573  1.00  0.00    -0.237 OA
ATOM     69  O   UNL     1      -0.715 -10.424  11.776  1.00  0.00    -0.744 OA
ENDBRANCH  65  66
ENDBRANCH  44  58
BRANCH  45  70
ATOM     70  C   UNL     1      11.729  -7.114   4.058  1.00  0.00     0.058 A 
ATOM     71  C   UNL     1      12.084  -7.653   2.814  1.00  0.00     0.135 A 
ATOM     72  C   UNL     1      12.642  -6.250   4.683  1.00  0.00     0.135 A 
ATOM     73  F   UNL     1      11.248  -8.491   2.182  1.00  0.00    -0.206 F 
ATOM     74  C   UNL     1      13.301  -7.352   2.211  1.00  0.00     0.059 A 
ATOM     75  C   UNL     1      13.855  -5.916   4.091  1.00  0.00     0.059 A 
ATOM     76  F   UNL     1      12.342  -5.700   5.870  1.00  0.00    -0.206 F 
ATOM     77  C   UNL     1      14.179  -6.478   2.857  1.00  0.00     0.060 A 
BRANCH  77  78
ATOM     78  S   UNL     1      15.728  -6.039   2.039  1.00  0.00     0.124 S 
ATOM     79  O   UNL     1      16.530  -7.234   2.269  1.00  0.00    -0.237 OA
ATOM     80  O   UNL     1      15.298  -5.814   0.662  1.00  0.00    -0.237 OA
ATOM     81  O   UNL     1      16.156  -4.841   2.756  1.00  0.00    -0.744 OA
ENDBRANCH  77  78
ENDBRANCH  45  70
BRANCH  57  82
ATOM     82  C   UNL     1       9.037 -12.835   6.995  1.00  0.00     0.058 A 
ATOM     83  C   UNL     1      10.004 -13.096   7.979  1.00  0.00     0.135 A 
ATOM     84  C   UNL     1       8.568 -13.917   6.233  1.00  0.00     0.135 A 
ATOM     85  F   UNL     1      10.490 -12.095   8.730  1.00  0.00    -0.206 F 
ATOM     86  C   UNL     1      10.505 -14.377   8.183  1.00  0.00     0.059 A 
ATOM     87  C   UNL     1       9.039 -15.210   6.435  1.00  0.00     0.059 A 
ATOM     88  F   UNL     1       7.637 -13.722   5.285  1.00  0.00    -0.206 F 
ATOM     89  C   UNL     1      10.018 -15.428   7.404  1.00  0.00     0.060 A 
BRANCH  89  90
ATOM     90  S   UNL     1      10.660 -17.092   7.689  1.00  0.00     0.124 S 
ATOM     91  O   UNL     1      11.957 -17.023   7.025  1.00  0.00    -0.237 OA
ATOM     92  O   UNL     1      10.697 -17.170   9.146  1.00  0.00    -0.237 OA
ATOM     93  O   UNL     1       9.669 -17.951   7.048  1.00  0.00    -0.744 OA
ENDBRANCH  89  90
ENDBRANCH  57  82
ENDBRANCH  31  32
ENDBRANCH  24  26
ENDBRANCH  23  24
ENDBRANCH   1  23
TORSDOF 16
