REMARK SMILES Cc1cc2c(cc1C(=O)c1ccccc1C(=O)OCCOC(=O)c1ccc(-c3c4nc(c(-c5c(F)cc(S(=O)(=O)[O-])cc5F)c5ccc([nH]5)c(-c5c(F)cc(S(=O)(=O)[O-])cc5F)c5nc(c(-c6c(F)cc(S(=O)(=O)[O-])cc6F)c6ccc3[nH]6)C=C5)C=C4)cc1)CCCC2
REMARK SMILES IDX 20 1 19 2 18 3 16 4 17 5 15 6 10 7 11 8 12 9 14 10 13 11
REMARK SMILES IDX 8 12 9 13 7 14 1 15 2 16 3 17 4 18 6 19 5 20 93 21 90 22
REMARK SMILES IDX 92 23 91 24 21 25 22 26 23 27 24 28 25 29 89 30 26 31 88 32
REMARK SMILES IDX 27 33 28 34 29 35 82 36 30 37 87 38 81 39 83 40 31 41 86 42
REMARK SMILES IDX 80 43 79 44 32 46 66 47 45 48 65 49 46 50 49 51 64 52 84 53
REMARK SMILES IDX 47 54 48 55 63 57 85 58 50 59 33 60 34 61 43 62 35 63 36 64
REMARK SMILES IDX 42 65 44 66 37 67 38 68 39 69 40 70 41 71 67 72 68 73 77 74
REMARK SMILES IDX 69 75 70 76 76 77 78 78 71 79 72 80 73 81 74 82 75 83 51 84
REMARK SMILES IDX 52 85 61 86 53 87 54 88 60 89 62 90 55 91 56 92 57 93 58 94
REMARK SMILES IDX 59 95
REMARK H PARENT 83 45 49 56
REMARK Flexibility Score: inf
ROOT
ATOM      1  C   UNL     1      -4.914   1.117  -0.988  1.00  0.00     0.275 C 
ENDROOT
BRANCH   1   2
ATOM      2  C   UNL     1      -4.045   1.504  -2.186  1.00  0.00     0.275 C 
BRANCH   2   3
ATOM      3  O   UNL     1      -2.660   1.617  -1.805  1.00  0.00    -0.458 OA
BRANCH   3   4
ATOM      4  C   UNL     1      -2.088   2.835  -1.970  1.00  0.00     0.339 C 
ATOM      5  O   UNL     1      -2.665   3.863  -2.277  1.00  0.00    -0.246 OA
BRANCH   4   6
ATOM      6  C   UNL     1      -0.651   2.819  -1.588  1.00  0.00     0.071 A 
ATOM      7  C   UNL     1       0.224   1.749  -1.818  1.00  0.00     0.037 A 
ATOM      8  C   UNL     1       1.579   1.863  -1.458  1.00  0.00     0.013 A 
ATOM      9  C   UNL     1       2.035   2.990  -0.773  1.00  0.00     0.001 A 
ATOM     10  C   UNL     1      -0.155   3.978  -0.965  1.00  0.00     0.016 A 
ATOM     11  C   UNL     1       1.167   4.046  -0.521  1.00  0.00     0.001 A 
BRANCH   7  12
ATOM     12  C   UNL     1      -0.211   0.543  -2.541  1.00  0.00     0.194 C 
ATOM     13  O   UNL     1      -0.719   0.733  -3.647  1.00  0.00    -0.289 OA
BRANCH  12  14
ATOM     14  C   UNL     1       0.019  -0.859  -2.047  1.00  0.00     0.026 A 
ATOM     15  C   UNL     1       0.551  -0.360   0.444  1.00  0.00     0.045 C 
ATOM     16  C   UNL     1       0.411  -1.260  -0.754  1.00  0.00    -0.040 A 
ATOM     17  C   UNL     1       0.711  -2.622  -0.532  1.00  0.00     0.008 A 
ATOM     18  C   UNL     1       0.526  -3.599  -1.518  1.00  0.00    -0.044 A 
ATOM     19  C   UNL     1      -0.197  -1.857  -3.022  1.00  0.00     0.016 A 
ATOM     20  C   UNL     1       0.041  -3.216  -2.771  1.00  0.00    -0.044 A 
ATOM     21  C   UNL     1       0.906  -5.029  -1.225  1.00  0.00     0.036 C 
ATOM     22  C   UNL     1      -0.307  -4.232  -3.829  1.00  0.00     0.036 C 
ATOM     23  C   UNL     1       0.244  -6.030  -2.169  1.00  0.00     0.005 C 
ATOM     24  C   UNL     1       0.385  -5.577  -3.617  1.00  0.00     0.005 C 
ENDBRANCH  12  14
ENDBRANCH   7  12
ENDBRANCH   4   6
ENDBRANCH   3   4
ENDBRANCH   2   3
ENDBRANCH   1   2
BRANCH   1  25
ATOM     25  O   UNL     1      -5.001   2.197  -0.042  1.00  0.00    -0.458 OA
BRANCH  25  26
ATOM     26  C   UNL     1      -4.047   2.194   0.918  1.00  0.00     0.338 C 
ATOM     27  O   UNL     1      -3.200   1.339   1.122  1.00  0.00    -0.246 OA
BRANCH  26  28
ATOM     28  C   UNL     1      -4.052   3.498   1.599  1.00  0.00     0.060 A 
ATOM     29  C   UNL     1      -5.132   3.938   2.362  1.00  0.00     0.016 A 
ATOM     30  C   UNL     1      -2.897   4.274   1.494  1.00  0.00     0.016 A 
ATOM     31  C   UNL     1      -5.046   5.176   3.011  1.00  0.00     0.010 A 
ATOM     32  C   UNL     1      -2.809   5.503   2.142  1.00  0.00     0.010 A 
ATOM     33  C   UNL     1      -3.884   5.967   2.909  1.00  0.00    -0.014 A 
BRANCH  33  34
ATOM     34  C   UNL     1      -3.756   7.239   3.666  1.00  0.00     0.031 A 
ATOM     35  C   UNL     1      -3.701   8.566   2.959  1.00  0.00     0.074 A 
ATOM     36  C   UNL     1      -3.643   7.185   5.007  1.00  0.00     0.049 A 
ATOM     37  N   UNL     1      -3.661   9.769   3.474  1.00  0.00    -0.248 NA
ATOM     38  C   UNL     1      -3.662   8.542   1.489  1.00  0.00     0.031 C 
ATOM     39  C   UNL     1      -3.587   5.951   5.795  1.00  0.00     0.029 A 
ATOM     40  N   UNL     1      -3.564   8.182   5.946  1.00  0.00    -0.354 N 
ATOM     41  C   UNL     1      -3.605  10.644   2.396  1.00  0.00     0.074 A 
ATOM     42  C   UNL     1      -3.550   9.832   1.199  1.00  0.00     0.031 C 
ATOM     43  C   UNL     1      -3.539   6.265   7.099  1.00  0.00     0.029 A 
ATOM     44  C   UNL     1      -3.538   7.718   7.240  1.00  0.00     0.049 A 
ATOM     45  H   UNL     1      -3.530   9.139   5.714  1.00  0.00     0.167 HD
ATOM     46  C   UNL     1      -3.631  11.999   2.404  1.00  0.00     0.037 A 
ATOM     47  C   UNL     1      -3.536   8.387   8.410  1.00  0.00     0.037 A 
ATOM     48  C   UNL     1      -3.700  12.797   3.603  1.00  0.00     0.049 A 
ATOM     49  C   UNL     1      -3.584   9.889   8.396  1.00  0.00     0.074 A 
ATOM     50  C   UNL     1      -3.799  14.173   3.716  1.00  0.00     0.029 A 
ATOM     51  N   UNL     1      -3.672  12.292   4.895  1.00  0.00    -0.354 N 
ATOM     52  N   UNL     1      -3.630  10.701   7.366  1.00  0.00    -0.248 NA
ATOM     53  C   UNL     1      -3.587  10.569   9.698  1.00  0.00     0.031 C 
ATOM     54  C   UNL     1      -3.790  14.503   5.075  1.00  0.00     0.029 A 
ATOM     55  C   UNL     1      -3.730  13.330   5.811  1.00  0.00     0.049 A 
ATOM     56  H   UNL     1      -3.619  11.337   5.127  1.00  0.00     0.167 HD
ATOM     57  C   UNL     1      -3.682  11.985   7.896  1.00  0.00     0.074 A 
ATOM     58  C   UNL     1      -3.679  11.842   9.337  1.00  0.00     0.031 C 
ATOM     59  C   UNL     1      -3.724  13.173   7.245  1.00  0.00     0.037 A 
BRANCH  46  60
ATOM     60  C   UNL     1      -3.621  12.713   1.079  1.00  0.00     0.058 A 
ATOM     61  C   UNL     1      -4.736  12.679   0.225  1.00  0.00     0.135 A 
ATOM     62  C   UNL     1      -2.524  13.496   0.685  1.00  0.00     0.135 A 
ATOM     63  F   UNL     1      -5.811  11.941   0.546  1.00  0.00    -0.206 F 
ATOM     64  C   UNL     1      -4.755  13.375  -0.979  1.00  0.00     0.059 A 
ATOM     65  C   UNL     1      -2.531  14.223  -0.503  1.00  0.00     0.059 A 
ATOM     66  F   UNL     1      -1.433  13.571   1.464  1.00  0.00    -0.206 F 
ATOM     67  C   UNL     1      -3.648  14.147  -1.334  1.00  0.00     0.060 A 
BRANCH  67  68
ATOM     68  S   UNL     1      -3.703  15.060  -2.891  1.00  0.00     0.124 S 
ATOM     69  O   UNL     1      -3.618  13.978  -3.867  1.00  0.00    -0.237 OA
ATOM     70  O   UNL     1      -4.992  15.738  -2.809  1.00  0.00    -0.237 OA
ATOM     71  O   UNL     1      -2.534  15.931  -2.818  1.00  0.00    -0.744 OA
ENDBRANCH  67  68
ENDBRANCH  46  60
BRANCH  47  72
ATOM     72  C   UNL     1      -3.555   7.628   9.688  1.00  0.00     0.058 A 
ATOM     73  C   UNL     1      -4.714   7.580  10.475  1.00  0.00     0.135 A 
ATOM     74  C   UNL     1      -2.439   6.895  10.121  1.00  0.00     0.135 A 
ATOM     75  F   UNL     1      -5.806   8.267  10.104  1.00  0.00    -0.206 F 
ATOM     76  C   UNL     1      -4.768   6.838  11.650  1.00  0.00     0.059 A 
ATOM     77  C   UNL     1      -2.475   6.126  11.280  1.00  0.00     0.059 A 
ATOM     78  F   UNL     1      -1.312   6.893   9.393  1.00  0.00    -0.206 F 
ATOM     79  C   UNL     1      -3.644   6.107  12.040  1.00  0.00     0.060 A 
BRANCH  79  80
ATOM     80  S   UNL     1      -3.750   5.092  13.531  1.00  0.00     0.124 S 
ATOM     81  O   UNL     1      -3.783   6.108  14.576  1.00  0.00    -0.237 OA
ATOM     82  O   UNL     1      -4.993   4.359  13.312  1.00  0.00    -0.237 OA
ATOM     83  O   UNL     1      -2.535   4.284  13.474  1.00  0.00    -0.744 OA
ENDBRANCH  79  80
ENDBRANCH  47  72
BRANCH  59  84
ATOM     84  C   UNL     1      -3.770  14.423   8.079  1.00  0.00     0.058 A 
ATOM     85  C   UNL     1      -2.634  14.893   8.755  1.00  0.00     0.135 A 
ATOM     86  C   UNL     1      -4.936  15.205   8.132  1.00  0.00     0.135 A 
ATOM     87  F   UNL     1      -1.497  14.179   8.742  1.00  0.00    -0.206 F 
ATOM     88  C   UNL     1      -2.652  16.092   9.459  1.00  0.00     0.059 A 
ATOM     89  C   UNL     1      -4.970  16.419   8.810  1.00  0.00     0.059 A 
ATOM     90  F   UNL     1      -6.048  14.803   7.496  1.00  0.00    -0.206 F 
ATOM     91  C   UNL     1      -3.823  16.853   9.474  1.00  0.00     0.060 A 
BRANCH  91  92
ATOM     92  S   UNL     1      -3.810  18.436  10.342  1.00  0.00     0.124 S 
ATOM     93  O   UNL     1      -3.756  18.008  11.736  1.00  0.00    -0.237 OA
ATOM     94  O   UNL     1      -2.598  19.064   9.824  1.00  0.00    -0.237 OA
ATOM     95  O   UNL     1      -5.061  19.063   9.927  1.00  0.00    -0.744 OA
ENDBRANCH  91  92
ENDBRANCH  59  84
ENDBRANCH  33  34
ENDBRANCH  26  28
ENDBRANCH  25  26
ENDBRANCH   1  25
TORSDOF 16
