REMARK SMILES O=C(OCCOC(=O)c1ccc(C2SCCCS2)cc1)c1ccc(-c2c3nc(c(-c4c(F)cc(S(=O)(=O)[O-])cc4F)c4ccc([nH]4)c(-c4c(F)cc(S(=O)(=O)[O-])cc4F)c4nc(c(-c5c(F)cc(S(=O)(=O)[O-])cc5F)c5ccc2[nH]5)C=C4)C=C3)cc1
REMARK SMILES IDX 4 1 3 2 2 3 1 4 21 5 22 6 86 7 23 8 85 9 24 10 25 11 26 12
REMARK SMILES IDX 79 13 27 14 84 15 78 16 80 17 28 18 83 19 77 20 76 21 29 23
REMARK SMILES IDX 63 24 42 25 62 26 43 27 46 28 61 29 81 30 44 31 45 32 60 34
REMARK SMILES IDX 82 35 47 36 30 37 31 38 40 39 32 40 33 41 39 42 41 43 34 44
REMARK SMILES IDX 35 45 36 46 37 47 38 48 64 49 65 50 74 51 66 52 67 53 73 54
REMARK SMILES IDX 75 55 68 56 69 57 70 58 71 59 72 60 48 61 49 62 58 63 50 64
REMARK SMILES IDX 51 65 57 66 59 67 52 68 53 69 54 70 55 71 56 72 5 73 6 74
REMARK SMILES IDX 7 75 8 76 9 77 10 78 20 79 11 80 19 81 12 82 13 83 14 84
REMARK SMILES IDX 18 85 15 86 17 87 16 88
REMARK H PARENT 80 22 46 33
REMARK Flexibility Score: inf
ROOT
ATOM      1  C   UNL     1       4.063   0.923  -1.459  1.00  0.00     0.275 C 
ENDROOT
BRANCH   1   2
ATOM      2  O   UNL     1       3.004  -0.039  -1.300  1.00  0.00    -0.458 OA
BRANCH   2   3
ATOM      3  C   UNL     1       2.812  -1.003  -0.367  1.00  0.00     0.338 C 
ATOM      4  O   UNL     1       1.879  -1.790  -0.528  1.00  0.00    -0.246 OA
BRANCH   3   5
ATOM      5  C   UNL     1       3.595  -1.114   0.906  1.00  0.00     0.060 A 
ATOM      6  C   UNL     1       4.918  -0.710   1.090  1.00  0.00     0.016 A 
ATOM      7  C   UNL     1       2.935  -1.711   1.999  1.00  0.00     0.016 A 
ATOM      8  C   UNL     1       5.549  -0.846   2.330  1.00  0.00     0.010 A 
ATOM      9  C   UNL     1       3.560  -1.847   3.244  1.00  0.00     0.010 A 
ATOM     10  C   UNL     1       4.881  -1.422   3.412  1.00  0.00    -0.014 A 
BRANCH  10  11
ATOM     11  C   UNL     1       5.636  -1.720   4.650  1.00  0.00     0.031 A 
ATOM     12  C   UNL     1       6.114  -3.129   4.870  1.00  0.00     0.074 A 
ATOM     13  C   UNL     1       5.961  -0.740   5.514  1.00  0.00     0.049 A 
ATOM     14  N   UNL     1       6.842  -3.609   5.843  1.00  0.00    -0.248 NA
ATOM     15  C   UNL     1       5.763  -4.118   3.836  1.00  0.00     0.031 C 
ATOM     16  C   UNL     1       5.626   0.677   5.361  1.00  0.00     0.029 A 
ATOM     17  N   UNL     1       6.632  -0.789   6.709  1.00  0.00    -0.354 N 
ATOM     18  C   UNL     1       7.095  -4.932   5.503  1.00  0.00     0.074 A 
ATOM     19  C   UNL     1       6.369  -5.207   4.283  1.00  0.00     0.031 C 
ATOM     20  C   UNL     1       6.011   1.346   6.464  1.00  0.00     0.029 A 
ATOM     21  C   UNL     1       6.643   0.408   7.385  1.00  0.00     0.049 A 
ATOM     22  H   UNL     1       7.064  -1.605   7.051  1.00  0.00     0.167 HD
ATOM     23  C   UNL     1       7.903  -5.822   6.124  1.00  0.00     0.037 A 
ATOM     24  C   UNL     1       7.091   0.696   8.621  1.00  0.00     0.037 A 
ATOM     25  C   UNL     1       8.578  -5.553   7.365  1.00  0.00     0.049 A 
ATOM     26  C   UNL     1       7.812  -0.365   9.395  1.00  0.00     0.074 A 
ATOM     27  C   UNL     1       9.404  -6.384   8.099  1.00  0.00     0.029 A 
ATOM     28  N   UNL     1       8.486  -4.359   8.065  1.00  0.00    -0.354 N 
ATOM     29  N   UNL     1       8.049  -1.609   9.058  1.00  0.00    -0.248 NA
ATOM     30  C   UNL     1       8.368   0.034  10.693  1.00  0.00     0.031 C 
ATOM     31  C   UNL     1       9.780  -5.704   9.263  1.00  0.00     0.029 A 
ATOM     32  C   UNL     1       9.226  -4.434   9.231  1.00  0.00     0.049 A 
ATOM     33  H   UNL     1       7.969  -3.572   7.774  1.00  0.00     0.167 HD
ATOM     34  C   UNL     1       8.820  -2.135  10.084  1.00  0.00     0.074 A 
ATOM     35  C   UNL     1       8.993  -1.076  11.062  1.00  0.00     0.031 C 
ATOM     36  C   UNL     1       9.364  -3.371  10.194  1.00  0.00     0.037 A 
BRANCH  23  37
ATOM     37  C   UNL     1       8.105  -7.150   5.452  1.00  0.00     0.058 A 
ATOM     38  C   UNL     1       8.869  -7.256   4.276  1.00  0.00     0.135 A 
ATOM     39  C   UNL     1       7.547  -8.325   5.978  1.00  0.00     0.135 A 
ATOM     40  F   UNL     1       9.408  -6.160   3.719  1.00  0.00    -0.206 F 
ATOM     41  C   UNL     1       9.051  -8.476   3.633  1.00  0.00     0.059 A 
ATOM     42  C   UNL     1       7.734  -9.560   5.362  1.00  0.00     0.059 A 
ATOM     43  F   UNL     1       6.804  -8.278   7.094  1.00  0.00    -0.206 F 
ATOM     44  C   UNL     1       8.477  -9.623   4.183  1.00  0.00     0.060 A 
BRANCH  44  45
ATOM     45  S   UNL     1       8.723 -11.197   3.334  1.00  0.00     0.124 S 
ATOM     46  O   UNL     1       7.870 -11.032   2.162  1.00  0.00    -0.237 OA
ATOM     47  O   UNL     1      10.160 -11.192   3.077  1.00  0.00    -0.237 OA
ATOM     48  O   UNL     1       8.267 -12.184   4.309  1.00  0.00    -0.744 OA
ENDBRANCH  44  45
ENDBRANCH  23  37
BRANCH  24  49
ATOM     49  C   UNL     1       6.827   2.019   9.235  1.00  0.00     0.058 A 
ATOM     50  C   UNL     1       7.743   3.075   9.171  1.00  0.00     0.135 A 
ATOM     51  C   UNL     1       5.631   2.227   9.936  1.00  0.00     0.135 A 
ATOM     52  F   UNL     1       8.917   2.906   8.546  1.00  0.00    -0.206 F 
ATOM     53  C   UNL     1       7.471   4.305   9.765  1.00  0.00     0.059 A 
ATOM     54  C   UNL     1       5.324   3.452  10.515  1.00  0.00     0.059 A 
ATOM     55  F   UNL     1       4.754   1.221  10.067  1.00  0.00    -0.206 F 
ATOM     56  C   UNL     1       6.255   4.486  10.427  1.00  0.00     0.060 A 
BRANCH  56  57
ATOM     57  S   UNL     1       5.850   6.102  11.128  1.00  0.00     0.124 S 
ATOM     58  O   UNL     1       6.405   5.986  12.470  1.00  0.00    -0.237 OA
ATOM     59  O   UNL     1       6.539   7.021  10.227  1.00  0.00    -0.237 OA
ATOM     60  O   UNL     1       4.392   6.132  11.041  1.00  0.00    -0.744 OA
ENDBRANCH  56  57
ENDBRANCH  24  49
BRANCH  36  61
ATOM     61  C   UNL     1      10.231  -3.620  11.391  1.00  0.00     0.058 A 
ATOM     62  C   UNL     1       9.688  -3.803  12.670  1.00  0.00     0.135 A 
ATOM     63  C   UNL     1      11.626  -3.690  11.245  1.00  0.00     0.135 A 
ATOM     64  F   UNL     1       8.361  -3.729  12.859  1.00  0.00    -0.206 F 
ATOM     65  C   UNL     1      10.504  -4.021  13.774  1.00  0.00     0.059 A 
ATOM     66  C   UNL     1      12.457  -3.933  12.330  1.00  0.00     0.059 A 
ATOM     67  F   UNL     1      12.189  -3.523  10.037  1.00  0.00    -0.206 F 
ATOM     68  C   UNL     1      11.887  -4.082  13.594  1.00  0.00     0.060 A 
BRANCH  68  69
ATOM     69  S   UNL     1      12.937  -4.381  15.030  1.00  0.00     0.124 S 
ATOM     70  O   UNL     1      12.922  -3.075  15.679  1.00  0.00    -0.237 OA
ATOM     71  O   UNL     1      12.220  -5.444  15.727  1.00  0.00    -0.237 OA
ATOM     72  O   UNL     1      14.213  -4.777  14.440  1.00  0.00    -0.744 OA
ENDBRANCH  68  69
ENDBRANCH  36  61
ENDBRANCH  10  11
ENDBRANCH   3   5
ENDBRANCH   2   3
ENDBRANCH   1   2
BRANCH   1  73
ATOM     73  C   UNL     1       3.903   2.208  -0.645  1.00  0.00     0.275 C 
BRANCH  73  74
ATOM     74  O   UNL     1       3.438   1.976   0.689  1.00  0.00    -0.458 OA
BRANCH  74  75
ATOM     75  C   UNL     1       2.089   2.047   0.841  1.00  0.00     0.338 C 
ATOM     76  O   UNL     1       1.274   2.345  -0.016  1.00  0.00    -0.246 OA
BRANCH  75  77
ATOM     77  C   UNL     1       1.720   1.577   2.192  1.00  0.00     0.060 A 
ATOM     78  C   UNL     1       0.579   0.784   2.335  1.00  0.00     0.016 A 
ATOM     79  C   UNL     1       2.491   1.889   3.308  1.00  0.00     0.016 A 
ATOM     80  C   UNL     1       0.216   0.302   3.596  1.00  0.00     0.006 A 
ATOM     81  C   UNL     1       2.114   1.410   4.567  1.00  0.00     0.006 A 
ATOM     82  C   UNL     1       0.969   0.615   4.744  1.00  0.00    -0.025 A 
BRANCH  82  83
ATOM     83  C   UNL     1       0.475   0.129   6.101  1.00  0.00     0.133 C 
ATOM     84  S   UNL     1       1.552  -0.991   7.015  1.00  0.00    -0.143 SA
ATOM     85  S   UNL     1      -0.265   1.415   7.135  1.00  0.00    -0.143 SA
ATOM     86  C   UNL     1       2.757   0.156   7.727  1.00  0.00     0.072 C 
ATOM     87  C   UNL     1       1.217   2.265   7.723  1.00  0.00     0.072 C 
ATOM     88  C   UNL     1       2.213   1.379   8.452  1.00  0.00     0.022 C 
ENDBRANCH  82  83
ENDBRANCH  75  77
ENDBRANCH  74  75
ENDBRANCH  73  74
ENDBRANCH   1  73
TORSDOF 15
