REMARK SMILES Cc1ccc(OCC(=O)Oc2ccc(C(=O)OCCOC(=O)c3ccc(-c4c5nc(c(-c6c(F)cc(S(=O)(=O)[O-])cc6F)c6ccc([nH]6)c(-c6c(F)cc(S(=O)(=O)[O-])cc6F)c6nc(c(-c7c(F)cc(S(=O)(=O)[O-])cc7F)c7ccc4[nH]7)C=C6)C=C5)cc3)cc2)cc1C
REMARK SMILES IDX 18 1 17 2 15 3 16 4 14 5 11 6 12 7 90 8 13 9 89 10 10 11
REMARK SMILES IDX 8 12 9 13 7 14 6 15 5 16 1 17 2 18 3 19 92 20 4 21 91 22
REMARK SMILES IDX 93 23 19 24 20 25 21 26 22 27 23 28 24 29 88 30 25 31 87 32
REMARK SMILES IDX 26 33 27 34 28 35 81 36 29 37 86 38 80 39 82 40 30 41 85 42
REMARK SMILES IDX 79 43 78 44 31 46 65 47 44 48 64 49 45 50 48 51 63 52 83 53
REMARK SMILES IDX 46 54 47 55 62 57 84 58 49 59 32 60 33 61 42 62 34 63 35 64
REMARK SMILES IDX 41 65 43 66 36 67 37 68 38 69 39 70 40 71 66 72 67 73 76 74
REMARK SMILES IDX 68 75 69 76 75 77 77 78 70 79 71 80 72 81 73 82 74 83 50 84
REMARK SMILES IDX 51 85 60 86 52 87 53 88 59 89 61 90 54 91 55 92 56 93 57 94
REMARK SMILES IDX 58 95
REMARK H PARENT 82 45 48 56
REMARK Flexibility Score: inf
ROOT
ATOM      1  C   UNL     1      -6.366   3.996   8.233  1.00  0.00     0.275 C 
ENDROOT
BRANCH   1   2
ATOM      2  O   UNL     1      -6.296   3.196   7.034  1.00  0.00    -0.458 OA
BRANCH   2   3
ATOM      3  C   UNL     1      -5.046   2.852   6.629  1.00  0.00     0.338 C 
ATOM      4  O   UNL     1      -4.004   3.165   7.172  1.00  0.00    -0.246 OA
BRANCH   3   5
ATOM      5  C   UNL     1      -5.094   1.960   5.441  1.00  0.00     0.060 A 
ATOM      6  C   UNL     1      -5.009   0.340   3.172  1.00  0.00     0.131 A 
ATOM      7  C   UNL     1      -4.070   0.152   4.179  1.00  0.00     0.048 A 
ATOM      8  C   UNL     1      -6.022   1.292   3.305  1.00  0.00     0.048 A 
ATOM      9  C   UNL     1      -4.093   0.988   5.292  1.00  0.00     0.019 A 
ATOM     10  C   UNL     1      -6.066   2.105   4.445  1.00  0.00     0.019 A 
BRANCH   6  11
ATOM     11  O   UNL     1      -4.857  -0.478   2.046  1.00  0.00    -0.424 OA
BRANCH  11  12
ATOM     12  C   UNL     1      -4.756   0.176   0.824  1.00  0.00     0.349 C 
ATOM     13  O   UNL     1      -5.061   1.340   0.586  1.00  0.00    -0.248 OA
BRANCH  12  14
ATOM     14  C   UNL     1      -4.210  -0.779  -0.231  1.00  0.00     0.352 C 
BRANCH  14  15
ATOM     15  O   UNL     1      -2.958  -1.389   0.036  1.00  0.00    -0.482 OA
BRANCH  15  16
ATOM     16  C   UNL     1      -1.829  -0.620  -0.041  1.00  0.00     0.120 A 
ATOM     17  C   UNL     1       1.954   1.489  -0.025  1.00  0.00     0.044 C 
ATOM     18  C   UNL     1       0.662   0.720  -0.057  1.00  0.00    -0.048 A 
ATOM     19  C   UNL     1      -0.546   1.427  -0.150  1.00  0.00     0.007 A 
ATOM     20  C   UNL     1       0.622  -0.683   0.013  1.00  0.00    -0.045 A 
ATOM     21  C   UNL     1      -1.778   0.765  -0.154  1.00  0.00     0.047 A 
ATOM     22  C   UNL     1      -0.628  -1.333   0.032  1.00  0.00     0.050 A 
ATOM     23  C   UNL     1       1.859  -1.538   0.071  1.00  0.00     0.045 C 
ENDBRANCH  15  16
ENDBRANCH  14  15
ENDBRANCH  12  14
ENDBRANCH  11  12
ENDBRANCH   6  11
ENDBRANCH   3   5
ENDBRANCH   2   3
ENDBRANCH   1   2
BRANCH   1  24
ATOM     24  C   UNL     1      -6.769   3.162   9.451  1.00  0.00     0.275 C 
BRANCH  24  25
ATOM     25  O   UNL     1      -5.722   2.248   9.823  1.00  0.00    -0.458 OA
BRANCH  25  26
ATOM     26  C   UNL     1      -5.922   0.968   9.436  1.00  0.00     0.338 C 
ATOM     27  O   UNL     1      -6.893   0.514   8.852  1.00  0.00    -0.246 OA
BRANCH  26  28
ATOM     28  C   UNL     1      -4.735   0.154   9.729  1.00  0.00     0.060 A 
ATOM     29  C   UNL     1      -3.707   0.162   8.796  1.00  0.00     0.016 A 
ATOM     30  C   UNL     1      -4.711  -0.753  10.784  1.00  0.00     0.016 A 
ATOM     31  C   UNL     1      -2.719  -0.814   8.826  1.00  0.00     0.010 A 
ATOM     32  C   UNL     1      -3.642  -1.656  10.887  1.00  0.00     0.010 A 
ATOM     33  C   UNL     1      -2.654  -1.728   9.886  1.00  0.00    -0.014 A 
BRANCH  33  34
ATOM     34  C   UNL     1      -1.569  -2.754   9.924  1.00  0.00     0.031 A 
ATOM     35  C   UNL     1      -1.905  -4.223  10.025  1.00  0.00     0.074 A 
ATOM     36  C   UNL     1      -0.275  -2.374   9.852  1.00  0.00     0.049 A 
ATOM     37  N   UNL     1      -1.110  -5.242  10.236  1.00  0.00    -0.248 NA
ATOM     38  C   UNL     1      -3.323  -4.594   9.886  1.00  0.00     0.031 C 
ATOM     39  C   UNL     1       0.197  -0.994   9.709  1.00  0.00     0.029 A 
ATOM     40  N   UNL     1       0.885  -3.111   9.882  1.00  0.00    -0.354 N 
ATOM     41  C   UNL     1      -1.933  -6.362  10.310  1.00  0.00     0.074 A 
ATOM     42  C   UNL     1      -3.291  -5.896  10.134  1.00  0.00     0.031 C 
ATOM     43  C   UNL     1       1.534  -0.988   9.620  1.00  0.00     0.029 A 
ATOM     44  C   UNL     1       2.026  -2.345   9.810  1.00  0.00     0.049 A 
ATOM     45  H   UNL     1       0.898  -4.093   9.950  1.00  0.00     0.167 HD
ATOM     46  C   UNL     1      -1.584  -7.658  10.505  1.00  0.00     0.037 A 
ATOM     47  C   UNL     1       3.325  -2.679   9.938  1.00  0.00     0.037 A 
ATOM     48  C   UNL     1      -0.223  -8.116  10.632  1.00  0.00     0.049 A 
ATOM     49  C   UNL     1       3.684  -4.113  10.203  1.00  0.00     0.074 A 
ATOM     50  C   UNL     1       0.237  -9.409  10.811  1.00  0.00     0.029 A 
ATOM     51  N   UNL     1       0.899  -7.299  10.584  1.00  0.00    -0.354 N 
ATOM     52  N   UNL     1       2.892  -5.153  10.309  1.00  0.00    -0.248 NA
ATOM     53  C   UNL     1       5.109  -4.419  10.381  1.00  0.00     0.031 C 
ATOM     54  C   UNL     1       1.631  -9.368  10.925  1.00  0.00     0.029 A 
ATOM     55  C   UNL     1       2.047  -8.058  10.753  1.00  0.00     0.049 A 
ATOM     56  H   UNL     1       0.882  -6.324  10.449  1.00  0.00     0.167 HD
ATOM     57  C   UNL     1       3.724  -6.240  10.547  1.00  0.00     0.074 A 
ATOM     58  C   UNL     1       5.081  -5.733  10.550  1.00  0.00     0.031 C 
ATOM     59  C   UNL     1       3.393  -7.540  10.747  1.00  0.00     0.037 A 
BRANCH  46  60
ATOM     60  C   UNL     1      -2.689  -8.676  10.631  1.00  0.00     0.058 A 
ATOM     61  C   UNL     1      -3.483  -9.062   9.539  1.00  0.00     0.135 A 
ATOM     62  C   UNL     1      -2.929  -9.310  11.863  1.00  0.00     0.135 A 
ATOM     63  F   UNL     1      -3.310  -8.483   8.340  1.00  0.00    -0.206 F 
ATOM     64  C   UNL     1      -4.491 -10.014   9.670  1.00  0.00     0.059 A 
ATOM     65  C   UNL     1      -3.910 -10.287  12.010  1.00  0.00     0.059 A 
ATOM     66  F   UNL     1      -2.200  -8.985  12.943  1.00  0.00    -0.206 F 
ATOM     67  C   UNL     1      -4.697 -10.621  10.910  1.00  0.00     0.060 A 
BRANCH  67  68
ATOM     68  S   UNL     1      -6.005 -11.856  11.062  1.00  0.00     0.124 S 
ATOM     69  O   UNL     1      -7.202 -11.025  10.974  1.00  0.00    -0.237 OA
ATOM     70  O   UNL     1      -5.751 -12.723   9.915  1.00  0.00    -0.237 OA
ATOM     71  O   UNL     1      -5.757 -12.460  12.367  1.00  0.00    -0.744 OA
ENDBRANCH  67  68
ENDBRANCH  46  60
BRANCH  47  72
ATOM     72  C   UNL     1       4.374  -1.624   9.864  1.00  0.00     0.058 A 
ATOM     73  C   UNL     1       5.290  -1.584   8.803  1.00  0.00     0.135 A 
ATOM     74  C   UNL     1       4.468  -0.621  10.844  1.00  0.00     0.135 A 
ATOM     75  F   UNL     1       5.250  -2.525   7.848  1.00  0.00    -0.206 F 
ATOM     76  C   UNL     1       6.266  -0.596   8.720  1.00  0.00     0.059 A 
ATOM     77  C   UNL     1       5.412   0.397  10.764  1.00  0.00     0.059 A 
ATOM     78  F   UNL     1       3.608  -0.605  11.875  1.00  0.00    -0.206 F 
ATOM     79  C   UNL     1       6.315   0.394   9.703  1.00  0.00     0.060 A 
BRANCH  79  80
ATOM     80  S   UNL     1       7.554   1.700   9.558  1.00  0.00     0.124 S 
ATOM     81  O   UNL     1       8.779   0.980   9.887  1.00  0.00    -0.237 OA
ATOM     82  O   UNL     1       7.407   2.107   8.164  1.00  0.00    -0.237 OA
ATOM     83  O   UNL     1       7.118   2.687  10.541  1.00  0.00    -0.744 OA
ENDBRANCH  79  80
ENDBRANCH  47  72
BRANCH  59  84
ATOM     84  C   UNL     1       4.522  -8.515  10.943  1.00  0.00     0.058 A 
ATOM     85  C   UNL     1       5.285  -8.538  12.121  1.00  0.00     0.135 A 
ATOM     86  C   UNL     1       4.818  -9.463   9.951  1.00  0.00     0.135 A 
ATOM     87  F   UNL     1       5.050  -7.647  13.097  1.00  0.00    -0.206 F 
ATOM     88  C   UNL     1       6.319  -9.451  12.297  1.00  0.00     0.059 A 
ATOM     89  C   UNL     1       5.827 -10.405  10.119  1.00  0.00     0.059 A 
ATOM     90  F   UNL     1       4.114  -9.489   8.808  1.00  0.00    -0.206 F 
ATOM     91  C   UNL     1       6.581 -10.383  11.291  1.00  0.00     0.060 A 
BRANCH  91  92
ATOM     92  S   UNL     1       7.906 -11.582  11.546  1.00  0.00     0.124 S 
ATOM     93  O   UNL     1       9.092 -10.744  11.403  1.00  0.00    -0.237 OA
ATOM     94  O   UNL     1       7.632 -12.068  12.895  1.00  0.00    -0.237 OA
ATOM     95  O   UNL     1       7.694 -12.556  10.480  1.00  0.00    -0.744 OA
ENDBRANCH  91  92
ENDBRANCH  59  84
ENDBRANCH  33  34
ENDBRANCH  26  28
ENDBRANCH  25  26
ENDBRANCH  24  25
ENDBRANCH   1  24
TORSDOF 19
