REMARK SMILES Cc1c(Cl)cccc1NC(=O)NCc1cn([C@@H]2C[NH2+][C@H](C(=O)OCCOC(=O)c3ccc(-c4c5nc(c(-c6c(F)cc(S(=O)(=O)[O-])cc6F)c6ccc([nH]6)c(-c6c(F)cc(S(=O)(=O)[O-])cc6F)c6nc(c(-c7c(F)cc(S(=O)(=O)[O-])cc7F)c7ccc4[nH]7)C=C6)C=C5)cc3)C2)nn1
REMARK SMILES IDX 24 1 23 2 21 3 22 4 20 5 17 6 18 7 95 8 19 9 16 12 14 13
REMARK SMILES IDX 15 14 97 15 96 16 13 17 12 18 9 19 10 20 11 22 8 24 1 25
REMARK SMILES IDX 2 26 3 27 4 28 5 29 7 30 6 31 25 32 26 33 27 34 28 35 29 36
REMARK SMILES IDX 30 37 94 38 31 39 93 40 32 41 33 42 34 43 87 44 35 45 92 46
REMARK SMILES IDX 86 47 88 48 36 49 91 50 85 51 84 52 37 54 71 55 50 56 70 57
REMARK SMILES IDX 51 58 54 59 69 60 89 61 52 62 53 63 68 65 90 66 55 67 38 68
REMARK SMILES IDX 39 69 48 70 40 71 41 72 47 73 49 74 42 75 43 76 44 77 45 78
REMARK SMILES IDX 46 79 72 80 73 81 82 82 74 83 75 84 81 85 83 86 76 87 77 88
REMARK SMILES IDX 78 89 79 90 80 91 56 92 57 93 66 94 58 95 59 96 65 97 67 98
REMARK SMILES IDX 60 99 61 100 62 101 63 102 64 103
REMARK H PARENT 19 10 19 11 9 21 12 23 88 53 54 64
REMARK Flexibility Score: inf
ROOT
ATOM      1  C   UNL     1      -2.923  -7.337  -0.179  1.00  0.00     0.274 C 
ENDROOT
BRANCH   1   2
ATOM      2  O   UNL     1      -3.123  -6.566   1.017  1.00  0.00    -0.458 OA
BRANCH   2   3
ATOM      3  C   UNL     1      -4.406  -6.207   1.300  1.00  0.00     0.365 C 
ATOM      4  O   UNL     1      -5.328  -6.257   0.490  1.00  0.00    -0.245 OA
BRANCH   3   5
ATOM      5  C   UNL     1      -4.609  -5.819   2.779  1.00  0.00     0.295 C 
ATOM      6  C   UNL     1      -4.764  -3.507   3.541  1.00  0.00     0.170 C 
ATOM      7  C   UNL     1      -3.314  -3.963   3.417  1.00  0.00     0.289 C 
ATOM      8  C   UNL     1      -5.579  -4.648   2.930  1.00  0.00     0.110 C 
ATOM      9  N   UNL     1      -3.353  -5.420   3.459  1.00  0.00    -0.333 N 
ATOM     10  H   UNL     1      -3.356  -5.746   4.426  1.00  0.00     0.347 HD
ATOM     11  H   UNL     1      -2.537  -5.828   3.003  1.00  0.00     0.347 HD
BRANCH   6  12
ATOM     12  N   UNL     1      -4.979  -2.241   2.880  1.00  0.00    -0.243 N 
ATOM     13  C   UNL     1      -4.936  -0.630   1.444  1.00  0.00     0.102 A 
ATOM     14  C   UNL     1      -4.816  -1.996   1.555  1.00  0.00     0.137 A 
ATOM     15  N   UNL     1      -5.243  -0.107   2.670  1.00  0.00    -0.134 NA
ATOM     16  N   UNL     1      -5.266  -1.111   3.549  1.00  0.00    -0.067 NA
BRANCH  13  17
ATOM     17  C   UNL     1      -4.706   0.110   0.192  1.00  0.00     0.178 C 
BRANCH  17  18
ATOM     18  N   UNL     1      -4.462   1.515   0.319  1.00  0.00    -0.332 N 
ATOM     19  N   UNL     1      -2.262   2.064  -0.503  1.00  0.00    -0.308 N 
ATOM     20  C   UNL     1      -3.531   2.346  -0.151  1.00  0.00     0.319 C 
ATOM     21  H   UNL     1      -1.807   2.862  -0.856  1.00  0.00     0.171 HD
ATOM     22  O   UNL     1      -3.840   3.546  -0.181  1.00  0.00    -0.248 OA
ATOM     23  H   UNL     1      -5.132   1.970   0.880  1.00  0.00     0.165 HD
BRANCH  19  24
ATOM     24  C   UNL     1      -1.403   0.947  -0.508  1.00  0.00     0.047 A 
ATOM     25  C   UNL     1       0.568   2.419   0.232  1.00  0.00     0.048 C 
ATOM     26  C   UNL     1      -0.068   1.081  -0.055  1.00  0.00    -0.009 A 
ATOM     27  C   UNL     1       0.722  -0.087   0.073  1.00  0.00     0.046 A 
ATOM     28  Cl  UNL     1       2.360  -0.030   0.635  1.00  0.00    -0.084 Cl
ATOM     29  C   UNL     1       0.221  -1.343  -0.268  1.00  0.00     0.021 A 
ATOM     30  C   UNL     1      -1.789  -0.282  -1.043  1.00  0.00     0.026 A 
ATOM     31  C   UNL     1      -1.025  -1.435  -0.866  1.00  0.00     0.004 A 
ENDBRANCH  19  24
ENDBRANCH  17  18
ENDBRANCH  13  17
ENDBRANCH   6  12
ENDBRANCH   3   5
ENDBRANCH   2   3
ENDBRANCH   1   2
BRANCH   1  32
ATOM     32  C   UNL     1      -2.897  -8.824   0.151  1.00  0.00     0.275 C 
BRANCH  32  33
ATOM     33  O   UNL     1      -4.188  -9.303   0.534  1.00  0.00    -0.458 OA
BRANCH  33  34
ATOM     34  C   UNL     1      -4.402  -9.343   1.870  1.00  0.00     0.338 C 
ATOM     35  O   UNL     1      -3.800  -8.732   2.731  1.00  0.00    -0.246 OA
BRANCH  34  36
ATOM     36  C   UNL     1      -5.383 -10.387   2.180  1.00  0.00     0.060 A 
ATOM     37  C   UNL     1      -5.930 -10.411   3.467  1.00  0.00     0.016 A 
ATOM     38  C   UNL     1      -5.569 -11.443   1.279  1.00  0.00     0.016 A 
ATOM     39  C   UNL     1      -6.580 -11.554   3.892  1.00  0.00     0.010 A 
ATOM     40  C   UNL     1      -6.209 -12.584   1.707  1.00  0.00     0.010 A 
ATOM     41  C   UNL     1      -6.661 -12.649   3.025  1.00  0.00    -0.014 A 
BRANCH  41  42
ATOM     42  C   UNL     1      -7.321 -13.853   3.493  1.00  0.00     0.031 A 
ATOM     43  C   UNL     1      -8.791 -13.724   3.633  1.00  0.00     0.074 A 
ATOM     44  C   UNL     1      -6.672 -15.026   3.613  1.00  0.00     0.049 A 
ATOM     45  N   UNL     1      -9.511 -13.864   4.696  1.00  0.00    -0.248 NA
ATOM     46  C   UNL     1      -9.542 -13.259   2.454  1.00  0.00     0.031 C 
ATOM     47  C   UNL     1      -5.293 -15.324   3.212  1.00  0.00     0.029 A 
ATOM     48  N   UNL     1      -7.150 -16.237   4.011  1.00  0.00    -0.354 N 
ATOM     49  C   UNL     1     -10.828 -13.727   4.271  1.00  0.00     0.074 A 
ATOM     50  C   UNL     1     -10.781 -13.188   2.937  1.00  0.00     0.031 C 
ATOM     51  C   UNL     1      -5.118 -16.663   3.186  1.00  0.00     0.029 A 
ATOM     52  C   UNL     1      -6.322 -17.303   3.690  1.00  0.00     0.049 A 
ATOM     53  H   UNL     1      -8.007 -16.347   4.483  1.00  0.00     0.167 HD
ATOM     54  C   UNL     1     -11.857 -14.312   4.940  1.00  0.00     0.037 A 
ATOM     55  C   UNL     1      -6.628 -18.621   3.771  1.00  0.00     0.037 A 
ATOM     56  C   UNL     1     -11.485 -14.669   6.282  1.00  0.00     0.049 A 
ATOM     57  C   UNL     1      -7.758 -18.757   4.723  1.00  0.00     0.074 A 
ATOM     58  C   UNL     1     -11.091 -13.972   7.406  1.00  0.00     0.029 A 
ATOM     59  N   UNL     1     -11.140 -15.980   6.496  1.00  0.00    -0.354 N 
ATOM     60  N   UNL     1      -7.675 -18.488   5.997  1.00  0.00    -0.248 NA
ATOM     61  C   UNL     1      -9.113 -18.852   4.199  1.00  0.00     0.031 C 
ATOM     62  C   UNL     1     -10.178 -14.830   8.087  1.00  0.00     0.029 A 
ATOM     63  C   UNL     1     -10.079 -16.021   7.365  1.00  0.00     0.049 A 
ATOM     64  H   UNL     1     -11.582 -16.762   6.092  1.00  0.00     0.167 HD
ATOM     65  C   UNL     1      -8.915 -17.969   6.332  1.00  0.00     0.074 A 
ATOM     66  C   UNL     1      -9.794 -18.364   5.239  1.00  0.00     0.031 C 
ATOM     67  C   UNL     1      -9.040 -17.031   7.316  1.00  0.00     0.037 A 
BRANCH  54  68
ATOM     68  C   UNL     1     -13.054 -14.908   4.242  1.00  0.00     0.058 A 
ATOM     69  C   UNL     1     -14.193 -15.271   4.987  1.00  0.00     0.135 A 
ATOM     70  C   UNL     1     -13.014 -15.388   2.912  1.00  0.00     0.135 A 
ATOM     71  F   UNL     1     -14.315 -14.898   6.271  1.00  0.00    -0.206 F 
ATOM     72  C   UNL     1     -15.198 -16.085   4.460  1.00  0.00     0.059 A 
ATOM     73  C   UNL     1     -14.030 -16.149   2.350  1.00  0.00     0.059 A 
ATOM     74  F   UNL     1     -11.940 -15.226   2.128  1.00  0.00    -0.206 F 
ATOM     75  C   UNL     1     -15.101 -16.526   3.142  1.00  0.00     0.060 A 
BRANCH  75  76
ATOM     76  S   UNL     1     -16.341 -17.654   2.485  1.00  0.00     0.124 S 
ATOM     77  O   UNL     1     -16.016 -18.886   3.194  1.00  0.00    -0.237 OA
ATOM     78  O   UNL     1     -17.585 -16.999   2.874  1.00  0.00    -0.237 OA
ATOM     79  O   UNL     1     -16.064 -17.657   1.051  1.00  0.00    -0.744 OA
ENDBRANCH  75  76
ENDBRANCH  54  68
BRANCH  55  80
ATOM     80  C   UNL     1      -6.194 -19.711   2.862  1.00  0.00     0.058 A 
ATOM     81  C   UNL     1      -6.336 -21.063   3.217  1.00  0.00     0.135 A 
ATOM     82  C   UNL     1      -5.874 -19.452   1.513  1.00  0.00     0.135 A 
ATOM     83  F   UNL     1      -6.667 -21.400   4.473  1.00  0.00    -0.206 F 
ATOM     84  C   UNL     1      -6.207 -22.096   2.281  1.00  0.00     0.059 A 
ATOM     85  C   UNL     1      -5.728 -20.464   0.567  1.00  0.00     0.059 A 
ATOM     86  F   UNL     1      -5.783 -18.196   1.050  1.00  0.00    -0.206 F 
ATOM     87  C   UNL     1      -5.920 -21.784   0.953  1.00  0.00     0.060 A 
BRANCH  87  88
ATOM     88  S   UNL     1      -5.917 -23.096  -0.290  1.00  0.00     0.124 S 
ATOM     89  O   UNL     1      -4.719 -23.848   0.069  1.00  0.00    -0.237 OA
ATOM     90  O   UNL     1      -7.189 -23.763  -0.038  1.00  0.00    -0.237 OA
ATOM     91  O   UNL     1      -5.839 -22.366  -1.554  1.00  0.00    -0.744 OA
ENDBRANCH  87  88
ENDBRANCH  55  80
BRANCH  67  92
ATOM     92  C   UNL     1      -7.898 -16.893   8.292  1.00  0.00     0.058 A 
ATOM     93  C   UNL     1      -6.611 -16.439   7.953  1.00  0.00     0.135 A 
ATOM     94  C   UNL     1      -8.155 -17.125   9.652  1.00  0.00     0.135 A 
ATOM     95  F   UNL     1      -6.310 -16.097   6.694  1.00  0.00    -0.206 F 
ATOM     96  C   UNL     1      -5.612 -16.272   8.914  1.00  0.00     0.059 A 
ATOM     97  C   UNL     1      -7.184 -16.932  10.632  1.00  0.00     0.059 A 
ATOM     98  F   UNL     1      -9.382 -17.501  10.049  1.00  0.00    -0.206 F 
ATOM     99  C   UNL     1      -5.909 -16.520  10.254  1.00  0.00     0.060 A 
BRANCH  99 100
ATOM    100  S   UNL     1      -4.640 -16.224  11.504  1.00  0.00     0.124 S 
ATOM    101  O   UNL     1      -3.734 -17.348  11.294  1.00  0.00    -0.237 OA
ATOM    102  O   UNL     1      -4.120 -14.912  11.127  1.00  0.00    -0.237 OA
ATOM    103  O   UNL     1      -5.386 -16.250  12.760  1.00  0.00    -0.744 OA
ENDBRANCH  99 100
ENDBRANCH  67  92
ENDBRANCH  41  42
ENDBRANCH  34  36
ENDBRANCH  33  34
ENDBRANCH  32  33
ENDBRANCH   1  32
TORSDOF 18
