REMARK SMILES O=C(OCCOC(=O)[C@]1([NH2+]C2CC2)CCC[C@@H](n2cc(Br)cn2)C1)c1ccc(-c2c3nc(c(-c4c(F)cc(S(=O)(=O)[O-])cc4F)c4ccc([nH]4)c(-c4c(F)cc(S(=O)(=O)[O-])cc4F)c4nc(c(-c5c(F)cc(S(=O)(=O)[O-])cc5F)c5ccc2[nH]5)C=C4)C=C3)cc1
REMARK SMILES IDX 4 1 3 2 2 3 1 4 25 5 26 6 90 7 27 8 89 9 28 10 29 11 30 12
REMARK SMILES IDX 83 13 31 14 88 15 82 16 84 17 32 18 87 19 81 20 80 21 33 23
REMARK SMILES IDX 67 24 46 25 66 26 47 27 50 28 65 29 85 30 48 31 49 32 64 34
REMARK SMILES IDX 86 35 51 36 34 37 35 38 44 39 36 40 37 41 43 42 45 43 38 44
REMARK SMILES IDX 39 45 40 46 41 47 42 48 68 49 69 50 78 51 70 52 71 53 77 54
REMARK SMILES IDX 79 55 72 56 73 57 74 58 75 59 76 60 52 61 53 62 62 63 54 64
REMARK SMILES IDX 55 65 61 66 63 67 56 68 57 69 58 70 59 71 60 72 5 73 6 74
REMARK SMILES IDX 7 75 8 76 9 77 14 78 24 79 15 80 17 81 16 82 10 83 11 86
REMARK SMILES IDX 12 87 13 88 18 89 19 90 23 91 20 92 22 93 21 94
REMARK H PARENT 84 22 50 33 10 84 10 85
REMARK Flexibility Score: inf
ROOT
ATOM      1  C   UNL     1       2.221  -0.981  -4.982  1.00  0.00     0.275 C 
ENDROOT
BRANCH   1   2
ATOM      2  O   UNL     1       2.890   0.106  -4.316  1.00  0.00    -0.458 OA
BRANCH   2   3
ATOM      3  C   UNL     1       2.726   0.668  -3.099  1.00  0.00     0.338 C 
ATOM      4  O   UNL     1       3.613   1.425  -2.700  1.00  0.00    -0.246 OA
BRANCH   3   5
ATOM      5  C   UNL     1       1.533   0.492  -2.215  1.00  0.00     0.060 A 
ATOM      6  C   UNL     1       0.252   0.126  -2.635  1.00  0.00     0.016 A 
ATOM      7  C   UNL     1       1.699   0.889  -0.870  1.00  0.00     0.016 A 
ATOM      8  C   UNL     1      -0.829   0.169  -1.749  1.00  0.00     0.010 A 
ATOM      9  C   UNL     1       0.620   0.966   0.008  1.00  0.00     0.010 A 
ATOM     10  C   UNL     1      -0.652   0.631  -0.443  1.00  0.00    -0.014 A 
BRANCH  10  11
ATOM     11  C   UNL     1      -1.828   0.762   0.418  1.00  0.00     0.031 A 
ATOM     12  C   UNL     1      -2.386  -0.502   0.994  1.00  0.00     0.074 A 
ATOM     13  C   UNL     1      -2.303   1.971   0.790  1.00  0.00     0.049 A 
ATOM     14  N   UNL     1      -3.590  -0.976   0.917  1.00  0.00    -0.248 NA
ATOM     15  C   UNL     1      -1.452  -1.380   1.718  1.00  0.00     0.031 C 
ATOM     16  C   UNL     1      -1.693   3.288   0.573  1.00  0.00     0.029 A 
ATOM     17  N   UNL     1      -3.405   2.267   1.536  1.00  0.00    -0.354 N 
ATOM     18  C   UNL     1      -3.614  -2.123   1.718  1.00  0.00     0.074 A 
ATOM     19  C   UNL     1      -2.250  -2.377   2.101  1.00  0.00     0.031 C 
ATOM     20  C   UNL     1      -2.321   4.205   1.344  1.00  0.00     0.029 A 
ATOM     21  C   UNL     1      -3.450   3.574   2.004  1.00  0.00     0.049 A 
ATOM     22  H   UNL     1      -4.111   1.608   1.728  1.00  0.00     0.167 HD
ATOM     23  C   UNL     1      -4.771  -2.709   2.143  1.00  0.00     0.037 A 
ATOM     24  C   UNL     1      -4.312   4.081   2.923  1.00  0.00     0.037 A 
ATOM     25  C   UNL     1      -5.896  -2.314   1.345  1.00  0.00     0.049 A 
ATOM     26  C   UNL     1      -5.485   3.172   2.979  1.00  0.00     0.074 A 
ATOM     27  C   UNL     1      -6.279  -2.512   0.035  1.00  0.00     0.029 A 
ATOM     28  N   UNL     1      -6.729  -1.333   1.816  1.00  0.00    -0.354 N 
ATOM     29  N   UNL     1      -6.325   2.994   1.998  1.00  0.00    -0.248 NA
ATOM     30  C   UNL     1      -5.474   2.127   3.989  1.00  0.00     0.031 C 
ATOM     31  C   UNL     1      -6.917  -1.297  -0.349  1.00  0.00     0.029 A 
ATOM     32  C   UNL     1      -6.949  -0.468   0.774  1.00  0.00     0.049 A 
ATOM     33  H   UNL     1      -7.098  -1.262   2.726  1.00  0.00     0.167 HD
ATOM     34  C   UNL     1      -6.647   1.646   2.041  1.00  0.00     0.074 A 
ATOM     35  C   UNL     1      -6.157   1.184   3.338  1.00  0.00     0.031 C 
ATOM     36  C   UNL     1      -7.044   0.968   0.923  1.00  0.00     0.037 A 
BRANCH  23  37
ATOM     37  C   UNL     1      -4.941  -3.442   3.454  1.00  0.00     0.058 A 
ATOM     38  C   UNL     1      -6.110  -4.195   3.695  1.00  0.00     0.135 A 
ATOM     39  C   UNL     1      -4.130  -3.200   4.585  1.00  0.00     0.135 A 
ATOM     40  F   UNL     1      -6.958  -4.483   2.694  1.00  0.00    -0.206 F 
ATOM     41  C   UNL     1      -6.484  -4.612   4.975  1.00  0.00     0.059 A 
ATOM     42  C   UNL     1      -4.459  -3.649   5.862  1.00  0.00     0.059 A 
ATOM     43  F   UNL     1      -3.032  -2.437   4.517  1.00  0.00    -0.206 F 
ATOM     44  C   UNL     1      -5.659  -4.316   6.056  1.00  0.00     0.060 A 
BRANCH  44  45
ATOM     45  S   UNL     1      -6.200  -4.744   7.722  1.00  0.00     0.124 S 
ATOM     46  O   UNL     1      -7.312  -3.821   7.914  1.00  0.00    -0.237 OA
ATOM     47  O   UNL     1      -6.557  -6.152   7.574  1.00  0.00    -0.237 OA
ATOM     48  O   UNL     1      -5.016  -4.486   8.536  1.00  0.00    -0.744 OA
ENDBRANCH  44  45
ENDBRANCH  23  37
BRANCH  24  49
ATOM     49  C   UNL     1      -4.003   5.049   4.012  1.00  0.00     0.058 A 
ATOM     50  C   UNL     1      -5.021   5.686   4.743  1.00  0.00     0.135 A 
ATOM     51  C   UNL     1      -2.702   5.149   4.547  1.00  0.00     0.135 A 
ATOM     52  F   UNL     1      -6.295   5.614   4.328  1.00  0.00    -0.206 F 
ATOM     53  C   UNL     1      -4.771   6.350   5.951  1.00  0.00     0.059 A 
ATOM     54  C   UNL     1      -2.426   5.814   5.740  1.00  0.00     0.059 A 
ATOM     55  F   UNL     1      -1.667   4.517   3.972  1.00  0.00    -0.206 F 
ATOM     56  C   UNL     1      -3.469   6.394   6.450  1.00  0.00     0.060 A 
BRANCH  56  57
ATOM     57  S   UNL     1      -3.160   7.106   8.084  1.00  0.00     0.124 S 
ATOM     58  O   UNL     1      -3.402   8.524   7.846  1.00  0.00    -0.237 OA
ATOM     59  O   UNL     1      -4.147   6.420   8.911  1.00  0.00    -0.237 OA
ATOM     60  O   UNL     1      -1.770   6.747   8.354  1.00  0.00    -0.744 OA
ENDBRANCH  56  57
ENDBRANCH  24  49
BRANCH  36  61
ATOM     61  C   UNL     1      -7.366   1.762  -0.321  1.00  0.00     0.058 A 
ATOM     62  C   UNL     1      -6.433   2.552  -1.017  1.00  0.00     0.135 A 
ATOM     63  C   UNL     1      -8.624   1.595  -0.920  1.00  0.00     0.135 A 
ATOM     64  F   UNL     1      -5.173   2.676  -0.580  1.00  0.00    -0.206 F 
ATOM     65  C   UNL     1      -6.749   3.183  -2.222  1.00  0.00     0.059 A 
ATOM     66  C   UNL     1      -8.951   2.186  -2.140  1.00  0.00     0.059 A 
ATOM     67  F   UNL     1      -9.542   0.799  -0.345  1.00  0.00    -0.206 F 
ATOM     68  C   UNL     1      -8.011   2.992  -2.779  1.00  0.00     0.060 A 
BRANCH  68  69
ATOM     69  S   UNL     1      -8.392   3.738  -4.379  1.00  0.00     0.124 S 
ATOM     70  O   UNL     1      -8.514   5.154  -4.036  1.00  0.00    -0.237 OA
ATOM     71  O   UNL     1      -7.220   3.384  -5.181  1.00  0.00    -0.237 OA
ATOM     72  O   UNL     1      -9.628   3.084  -4.779  1.00  0.00    -0.744 OA
ENDBRANCH  68  69
ENDBRANCH  36  61
ENDBRANCH  10  11
ENDBRANCH   3   5
ENDBRANCH   2   3
ENDBRANCH   1   2
BRANCH   1  73
ATOM     73  C   UNL     1       2.756  -2.330  -4.536  1.00  0.00     0.274 C 
BRANCH  73  74
ATOM     74  O   UNL     1       2.394  -2.547  -3.166  1.00  0.00    -0.457 OA
BRANCH  74  75
ATOM     75  C   UNL     1       3.382  -2.987  -2.339  1.00  0.00     0.368 C 
ATOM     76  O   UNL     1       4.543  -3.169  -2.695  1.00  0.00    -0.245 OA
BRANCH  75  77
ATOM     77  C   UNL     1       2.847  -3.314  -0.910  1.00  0.00     0.196 C 
ATOM     78  C   UNL     1       3.382  -4.708  -0.499  1.00  0.00     0.081 C 
ATOM     79  C   UNL     1       1.293  -3.344  -0.833  1.00  0.00     0.108 C 
ATOM     80  C   UNL     1       2.778  -5.838  -1.334  1.00  0.00     0.009 C 
ATOM     81  C   UNL     1       0.675  -4.488  -1.659  1.00  0.00     0.114 C 
ATOM     82  C   UNL     1       1.258  -5.846  -1.247  1.00  0.00     0.028 C 
BRANCH  77  83
ATOM     83  N   UNL     1       3.307  -2.254   0.036  1.00  0.00    -0.330 N 
ATOM     84  H   UNL     1       2.988  -2.511   0.970  1.00  0.00     0.347 HD
ATOM     85  H   UNL     1       2.913  -1.382  -0.316  1.00  0.00     0.347 HD
BRANCH  83  86
ATOM     86  C   UNL     1       4.761  -2.033   0.102  1.00  0.00     0.183 C 
ATOM     87  C   UNL     1       5.349  -0.785  -0.492  1.00  0.00     0.071 C 
ATOM     88  C   UNL     1       5.284  -0.942   0.997  1.00  0.00     0.071 C 
ENDBRANCH  83  86
ENDBRANCH  77  83
BRANCH  81  89
ATOM     89  N   UNL     1      -0.785  -4.451  -1.643  1.00  0.00    -0.268 N 
ATOM     90  C   UNL     1      -1.563  -3.728  -2.506  1.00  0.00     0.124 A 
ATOM     91  N   UNL     1      -1.496  -5.282  -0.851  1.00  0.00    -0.180 NA
ATOM     92  C   UNL     1      -2.843  -4.156  -2.286  1.00  0.00     0.055 A 
ATOM     93  C   UNL     1      -2.762  -5.090  -1.246  1.00  0.00     0.150 A 
ATOM     94  Br  UNL     1      -4.381  -3.656  -3.212  1.00  0.00    -0.047 Br
ENDBRANCH  81  89
ENDBRANCH  75  77
ENDBRANCH  74  75
ENDBRANCH  73  74
ENDBRANCH   1  73
TORSDOF 17
