REMARK SMILES O=C(Cc1ccccc1Nc1c(Cl)cccc1Cl)OCCOC(=O)c1ccc(-c2c3nc(c(-c4c(F)cc(S(=O)(=O)[O-])cc4F)c4ccc([nH]4)c(-c4c(F)cc(S(=O)(=O)[O-])cc4F)c4nc(c(-c5c(F)cc(S(=O)(=O)[O-])cc5F)c5ccc2[nH]5)C=C4)C=C3)cc1
REMARK SMILES IDX 20 1 19 2 2 3 1 4 3 5 4 6 5 7 9 8 6 9 8 10 7 11 10 12 11 14
REMARK SMILES IDX 12 15 17 16 13 17 14 18 16 19 18 20 15 21 21 22 22 23 23 24
REMARK SMILES IDX 24 25 25 26 26 27 90 28 27 29 89 30 28 31 29 32 30 33 83 34
REMARK SMILES IDX 31 35 88 36 82 37 84 38 32 39 87 40 81 41 80 42 33 44 67 45
REMARK SMILES IDX 46 46 66 47 47 48 50 49 65 50 85 51 48 52 49 53 64 55 86 56
REMARK SMILES IDX 51 57 34 58 35 59 44 60 36 61 37 62 43 63 45 64 38 65 39 66
REMARK SMILES IDX 40 67 41 68 42 69 68 70 69 71 78 72 70 73 71 74 77 75 79 76
REMARK SMILES IDX 72 77 73 78 74 79 75 80 76 81 52 82 53 83 62 84 54 85 55 86
REMARK SMILES IDX 61 87 63 88 56 89 57 90 58 91 59 92 60 93
REMARK H PARENT 10 13 84 43 50 54
REMARK Flexibility Score: inf
ROOT
ATOM      1  C   UNL     1       4.587  -0.319  -0.700  1.00  0.00     0.274 C 
ENDROOT
BRANCH   1   2
ATOM      2  O   UNL     1       3.253  -0.741  -0.340  1.00  0.00    -0.462 OA
BRANCH   2   3
ATOM      3  C   UNL     1       2.517  -0.217   0.668  1.00  0.00     0.310 C 
ATOM      4  O   UNL     1       1.389  -0.657   0.893  1.00  0.00    -0.252 OA
BRANCH   3   5
ATOM      5  C   UNL     1       3.108   0.881   1.521  1.00  0.00     0.160 C 
BRANCH   5   6
ATOM      6  C   UNL     1       4.001   0.458   2.667  1.00  0.00    -0.013 A 
ATOM      7  C   UNL     1       3.987  -0.873   3.127  1.00  0.00     0.006 A 
ATOM      8  C   UNL     1       4.810   1.416   3.331  1.00  0.00     0.042 A 
ATOM      9  C   UNL     1       4.770  -1.265   4.210  1.00  0.00     0.000 A 
ATOM     10  C   UNL     1       5.569   0.996   4.433  1.00  0.00     0.026 A 
ATOM     11  C   UNL     1       5.555  -0.330   4.867  1.00  0.00     0.002 A 
BRANCH   8  12
ATOM     12  N   UNL     1       4.872   2.754   2.867  1.00  0.00    -0.353 N 
ATOM     13  H   UNL     1       4.183   2.992   2.205  1.00  0.00     0.167 HD
BRANCH  12  14
ATOM     14  C   UNL     1       5.766   3.809   3.201  1.00  0.00     0.076 A 
ATOM     15  C   UNL     1       5.233   5.051   3.610  1.00  0.00     0.066 A 
ATOM     16  C   UNL     1       7.167   3.689   3.222  1.00  0.00     0.066 A 
ATOM     17  Cl  UNL     1       3.539   5.330   3.560  1.00  0.00    -0.082 Cl
ATOM     18  C   UNL     1       6.036   6.100   4.064  1.00  0.00     0.023 A 
ATOM     19  C   UNL     1       7.977   4.737   3.691  1.00  0.00     0.023 A 
ATOM     20  Cl  UNL     1       7.991   2.309   2.572  1.00  0.00    -0.082 Cl
ATOM     21  C   UNL     1       7.412   5.936   4.122  1.00  0.00     0.003 A 
ENDBRANCH  12  14
ENDBRANCH   8  12
ENDBRANCH   5   6
ENDBRANCH   3   5
ENDBRANCH   2   3
ENDBRANCH   1   2
BRANCH   1  22
ATOM     22  C   UNL     1       4.559   0.652  -1.882  1.00  0.00     0.275 C 
BRANCH  22  23
ATOM     23  O   UNL     1       3.977   1.906  -1.482  1.00  0.00    -0.458 OA
BRANCH  23  24
ATOM     24  C   UNL     1       2.664   2.073  -1.784  1.00  0.00     0.338 C 
ATOM     25  O   UNL     1       1.984   1.345  -2.486  1.00  0.00    -0.246 OA
BRANCH  24  26
ATOM     26  C   UNL     1       2.112   3.180  -0.964  1.00  0.00     0.060 A 
ATOM     27  C   UNL     1       0.799   3.056  -0.490  1.00  0.00     0.016 A 
ATOM     28  C   UNL     1       2.870   4.305  -0.626  1.00  0.00     0.016 A 
ATOM     29  C   UNL     1       0.232   4.068   0.291  1.00  0.00     0.010 A 
ATOM     30  C   UNL     1       2.300   5.314   0.159  1.00  0.00     0.010 A 
ATOM     31  C   UNL     1       0.969   5.216   0.605  1.00  0.00    -0.014 A 
BRANCH  31  32
ATOM     32  C   UNL     1       0.328   6.366   1.298  1.00  0.00     0.031 A 
ATOM     33  C   UNL     1      -0.016   7.601   0.506  1.00  0.00     0.074 A 
ATOM     34  C   UNL     1       0.069   6.337   2.620  1.00  0.00     0.049 A 
ATOM     35  N   UNL     1      -0.543   8.726   0.915  1.00  0.00    -0.248 NA
ATOM     36  C   UNL     1       0.255   7.555  -0.941  1.00  0.00     0.031 C 
ATOM     37  C   UNL     1       0.316   5.206   3.514  1.00  0.00     0.029 A 
ATOM     38  N   UNL     1      -0.406   7.319   3.457  1.00  0.00    -0.354 N 
ATOM     39  C   UNL     1      -0.727   9.494  -0.228  1.00  0.00     0.074 A 
ATOM     40  C   UNL     1      -0.164   8.749  -1.333  1.00  0.00     0.031 C 
ATOM     41  C   UNL     1       0.111   5.597   4.784  1.00  0.00     0.029 A 
ATOM     42  C   UNL     1      -0.323   6.991   4.790  1.00  0.00     0.049 A 
ATOM     43  H   UNL     1      -0.770   8.175   3.132  1.00  0.00     0.167 HD
ATOM     44  C   UNL     1      -1.357  10.686  -0.356  1.00  0.00     0.037 A 
ATOM     45  C   UNL     1      -0.548   7.735   5.890  1.00  0.00     0.037 A 
ATOM     46  C   UNL     1      -1.904  11.440   0.741  1.00  0.00     0.049 A 
ATOM     47  C   UNL     1      -1.113   9.123   5.744  1.00  0.00     0.074 A 
ATOM     48  C   UNL     1      -2.605  12.634   0.702  1.00  0.00     0.029 A 
ATOM     49  N   UNL     1      -1.799  11.084   2.076  1.00  0.00    -0.354 N 
ATOM     50  N   UNL     1      -1.368   9.798   4.649  1.00  0.00    -0.248 NA
ATOM     51  C   UNL     1      -1.471   9.830   6.982  1.00  0.00     0.031 C 
ATOM     52  C   UNL     1      -2.888  13.020   2.017  1.00  0.00     0.029 A 
ATOM     53  C   UNL     1      -2.399  12.046   2.872  1.00  0.00     0.049 A 
ATOM     54  H   UNL     1      -1.363  10.267   2.410  1.00  0.00     0.167 HD
ATOM     55  C   UNL     1      -1.976  10.979   5.064  1.00  0.00     0.074 A 
ATOM     56  C   UNL     1      -2.033  10.934   6.510  1.00  0.00     0.031 C 
ATOM     57  C   UNL     1      -2.465  11.995   4.311  1.00  0.00     0.037 A 
BRANCH  44  58
ATOM     58  C   UNL     1      -1.534  11.226  -1.746  1.00  0.00     0.058 A 
ATOM     59  C   UNL     1      -2.455  10.643  -2.633  1.00  0.00     0.135 A 
ATOM     60  C   UNL     1      -0.831  12.360  -2.180  1.00  0.00     0.135 A 
ATOM     61  F   UNL     1      -3.141   9.548  -2.272  1.00  0.00    -0.206 F 
ATOM     62  C   UNL     1      -2.661  11.157  -3.908  1.00  0.00     0.059 A 
ATOM     63  C   UNL     1      -1.038  12.904  -3.444  1.00  0.00     0.059 A 
ATOM     64  F   UNL     1       0.063  12.951  -1.372  1.00  0.00    -0.206 F 
ATOM     65  C   UNL     1      -1.950  12.290  -4.304  1.00  0.00     0.060 A 
BRANCH  65  66
ATOM     66  S   UNL     1      -2.250  12.958  -5.953  1.00  0.00     0.124 S 
ATOM     67  O   UNL     1      -1.589  11.965  -6.794  1.00  0.00    -0.237 OA
ATOM     68  O   UNL     1      -3.707  12.978  -6.022  1.00  0.00    -0.237 OA
ATOM     69  O   UNL     1      -1.610  14.269  -5.910  1.00  0.00    -0.744 OA
ENDBRANCH  65  66
ENDBRANCH  44  58
BRANCH  45  70
ATOM     70  C   UNL     1      -0.251   7.188   7.239  1.00  0.00     0.058 A 
ATOM     71  C   UNL     1      -1.276   6.803   8.114  1.00  0.00     0.135 A 
ATOM     72  C   UNL     1       1.073   7.091   7.696  1.00  0.00     0.135 A 
ATOM     73  F   UNL     1      -2.556   6.890   7.724  1.00  0.00    -0.206 F 
ATOM     74  C   UNL     1      -1.003   6.372   9.409  1.00  0.00     0.059 A 
ATOM     75  C   UNL     1       1.372   6.645   8.980  1.00  0.00     0.059 A 
ATOM     76  F   UNL     1       2.091   7.441   6.893  1.00  0.00    -0.206 F 
ATOM     77  C   UNL     1       0.325   6.304   9.835  1.00  0.00     0.060 A 
BRANCH  77  78
ATOM     78  S   UNL     1       0.666   5.748  11.520  1.00  0.00     0.124 S 
ATOM     79  O   UNL     1       0.234   6.900  12.302  1.00  0.00    -0.237 OA
ATOM     80  O   UNL     1      -0.168   4.555  11.624  1.00  0.00    -0.237 OA
ATOM     81  O   UNL     1       2.105   5.499  11.505  1.00  0.00    -0.744 OA
ENDBRANCH  77  78
ENDBRANCH  45  70
BRANCH  57  82
ATOM     82  C   UNL     1      -3.163  13.115   5.031  1.00  0.00     0.058 A 
ATOM     83  C   UNL     1      -2.461  14.058   5.797  1.00  0.00     0.135 A 
ATOM     84  C   UNL     1      -4.558  13.253   4.941  1.00  0.00     0.135 A 
ATOM     85  F   UNL     1      -1.127  13.968   5.921  1.00  0.00    -0.206 F 
ATOM     86  C   UNL     1      -3.119  15.078   6.477  1.00  0.00     0.059 A 
ATOM     87  C   UNL     1      -5.235  14.281   5.590  1.00  0.00     0.059 A 
ATOM     88  F   UNL     1      -5.279  12.386   4.212  1.00  0.00    -0.206 F 
ATOM     89  C   UNL     1      -4.508  15.178   6.372  1.00  0.00     0.060 A 
BRANCH  89  90
ATOM     90  S   UNL     1      -5.354  16.507   7.253  1.00  0.00     0.124 S 
ATOM     91  O   UNL     1      -5.356  15.998   8.620  1.00  0.00    -0.237 OA
ATOM     92  O   UNL     1      -4.485  17.653   7.005  1.00  0.00    -0.237 OA
ATOM     93  O   UNL     1      -6.660  16.568   6.603  1.00  0.00    -0.744 OA
ENDBRANCH  89  90
ENDBRANCH  57  82
ENDBRANCH  31  32
ENDBRANCH  24  26
ENDBRANCH  23  24
ENDBRANCH  22  23
ENDBRANCH   1  22
TORSDOF 17
