REMARK SMILES C[C@]12CC[C@@H]3[C@@H](CCC4=C/C(=N\OCC(=O)N5CCC[C@@H]5C(=O)OCCOC(=O)c5ccc(-c6c7nc(c(-c8c(F)cc(S(=O)(=O)[O-])cc8F)c8ccc([nH]8)c(-c8c(F)cc(S(=O)(=O)[O-])cc8F)c8nc(c(-c9c(F)cc(S(=O)(=O)[O-])cc9F)c9ccc6[nH]9)C=C8)C=C7)cc5)CC[C@@]43C)[C@@H]1CC[C@@H]2O
REMARK SMILES IDX 25 1 24 2 22 3 23 4 21 5 17 6 18 7 19 8 20 9 15 10 16 11
REMARK SMILES IDX 14 12 13 13 12 14 1 15 2 16 3 17 100 18 103 19 4 20 6 21
REMARK SMILES IDX 101 22 102 23 5 24 7 25 98 26 8 27 9 28 97 29 99 30 10 31
REMARK SMILES IDX 96 32 11 33 104 34 26 36 27 37 28 38 29 39 30 40 31 41 95 42
REMARK SMILES IDX 32 43 94 44 33 45 34 46 35 47 88 48 36 49 93 50 87 51 89 52
REMARK SMILES IDX 37 53 92 54 86 55 85 56 38 58 72 59 51 60 71 61 52 62 55 63
REMARK SMILES IDX 70 64 90 65 53 66 54 67 69 69 91 70 56 71 39 72 40 73 49 74
REMARK SMILES IDX 41 75 42 76 48 77 50 78 43 79 44 80 45 81 46 82 47 83 73 84
REMARK SMILES IDX 74 85 83 86 75 87 76 88 82 89 84 90 77 91 78 92 79 93 80 94
REMARK SMILES IDX 81 95 57 96 58 97 67 98 59 99 60 100 66 101 68 102 61 103
REMARK SMILES IDX 62 104 63 105 64 106 65 107
REMARK H PARENT 104 35 89 57 55 68
REMARK Flexibility Score: inf
ROOT
ATOM      1  C   UNL     1      -5.768   2.939  -3.406  1.00  0.00     0.274 C 
ENDROOT
BRANCH   1   2
ATOM      2  O   UNL     1      -6.750   2.612  -4.388  1.00  0.00    -0.461 OA
BRANCH   2   3
ATOM      3  C   UNL     1      -7.531   1.552  -4.060  1.00  0.00     0.328 C 
ATOM      4  O   UNL     1      -7.555   1.023  -2.953  1.00  0.00    -0.250 OA
BRANCH   3   5
ATOM      5  C   UNL     1      -8.338   1.044  -5.258  1.00  0.00     0.195 C 
ATOM      6  N   UNL     1      -8.259   1.806  -6.507  1.00  0.00    -0.326 N 
ATOM      7  C   UNL     1      -9.566   2.297  -6.917  1.00  0.00     0.120 C 
ATOM      8  C   UNL     1     -10.456   2.178  -5.701  1.00  0.00     0.024 C 
ATOM      9  C   UNL     1      -9.835   1.046  -4.893  1.00  0.00     0.039 C 
BRANCH   6  10
ATOM     10  C   UNL     1      -7.211   1.918  -7.396  1.00  0.00     0.264 C 
ATOM     11  O   UNL     1      -7.388   2.525  -8.464  1.00  0.00    -0.271 OA
BRANCH  10  12
ATOM     12  C   UNL     1      -5.861   1.177  -7.203  1.00  0.00     0.363 C 
BRANCH  12  13
ATOM     13  O   UNL     1      -5.304   0.722  -5.975  1.00  0.00    -0.385 OA
BRANCH  13  14
ATOM     14  N   UNL     1      -4.113   1.435  -5.752  1.00  0.00    -0.091 NA
ATOM     15  C   UNL     1       1.968   0.736   0.314  1.00  0.00     0.014 C 
ATOM     16  C   UNL     1       1.240   0.704  -1.081  1.00  0.00    -0.003 C 
ATOM     17  C   UNL     1       0.549   2.052  -1.138  1.00  0.00     0.010 C 
ATOM     18  C   UNL     1       0.374  -0.595  -1.236  1.00  0.00     0.001 C 
ATOM     19  C   UNL     1       2.115   0.362  -2.305  1.00  0.00     0.120 C 
ATOM     20  C   UNL     1      -0.728   2.006  -0.302  1.00  0.00     0.005 C 
ATOM     21  C   UNL     1      -0.917  -0.574  -0.433  1.00  0.00    -0.003 C 
ATOM     22  C   UNL     1       1.509  -1.661  -1.126  1.00  0.00     0.007 C 
ATOM     23  C   UNL     1       2.710  -0.981  -1.879  1.00  0.00     0.032 C 
ATOM     24  C   UNL     1      -1.627   0.787  -0.615  1.00  0.00     0.002 C 
ATOM     25  C   UNL     1      -1.963  -1.671  -0.726  1.00  0.00     0.008 C 
ATOM     26  C   UNL     1      -2.455   1.025  -1.946  1.00  0.00    -0.008 C 
ATOM     27  C   UNL     1      -2.779  -1.570  -2.026  1.00  0.00     0.032 C 
ATOM     28  C   UNL     1      -2.979  -0.218  -2.659  1.00  0.00    -0.062 C 
ATOM     29  C   UNL     1      -1.655   1.785  -3.047  1.00  0.00     0.018 C 
ATOM     30  C   UNL     1      -3.621   1.894  -1.405  1.00  0.00     0.016 C 
ATOM     31  C   UNL     1      -3.509  -0.172  -3.909  1.00  0.00     0.027 C 
ATOM     32  C   UNL     1      -2.211   1.938  -4.451  1.00  0.00     0.061 C 
ATOM     33  C   UNL     1      -3.390   1.050  -4.751  1.00  0.00     0.080 C 
BRANCH  19  34
ATOM     34  O   UNL     1       2.985   1.365  -2.750  1.00  0.00    -0.393 OA
ATOM     35  H   UNL     1       3.599   1.600  -2.037  1.00  0.00     0.210 HD
ENDBRANCH  19  34
ENDBRANCH  13  14
ENDBRANCH  12  13
ENDBRANCH  10  12
ENDBRANCH   6  10
ENDBRANCH   3   5
ENDBRANCH   2   3
ENDBRANCH   1   2
BRANCH   1  36
ATOM     36  C   UNL     1      -4.804   4.018  -3.913  1.00  0.00     0.275 C 
BRANCH  36  37
ATOM     37  O   UNL     1      -5.495   5.241  -4.046  1.00  0.00    -0.458 OA
BRANCH  37  38
ATOM     38  C   UNL     1      -6.143   5.296  -5.232  1.00  0.00     0.338 C 
ATOM     39  O   UNL     1      -5.941   4.693  -6.257  1.00  0.00    -0.246 OA
BRANCH  38  40
ATOM     40  C   UNL     1      -7.355   6.003  -4.880  1.00  0.00     0.060 A 
ATOM     41  C   UNL     1      -8.511   5.245  -4.700  1.00  0.00     0.016 A 
ATOM     42  C   UNL     1      -7.293   7.369  -4.649  1.00  0.00     0.016 A 
ATOM     43  C   UNL     1      -9.684   5.888  -4.394  1.00  0.00     0.010 A 
ATOM     44  C   UNL     1      -8.460   8.010  -4.301  1.00  0.00     0.010 A 
ATOM     45  C   UNL     1      -9.657   7.274  -4.239  1.00  0.00    -0.014 A 
BRANCH  45  46
ATOM     46  C   UNL     1     -10.923   8.000  -4.209  1.00  0.00     0.031 A 
ATOM     47  C   UNL     1     -11.248   8.843  -5.401  1.00  0.00     0.074 A 
ATOM     48  C   UNL     1     -11.721   7.870  -3.141  1.00  0.00     0.049 A 
ATOM     49  N   UNL     1     -12.169   9.752  -5.532  1.00  0.00    -0.248 NA
ATOM     50  C   UNL     1     -10.395   8.669  -6.595  1.00  0.00     0.031 C 
ATOM     51  C   UNL     1     -11.464   6.996  -1.992  1.00  0.00     0.029 A 
ATOM     52  N   UNL     1     -12.903   8.478  -2.845  1.00  0.00    -0.354 N 
ATOM     53  C   UNL     1     -11.967  10.301  -6.792  1.00  0.00     0.074 A 
ATOM     54  C   UNL     1     -10.830   9.638  -7.383  1.00  0.00     0.031 C 
ATOM     55  C   UNL     1     -12.469   7.125  -1.114  1.00  0.00     0.029 A 
ATOM     56  C   UNL     1     -13.382   8.149  -1.603  1.00  0.00     0.049 A 
ATOM     57  H   UNL     1     -13.367   9.091  -3.461  1.00  0.00     0.167 HD
ATOM     58  C   UNL     1     -12.685  11.281  -7.379  1.00  0.00     0.037 A 
ATOM     59  C   UNL     1     -14.415   8.676  -0.925  1.00  0.00     0.037 A 
ATOM     60  C   UNL     1     -13.835  11.868  -6.747  1.00  0.00     0.049 A 
ATOM     61  C   UNL     1     -15.184   9.779  -1.598  1.00  0.00     0.074 A 
ATOM     62  C   UNL     1     -14.674  12.854  -7.226  1.00  0.00     0.029 A 
ATOM     63  N   UNL     1     -14.310  11.503  -5.492  1.00  0.00    -0.354 N 
ATOM     64  N   UNL     1     -14.977  10.327  -2.775  1.00  0.00    -0.248 NA
ATOM     65  C   UNL     1     -16.317  10.338  -0.860  1.00  0.00     0.031 C 
ATOM     66  C   UNL     1     -15.625  13.122  -6.237  1.00  0.00     0.029 A 
ATOM     67  C   UNL     1     -15.422  12.255  -5.171  1.00  0.00     0.049 A 
ATOM     68  H   UNL     1     -13.911  10.811  -4.917  1.00  0.00     0.167 HD
ATOM     69  C   UNL     1     -15.974  11.279  -2.933  1.00  0.00     0.074 A 
ATOM     70  C   UNL     1     -16.790  11.216  -1.734  1.00  0.00     0.031 C 
ATOM     71  C   UNL     1     -16.202  12.132  -3.963  1.00  0.00     0.037 A 
BRANCH  58  72
ATOM     72  C   UNL     1     -12.234  11.788  -8.719  1.00  0.00     0.058 A 
ATOM     73  C   UNL     1     -12.324  11.013  -9.886  1.00  0.00     0.135 A 
ATOM     74  C   UNL     1     -11.731  13.094  -8.841  1.00  0.00     0.135 A 
ATOM     75  F   UNL     1     -12.762   9.745  -9.825  1.00  0.00    -0.206 F 
ATOM     76  C   UNL     1     -11.932  11.513 -11.124  1.00  0.00     0.059 A 
ATOM     77  C   UNL     1     -11.362  13.625 -10.073  1.00  0.00     0.059 A 
ATOM     78  F   UNL     1     -11.599  13.872  -7.755  1.00  0.00    -0.206 F 
ATOM     79  C   UNL     1     -11.465  12.826 -11.210  1.00  0.00     0.060 A 
BRANCH  79  80
ATOM     80  S   UNL     1     -11.025  13.482 -12.833  1.00  0.00     0.124 S 
ATOM     81  O   UNL     1      -9.810  12.731 -13.134  1.00  0.00    -0.237 OA
ATOM     82  O   UNL     1     -12.197  13.139 -13.632  1.00  0.00    -0.237 OA
ATOM     83  O   UNL     1     -10.834  14.907 -12.584  1.00  0.00    -0.744 OA
ENDBRANCH  79  80
ENDBRANCH  58  72
BRANCH  59  84
ATOM     84  C   UNL     1     -14.734   8.200   0.444  1.00  0.00     0.058 A 
ATOM     85  C   UNL     1     -15.932   7.525   0.714  1.00  0.00     0.135 A 
ATOM     86  C   UNL     1     -13.836   8.388   1.509  1.00  0.00     0.135 A 
ATOM     87  F   UNL     1     -16.818   7.311  -0.271  1.00  0.00    -0.206 F 
ATOM     88  C   UNL     1     -16.247   7.084   1.995  1.00  0.00     0.059 A 
ATOM     89  C   UNL     1     -14.112   7.925   2.790  1.00  0.00     0.059 A 
ATOM     90  F   UNL     1     -12.661   9.003   1.301  1.00  0.00    -0.206 F 
ATOM     91  C   UNL     1     -15.330   7.291   3.027  1.00  0.00     0.060 A 
BRANCH  91  92
ATOM     92  S   UNL     1     -15.746   6.707   4.684  1.00  0.00     0.124 S 
ATOM     93  O   UNL     1     -16.793   7.646   5.069  1.00  0.00    -0.237 OA
ATOM     94  O   UNL     1     -16.178   5.338   4.426  1.00  0.00    -0.237 OA
ATOM     95  O   UNL     1     -14.486   6.834   5.411  1.00  0.00    -0.744 OA
ENDBRANCH  91  92
ENDBRANCH  59  84
BRANCH  71  96
ATOM     96  C   UNL     1     -17.414  13.008  -3.851  1.00  0.00     0.058 A 
ATOM     97  C   UNL     1     -17.469  14.083  -2.953  1.00  0.00     0.135 A 
ATOM     98  C   UNL     1     -18.515  12.788  -4.693  1.00  0.00     0.135 A 
ATOM     99  F   UNL     1     -16.441  14.326  -2.123  1.00  0.00    -0.206 F 
ATOM    100  C   UNL     1     -18.593  14.892  -2.868  1.00  0.00     0.059 A 
ATOM    101  C   UNL     1     -19.634  13.608  -4.652  1.00  0.00     0.059 A 
ATOM    102  F   UNL     1     -18.501  11.778  -5.579  1.00  0.00    -0.206 F 
ATOM    103  C   UNL     1     -19.669  14.648  -3.725  1.00  0.00     0.060 A 
BRANCH 103 104
ATOM    104  S   UNL     1     -21.112  15.723  -3.621  1.00  0.00     0.124 S 
ATOM    105  O   UNL     1     -21.707  15.292  -2.360  1.00  0.00    -0.237 OA
ATOM    106  O   UNL     1     -20.510  17.052  -3.618  1.00  0.00    -0.237 OA
ATOM    107  O   UNL     1     -21.873  15.387  -4.821  1.00  0.00    -0.744 OA
ENDBRANCH 103 104
ENDBRANCH  71  96
ENDBRANCH  45  46
ENDBRANCH  38  40
ENDBRANCH  37  38
ENDBRANCH  36  37
ENDBRANCH   1  36
TORSDOF 19
