REMARK SMILES Cc1nc(-c2ccco2)nc(S)c1C(=O)OCCOC(=O)c1ccc(-c2c3nc(c(-c4c(F)cc(S(=O)(=O)[O-])cc4F)c4ccc([nH]4)c(-c4c(F)cc(S(=O)(=O)[O-])cc4F)c4nc(c(-c5c(F)cc(S(=O)(=O)[O-])cc5F)c5ccc2[nH]5)C=C4)C=C3)cc1
REMARK SMILES IDX 18 1 17 2 16 3 14 4 15 5 13 6 1 7 2 8 3 9 4 10 11 11 10 12
REMARK SMILES IDX 5 13 6 14 9 15 7 16 8 17 12 18 19 20 20 21 21 22 22 23 23 24
REMARK SMILES IDX 87 25 24 26 86 27 25 28 26 29 27 30 80 31 28 32 85 33 79 34
REMARK SMILES IDX 81 35 29 36 84 37 78 38 77 39 30 41 64 42 43 43 63 44 44 45
REMARK SMILES IDX 47 46 62 47 82 48 45 49 46 50 61 52 83 53 48 54 31 55 32 56
REMARK SMILES IDX 41 57 33 58 34 59 40 60 42 61 35 62 36 63 37 64 38 65 39 66
REMARK SMILES IDX 65 67 66 68 75 69 67 70 68 71 74 72 76 73 69 74 70 75 71 76
REMARK SMILES IDX 72 77 73 78 49 79 50 80 59 81 51 82 52 83 58 84 60 85 53 86
REMARK SMILES IDX 54 87 55 88 56 89 57 90
REMARK H PARENT 12 19 81 40 47 51
REMARK Flexibility Score: inf
ROOT
ATOM      1  C   UNL     1       1.181   4.361  -1.703  1.00  0.00     0.275 C 
ENDROOT
BRANCH   1   2
ATOM      2  C   UNL     1       0.128   3.624  -0.872  1.00  0.00     0.275 C 
BRANCH   2   3
ATOM      3  O   UNL     1       0.233   2.203  -1.097  1.00  0.00    -0.458 OA
BRANCH   3   4
ATOM      4  C   UNL     1      -0.860   1.563  -1.577  1.00  0.00     0.342 C 
ATOM      5  O   UNL     1      -1.945   2.083  -1.772  1.00  0.00    -0.246 OA
BRANCH   4   6
ATOM      6  C   UNL     1      -0.548   0.155  -1.921  1.00  0.00     0.113 A 
ATOM      7  C   UNL     1       1.123  -0.143  -0.009  1.00  0.00     0.068 C 
ATOM      8  C   UNL     1       0.387  -0.617  -1.230  1.00  0.00     0.057 A 
ATOM      9  N   UNL     1       0.706  -1.884  -1.600  1.00  0.00    -0.230 NA
ATOM     10  C   UNL     1       0.062  -2.383  -2.663  1.00  0.00     0.196 A 
ATOM     11  C   UNL     1      -1.196  -0.493  -2.972  1.00  0.00     0.112 A 
ATOM     12  N   UNL     1      -0.875  -1.745  -3.368  1.00  0.00    -0.218 NA
BRANCH  10  13
ATOM     13  C   UNL     1       0.430  -3.705  -3.119  1.00  0.00     0.171 A 
ATOM     14  C   UNL     1       1.192  -4.175  -4.171  1.00  0.00     0.054 A 
ATOM     15  O   UNL     1      -0.103  -4.757  -2.427  1.00  0.00    -0.461 OA
ATOM     16  C   UNL     1       1.108  -5.588  -4.129  1.00  0.00     0.043 A 
ATOM     17  C   UNL     1       0.301  -5.891  -3.057  1.00  0.00     0.196 A 
ENDBRANCH  10  13
BRANCH  11  18
ATOM     18  S   UNL     1      -2.516   0.179  -3.972  1.00  0.00    -0.123 SA
ATOM     19  H   UNL     1      -2.897  -0.741  -4.898  1.00  0.00     0.110 HD
ENDBRANCH  11  18
ENDBRANCH   4   6
ENDBRANCH   3   4
ENDBRANCH   2   3
ENDBRANCH   1   2
BRANCH   1  20
ATOM     20  O   UNL     1       0.853   4.302  -3.102  1.00  0.00    -0.458 OA
BRANCH  20  21
ATOM     21  C   UNL     1       1.312   3.213  -3.768  1.00  0.00     0.338 C 
ATOM     22  O   UNL     1       2.039   2.339  -3.323  1.00  0.00    -0.246 OA
BRANCH  21  23
ATOM     23  C   UNL     1       0.637   3.130  -5.080  1.00  0.00     0.060 A 
ATOM     24  C   UNL     1       0.336   4.268  -5.835  1.00  0.00     0.016 A 
ATOM     25  C   UNL     1       0.265   1.863  -5.540  1.00  0.00     0.016 A 
ATOM     26  C   UNL     1      -0.373   4.134  -7.032  1.00  0.00     0.010 A 
ATOM     27  C   UNL     1      -0.465   1.733  -6.721  1.00  0.00     0.010 A 
ATOM     28  C   UNL     1      -0.797   2.869  -7.468  1.00  0.00    -0.014 A 
BRANCH  28  29
ATOM     29  C   UNL     1      -1.527   2.721  -8.746  1.00  0.00     0.031 A 
ATOM     30  C   UNL     1      -3.025   2.668  -8.778  1.00  0.00     0.074 A 
ATOM     31  C   UNL     1      -0.817   2.610  -9.883  1.00  0.00     0.049 A 
ATOM     32  N   UNL     1      -3.822   2.640  -9.814  1.00  0.00    -0.248 NA
ATOM     33  C   UNL     1      -3.718   2.638  -7.481  1.00  0.00     0.031 C 
ATOM     34  C   UNL     1       0.645   2.604  -9.960  1.00  0.00     0.029 A 
ATOM     35  N   UNL     1      -1.225   2.477 -11.184  1.00  0.00    -0.354 N 
ATOM     36  C   UNL     1      -5.113   2.623  -9.301  1.00  0.00     0.074 A 
ATOM     37  C   UNL     1      -4.990   2.591  -7.858  1.00  0.00     0.031 C 
ATOM     38  C   UNL     1       1.012   2.479 -11.245  1.00  0.00     0.029 A 
ATOM     39  C   UNL     1      -0.186   2.395 -12.077  1.00  0.00     0.049 A 
ATOM     40  H   UNL     1      -2.171   2.444 -11.452  1.00  0.00     0.167 HD
ATOM     41  C   UNL     1      -6.287   2.652  -9.977  1.00  0.00     0.037 A 
ATOM     42  C   UNL     1      -0.198   2.278 -13.418  1.00  0.00     0.037 A 
ATOM     43  C   UNL     1      -6.393   2.649 -11.415  1.00  0.00     0.049 A 
ATOM     44  C   UNL     1      -1.513   2.272 -14.144  1.00  0.00     0.074 A 
ATOM     45  C   UNL     1      -7.534   2.729 -12.195  1.00  0.00     0.029 A 
ATOM     46  N   UNL     1      -5.321   2.538 -12.290  1.00  0.00    -0.354 N 
ATOM     47  N   UNL     1      -2.725   2.362 -13.651  1.00  0.00    -0.248 NA
ATOM     48  C   UNL     1      -1.464   2.163 -15.608  1.00  0.00     0.031 C 
ATOM     49  C   UNL     1      -7.157   2.621 -13.538  1.00  0.00     0.029 A 
ATOM     50  C   UNL     1      -5.777   2.519 -13.599  1.00  0.00     0.049 A 
ATOM     51  H   UNL     1      -4.376   2.482 -12.021  1.00  0.00     0.167 HD
ATOM     52  C   UNL     1      -3.583   2.342 -14.745  1.00  0.00     0.074 A 
ATOM     53  C   UNL     1      -2.749   2.242 -15.926  1.00  0.00     0.031 C 
ATOM     54  C   UNL     1      -4.937   2.406 -14.767  1.00  0.00     0.037 A 
BRANCH  41  55
ATOM     55  C   UNL     1      -7.558   2.713  -9.176  1.00  0.00     0.058 A 
ATOM     56  C   UNL     1      -7.938   3.888  -8.508  1.00  0.00     0.135 A 
ATOM     57  C   UNL     1      -8.445   1.625  -9.141  1.00  0.00     0.135 A 
ATOM     58  F   UNL     1      -7.124   4.956  -8.502  1.00  0.00    -0.206 F 
ATOM     59  C   UNL     1      -9.146   3.979  -7.825  1.00  0.00     0.059 A 
ATOM     60  C   UNL     1      -9.669   1.701  -8.480  1.00  0.00     0.059 A 
ATOM     61  F   UNL     1      -8.133   0.478  -9.765  1.00  0.00    -0.206 F 
ATOM     62  C   UNL     1     -10.008   2.882  -7.820  1.00  0.00     0.060 A 
BRANCH  62  63
ATOM     63  S   UNL     1     -11.587   3.034  -6.956  1.00  0.00     0.124 S 
ATOM     64  O   UNL     1     -11.157   3.048  -5.561  1.00  0.00    -0.237 OA
ATOM     65  O   UNL     1     -12.103   4.297  -7.472  1.00  0.00    -0.237 OA
ATOM     66  O   UNL     1     -12.321   1.843  -7.373  1.00  0.00    -0.744 OA
ENDBRANCH  62  63
ENDBRANCH  41  55
BRANCH  42  67
ATOM     67  C   UNL     1       1.089   2.217 -14.154  1.00  0.00     0.058 A 
ATOM     68  C   UNL     1       1.550   3.323 -14.881  1.00  0.00     0.135 A 
ATOM     69  C   UNL     1       1.905   1.077 -14.101  1.00  0.00     0.135 A 
ATOM     70  F   UNL     1       0.800   4.433 -14.961  1.00  0.00    -0.206 F 
ATOM     71  C   UNL     1       2.777   3.303 -15.534  1.00  0.00     0.059 A 
ATOM     72  C   UNL     1       3.146   1.040 -14.729  1.00  0.00     0.059 A 
ATOM     73  F   UNL     1       1.513   0.001 -13.402  1.00  0.00    -0.206 F 
ATOM     74  C   UNL     1       3.572   2.158 -15.445  1.00  0.00     0.060 A 
BRANCH  74  75
ATOM     75  S   UNL     1       5.195   2.173 -16.237  1.00  0.00     0.124 S 
ATOM     76  O   UNL     1       4.834   2.107 -17.648  1.00  0.00    -0.237 OA
ATOM     77  O   UNL     1       5.747   3.444 -15.777  1.00  0.00    -0.237 OA
ATOM     78  O   UNL     1       5.844   0.984 -15.694  1.00  0.00    -0.744 OA
ENDBRANCH  74  75
ENDBRANCH  42  67
BRANCH  54  79
ATOM     79  C   UNL     1      -5.609   2.373 -16.112  1.00  0.00     0.058 A 
ATOM     80  C   UNL     1      -5.700   1.187 -16.856  1.00  0.00     0.135 A 
ATOM     81  C   UNL     1      -6.217   3.526 -16.636  1.00  0.00     0.135 A 
ATOM     82  F   UNL     1      -5.128   0.060 -16.404  1.00  0.00    -0.206 F 
ATOM     83  C   UNL     1      -6.358   1.147 -18.081  1.00  0.00     0.059 A 
ATOM     84  C   UNL     1      -6.901   3.503 -17.848  1.00  0.00     0.059 A 
ATOM     85  F   UNL     1      -6.165   4.685 -15.961  1.00  0.00    -0.206 F 
ATOM     86  C   UNL     1      -6.959   2.310 -18.567  1.00  0.00     0.060 A 
BRANCH  86  87
ATOM     87  S   UNL     1      -7.843   2.233 -20.140  1.00  0.00     0.124 S 
ATOM     88  O   UNL     1      -6.742   2.134 -21.092  1.00  0.00    -0.237 OA
ATOM     89  O   UNL     1      -8.655   1.030 -19.983  1.00  0.00    -0.237 OA
ATOM     90  O   UNL     1      -8.590   3.486 -20.172  1.00  0.00    -0.744 OA
ENDBRANCH  86  87
ENDBRANCH  54  79
ENDBRANCH  28  29
ENDBRANCH  21  23
ENDBRANCH  20  21
ENDBRANCH   1  20
TORSDOF 16
