REMARK SMILES CCOC(=O)c1c(-c2cccc3ccccc23)csc1NC(=O)[C@H]1CC=CC[C@H]1C(=O)OCCOC(=O)c1ccc(-c2c3nc(c(-c4c(F)cc(S(=O)(=O)[O-])cc4F)c4ccc([nH]4)c(-c4c(F)cc(S(=O)(=O)[O-])cc4F)c4nc(c(-c5c(F)cc(S(=O)(=O)[O-])cc5F)c5ccc2[nH]5)C=C4)C=C3)cc1
REMARK SMILES IDX 33 1 32 2 30 3 31 4 29 5 24 6 25 7 26 8 28 9 27 10 22 11
REMARK SMILES IDX 21 12 23 14 20 15 6 16 7 17 18 18 19 19 4 20 5 21 3 22 2 23
REMARK SMILES IDX 1 24 8 25 9 26 17 27 10 28 12 29 16 30 11 31 13 32 15 33
REMARK SMILES IDX 14 34 34 35 35 36 36 37 37 38 38 39 39 40 103 41 40 42
REMARK SMILES IDX 102 43 41 44 42 45 43 46 96 47 44 48 101 49 95 50 97 51
REMARK SMILES IDX 45 52 100 53 94 54 93 55 46 57 80 58 59 59 79 60 60 61 63 62
REMARK SMILES IDX 78 63 98 64 61 65 62 66 77 68 99 69 64 70 47 71 48 72 57 73
REMARK SMILES IDX 49 74 50 75 56 76 58 77 51 78 52 79 53 80 54 81 55 82 81 83
REMARK SMILES IDX 82 84 91 85 83 86 84 87 90 88 92 89 85 90 86 91 87 92 88 93
REMARK SMILES IDX 89 94 65 95 66 96 75 97 67 98 68 99 74 100 76 101 69 102
REMARK SMILES IDX 70 103 71 104 72 105 73 106
REMARK H PARENT 21 13 97 56 63 67
REMARK Flexibility Score: inf
ROOT
ATOM      1  C   UNL     1       2.669   5.367  -4.686  1.00  0.00     0.274 C 
ENDROOT
BRANCH   1   2
ATOM      2  O   UNL     1       3.867   4.722  -4.202  1.00  0.00    -0.462 OA
BRANCH   2   3
ATOM      3  C   UNL     1       4.908   4.689  -5.071  1.00  0.00     0.310 C 
ATOM      4  O   UNL     1       4.858   5.124  -6.218  1.00  0.00    -0.252 OA
BRANCH   3   5
ATOM      5  C   UNL     1       6.184   4.102  -4.503  1.00  0.00     0.116 C 
ATOM      6  C   UNL     1       6.260   3.868  -2.983  1.00  0.00     0.097 C 
ATOM      7  C   UNL     1       7.717   3.510  -2.603  1.00  0.00     0.041 C 
ATOM      8  C   UNL     1       8.405   2.596  -3.587  1.00  0.00    -0.030 C 
ATOM      9  C   UNL     1       6.646   2.906  -5.341  1.00  0.00     0.043 C 
ATOM     10  C   UNL     1       7.913   2.305  -4.801  1.00  0.00    -0.030 C 
BRANCH   6  11
ATOM     11  C   UNL     1       5.357   2.749  -2.477  1.00  0.00     0.229 C 
ATOM     12  N   UNL     1       4.494   2.830  -1.432  1.00  0.00    -0.317 N 
ATOM     13  H   UNL     1       4.152   1.947  -1.164  1.00  0.00     0.170 HD
ATOM     14  O   UNL     1       5.383   1.633  -3.017  1.00  0.00    -0.274 OA
BRANCH  12  15
ATOM     15  C   UNL     1       3.978   3.845  -0.653  1.00  0.00     0.110 A 
ATOM     16  C   UNL     1       2.839   3.744   0.136  1.00  0.00     0.102 A 
ATOM     17  C   UNL     1       2.391   5.048   0.566  1.00  0.00     0.010 A 
ATOM     18  C   UNL     1       3.323   6.021   0.266  1.00  0.00     0.076 A 
ATOM     19  S   UNL     1       4.717   5.342  -0.442  1.00  0.00    -0.125 S 
BRANCH  16  20
ATOM     20  C   UNL     1       2.253   2.451   0.450  1.00  0.00     0.341 C 
ATOM     21  O   UNL     1       2.954   1.470   0.677  1.00  0.00    -0.246 OA
BRANCH  20  22
ATOM     22  O   UNL     1       0.893   2.433   0.442  1.00  0.00    -0.462 OA
BRANCH  22  23
ATOM     23  C   UNL     1       0.307   1.202   0.890  1.00  0.00     0.230 C 
ATOM     24  C   UNL     1       0.474   0.068  -0.112  1.00  0.00     0.049 C 
ENDBRANCH  22  23
ENDBRANCH  20  22
ENDBRANCH  16  20
BRANCH  17  25
ATOM     25  C   UNL     1       1.231   5.382   1.387  1.00  0.00    -0.009 A 
ATOM     26  C   UNL     1       0.171   6.085   0.794  1.00  0.00     0.009 A 
ATOM     27  C   UNL     1       1.171   4.995   2.752  1.00  0.00    -0.010 A 
ATOM     28  C   UNL     1      -0.963   6.398   1.538  1.00  0.00     0.001 A 
ATOM     29  C   UNL     1       0.000   5.300   3.488  1.00  0.00    -0.018 A 
ATOM     30  C   UNL     1       2.223   4.330   3.427  1.00  0.00     0.009 A 
ATOM     31  C   UNL     1      -1.050   6.000   2.871  1.00  0.00     0.009 A 
ATOM     32  C   UNL     1      -0.097   4.903   4.832  1.00  0.00     0.009 A 
ATOM     33  C   UNL     1       2.110   3.942   4.760  1.00  0.00     0.001 A 
ATOM     34  C   UNL     1       0.947   4.223   5.461  1.00  0.00     0.001 A 
ENDBRANCH  17  25
ENDBRANCH  12  15
ENDBRANCH   6  11
ENDBRANCH   3   5
ENDBRANCH   2   3
ENDBRANCH   1   2
BRANCH   1  35
ATOM     35  C   UNL     1       2.484   6.774  -4.105  1.00  0.00     0.275 C 
BRANCH  35  36
ATOM     36  O   UNL     1       3.487   7.706  -4.559  1.00  0.00    -0.458 OA
BRANCH  36  37
ATOM     37  C   UNL     1       4.583   7.735  -3.773  1.00  0.00     0.338 C 
ATOM     38  O   UNL     1       4.779   7.063  -2.776  1.00  0.00    -0.246 OA
BRANCH  37  39
ATOM     39  C   UNL     1       5.632   8.630  -4.245  1.00  0.00     0.060 A 
ATOM     40  C   UNL     1       6.827   8.039  -4.657  1.00  0.00     0.016 A 
ATOM     41  C   UNL     1       5.546  10.003  -4.021  1.00  0.00     0.016 A 
ATOM     42  C   UNL     1       7.961   8.817  -4.826  1.00  0.00     0.010 A 
ATOM     43  C   UNL     1       6.679  10.792  -4.231  1.00  0.00     0.010 A 
ATOM     44  C   UNL     1       7.893  10.200  -4.622  1.00  0.00    -0.014 A 
BRANCH  44  45
ATOM     45  C   UNL     1       9.096  11.026  -4.860  1.00  0.00     0.031 A 
ATOM     46  C   UNL     1       9.821  11.672  -3.719  1.00  0.00     0.074 A 
ATOM     47  C   UNL     1       9.522  11.176  -6.127  1.00  0.00     0.049 A 
ATOM     48  N   UNL     1      10.826  12.507  -3.751  1.00  0.00    -0.248 NA
ATOM     49  C   UNL     1       9.353  11.342  -2.363  1.00  0.00     0.031 C 
ATOM     50  C   UNL     1       8.902  10.555  -7.301  1.00  0.00     0.029 A 
ATOM     51  N   UNL     1      10.566  11.896  -6.642  1.00  0.00    -0.354 N 
ATOM     52  C   UNL     1      11.099  12.825  -2.426  1.00  0.00     0.074 A 
ATOM     53  C   UNL     1      10.144  12.100  -1.614  1.00  0.00     0.031 C 
ATOM     54  C   UNL     1       9.580  10.918  -8.399  1.00  0.00     0.029 A 
ATOM     55  C   UNL     1      10.640  11.842  -8.012  1.00  0.00     0.049 A 
ATOM     56  H   UNL     1      11.201  12.402  -6.085  1.00  0.00     0.167 HD
ATOM     57  C   UNL     1      12.059  13.650  -1.942  1.00  0.00     0.037 A 
ATOM     58  C   UNL     1      11.447  12.497  -8.866  1.00  0.00     0.037 A 
ATOM     59  C   UNL     1      13.003  14.354  -2.774  1.00  0.00     0.049 A 
ATOM     60  C   UNL     1      12.475  13.436  -8.309  1.00  0.00     0.074 A 
ATOM     61  C   UNL     1      14.024  15.207  -2.390  1.00  0.00     0.029 A 
ATOM     62  N   UNL     1      13.040  14.288  -4.161  1.00  0.00    -0.354 N 
ATOM     63  N   UNL     1      12.716  13.739  -7.055  1.00  0.00    -0.248 NA
ATOM     64  C   UNL     1      13.335  14.127  -9.276  1.00  0.00     0.031 C 
ATOM     65  C   UNL     1      14.651  15.687  -3.547  1.00  0.00     0.029 A 
ATOM     66  C   UNL     1      14.052  15.099  -4.650  1.00  0.00     0.049 A 
ATOM     67  H   UNL     1      12.435  13.745  -4.716  1.00  0.00     0.167 HD
ATOM     68  C   UNL     1      13.768  14.646  -7.080  1.00  0.00     0.074 A 
ATOM     69  C   UNL     1      14.123  14.830  -8.474  1.00  0.00     0.031 C 
ATOM     70  C   UNL     1      14.383  15.268  -6.044  1.00  0.00     0.037 A 
BRANCH  57  71
ATOM     71  C   UNL     1      12.108  13.865  -0.454  1.00  0.00     0.058 A 
ATOM     72  C   UNL     1      12.552  12.867   0.427  1.00  0.00     0.135 A 
ATOM     73  C   UNL     1      11.715  15.095   0.099  1.00  0.00     0.135 A 
ATOM     74  F   UNL     1      12.927  11.667  -0.044  1.00  0.00    -0.206 F 
ATOM     75  C   UNL     1      12.573  13.068   1.805  1.00  0.00     0.059 A 
ATOM     76  C   UNL     1      11.750  15.327   1.471  1.00  0.00     0.059 A 
ATOM     77  F   UNL     1      11.282  16.086  -0.697  1.00  0.00    -0.206 F 
ATOM     78  C   UNL     1      12.162  14.300   2.318  1.00  0.00     0.060 A 
BRANCH  78  79
ATOM     79  S   UNL     1      12.171  14.540   4.108  1.00  0.00     0.124 S 
ATOM     80  O   UNL     1      11.001  13.765   4.511  1.00  0.00    -0.237 OA
ATOM     81  O   UNL     1      13.463  13.983   4.495  1.00  0.00    -0.237 OA
ATOM     82  O   UNL     1      12.045  15.987   4.257  1.00  0.00    -0.744 OA
ENDBRANCH  78  79
ENDBRANCH  57  71
BRANCH  58  83
ATOM     83  C   UNL     1      11.285  12.287 -10.327  1.00  0.00     0.058 A 
ATOM     84  C   UNL     1      12.229  11.557 -11.061  1.00  0.00     0.135 A 
ATOM     85  C   UNL     1      10.146  12.756 -11.003  1.00  0.00     0.135 A 
ATOM     86  F   UNL     1      13.333  11.092 -10.458  1.00  0.00    -0.206 F 
ATOM     87  C   UNL     1      12.053  11.299 -12.416  1.00  0.00     0.059 A 
ATOM     88  C   UNL     1       9.936  12.489 -12.351  1.00  0.00     0.059 A 
ATOM     89  F   UNL     1       9.204  13.442 -10.338  1.00  0.00    -0.206 F 
ATOM     90  C   UNL     1      10.898  11.764 -13.051  1.00  0.00     0.060 A 
BRANCH  90  91
ATOM     91  S   UNL     1      10.643  11.360 -14.793  1.00  0.00     0.124 S 
ATOM     92  O   UNL     1      11.584  12.264 -15.444  1.00  0.00    -0.237 OA
ATOM     93  O   UNL     1      10.987   9.942 -14.834  1.00  0.00    -0.237 OA
ATOM     94  O   UNL     1       9.230  11.660 -15.002  1.00  0.00    -0.744 OA
ENDBRANCH  90  91
ENDBRANCH  58  83
BRANCH  70  95
ATOM     95  C   UNL     1      15.521  16.189  -6.384  1.00  0.00     0.058 A 
ATOM     96  C   UNL     1      15.298  17.455  -6.947  1.00  0.00     0.135 A 
ATOM     97  C   UNL     1      16.844  15.813  -6.108  1.00  0.00     0.135 A 
ATOM     98  F   UNL     1      14.051  17.855  -7.239  1.00  0.00    -0.206 F 
ATOM     99  C   UNL     1      16.354  18.311  -7.243  1.00  0.00     0.059 A 
ATOM    100  C   UNL     1      17.913  16.663  -6.373  1.00  0.00     0.059 A 
ATOM    101  F   UNL     1      17.108  14.614  -5.564  1.00  0.00    -0.206 F 
ATOM    102  C   UNL     1      17.658  17.905  -6.952  1.00  0.00     0.060 A 
BRANCH 102 103
ATOM    103  S   UNL     1      19.017  19.038  -7.309  1.00  0.00     0.124 S 
ATOM    104  O   UNL     1      19.127  18.916  -8.759  1.00  0.00    -0.237 OA
ATOM    105  O   UNL     1      18.502  20.312  -6.818  1.00  0.00    -0.237 OA
ATOM    106  O   UNL     1      20.131  18.483  -6.545  1.00  0.00    -0.744 OA
ENDBRANCH 102 103
ENDBRANCH  70  95
ENDBRANCH  44  45
ENDBRANCH  37  39
ENDBRANCH  36  37
ENDBRANCH  35  36
ENDBRANCH   1  35
TORSDOF 20
