REMARK SMILES CC(=O)N1CCCN(S(=O)(=O)c2ccc(C)c(C(=O)OCCOC(=O)c3ccc(-c4c5nc(c(-c6c(F)cc(S(=O)(=O)[O-])cc6F)c6ccc([nH]6)c(-c6c(F)cc(S(=O)(=O)[O-])cc6F)c6nc(c(-c7c(F)cc(S(=O)(=O)[O-])cc7F)c7ccc4[nH]7)C=C6)C=C5)cc3)c2)CC1
REMARK SMILES IDX 20 1 18 2 19 3 17 4 12 5 13 6 92 7 14 8 15 9 16 10 9 11
REMARK SMILES IDX 10 12 11 13 8 14 93 15 94 16 4 17 2 18 1 19 3 20 5 21 7 23
REMARK SMILES IDX 6 24 21 26 22 27 23 28 24 29 25 30 26 31 27 32 91 33 28 34
REMARK SMILES IDX 90 35 29 36 30 37 31 38 84 39 32 40 89 41 83 42 85 43 33 44
REMARK SMILES IDX 88 45 82 46 81 47 34 49 68 50 47 51 67 52 48 53 51 54 66 55
REMARK SMILES IDX 86 56 49 57 50 58 65 60 87 61 52 62 35 63 36 64 45 65 37 66
REMARK SMILES IDX 38 67 44 68 46 69 39 70 40 71 41 72 42 73 43 74 69 75 70 76
REMARK SMILES IDX 79 77 71 78 72 79 78 80 80 81 73 82 74 83 75 84 76 85 77 86
REMARK SMILES IDX 53 87 54 88 63 89 55 90 56 91 62 92 64 93 57 94 58 95 59 96
REMARK SMILES IDX 60 97 61 98
REMARK H PARENT 85 48 51 59
REMARK Flexibility Score: 90.00
ROOT
ATOM      1  O   UNL     1      -1.951  -9.766  -0.304  1.00  0.00    -0.458 OA
ENDROOT
BRANCH   1   2
ATOM      2  C   UNL     1      -2.678  -9.226   0.709  1.00  0.00     0.338 C 
ATOM      3  O   UNL     1      -3.562  -9.814   1.317  1.00  0.00    -0.246 OA
BRANCH   2   4
ATOM      4  C   UNL     1      -2.460  -7.766   0.900  1.00  0.00     0.064 A 
ATOM      5  C   UNL     1      -1.094  -5.861   1.601  1.00  0.00     0.083 A 
ATOM      6  C   UNL     1      -2.201  -5.032   1.461  1.00  0.00     0.022 A 
ATOM      7  C   UNL     1      -1.216  -7.229   1.276  1.00  0.00     0.037 A 
ATOM      8  C   UNL     1      -3.436  -5.556   1.085  1.00  0.00     0.006 A 
ATOM      9  C   UNL     1      -3.583  -6.919   0.808  1.00  0.00    -0.037 A 
ATOM     10  C   UNL     1      -4.950  -7.439   0.459  1.00  0.00     0.045 C 
BRANCH   5  11
ATOM     11  S   UNL     1       0.522  -5.222   2.029  1.00  0.00     0.243 S 
ATOM     12  O   UNL     1       0.992  -4.555   0.820  1.00  0.00    -0.207 OA
ATOM     13  O   UNL     1       1.243  -6.310   2.613  1.00  0.00    -0.207 OA
BRANCH  11  14
ATOM     14  N   UNL     1       0.434  -4.047   3.268  1.00  0.00    -0.196 NA
BRANCH  14  15
ATOM     15  C   UNL     1      -0.508  -2.919   3.321  1.00  0.00     0.124 C 
BRANCH  15  16
ATOM     16  C   UNL     1      -0.458  -2.001   2.113  1.00  0.00     0.136 C 
BRANCH  16  17
ATOM     17  N   UNL     1       0.750  -1.200   1.942  1.00  0.00    -0.342 N 
BRANCH  17  18
ATOM     18  C   UNL     1       0.518   0.053   1.374  1.00  0.00     0.219 C 
ATOM     19  C   UNL     1       1.400   0.450   0.217  1.00  0.00     0.114 C 
ATOM     20  O   UNL     1      -0.442   0.758   1.689  1.00  0.00    -0.275 OA
ENDBRANCH  17  18
BRANCH  17  21
ATOM     21  C   UNL     1       2.038  -1.891   1.844  1.00  0.00     0.121 CG0
ATOM     22  G   UNL     1       2.558  -2.609   3.093  1.00  0.00     0.000 G0
ENDBRANCH  17  21
ENDBRANCH  16  17
ENDBRANCH  15  16
ENDBRANCH  14  15
BRANCH  14  23
ATOM     23  C   UNL     1       1.746  -3.662   3.853  1.00  0.00     0.104 C 
BRANCH  23  24
ATOM     24  C   UNL     1       2.558  -2.609   3.093  1.00  0.00     0.038 CG0
ATOM     25  G   UNL     1       2.038  -1.891   1.844  1.00  0.00     0.000 G0
ENDBRANCH  23  24
ENDBRANCH  14  23
ENDBRANCH  11  14
ENDBRANCH   5  11
ENDBRANCH   2   4
ENDBRANCH   1   2
BRANCH   1  26
ATOM     26  C   UNL     1      -2.340 -11.128  -0.592  1.00  0.00     0.275 C 
BRANCH  26  27
ATOM     27  C   UNL     1      -1.288 -11.904  -1.406  1.00  0.00     0.275 C 
BRANCH  27  28
ATOM     28  O   UNL     1      -0.093 -12.282  -0.696  1.00  0.00    -0.458 OA
BRANCH  28  29
ATOM     29  C   UNL     1       0.522 -11.265  -0.029  1.00  0.00     0.338 C 
ATOM     30  O   UNL     1       0.980 -10.278  -0.575  1.00  0.00    -0.246 OA
BRANCH  29  31
ATOM     31  C   UNL     1       0.156 -11.405   1.413  1.00  0.00     0.060 A 
ATOM     32  C   UNL     1       0.233 -10.283   2.245  1.00  0.00     0.016 A 
ATOM     33  C   UNL     1      -0.579 -12.526   1.814  1.00  0.00     0.016 A 
ATOM     34  C   UNL     1      -0.549 -10.214   3.402  1.00  0.00     0.010 A 
ATOM     35  C   UNL     1      -1.410 -12.430   2.908  1.00  0.00     0.010 A 
ATOM     36  C   UNL     1      -1.403 -11.275   3.707  1.00  0.00    -0.014 A 
BRANCH  36  37
ATOM     37  C   UNL     1      -2.089 -11.441   4.985  1.00  0.00     0.031 A 
ATOM     38  C   UNL     1      -3.377 -10.816   5.352  1.00  0.00     0.074 A 
ATOM     39  C   UNL     1      -1.448 -12.318   5.787  1.00  0.00     0.049 A 
ATOM     40  N   UNL     1      -3.929 -10.951   6.510  1.00  0.00    -0.248 NA
ATOM     41  C   UNL     1      -4.149  -9.947   4.475  1.00  0.00     0.031 C 
ATOM     42  C   UNL     1      -1.867 -12.956   7.020  1.00  0.00     0.029 A 
ATOM     43  N   UNL     1      -0.079 -12.605   5.692  1.00  0.00    -0.354 N 
ATOM     44  C   UNL     1      -5.179 -10.363   6.488  1.00  0.00     0.074 A 
ATOM     45  C   UNL     1      -5.252  -9.720   5.202  1.00  0.00     0.031 C 
ATOM     46  C   UNL     1      -0.760 -13.283   7.715  1.00  0.00     0.029 A 
ATOM     47  C   UNL     1       0.378 -12.707   7.003  1.00  0.00     0.049 A 
ATOM     48  H   UNL     1       0.450 -12.713   4.869  1.00  0.00     0.167 HD
ATOM     49  C   UNL     1      -6.008 -10.573   7.553  1.00  0.00     0.037 A 
ATOM     50  C   UNL     1       1.188 -11.717   7.483  1.00  0.00     0.037 A 
ATOM     51  C   UNL     1      -5.211 -11.043   8.687  1.00  0.00     0.049 A 
ATOM     52  C   UNL     1       0.554 -11.029   8.663  1.00  0.00     0.074 A 
ATOM     53  C   UNL     1      -4.929 -12.303   9.185  1.00  0.00     0.029 A 
ATOM     54  N   UNL     1      -4.280 -10.173   9.254  1.00  0.00    -0.354 N 
ATOM     55  N   UNL     1      -0.730 -10.825   8.804  1.00  0.00    -0.248 NA
ATOM     56  C   UNL     1       1.331 -10.637   9.832  1.00  0.00     0.031 C 
ATOM     57  C   UNL     1      -3.724 -12.206   9.932  1.00  0.00     0.029 A 
ATOM     58  C   UNL     1      -3.313 -10.881   9.940  1.00  0.00     0.049 A 
ATOM     59  H   UNL     1      -4.308  -9.192   9.176  1.00  0.00     0.167 HD
ATOM     60  C   UNL     1      -0.966 -10.380  10.080  1.00  0.00     0.074 A 
ATOM     61  C   UNL     1       0.357 -10.256  10.673  1.00  0.00     0.031 C 
ATOM     62  C   UNL     1      -2.214 -10.199  10.607  1.00  0.00     0.037 A 
BRANCH  49  63
ATOM     63  C   UNL     1      -7.535 -10.580   7.538  1.00  0.00     0.058 A 
ATOM     64  C   UNL     1      -8.250 -11.193   8.599  1.00  0.00     0.135 A 
ATOM     65  C   UNL     1      -8.355 -10.153   6.473  1.00  0.00     0.135 A 
ATOM     66  F   UNL     1      -7.625 -11.616   9.707  1.00  0.00    -0.206 F 
ATOM     67  C   UNL     1      -9.630 -11.437   8.563  1.00  0.00     0.059 A 
ATOM     68  C   UNL     1      -9.737 -10.381   6.416  1.00  0.00     0.059 A 
ATOM     69  F   UNL     1      -7.866  -9.497   5.418  1.00  0.00    -0.206 F 
ATOM     70  C   UNL     1     -10.365 -11.052   7.452  1.00  0.00     0.060 A 
BRANCH  70  71
ATOM     71  S   UNL     1     -12.123 -11.451   7.365  1.00  0.00     0.124 S 
ATOM     72  O   UNL     1     -12.100 -12.909   7.298  1.00  0.00    -0.237 OA
ATOM     73  O   UNL     1     -12.636 -10.880   8.606  1.00  0.00    -0.237 OA
ATOM     74  O   UNL     1     -12.565 -10.782   6.144  1.00  0.00    -0.744 OA
ENDBRANCH  70  71
ENDBRANCH  49  63
BRANCH  50  75
ATOM     75  C   UNL     1       2.107 -11.095   6.471  1.00  0.00     0.058 A 
ATOM     76  C   UNL     1       2.950 -11.950   5.726  1.00  0.00     0.135 A 
ATOM     77  C   UNL     1       2.016  -9.767   6.026  1.00  0.00     0.135 A 
ATOM     78  F   UNL     1       3.099 -13.235   6.093  1.00  0.00    -0.206 F 
ATOM     79  C   UNL     1       3.583 -11.546   4.554  1.00  0.00     0.059 A 
ATOM     80  C   UNL     1       2.658  -9.331   4.852  1.00  0.00     0.059 A 
ATOM     81  F   UNL     1       1.244  -8.887   6.682  1.00  0.00    -0.206 F 
ATOM     82  C   UNL     1       3.413 -10.241   4.106  1.00  0.00     0.060 A 
BRANCH  82  83
ATOM     83  S   UNL     1       4.079  -9.828   2.471  1.00  0.00     0.124 S 
ATOM     84  O   UNL     1       5.501  -9.669   2.760  1.00  0.00    -0.237 OA
ATOM     85  O   UNL     1       3.724 -11.013   1.692  1.00  0.00    -0.237 OA
ATOM     86  O   UNL     1       3.369  -8.611   2.108  1.00  0.00    -0.744 OA
ENDBRANCH  82  83
ENDBRANCH  50  75
BRANCH  62  87
ATOM     87  C   UNL     1      -2.490  -9.466  11.897  1.00  0.00     0.058 A 
ATOM     88  C   UNL     1      -1.688  -8.412  12.368  1.00  0.00     0.135 A 
ATOM     89  C   UNL     1      -3.673  -9.710  12.633  1.00  0.00     0.135 A 
ATOM     90  F   UNL     1      -0.612  -7.994  11.685  1.00  0.00    -0.206 F 
ATOM     91  C   UNL     1      -1.983  -7.713  13.536  1.00  0.00     0.059 A 
ATOM     92  C   UNL     1      -4.019  -8.982  13.767  1.00  0.00     0.059 A 
ATOM     93  F   UNL     1      -4.549 -10.657  12.264  1.00  0.00    -0.206 F 
ATOM     94  C   UNL     1      -3.150  -8.006  14.231  1.00  0.00     0.060 A 
BRANCH  94  95
ATOM     95  S   UNL     1      -3.573  -7.067  15.708  1.00  0.00     0.124 S 
ATOM     96  O   UNL     1      -3.007  -7.908  16.757  1.00  0.00    -0.237 OA
ATOM     97  O   UNL     1      -2.896  -5.792  15.489  1.00  0.00    -0.237 OA
ATOM     98  O   UNL     1      -5.030  -7.010  15.656  1.00  0.00    -0.744 OA
ENDBRANCH  94  95
ENDBRANCH  62  87
ENDBRANCH  36  37
ENDBRANCH  29  31
ENDBRANCH  28  29
ENDBRANCH  27  28
ENDBRANCH  26  27
ENDBRANCH   1  26
TORSDOF 17
