REMARK SMILES CN1C(=O)C[C@@H](C(=O)OCCOC(=O)c2ccc(-c3c4nc(c(-c5c(F)cc(S(=O)(=O)[O-])cc5F)c5ccc([nH]5)c(-c5c(F)cc(S(=O)(=O)[O-])cc5F)c5nc(c(-c6c(F)cc(S(=O)(=O)[O-])cc6F)c6ccc3[nH]6)C=C5)C=C4)cc2)C12CCN(C(=O)c1ccccc1-n1cccn1)CC2
REMARK SMILES IDX 11 1 10 2 9 3 7 4 8 5 6 6 1 7 2 8 3 9 81 10 4 11 5 12 82 13
REMARK SMILES IDX 99 14 83 15 98 16 84 17 85 18 86 19 87 20 88 21 92 22 89 23
REMARK SMILES IDX 91 24 90 25 93 26 94 27 97 28 95 29 96 30 12 31 13 32 14 33
REMARK SMILES IDX 15 34 16 35 80 36 17 37 79 38 18 39 19 40 20 41 73 42 21 43
REMARK SMILES IDX 78 44 72 45 74 46 22 47 77 48 71 49 70 50 23 52 57 53 36 54
REMARK SMILES IDX 56 55 37 56 40 57 55 58 75 59 38 60 39 61 54 63 76 64 41 65
REMARK SMILES IDX 24 66 25 67 34 68 26 69 27 70 33 71 35 72 28 73 29 74 30 75
REMARK SMILES IDX 31 76 32 77 58 78 59 79 68 80 60 81 61 82 67 83 69 84 62 85
REMARK SMILES IDX 63 86 64 87 65 88 66 89 42 90 43 91 52 92 44 93 45 94 51 95
REMARK SMILES IDX 53 96 46 97 47 98 48 99 49 100 50 101
REMARK H PARENT 74 51 40 62
REMARK Flexibility Score: inf
ROOT
ATOM      1  C   UNL     1       2.200  -1.898  -6.289  1.00  0.00     0.275 C 
ENDROOT
BRANCH   1   2
ATOM      2  C   UNL     1       2.335  -0.531  -5.616  1.00  0.00     0.274 C 
BRANCH   2   3
ATOM      3  O   UNL     1       1.536  -0.465  -4.415  1.00  0.00    -0.462 OA
BRANCH   3   4
ATOM      4  C   UNL     1       0.292   0.034  -4.575  1.00  0.00     0.311 C 
ATOM      5  O   UNL     1      -0.129   0.492  -5.634  1.00  0.00    -0.252 OA
BRANCH   4   6
ATOM      6  C   UNL     1      -0.588   0.022  -3.337  1.00  0.00     0.134 C 
ATOM      7  C   UNL     1       1.273   0.187  -0.090  1.00  0.00     0.147 C 
ATOM      8  N   UNL     1       0.487   0.390  -1.291  1.00  0.00    -0.339 N 
ATOM      9  C   UNL     1       0.193   1.651  -1.781  1.00  0.00     0.223 C 
ATOM     10  C   UNL     1      -0.203  -0.691  -2.013  1.00  0.00     0.060 C 
ATOM     11  O   UNL     1       0.592   2.717  -1.339  1.00  0.00    -0.275 OA
ATOM     12  C   UNL     1      -0.754   1.498  -2.937  1.00  0.00     0.118 C 
ATOM     13  C   UNL     1       0.657  -1.969  -2.114  1.00  0.00     0.051 C 
ATOM     14  C   UNL     1      -1.505  -1.064  -1.223  1.00  0.00     0.051 C 
ATOM     15  C   UNL     1      -0.109  -3.141  -2.708  1.00  0.00     0.122 C 
ATOM     16  C   UNL     1      -2.209  -2.329  -1.726  1.00  0.00     0.122 C 
ATOM     17  N   UNL     1      -1.277  -3.439  -1.887  1.00  0.00    -0.338 N 
ATOM     18  C   UNL     1      -1.623  -4.692  -1.371  1.00  0.00     0.256 C 
ATOM     19  O   UNL     1      -2.662  -4.901  -0.752  1.00  0.00    -0.269 OA
BRANCH  18  20
ATOM     20  C   UNL     1      -0.726  -5.852  -1.583  1.00  0.00     0.065 A 
ATOM     21  C   UNL     1      -1.240  -6.877  -2.396  1.00  0.00     0.016 A 
ATOM     22  C   UNL     1       0.587  -5.945  -1.095  1.00  0.00     0.077 A 
ATOM     23  C   UNL     1      -0.434  -7.950  -2.775  1.00  0.00     0.001 A 
ATOM     24  C   UNL     1       1.409  -6.998  -1.537  1.00  0.00     0.029 A 
ATOM     25  C   UNL     1       0.896  -7.998  -2.366  1.00  0.00     0.002 A 
BRANCH  22  26
ATOM     26  N   UNL     1       1.123  -5.028  -0.157  1.00  0.00    -0.240 N 
ATOM     27  C   UNL     1       0.464  -4.294   0.807  1.00  0.00     0.115 A 
ATOM     28  N   UNL     1       2.464  -4.789  -0.115  1.00  0.00    -0.177 NA
ATOM     29  C   UNL     1       1.401  -3.505   1.431  1.00  0.00     0.042 A 
ATOM     30  C   UNL     1       2.611  -3.841   0.810  1.00  0.00     0.135 A 
ENDBRANCH  22  26
ENDBRANCH  18  20
ENDBRANCH   4   6
ENDBRANCH   3   4
ENDBRANCH   2   3
ENDBRANCH   1   2
BRANCH   1  31
ATOM     31  O   UNL     1       0.812  -2.197  -6.526  1.00  0.00    -0.458 OA
BRANCH  31  32
ATOM     32  C   UNL     1       0.420  -3.455  -6.216  1.00  0.00     0.338 C 
ATOM     33  O   UNL     1       1.139  -4.362  -5.830  1.00  0.00    -0.246 OA
BRANCH  32  34
ATOM     34  C   UNL     1      -1.049  -3.598  -6.340  1.00  0.00     0.060 A 
ATOM     35  C   UNL     1      -1.919  -2.561  -5.989  1.00  0.00     0.016 A 
ATOM     36  C   UNL     1      -1.570  -4.841  -6.702  1.00  0.00     0.016 A 
ATOM     37  C   UNL     1      -3.296  -2.781  -5.942  1.00  0.00     0.010 A 
ATOM     38  C   UNL     1      -2.954  -5.029  -6.751  1.00  0.00     0.010 A 
ATOM     39  C   UNL     1      -3.833  -4.005  -6.361  1.00  0.00    -0.014 A 
BRANCH  39  40
ATOM     40  C   UNL     1      -5.304  -4.213  -6.460  1.00  0.00     0.031 A 
ATOM     41  C   UNL     1      -5.976  -5.329  -5.706  1.00  0.00     0.074 A 
ATOM     42  C   UNL     1      -6.029  -3.439  -7.294  1.00  0.00     0.049 A 
ATOM     43  N   UNL     1      -7.181  -5.817  -5.854  1.00  0.00    -0.248 NA
ATOM     44  C   UNL     1      -5.182  -5.995  -4.662  1.00  0.00     0.031 C 
ATOM     45  C   UNL     1      -5.512  -2.308  -8.068  1.00  0.00     0.029 A 
ATOM     46  N   UNL     1      -7.354  -3.500  -7.646  1.00  0.00    -0.354 N 
ATOM     47  C   UNL     1      -7.274  -6.881  -4.963  1.00  0.00     0.074 A 
ATOM     48  C   UNL     1      -6.002  -6.963  -4.275  1.00  0.00     0.031 C 
ATOM     49  C   UNL     1      -6.509  -1.772  -8.788  1.00  0.00     0.029 A 
ATOM     50  C   UNL     1      -7.712  -2.572  -8.596  1.00  0.00     0.049 A 
ATOM     51  H   UNL     1      -7.988  -4.146  -7.257  1.00  0.00     0.167 HD
ATOM     52  C   UNL     1      -8.323  -7.712  -4.748  1.00  0.00     0.037 A 
ATOM     53  C   UNL     1      -8.861  -2.408  -9.279  1.00  0.00     0.037 A 
ATOM     54  C   UNL     1      -9.604  -7.587  -5.400  1.00  0.00     0.049 A 
ATOM     55  C   UNL     1      -9.999  -3.357  -9.043  1.00  0.00     0.074 A 
ATOM     56  C   UNL     1     -10.744  -8.351  -5.210  1.00  0.00     0.029 A 
ATOM     57  N   UNL     1      -9.919  -6.635  -6.359  1.00  0.00    -0.354 N 
ATOM     58  N   UNL     1     -10.062  -4.375  -8.221  1.00  0.00    -0.248 NA
ATOM     59  C   UNL     1     -11.213  -3.145  -9.841  1.00  0.00     0.031 C 
ATOM     60  C   UNL     1     -11.736  -7.884  -6.081  1.00  0.00     0.029 A 
ATOM     61  C   UNL     1     -11.228  -6.804  -6.784  1.00  0.00     0.049 A 
ATOM     62  H   UNL     1      -9.303  -5.942  -6.689  1.00  0.00     0.167 HD
ATOM     63  C   UNL     1     -11.331  -4.917  -8.389  1.00  0.00     0.074 A 
ATOM     64  C   UNL     1     -12.004  -4.107  -9.384  1.00  0.00     0.031 C 
ATOM     65  C   UNL     1     -11.887  -5.989  -7.773  1.00  0.00     0.037 A 
BRANCH  52  66
ATOM     66  C   UNL     1      -8.130  -8.856  -3.792  1.00  0.00     0.058 A 
ATOM     67  C   UNL     1      -8.078  -8.669  -2.402  1.00  0.00     0.135 A 
ATOM     68  C   UNL     1      -8.049 -10.173  -4.277  1.00  0.00     0.135 A 
ATOM     69  F   UNL     1      -8.141  -7.432  -1.885  1.00  0.00    -0.206 F 
ATOM     70  C   UNL     1      -7.927  -9.742  -1.529  1.00  0.00     0.059 A 
ATOM     71  C   UNL     1      -7.923 -11.263  -3.421  1.00  0.00     0.059 A 
ATOM     72  F   UNL     1      -8.097 -10.410  -5.598  1.00  0.00    -0.206 F 
ATOM     73  C   UNL     1      -7.849 -11.036  -2.048  1.00  0.00     0.060 A 
BRANCH  73  74
ATOM     74  S   UNL     1      -7.661 -12.423  -0.907  1.00  0.00     0.124 S 
ATOM     75  O   UNL     1      -6.251 -12.311  -0.544  1.00  0.00    -0.237 OA
ATOM     76  O   UNL     1      -8.615 -12.096   0.148  1.00  0.00    -0.237 OA
ATOM     77  O   UNL     1      -8.007 -13.583  -1.722  1.00  0.00    -0.744 OA
ENDBRANCH  73  74
ENDBRANCH  52  66
BRANCH  53  78
ATOM     78  C   UNL     1      -8.973  -1.309 -10.273  1.00  0.00     0.058 A 
ATOM     79  C   UNL     1      -9.769  -0.186 -10.009  1.00  0.00     0.135 A 
ATOM     80  C   UNL     1      -8.259  -1.340 -11.481  1.00  0.00     0.135 A 
ATOM     81  F   UNL     1     -10.475  -0.117  -8.870  1.00  0.00    -0.206 F 
ATOM     82  C   UNL     1      -9.857   0.870 -10.909  1.00  0.00     0.059 A 
ATOM     83  C   UNL     1      -8.311  -0.285 -12.386  1.00  0.00     0.059 A 
ATOM     84  F   UNL     1      -7.471  -2.387 -11.771  1.00  0.00    -0.206 F 
ATOM     85  C   UNL     1      -9.119   0.813 -12.094  1.00  0.00     0.060 A 
BRANCH  85  86
ATOM     86  S   UNL     1      -9.184   2.219 -13.225  1.00  0.00     0.124 S 
ATOM     87  O   UNL     1     -10.485   2.028 -13.854  1.00  0.00    -0.237 OA
ATOM     88  O   UNL     1      -9.075   3.354 -12.313  1.00  0.00    -0.237 OA
ATOM     89  O   UNL     1      -8.026   2.006 -14.088  1.00  0.00    -0.744 OA
ENDBRANCH  85  86
ENDBRANCH  53  78
BRANCH  65  90
ATOM     90  C   UNL     1     -13.306  -6.325  -8.133  1.00  0.00     0.058 A 
ATOM     91  C   UNL     1     -13.630  -6.938  -9.354  1.00  0.00     0.135 A 
ATOM     92  C   UNL     1     -14.350  -6.057  -7.234  1.00  0.00     0.135 A 
ATOM     93  F   UNL     1     -12.670  -7.205 -10.252  1.00  0.00    -0.206 F 
ATOM     94  C   UNL     1     -14.946  -7.253  -9.680  1.00  0.00     0.059 A 
ATOM     95  C   UNL     1     -15.669  -6.384  -7.529  1.00  0.00     0.059 A 
ATOM     96  F   UNL     1     -14.090  -5.477  -6.051  1.00  0.00    -0.206 F 
ATOM     97  C   UNL     1     -15.959  -6.970  -8.761  1.00  0.00     0.060 A 
BRANCH  97  98
ATOM     98  S   UNL     1     -17.660  -7.406  -9.182  1.00  0.00     0.124 S 
ATOM     99  O   UNL     1     -18.010  -6.345 -10.121  1.00  0.00    -0.237 OA
ATOM    100  O   UNL     1     -17.510  -8.739  -9.758  1.00  0.00    -0.237 OA
ATOM    101  O   UNL     1     -18.349  -7.360  -7.896  1.00  0.00    -0.744 OA
ENDBRANCH  97  98
ENDBRANCH  65  90
ENDBRANCH  39  40
ENDBRANCH  32  34
ENDBRANCH  31  32
ENDBRANCH   1  31
TORSDOF 16
