REMARK SMILES C[C@@H](NC(=O)CCCN1C(=O)/C(=C\c2c3ccccc3cc3ccccc23)SC1=S)C(=O)OCCOC(=O)c1ccc(-c2c3nc(c(-c4c(F)cc(S(=O)(=O)[O-])cc4F)c4ccc([nH]4)c(-c4c(F)cc(S(=O)(=O)[O-])cc4F)c4nc(c(-c5c(F)cc(S(=O)(=O)[O-])cc5F)c5ccc2[nH]5)C=C4)C=C3)cc1
REMARK SMILES IDX 33 1 31 2 32 3 2 4 1 5 3 6 4 7 5 9 6 10 7 11 8 12 9 13 10 14
REMARK SMILES IDX 29 15 11 16 12 17 28 18 30 19 13 20 14 21 15 22 27 23 16 24
REMARK SMILES IDX 20 25 22 26 26 27 17 28 19 29 21 30 23 31 25 32 18 33 24 34
REMARK SMILES IDX 34 35 35 36 36 37 37 38 38 39 39 40 40 41 104 42 41 43
REMARK SMILES IDX 103 44 42 45 43 46 44 47 97 48 45 49 102 50 96 51 98 52
REMARK SMILES IDX 46 53 101 54 95 55 94 56 47 58 81 59 60 60 80 61 61 62 64 63
REMARK SMILES IDX 79 64 99 65 62 66 63 67 78 69 100 70 65 71 48 72 49 73 58 74
REMARK SMILES IDX 50 75 51 76 57 77 59 78 52 79 53 80 54 81 55 82 56 83 82 84
REMARK SMILES IDX 83 85 92 86 84 87 85 88 91 89 93 90 86 91 87 92 88 93 89 94
REMARK SMILES IDX 90 95 66 96 67 97 76 98 68 99 69 100 75 101 77 102 70 103
REMARK SMILES IDX 71 104 72 105 73 106 74 107
REMARK H PARENT 3 8 98 57 64 68
REMARK Flexibility Score: inf
ROOT
ATOM      1  O   UNL     1      -1.740  -1.851  -1.342  1.00  0.00    -0.461 OA
ENDROOT
BRANCH   1   2
ATOM      2  C   UNL     1      -0.770  -2.269  -2.237  1.00  0.00     0.328 C 
ATOM      3  O   UNL     1      -1.004  -3.101  -3.112  1.00  0.00    -0.250 OA
BRANCH   2   4
ATOM      4  C   UNL     1       0.743  -1.764  -1.906  1.00  0.00     0.189 C 
ATOM      5  C   UNL     1       1.405  -0.718  -0.991  1.00  0.00     0.043 C 
BRANCH   4   6
ATOM      6  N   UNL     1       1.367  -3.002  -1.518  1.00  0.00    -0.343 N 
ATOM      7  C   UNL     1       0.861  -3.791  -0.534  1.00  0.00     0.220 C 
ATOM      8  H   UNL     1       2.188  -3.287  -1.981  1.00  0.00     0.164 HD
ATOM      9  O   UNL     1       1.396  -4.877  -0.318  1.00  0.00    -0.275 OA
BRANCH   7  10
ATOM     10  C   UNL     1      -0.464  -3.389   0.135  1.00  0.00     0.102 C 
BRANCH  10  11
ATOM     11  C   UNL     1      -0.788  -1.933   0.787  1.00  0.00     0.032 C 
BRANCH  11  12
ATOM     12  C   UNL     1      -0.894  -0.197   0.394  1.00  0.00     0.128 C 
BRANCH  12  13
ATOM     13  N   UNL     1      -1.203   0.915  -0.859  1.00  0.00    -0.293 N 
ATOM     14  C   UNL     1      -1.938   0.463  -2.408  1.00  0.00     0.266 C 
ATOM     15  C   UNL     1      -1.717   2.526  -0.194  1.00  0.00     0.148 C 
ATOM     16  O   UNL     1      -1.870  -0.539  -3.079  1.00  0.00    -0.268 OA
ATOM     17  C   UNL     1      -3.483   1.591  -2.846  1.00  0.00     0.081 C 
ATOM     18  S   UNL     1      -3.732   3.214  -1.212  1.00  0.00    -0.054 SA
ATOM     19  S   UNL     1      -0.964   3.388   1.035  1.00  0.00    -0.052 S 
ATOM     20  C   UNL     1      -4.007   1.255  -4.026  1.00  0.00     0.030 C 
BRANCH  20  21
ATOM     21  C   UNL     1      -3.183   0.447  -5.221  1.00  0.00    -0.009 A 
ATOM     22  C   UNL     1      -1.668   0.556  -5.441  1.00  0.00    -0.010 A 
ATOM     23  C   UNL     1      -4.014   0.782  -6.295  1.00  0.00    -0.010 A 
ATOM     24  C   UNL     1      -0.526  -0.339  -5.095  1.00  0.00     0.009 A 
ATOM     25  C   UNL     1      -1.220   1.605  -6.173  1.00  0.00    -0.017 A 
ATOM     26  C   UNL     1      -3.643   1.898  -7.014  1.00  0.00    -0.017 A 
ATOM     27  C   UNL     1      -5.303   0.255  -6.432  1.00  0.00     0.009 A 
ATOM     28  C   UNL     1       0.889  -0.129  -5.181  1.00  0.00     0.001 A 
ATOM     29  C   UNL     1       0.304   1.808  -6.153  1.00  0.00     0.009 A 
ATOM     30  C   UNL     1      -2.323   2.341  -6.824  1.00  0.00     0.017 A 
ATOM     31  C   UNL     1      -4.601   2.559  -7.816  1.00  0.00     0.009 A 
ATOM     32  C   UNL     1      -6.242   0.891  -7.235  1.00  0.00     0.001 A 
ATOM     33  C   UNL     1       1.335   1.016  -5.709  1.00  0.00     0.001 A 
ATOM     34  C   UNL     1      -5.899   2.056  -7.915  1.00  0.00     0.001 A 
ENDBRANCH  20  21
ENDBRANCH  12  13
ENDBRANCH  11  12
ENDBRANCH  10  11
ENDBRANCH   7  10
ENDBRANCH   4   6
ENDBRANCH   2   4
ENDBRANCH   1   2
BRANCH   1  35
ATOM     35  C   UNL     1      -3.176  -2.203  -1.378  1.00  0.00     0.274 C 
BRANCH  35  36
ATOM     36  C   UNL     1      -4.000  -1.107  -0.647  1.00  0.00     0.275 C 
BRANCH  36  37
ATOM     37  O   UNL     1      -3.884   0.106  -1.425  1.00  0.00    -0.458 OA
BRANCH  37  38
ATOM     38  C   UNL     1      -3.059   1.250  -0.966  1.00  0.00     0.338 C 
ATOM     39  O   UNL     1      -3.292   1.258   0.284  1.00  0.00    -0.246 OA
BRANCH  38  40
ATOM     40  C   UNL     1      -1.847   2.510  -2.246  1.00  0.00     0.060 A 
ATOM     41  C   UNL     1      -0.438   2.593  -2.681  1.00  0.00     0.016 A 
ATOM     42  C   UNL     1      -2.374   3.616  -3.341  1.00  0.00     0.016 A 
ATOM     43  C   UNL     1       0.150   3.382  -3.924  1.00  0.00     0.010 A 
ATOM     44  C   UNL     1      -1.851   4.310  -4.511  1.00  0.00     0.010 A 
ATOM     45  C   UNL     1      -0.574   4.097  -4.959  1.00  0.00    -0.014 A 
BRANCH  45  46
ATOM     46  C   UNL     1      -0.221   4.758  -6.486  1.00  0.00     0.031 A 
ATOM     47  C   UNL     1       0.147   6.190  -6.318  1.00  0.00     0.074 A 
ATOM     48  C   UNL     1      -0.271   4.316  -7.853  1.00  0.00     0.049 A 
ATOM     49  N   UNL     1       0.455   7.042  -7.245  1.00  0.00    -0.248 NA
ATOM     50  C   UNL     1       0.321   6.683  -4.941  1.00  0.00     0.031 C 
ATOM     51  C   UNL     1      -0.158   2.951  -8.468  1.00  0.00     0.029 A 
ATOM     52  N   UNL     1      -0.688   4.953  -9.046  1.00  0.00    -0.354 N 
ATOM     53  C   UNL     1       0.926   8.145  -6.570  1.00  0.00     0.074 A 
ATOM     54  C   UNL     1       0.808   7.890  -5.155  1.00  0.00     0.031 C 
ATOM     55  C   UNL     1      -0.866   2.767  -9.576  1.00  0.00     0.029 A 
ATOM     56  C   UNL     1      -1.119   4.070 -10.078  1.00  0.00     0.049 A 
ATOM     57  H   UNL     1      -0.680   5.932  -9.154  1.00  0.00     0.167 HD
ATOM     58  C   UNL     1       1.435   9.260  -7.122  1.00  0.00     0.037 A 
ATOM     59  C   UNL     1      -1.433   4.141 -11.396  1.00  0.00     0.037 A 
ATOM     60  C   UNL     1       1.401   9.480  -8.541  1.00  0.00     0.049 A 
ATOM     61  C   UNL     1      -0.932   5.398 -11.980  1.00  0.00     0.074 A 
ATOM     62  C   UNL     1       1.742  10.621  -9.232  1.00  0.00     0.029 A 
ATOM     63  N   UNL     1       0.944   8.552  -9.485  1.00  0.00    -0.354 N 
ATOM     64  N   UNL     1      -0.449   6.407 -11.298  1.00  0.00    -0.248 NA
ATOM     65  C   UNL     1      -0.866   5.526 -13.433  1.00  0.00     0.031 C 
ATOM     66  C   UNL     1       1.378  10.431 -10.566  1.00  0.00     0.029 A 
ATOM     67  C   UNL     1       0.920   9.130 -10.742  1.00  0.00     0.049 A 
ATOM     68  H   UNL     1       0.679   7.625  -9.284  1.00  0.00     0.167 HD
ATOM     69  C   UNL     1       0.005   7.298 -12.224  1.00  0.00     0.074 A 
ATOM     70  C   UNL     1      -0.249   6.699 -13.533  1.00  0.00     0.031 C 
ATOM     71  C   UNL     1       0.566   8.504 -11.997  1.00  0.00     0.037 A 
BRANCH  58  72
ATOM     72  C   UNL     1       1.859  10.315  -6.148  1.00  0.00     0.058 A 
ATOM     73  C   UNL     1       2.947  10.142  -5.271  1.00  0.00     0.135 A 
ATOM     74  C   UNL     1       1.045  11.441  -5.970  1.00  0.00     0.135 A 
ATOM     75  F   UNL     1       3.712   9.040  -5.346  1.00  0.00    -0.206 F 
ATOM     76  C   UNL     1       3.186  11.033  -4.229  1.00  0.00     0.059 A 
ATOM     77  C   UNL     1       1.286  12.362  -4.960  1.00  0.00     0.059 A 
ATOM     78  F   UNL     1      -0.036  11.621  -6.744  1.00  0.00    -0.206 F 
ATOM     79  C   UNL     1       2.348  12.141  -4.084  1.00  0.00     0.060 A 
BRANCH  79  80
ATOM     80  S   UNL     1       2.657  13.288  -2.727  1.00  0.00     0.124 S 
ATOM     81  O   UNL     1       2.276  12.485  -1.570  1.00  0.00    -0.237 OA
ATOM     82  O   UNL     1       4.085  13.554  -2.872  1.00  0.00    -0.237 OA
ATOM     83  O   UNL     1       1.778  14.413  -3.028  1.00  0.00    -0.744 OA
ENDBRANCH  79  80
ENDBRANCH  58  72
BRANCH  59  84
ATOM     84  C   UNL     1      -1.880   2.920 -12.194  1.00  0.00     0.058 A 
ATOM     85  C   UNL     1      -1.041   2.170 -13.047  1.00  0.00     0.135 A 
ATOM     86  C   UNL     1      -3.155   2.366 -11.957  1.00  0.00     0.135 A 
ATOM     87  F   UNL     1       0.210   2.587 -13.291  1.00  0.00    -0.206 F 
ATOM     88  C   UNL     1      -1.447   0.955 -13.633  1.00  0.00     0.059 A 
ATOM     89  C   UNL     1      -3.578   1.151 -12.517  1.00  0.00     0.059 A 
ATOM     90  F   UNL     1      -4.005   2.994 -11.128  1.00  0.00    -0.206 F 
ATOM     91  C   UNL     1      -2.721   0.452 -13.364  1.00  0.00     0.060 A 
BRANCH  91  92
ATOM     92  S   UNL     1      -3.241  -1.124 -14.106  1.00  0.00     0.124 S 
ATOM     93  O   UNL     1      -3.321  -0.777 -15.521  1.00  0.00    -0.237 OA
ATOM     94  O   UNL     1      -2.152  -2.022 -13.733  1.00  0.00    -0.237 OA
ATOM     95  O   UNL     1      -4.521  -1.400 -13.460  1.00  0.00    -0.744 OA
ENDBRANCH  91  92
ENDBRANCH  59  84
BRANCH  71  96
ATOM     96  C   UNL     1       0.806   9.290 -13.227  1.00  0.00     0.058 A 
ATOM     97  C   UNL     1      -0.274   9.813 -13.953  1.00  0.00     0.135 A 
ATOM     98  C   UNL     1       2.114   9.569 -13.632  1.00  0.00     0.135 A 
ATOM     99  F   UNL     1      -1.538   9.537 -13.592  1.00  0.00    -0.206 F 
ATOM    100  C   UNL     1      -0.057  10.593 -15.068  1.00  0.00     0.059 A 
ATOM    101  C   UNL     1       2.352  10.387 -14.718  1.00  0.00     0.059 A 
ATOM    102  F   UNL     1       3.159   9.072 -12.950  1.00  0.00    -0.206 F 
ATOM    103  C   UNL     1       1.260  10.887 -15.429  1.00  0.00     0.060 A 
BRANCH 103 104
ATOM    104  S   UNL     1       1.519  11.982 -16.827  1.00  0.00     0.124 S 
ATOM    105  O   UNL     1       1.109  11.132 -17.939  1.00  0.00    -0.237 OA
ATOM    106  O   UNL     1       0.628  13.094 -16.511  1.00  0.00    -0.237 OA
ATOM    107  O   UNL     1       2.945  12.285 -16.757  1.00  0.00    -0.744 OA
ENDBRANCH 103 104
ENDBRANCH  71  96
ENDBRANCH  45  46
ENDBRANCH  38  40
ENDBRANCH  37  38
ENDBRANCH  36  37
ENDBRANCH  35  36
ENDBRANCH   1  35
TORSDOF 20
