REMARK SMILES COC(=O)[C@@H]1CN(C(=O)NC(=O)CCCC(=O)OCCOC(=O)c2ccc(-c3c4nc(c(-c5c(F)cc(S(=O)(=O)[O-])cc5F)c5ccc([nH]5)c(-c5c(F)cc(S(=O)(=O)[O-])cc5F)c5nc(c(-c6c(F)cc(S(=O)(=O)[O-])cc6F)c6ccc3[nH]6)C=C5)C=C4)cc2)C[C@H]1C
REMARK SMILES IDX 18 1 16 2 17 3 15 4 14 5 13 6 11 7 8 8 9 9 10 10 12 12 7 13
REMARK SMILES IDX 5 14 6 15 91 16 90 17 92 18 3 19 4 20 2 21 1 22 19 23 20 24
REMARK SMILES IDX 21 25 22 26 23 27 24 28 25 29 89 30 26 31 88 32 27 33 28 34
REMARK SMILES IDX 29 35 82 36 30 37 87 38 81 39 83 40 31 41 86 42 80 43 79 44
REMARK SMILES IDX 32 46 66 47 45 48 65 49 46 50 49 51 64 52 84 53 47 54 48 55
REMARK SMILES IDX 63 57 85 58 50 59 33 60 34 61 43 62 35 63 36 64 42 65 44 66
REMARK SMILES IDX 37 67 38 68 39 69 40 70 41 71 67 72 68 73 77 74 69 75 70 76
REMARK SMILES IDX 76 77 78 78 71 79 72 80 73 81 74 82 75 83 51 84 52 85 61 86
REMARK SMILES IDX 53 87 54 88 60 89 62 90 55 91 56 92 57 93 58 94 59 95
REMARK H PARENT 10 11 83 45 49 56
REMARK Flexibility Score: inf
ROOT
ATOM      1  O   UNL     1       4.009   1.458  -3.086  1.00  0.00    -0.462 OA
ENDROOT
BRANCH   1   2
ATOM      2  C   UNL     1       2.749   2.622  -2.219  1.00  0.00     0.305 C 
ATOM      3  O   UNL     1       1.502   2.514  -2.332  1.00  0.00    -0.252 OA
BRANCH   2   4
ATOM      4  C   UNL     1       3.013   3.815  -1.172  1.00  0.00     0.123 C 
BRANCH   4   5
ATOM      5  C   UNL     1       2.644   3.545   0.302  1.00  0.00     0.022 C 
BRANCH   5   6
ATOM      6  C   UNL     1       3.701   3.026   1.275  1.00  0.00     0.101 C 
BRANCH   6   7
ATOM      7  C   UNL     1       5.092   3.589   1.192  1.00  0.00     0.228 C 
ATOM      8  C   UNL     1       5.824   3.401  -1.300  1.00  0.00     0.324 C 
ATOM      9  O   UNL     1       6.522   4.173  -1.965  1.00  0.00    -0.248 OA
ATOM     10  N   UNL     1       5.896   3.516   0.070  1.00  0.00    -0.278 N 
ATOM     11  H   UNL     1       6.841   3.562   0.343  1.00  0.00     0.174 HD
ATOM     12  O   UNL     1       5.577   4.127   2.196  1.00  0.00    -0.275 OA
BRANCH   8  13
ATOM     13  N   UNL     1       4.884   2.626  -1.905  1.00  0.00    -0.323 N 
ATOM     14  C   UNL     1       2.501   0.649  -2.611  1.00  0.00     0.123 C 
ATOM     15  C   UNL     1       3.954   1.113  -1.279  1.00  0.00     0.137 C 
ATOM     16  C   UNL     1       2.744   2.066  -4.181  1.00  0.00     0.021 C 
ATOM     17  C   UNL     1       4.312   3.204  -3.604  1.00  0.00     0.125 C 
ATOM     18  C   UNL     1       3.280   1.988  -5.752  1.00  0.00     0.010 C 
BRANCH  14  19
ATOM     19  C   UNL     1       1.368   0.067  -1.720  1.00  0.00     0.310 C 
ATOM     20  O   UNL     1       0.673  -0.901  -1.994  1.00  0.00    -0.252 OA
BRANCH  19  21
ATOM     21  O   UNL     1       1.561   0.478  -0.441  1.00  0.00    -0.469 OA
ATOM     22  C   UNL     1       0.549   0.139   0.491  1.00  0.00     0.282 C 
ENDBRANCH  19  21
ENDBRANCH  14  19
ENDBRANCH   8  13
ENDBRANCH   6   7
ENDBRANCH   5   6
ENDBRANCH   4   5
ENDBRANCH   2   4
ENDBRANCH   1   2
BRANCH   1  23
ATOM     23  C   UNL     1       3.981   0.063  -4.240  1.00  0.00     0.274 C 
BRANCH  23  24
ATOM     24  C   UNL     1       2.405  -0.543  -4.883  1.00  0.00     0.275 C 
BRANCH  24  25
ATOM     25  O   UNL     1       1.316   0.435  -5.333  1.00  0.00    -0.458 OA
BRANCH  25  26
ATOM     26  C   UNL     1       0.084   0.657  -4.776  1.00  0.00     0.338 C 
ATOM     27  O   UNL     1      -0.466  -0.042  -3.945  1.00  0.00    -0.246 OA
BRANCH  26  28
ATOM     28  C   UNL     1      -0.627   1.922  -5.173  1.00  0.00     0.060 A 
ATOM     29  C   UNL     1      -0.703   2.995  -4.265  1.00  0.00     0.016 A 
ATOM     30  C   UNL     1      -1.504   1.948  -6.256  1.00  0.00     0.016 A 
ATOM     31  C   UNL     1      -1.494   4.123  -4.476  1.00  0.00     0.010 A 
ATOM     32  C   UNL     1      -2.377   3.045  -6.436  1.00  0.00     0.010 A 
ATOM     33  C   UNL     1      -2.363   4.142  -5.556  1.00  0.00    -0.014 A 
BRANCH  33  34
ATOM     34  C   UNL     1      -3.311   5.272  -5.678  1.00  0.00     0.031 A 
ATOM     35  C   UNL     1      -4.687   5.151  -5.095  1.00  0.00     0.074 A 
ATOM     36  C   UNL     1      -2.900   6.416  -6.254  1.00  0.00     0.049 A 
ATOM     37  N   UNL     1      -5.731   5.913  -5.272  1.00  0.00    -0.248 NA
ATOM     38  C   UNL     1      -4.912   4.023  -4.176  1.00  0.00     0.031 C 
ATOM     39  C   UNL     1      -1.528   6.687  -6.688  1.00  0.00     0.029 A 
ATOM     40  N   UNL     1      -3.589   7.551  -6.593  1.00  0.00    -0.354 N 
ATOM     41  C   UNL     1      -6.755   5.330  -4.532  1.00  0.00     0.074 A 
ATOM     42  C   UNL     1      -6.195   4.168  -3.877  1.00  0.00     0.031 C 
ATOM     43  C   UNL     1      -1.489   7.884  -7.294  1.00  0.00     0.029 A 
ATOM     44  C   UNL     1      -2.842   8.426  -7.348  1.00  0.00     0.049 A 
ATOM     45  H   UNL     1      -4.520   7.722  -6.324  1.00  0.00     0.167 HD
ATOM     46  C   UNL     1      -8.049   5.724  -4.449  1.00  0.00     0.037 A 
ATOM     47  C   UNL     1      -3.232   9.495  -8.068  1.00  0.00     0.037 A 
ATOM     48  C   UNL     1      -8.556   6.888  -5.133  1.00  0.00     0.049 A 
ATOM     49  C   UNL     1      -4.691   9.860  -8.054  1.00  0.00     0.074 A 
ATOM     50  C   UNL     1      -9.845   7.386  -5.162  1.00  0.00     0.029 A 
ATOM     51  N   UNL     1      -7.782   7.734  -5.921  1.00  0.00    -0.354 N 
ATOM     52  N   UNL     1      -5.678   9.270  -7.418  1.00  0.00    -0.248 NA
ATOM     53  C   UNL     1      -5.096  11.019  -8.856  1.00  0.00     0.031 C 
ATOM     54  C   UNL     1      -9.861   8.496  -6.015  1.00  0.00     0.029 A 
ATOM     55  C   UNL     1      -8.570   8.731  -6.468  1.00  0.00     0.049 A 
ATOM     56  H   UNL     1      -6.814   7.637  -6.069  1.00  0.00     0.167 HD
ATOM     57  C   UNL     1      -6.821   9.993  -7.729  1.00  0.00     0.074 A 
ATOM     58  C   UNL     1      -6.397  11.075  -8.600  1.00  0.00     0.031 C 
ATOM     59  C   UNL     1      -8.104   9.788  -7.336  1.00  0.00     0.037 A 
BRANCH  46  60
ATOM     60  C   UNL     1      -9.004   4.843  -3.685  1.00  0.00     0.058 A 
ATOM     61  C   UNL     1      -8.968   4.719  -2.287  1.00  0.00     0.135 A 
ATOM     62  C   UNL     1      -9.975   4.096  -4.376  1.00  0.00     0.135 A 
ATOM     63  F   UNL     1      -8.052   5.391  -1.572  1.00  0.00    -0.206 F 
ATOM     64  C   UNL     1      -9.833   3.863  -1.607  1.00  0.00     0.059 A 
ATOM     65  C   UNL     1     -10.867   3.255  -3.715  1.00  0.00     0.059 A 
ATOM     66  F   UNL     1     -10.056   4.168  -5.714  1.00  0.00    -0.206 F 
ATOM     67  C   UNL     1     -10.777   3.131  -2.330  1.00  0.00     0.060 A 
BRANCH  67  68
ATOM     68  S   UNL     1     -11.878   2.011  -1.439  1.00  0.00     0.124 S 
ATOM     69  O   UNL     1     -10.961   0.942  -1.055  1.00  0.00    -0.237 OA
ATOM     70  O   UNL     1     -12.361   2.851  -0.348  1.00  0.00    -0.237 OA
ATOM     71  O   UNL     1     -12.879   1.649  -2.437  1.00  0.00    -0.744 OA
ENDBRANCH  67  68
ENDBRANCH  46  60
BRANCH  47  72
ATOM     72  C   UNL     1      -2.239  10.224  -8.904  1.00  0.00     0.058 A 
ATOM     73  C   UNL     1      -1.837  11.529  -8.590  1.00  0.00     0.135 A 
ATOM     74  C   UNL     1      -1.627   9.603 -10.008  1.00  0.00     0.135 A 
ATOM     75  F   UNL     1      -2.397  12.172  -7.555  1.00  0.00    -0.206 F 
ATOM     76  C   UNL     1      -0.860  12.190  -9.332  1.00  0.00     0.059 A 
ATOM     77  C   UNL     1      -0.630  10.232 -10.747  1.00  0.00     0.059 A 
ATOM     78  F   UNL     1      -1.968   8.350 -10.350  1.00  0.00    -0.206 F 
ATOM     79  C   UNL     1      -0.255  11.528 -10.403  1.00  0.00     0.060 A 
BRANCH  79  80
ATOM     80  S   UNL     1       1.066  12.367 -11.306  1.00  0.00     0.124 S 
ATOM     81  O   UNL     1       0.324  13.393 -12.030  1.00  0.00    -0.237 OA
ATOM     82  O   UNL     1       1.922  12.842 -10.224  1.00  0.00    -0.237 OA
ATOM     83  O   UNL     1       1.639  11.305 -12.128  1.00  0.00    -0.744 OA
ENDBRANCH  79  80
ENDBRANCH  47  72
BRANCH  59  84
ATOM     84  C   UNL     1      -9.128  10.772  -7.827  1.00  0.00     0.058 A 
ATOM     85  C   UNL     1      -9.566  10.775  -9.160  1.00  0.00     0.135 A 
ATOM     86  C   UNL     1      -9.712  11.687  -6.937  1.00  0.00     0.135 A 
ATOM     87  F   UNL     1      -9.030   9.927 -10.051  1.00  0.00    -0.206 F 
ATOM     88  C   UNL     1     -10.536  11.670  -9.599  1.00  0.00     0.059 A 
ATOM     89  C   UNL     1     -10.705  12.568  -7.347  1.00  0.00     0.059 A 
ATOM     90  F   UNL     1      -9.332  11.715  -5.649  1.00  0.00    -0.206 F 
ATOM     91  C   UNL     1     -11.101  12.560  -8.684  1.00  0.00     0.060 A 
BRANCH  91  92
ATOM     92  S   UNL     1     -12.384  13.690  -9.259  1.00  0.00     0.124 S 
ATOM     93  O   UNL     1     -11.605  14.645 -10.040  1.00  0.00    -0.237 OA
ATOM     94  O   UNL     1     -13.258  12.806 -10.024  1.00  0.00    -0.237 OA
ATOM     95  O   UNL     1     -12.958  14.211  -8.021  1.00  0.00    -0.744 OA
ENDBRANCH  91  92
ENDBRANCH  59  84
ENDBRANCH  33  34
ENDBRANCH  26  28
ENDBRANCH  25  26
ENDBRANCH  24  25
ENDBRANCH  23  24
ENDBRANCH   1  23
TORSDOF 20
