REMARK SMILES Cn1nc(N2CCC(CC(=O)OCCOC(=O)c3ccc(-c4c5nc(c(-c6c(F)cc(S(=O)(=O)[O-])cc6F)c6ccc([nH]6)c(-c6c(F)cc(S(=O)(=O)[O-])cc6F)c6nc(c(-c7c(F)cc(S(=O)(=O)[O-])cc7F)c7ccc4[nH]7)C=C6)C=C5)cc3)CC2)c(=O)n(C)c1=O
REMARK SMILES IDX 14 1 13 2 12 3 10 4 11 5 9 6 8 7 5 8 6 9 85 10 7 11 84 12
REMARK SMILES IDX 4 13 1 14 2 15 3 16 90 17 88 18 91 19 86 20 89 21 87 22
REMARK SMILES IDX 15 23 16 24 17 25 18 26 19 27 83 28 20 29 82 30 21 31 22 32
REMARK SMILES IDX 23 33 76 34 24 35 81 36 75 37 77 38 25 39 80 40 74 41 73 42
REMARK SMILES IDX 26 44 60 45 39 46 59 47 40 48 43 49 58 50 78 51 41 52 42 53
REMARK SMILES IDX 57 55 79 56 44 57 27 58 28 59 37 60 29 61 30 62 36 63 38 64
REMARK SMILES IDX 31 65 32 66 33 67 34 68 35 69 61 70 62 71 71 72 63 73 64 74
REMARK SMILES IDX 70 75 72 76 65 77 66 78 67 79 68 80 69 81 45 82 46 83 55 84
REMARK SMILES IDX 47 85 48 86 54 87 56 88 49 89 50 90 51 91 52 92 53 93
REMARK H PARENT 77 43 43 54
REMARK Flexibility Score: inf
ROOT
ATOM      1  C   UNL     1       7.393  -8.076   2.908  1.00  0.00     0.275 C 
ENDROOT
BRANCH   1   2
ATOM      2  C   UNL     1       7.747  -6.638   2.521  1.00  0.00     0.274 C 
BRANCH   2   3
ATOM      3  O   UNL     1       6.758  -6.070   1.640  1.00  0.00    -0.462 OA
BRANCH   3   4
ATOM      4  C   UNL     1       7.059  -6.055   0.317  1.00  0.00     0.306 C 
ATOM      5  O   UNL     1       8.115  -6.451  -0.161  1.00  0.00    -0.252 OA
BRANCH   4   6
ATOM      6  C   UNL     1       5.974  -5.414  -0.526  1.00  0.00     0.126 C 
BRANCH   6   7
ATOM      7  C   UNL     1       4.524  -5.768  -0.152  1.00  0.00     0.003 C 
ATOM      8  N   UNL     1       1.773  -4.933   0.084  1.00  0.00    -0.351 N 
ATOM      9  C   UNL     1       2.541  -5.132   1.299  1.00  0.00     0.118 C 
ATOM     10  C   UNL     1       2.120  -5.805  -1.029  1.00  0.00     0.118 C 
ATOM     11  C   UNL     1       4.020  -4.904   1.021  1.00  0.00     0.026 C 
ATOM     12  C   UNL     1       3.598  -5.594  -1.378  1.00  0.00     0.026 C 
BRANCH   8  13
ATOM     13  C   UNL     1       0.930  -3.846  -0.077  1.00  0.00     0.215 A 
ATOM     14  C   UNL     1       1.051  -0.262   0.108  1.00  0.00     0.180 C 
ATOM     15  N   UNL     1       0.483  -1.589  -0.039  1.00  0.00    -0.216 N 
ATOM     16  N   UNL     1       1.350  -2.632   0.141  1.00  0.00    -0.145 NA
ATOM     17  C   UNL     1      -0.877  -1.712  -0.303  1.00  0.00     0.346 A 
ATOM     18  N   UNL     1      -1.349  -2.994  -0.487  1.00  0.00    -0.259 N 
ATOM     19  O   UNL     1      -1.612  -0.723  -0.375  1.00  0.00    -0.246 OA
ATOM     20  C   UNL     1      -0.527  -4.101  -0.479  1.00  0.00     0.299 A 
ATOM     21  C   UNL     1      -2.758  -3.218  -0.733  1.00  0.00     0.159 C 
ATOM     22  O   UNL     1      -0.896  -5.244  -0.729  1.00  0.00    -0.265 OA
ENDBRANCH   8  13
ENDBRANCH   6   7
ENDBRANCH   4   6
ENDBRANCH   3   4
ENDBRANCH   2   3
ENDBRANCH   1   2
BRANCH   1  23
ATOM     23  O   UNL     1       7.546  -8.969   1.791  1.00  0.00    -0.458 OA
BRANCH  23  24
ATOM     24  C   UNL     1       6.416  -9.206   1.086  1.00  0.00     0.338 C 
ATOM     25  O   UNL     1       5.293  -8.802   1.335  1.00  0.00    -0.246 OA
BRANCH  24  26
ATOM     26  C   UNL     1       6.750  -9.949  -0.138  1.00  0.00     0.060 A 
ATOM     27  C   UNL     1       6.547  -9.323  -1.371  1.00  0.00     0.016 A 
ATOM     28  C   UNL     1       7.183 -11.274  -0.072  1.00  0.00     0.016 A 
ATOM     29  C   UNL     1       6.766 -10.029  -2.552  1.00  0.00     0.010 A 
ATOM     30  C   UNL     1       7.400 -11.981  -1.258  1.00  0.00     0.010 A 
ATOM     31  C   UNL     1       7.176 -11.368  -2.503  1.00  0.00    -0.014 A 
BRANCH  31  32
ATOM     32  C   UNL     1       7.301 -12.148  -3.756  1.00  0.00     0.031 A 
ATOM     33  C   UNL     1       6.219 -13.118  -4.135  1.00  0.00     0.074 A 
ATOM     34  C   UNL     1       8.363 -11.966  -4.562  1.00  0.00     0.049 A 
ATOM     35  N   UNL     1       6.170 -13.951  -5.141  1.00  0.00    -0.248 NA
ATOM     36  C   UNL     1       5.032 -13.152  -3.265  1.00  0.00     0.031 C 
ATOM     37  C   UNL     1       9.445 -11.009  -4.330  1.00  0.00     0.029 A 
ATOM     38  N   UNL     1       8.703 -12.577  -5.742  1.00  0.00    -0.354 N 
ATOM     39  C   UNL     1       4.952 -14.611  -5.027  1.00  0.00     0.074 A 
ATOM     40  C   UNL     1       4.302 -14.098  -3.840  1.00  0.00     0.031 C 
ATOM     41  C   UNL     1      10.328 -11.095  -5.339  1.00  0.00     0.029 A 
ATOM     42  C   UNL     1       9.896 -12.139  -6.266  1.00  0.00     0.049 A 
ATOM     43  H   UNL     1       8.146 -13.265  -6.173  1.00  0.00     0.167 HD
ATOM     44  C   UNL     1       4.424 -15.555  -5.843  1.00  0.00     0.037 A 
ATOM     45  C   UNL     1      10.572 -12.549  -7.356  1.00  0.00     0.037 A 
ATOM     46  C   UNL     1       5.078 -16.063  -7.021  1.00  0.00     0.049 A 
ATOM     47  C   UNL     1      10.003 -13.656  -8.201  1.00  0.00     0.074 A 
ATOM     48  C   UNL     1       4.638 -17.040  -7.897  1.00  0.00     0.029 A 
ATOM     49  N   UNL     1       6.310 -15.632  -7.490  1.00  0.00    -0.354 N 
ATOM     50  N   UNL     1       8.872 -14.305  -8.057  1.00  0.00    -0.248 NA
ATOM     51  C   UNL     1      10.806 -14.095  -9.350  1.00  0.00     0.031 C 
ATOM     52  C   UNL     1       5.618 -17.220  -8.880  1.00  0.00     0.029 A 
ATOM     53  C   UNL     1       6.651 -16.329  -8.637  1.00  0.00     0.049 A 
ATOM     54  H   UNL     1       6.861 -14.933  -7.069  1.00  0.00     0.167 HD
ATOM     55  C   UNL     1       8.820 -15.218  -9.104  1.00  0.00     0.074 A 
ATOM     56  C   UNL     1      10.029 -15.030  -9.882  1.00  0.00     0.031 C 
ATOM     57  C   UNL     1       7.860 -16.130  -9.396  1.00  0.00     0.037 A 
BRANCH  44  58
ATOM     58  C   UNL     1       3.079 -16.113  -5.476  1.00  0.00     0.058 A 
ATOM     59  C   UNL     1       1.901 -15.375  -5.670  1.00  0.00     0.135 A 
ATOM     60  C   UNL     1       2.962 -17.411  -4.955  1.00  0.00     0.135 A 
ATOM     61  F   UNL     1       1.959 -14.121  -6.145  1.00  0.00    -0.206 F 
ATOM     62  C   UNL     1       0.654 -15.899  -5.343  1.00  0.00     0.059 A 
ATOM     63  C   UNL     1       1.724 -17.963  -4.641  1.00  0.00     0.059 A 
ATOM     64  F   UNL     1       4.059 -18.156  -4.745  1.00  0.00    -0.206 F 
ATOM     65  C   UNL     1       0.576 -17.195  -4.828  1.00  0.00     0.060 A 
BRANCH  65  66
ATOM     66  S   UNL     1      -1.050 -17.863  -4.415  1.00  0.00     0.124 S 
ATOM     67  O   UNL     1      -1.374 -17.112  -3.206  1.00  0.00    -0.237 OA
ATOM     68  O   UNL     1      -1.835 -17.528  -5.598  1.00  0.00    -0.237 OA
ATOM     69  O   UNL     1      -0.793 -19.286  -4.219  1.00  0.00    -0.744 OA
ENDBRANCH  65  66
ENDBRANCH  44  58
BRANCH  45  70
ATOM     70  C   UNL     1      11.870 -11.915  -7.704  1.00  0.00     0.058 A 
ATOM     71  C   UNL     1      11.981 -11.063  -8.812  1.00  0.00     0.135 A 
ATOM     72  C   UNL     1      13.018 -12.132  -6.926  1.00  0.00     0.135 A 
ATOM     73  F   UNL     1      10.913 -10.836  -9.593  1.00  0.00    -0.206 F 
ATOM     74  C   UNL     1      13.185 -10.449  -9.140  1.00  0.00     0.059 A 
ATOM     75  C   UNL     1      14.228 -11.512  -7.221  1.00  0.00     0.059 A 
ATOM     76  F   UNL     1      12.960 -12.934  -5.852  1.00  0.00    -0.206 F 
ATOM     77  C   UNL     1      14.303 -10.676  -8.335  1.00  0.00     0.060 A 
BRANCH  77  78
ATOM     78  S   UNL     1      15.845  -9.824  -8.732  1.00  0.00     0.124 S 
ATOM     79  O   UNL     1      16.293 -10.560  -9.908  1.00  0.00    -0.237 OA
ATOM     80  O   UNL     1      15.388  -8.458  -8.969  1.00  0.00    -0.237 OA
ATOM     81  O   UNL     1      16.649 -10.007  -7.527  1.00  0.00    -0.744 OA
ENDBRANCH  77  78
ENDBRANCH  45  70
BRANCH  57  82
ATOM     82  C   UNL     1       8.068 -16.982 -10.616  1.00  0.00     0.058 A 
ATOM     83  C   UNL     1       8.979 -18.049 -10.618  1.00  0.00     0.135 A 
ATOM     84  C   UNL     1       7.314 -16.757 -11.778  1.00  0.00     0.135 A 
ATOM     85  F   UNL     1       9.727 -18.301  -9.532  1.00  0.00    -0.206 F 
ATOM     86  C   UNL     1       9.151 -18.853 -11.740  1.00  0.00     0.059 A 
ATOM     87  C   UNL     1       7.454 -17.562 -12.905  1.00  0.00     0.059 A 
ATOM     88  F   UNL     1       6.422 -15.755 -11.823  1.00  0.00    -0.206 F 
ATOM     89  C   UNL     1       8.384 -18.601 -12.879  1.00  0.00     0.060 A 
BRANCH  89  90
ATOM     90  S   UNL     1       8.596 -19.669 -14.320  1.00  0.00     0.124 S 
ATOM     91  O   UNL     1       9.867 -19.191 -14.854  1.00  0.00    -0.237 OA
ATOM     92  O   UNL     1       8.620 -21.001 -13.723  1.00  0.00    -0.237 OA
ATOM     93  O   UNL     1       7.422 -19.375 -15.136  1.00  0.00    -0.744 OA
ENDBRANCH  89  90
ENDBRANCH  57  82
ENDBRANCH  31  32
ENDBRANCH  24  26
ENDBRANCH  23  24
ENDBRANCH   1  23
TORSDOF 16
