REMARK SMILES O=C(CSc1cccs1)N[C@H]1CCCCC[C@H]1C(=O)OCCOC(=O)c1ccc(-c2c3nc(c(-c4c(F)cc(S(=O)(=O)[O-])cc4F)c4ccc([nH]4)c(-c4c(F)cc(S(=O)(=O)[O-])cc4F)c4nc(c(-c5c(F)cc(S(=O)(=O)[O-])cc5F)c5ccc2[nH]5)C=C4)C=C3)cc1
REMARK SMILES IDX 21 1 20 2 18 3 19 4 17 5 11 6 10 8 1 9 2 10 3 12 4 13 5 14
REMARK SMILES IDX 6 15 9 16 7 17 8 18 16 19 15 20 14 21 13 22 12 23 22 25
REMARK SMILES IDX 23 26 24 27 25 28 26 29 27 30 91 31 28 32 90 33 29 34 30 35
REMARK SMILES IDX 31 36 84 37 32 38 89 39 83 40 85 41 33 42 88 43 82 44 81 45
REMARK SMILES IDX 34 47 68 48 47 49 67 50 48 51 51 52 66 53 86 54 49 55 50 56
REMARK SMILES IDX 65 58 87 59 52 60 35 61 36 62 45 63 37 64 38 65 44 66 46 67
REMARK SMILES IDX 39 68 40 69 41 70 42 71 43 72 69 73 70 74 79 75 71 76 72 77
REMARK SMILES IDX 78 78 80 79 73 80 74 81 75 82 76 83 77 84 53 85 54 86 63 87
REMARK SMILES IDX 55 88 56 89 62 90 64 91 57 92 58 93 59 94 60 95 61 96
REMARK H PARENT 10 11 85 46 51 57
REMARK Flexibility Score: 90.00
ROOT
ATOM      1  C   UNL     1      -1.094   4.280   3.491  1.00  0.00     0.274 C 
ENDROOT
BRANCH   1   2
ATOM      2  O   UNL     1       0.135   4.034   2.780  1.00  0.00    -0.462 OA
BRANCH   2   3
ATOM      3  C   UNL     1       0.959   3.111   3.328  1.00  0.00     0.311 C 
ATOM      4  O   UNL     1       0.728   2.534   4.388  1.00  0.00    -0.252 OA
BRANCH   3   5
ATOM      5  C   UNL     1       2.246   2.854   2.553  1.00  0.00     0.121 C 
BRANCH   5   6
ATOM      6  C   UNL     1       2.339   3.218   1.047  1.00  0.00     0.096 CG0
ATOM      7  G   UNL     1       3.229   4.423   0.713  1.00  0.00     0.000 G0
BRANCH   6   8
ATOM      8  N   UNL     1       1.061   3.124   0.333  1.00  0.00    -0.352 N 
ATOM      9  O   UNL     1       0.954   5.119  -0.836  1.00  0.00    -0.274 OA
ATOM     10  C   UNL     1       0.497   4.013  -0.558  1.00  0.00     0.230 C 
ATOM     11  H   UNL     1       0.532   2.314   0.515  1.00  0.00     0.163 HD
BRANCH  10  12
ATOM     12  C   UNL     1      -0.826   3.555  -1.157  1.00  0.00     0.175 C 
BRANCH  12  13
ATOM     13  S   UNL     1      -0.637   2.051  -2.155  1.00  0.00    -0.105 SA
BRANCH  13  14
ATOM     14  C   UNL     1       0.413   2.625  -3.438  1.00  0.00     0.060 A 
ATOM     15  C   UNL     1       0.201   3.717  -4.253  1.00  0.00     0.027 A 
ATOM     16  S   UNL     1       1.867   1.816  -3.830  1.00  0.00    -0.137 S 
ATOM     17  C   UNL     1       1.259   3.907  -5.188  1.00  0.00     0.013 A 
ATOM     18  C   UNL     1       2.232   2.940  -5.066  1.00  0.00     0.066 A 
ENDBRANCH  13  14
ENDBRANCH  12  13
ENDBRANCH  10  12
ENDBRANCH   6   8
ENDBRANCH   5   6
BRANCH   5  19
ATOM     19  C   UNL     1       3.435   3.315   3.420  1.00  0.00     0.017 C 
BRANCH  19  20
ATOM     20  C   UNL     1       3.390   4.780   3.861  1.00  0.00     0.001 C 
BRANCH  20  21
ATOM     21  C   UNL     1       3.712   5.807   2.782  1.00  0.00     0.000 C 
BRANCH  21  22
ATOM     22  C   UNL     1       2.900   5.689   1.496  1.00  0.00     0.002 C 
BRANCH  22  23
ATOM     23  C   UNL     1       3.229   4.423   0.713  1.00  0.00     0.026 CG0
ATOM     24  G   UNL     1       2.339   3.218   1.047  1.00  0.00     0.000 G0
ENDBRANCH  22  23
ENDBRANCH  21  22
ENDBRANCH  20  21
ENDBRANCH  19  20
ENDBRANCH   5  19
ENDBRANCH   3   5
ENDBRANCH   2   3
ENDBRANCH   1   2
BRANCH   1  25
ATOM     25  C   UNL     1      -2.259   3.437   2.956  1.00  0.00     0.275 C 
BRANCH  25  26
ATOM     26  O   UNL     1      -2.139   2.040   3.283  1.00  0.00    -0.458 OA
BRANCH  26  27
ATOM     27  C   UNL     1      -1.468   1.293   2.379  1.00  0.00     0.338 C 
ATOM     28  O   UNL     1      -0.964   1.671   1.334  1.00  0.00    -0.246 OA
BRANCH  27  29
ATOM     29  C   UNL     1      -1.290  -0.081   2.849  1.00  0.00     0.060 A 
ATOM     30  C   UNL     1       0.014  -0.514   3.102  1.00  0.00     0.016 A 
ATOM     31  C   UNL     1      -2.365  -0.968   2.892  1.00  0.00     0.016 A 
ATOM     32  C   UNL     1       0.256  -1.849   3.392  1.00  0.00     0.010 A 
ATOM     33  C   UNL     1      -2.122  -2.308   3.196  1.00  0.00     0.010 A 
ATOM     34  C   UNL     1      -0.810  -2.754   3.437  1.00  0.00    -0.014 A 
BRANCH  34  35
ATOM     35  C   UNL     1      -0.547  -4.174   3.743  1.00  0.00     0.031 A 
ATOM     36  C   UNL     1      -0.601  -5.198   2.650  1.00  0.00     0.074 A 
ATOM     37  C   UNL     1      -0.261  -4.522   5.010  1.00  0.00     0.049 A 
ATOM     38  N   UNL     1      -0.528  -6.500   2.738  1.00  0.00    -0.248 NA
ATOM     39  C   UNL     1      -0.760  -4.694   1.276  1.00  0.00     0.031 C 
ATOM     40  C   UNL     1      -0.144  -3.589   6.134  1.00  0.00     0.029 A 
ATOM     41  N   UNL     1      -0.028  -5.750   5.568  1.00  0.00    -0.354 N 
ATOM     42  C   UNL     1      -0.660  -6.975   1.440  1.00  0.00     0.074 A 
ATOM     43  C   UNL     1      -0.816  -5.822   0.579  1.00  0.00     0.031 C 
ATOM     44  C   UNL     1       0.128  -4.282   7.251  1.00  0.00     0.029 A 
ATOM     45  C   UNL     1       0.157  -5.704   6.929  1.00  0.00     0.049 A 
ATOM     46  H   UNL     1       0.004  -6.584   5.046  1.00  0.00     0.167 HD
ATOM     47  C   UNL     1      -0.658  -8.261   1.016  1.00  0.00     0.037 A 
ATOM     48  C   UNL     1       0.295  -6.704   7.819  1.00  0.00     0.037 A 
ATOM     49  C   UNL     1      -0.485  -9.393   1.889  1.00  0.00     0.049 A 
ATOM     50  C   UNL     1       0.271  -8.121   7.324  1.00  0.00     0.074 A 
ATOM     51  C   UNL     1      -0.467 -10.738   1.565  1.00  0.00     0.029 A 
ATOM     52  N   UNL     1      -0.293  -9.309   3.261  1.00  0.00    -0.354 N 
ATOM     53  N   UNL     1       0.117  -8.560   6.097  1.00  0.00    -0.248 NA
ATOM     54  C   UNL     1       0.431  -9.179   8.329  1.00  0.00     0.031 C 
ATOM     55  C   UNL     1      -0.288 -11.469   2.746  1.00  0.00     0.029 A 
ATOM     56  C   UNL     1      -0.162 -10.578   3.799  1.00  0.00     0.049 A 
ATOM     57  H   UNL     1      -0.254  -8.471   3.775  1.00  0.00     0.167 HD
ATOM     58  C   UNL     1       0.176  -9.945   6.180  1.00  0.00     0.074 A 
ATOM     59  C   UNL     1       0.392 -10.270   7.577  1.00  0.00     0.031 C 
ATOM     60  C   UNL     1       0.060 -10.867   5.193  1.00  0.00     0.037 A 
BRANCH  47  61
ATOM     61  C   UNL     1      -0.879  -8.514  -0.448  1.00  0.00     0.058 A 
ATOM     62  C   UNL     1       0.135  -8.306  -1.395  1.00  0.00     0.135 A 
ATOM     63  C   UNL     1      -2.110  -9.015  -0.902  1.00  0.00     0.135 A 
ATOM     64  F   UNL     1       1.323  -7.811  -1.015  1.00  0.00    -0.206 F 
ATOM     65  C   UNL     1      -0.067  -8.576  -2.746  1.00  0.00     0.059 A 
ATOM     66  C   UNL     1      -2.328  -9.308  -2.245  1.00  0.00     0.059 A 
ATOM     67  F   UNL     1      -3.114  -9.225  -0.037  1.00  0.00    -0.206 F 
ATOM     68  C   UNL     1      -1.303  -9.075  -3.161  1.00  0.00     0.060 A 
BRANCH  68  69
ATOM     69  S   UNL     1      -1.549  -9.441  -4.913  1.00  0.00     0.124 S 
ATOM     70  O   UNL     1      -1.740  -8.103  -5.465  1.00  0.00    -0.237 OA
ATOM     71  O   UNL     1      -0.300 -10.103  -5.276  1.00  0.00    -0.237 OA
ATOM     72  O   UNL     1      -2.732 -10.297  -4.918  1.00  0.00    -0.744 OA
ENDBRANCH  68  69
ENDBRANCH  47  61
BRANCH  48  73
ATOM     73  C   UNL     1       0.435  -6.393   9.264  1.00  0.00     0.058 A 
ATOM     74  C   UNL     1       1.659  -6.562   9.925  1.00  0.00     0.135 A 
ATOM     75  C   UNL     1      -0.650  -5.899  10.005  1.00  0.00     0.135 A 
ATOM     76  F   UNL     1       2.722  -7.035   9.258  1.00  0.00    -0.206 F 
ATOM     77  C   UNL     1       1.801  -6.264  11.277  1.00  0.00     0.059 A 
ATOM     78  C   UNL     1      -0.527  -5.574  11.351  1.00  0.00     0.059 A 
ATOM     79  F   UNL     1      -1.838  -5.704   9.411  1.00  0.00    -0.206 F 
ATOM     80  C   UNL     1       0.702  -5.770  11.981  1.00  0.00     0.060 A 
BRANCH  80  81
ATOM     81  S   UNL     1       0.902  -5.337  13.723  1.00  0.00     0.124 S 
ATOM     82  O   UNL     1       0.810  -6.645  14.361  1.00  0.00    -0.237 OA
ATOM     83  O   UNL     1       2.219  -4.709  13.740  1.00  0.00    -0.237 OA
ATOM     84  O   UNL     1      -0.217  -4.432  13.970  1.00  0.00    -0.744 OA
ENDBRANCH  80  81
ENDBRANCH  48  73
BRANCH  60  85
ATOM     85  C   UNL     1       0.195 -12.306   5.592  1.00  0.00     0.058 A 
ATOM     86  C   UNL     1      -0.855 -12.994   6.217  1.00  0.00     0.135 A 
ATOM     87  C   UNL     1       1.376 -13.011   5.313  1.00  0.00     0.135 A 
ATOM     88  F   UNL     1      -2.000 -12.358   6.510  1.00  0.00    -0.206 F 
ATOM     89  C   UNL     1      -0.731 -14.332   6.572  1.00  0.00     0.059 A 
ATOM     90  C   UNL     1       1.515 -14.354   5.643  1.00  0.00     0.059 A 
ATOM     91  F   UNL     1       2.405 -12.395   4.710  1.00  0.00    -0.206 F 
ATOM     92  C   UNL     1       0.459 -15.003   6.284  1.00  0.00     0.060 A 
BRANCH  92  93
ATOM     93  S   UNL     1       0.605 -16.747   6.725  1.00  0.00     0.124 S 
ATOM     94  O   UNL     1       0.904 -16.664   8.151  1.00  0.00    -0.237 OA
ATOM     95  O   UNL     1      -0.713 -17.273   6.384  1.00  0.00    -0.237 OA
ATOM     96  O   UNL     1       1.697 -17.218   5.878  1.00  0.00    -0.744 OA
ENDBRANCH  92  93
ENDBRANCH  60  85
ENDBRANCH  34  35
ENDBRANCH  27  29
ENDBRANCH  26  27
ENDBRANCH  25  26
ENDBRANCH   1  25
TORSDOF 18
