REMARK SMILES O=C(OCCOC(=O)c1ccccc1Nc1cccc(S(F)(F)(F)(F)F)c1)c1ccc(-c2c3nc(c(-c4c(F)cc(S(=O)(=O)[O-])cc4F)c4ccc([nH]4)c(-c4c(F)cc(S(=O)(=O)[O-])cc4F)c4nc(c(-c5c(F)cc(S(=O)(=O)[O-])cc5F)c5ccc2[nH]5)C=C4)C=C3)cc1
REMARK SMILES IDX 4 1 3 2 2 3 1 4 28 5 29 6 93 7 30 8 92 9 31 10 32 11 33 12
REMARK SMILES IDX 86 13 34 14 91 15 85 16 87 17 35 18 90 19 84 20 83 21 36 23
REMARK SMILES IDX 70 24 49 25 69 26 50 27 53 28 68 29 88 30 51 31 52 32 67 34
REMARK SMILES IDX 89 35 54 36 37 37 38 38 47 39 39 40 40 41 46 42 48 43 41 44
REMARK SMILES IDX 42 45 43 46 44 47 45 48 71 49 72 50 81 51 73 52 74 53 80 54
REMARK SMILES IDX 82 55 75 56 76 57 77 58 78 59 79 60 55 61 56 62 65 63 57 64
REMARK SMILES IDX 58 65 64 66 66 67 59 68 60 69 61 70 62 71 63 72 5 73 6 74
REMARK SMILES IDX 7 75 8 76 9 77 10 78 14 79 11 80 13 81 12 82 15 83 16 85
REMARK SMILES IDX 17 86 27 87 18 88 20 89 19 90 21 91 22 92 23 93 24 94 25 95
REMARK SMILES IDX 26 96
REMARK H PARENT 87 22 53 33 15 84
REMARK Flexibility Score: inf
ROOT
ATOM      1  C   UNL     1       4.426   0.833  -1.031  1.00  0.00     0.275 C 
ENDROOT
BRANCH   1   2
ATOM      2  O   UNL     1       3.006   0.833  -1.031  1.00  0.00    -0.458 OA
BRANCH   2   3
ATOM      3  C   UNL     1       2.296   0.071  -0.066  1.00  0.00     0.338 C 
ATOM      4  O   UNL     1       1.025   0.071  -0.066  1.00  0.00    -0.246 OA
BRANCH   3   5
ATOM      5  C   UNL     1       3.056  -0.744   0.968  1.00  0.00     0.060 A 
ATOM      6  C   UNL     1       4.205  -0.181   1.497  1.00  0.00     0.016 A 
ATOM      7  C   UNL     1       2.705  -1.993   1.254  1.00  0.00     0.016 A 
ATOM      8  C   UNL     1       5.080  -1.119   2.094  1.00  0.00     0.010 A 
ATOM      9  C   UNL     1       3.552  -2.813   1.960  1.00  0.00     0.010 A 
ATOM     10  C   UNL     1       4.732  -2.339   2.462  1.00  0.00    -0.014 A 
BRANCH  10  11
ATOM     11  C   UNL     1       5.598  -3.172   3.393  1.00  0.00     0.031 A 
ATOM     12  C   UNL     1       6.114  -4.403   2.983  1.00  0.00     0.074 A 
ATOM     13  C   UNL     1       5.902  -2.570   4.602  1.00  0.00     0.049 A 
ATOM     14  N   UNL     1       6.983  -5.178   3.632  1.00  0.00    -0.248 NA
ATOM     15  C   UNL     1       5.765  -5.061   1.714  1.00  0.00     0.031 C 
ATOM     16  C   UNL     1       5.393  -1.325   5.020  1.00  0.00     0.029 A 
ATOM     17  N   UNL     1       6.727  -3.044   5.598  1.00  0.00    -0.354 N 
ATOM     18  C   UNL     1       7.254  -6.269   2.913  1.00  0.00     0.074 A 
ATOM     19  C   UNL     1       6.470  -6.212   1.672  1.00  0.00     0.031 C 
ATOM     20  C   UNL     1       5.894  -1.057   6.255  1.00  0.00     0.029 A 
ATOM     21  C   UNL     1       6.726  -2.130   6.629  1.00  0.00     0.049 A 
ATOM     22  H   UNL     1       7.231  -3.889   5.577  1.00  0.00     0.167 HD
ATOM     23  C   UNL     1       8.126  -7.308   3.243  1.00  0.00     0.037 A 
ATOM     24  C   UNL     1       7.403  -2.210   7.835  1.00  0.00     0.037 A 
ATOM     25  C   UNL     1       8.837  -7.367   4.431  1.00  0.00     0.049 A 
ATOM     26  C   UNL     1       8.230  -3.279   8.191  1.00  0.00     0.074 A 
ATOM     27  C   UNL     1       9.726  -8.404   4.775  1.00  0.00     0.029 A 
ATOM     28  N   UNL     1       8.816  -6.466   5.472  1.00  0.00    -0.354 N 
ATOM     29  N   UNL     1       8.531  -4.350   7.455  1.00  0.00    -0.248 NA
ATOM     30  C   UNL     1       8.927  -3.390   9.479  1.00  0.00     0.031 C 
ATOM     31  C   UNL     1      10.227  -8.136   6.011  1.00  0.00     0.029 A 
ATOM     32  C   UNL     1       9.659  -6.928   6.458  1.00  0.00     0.049 A 
ATOM     33  H   UNL     1       8.290  -5.634   5.505  1.00  0.00     0.167 HD
ATOM     34  C   UNL     1       9.369  -5.145   8.123  1.00  0.00     0.074 A 
ATOM     35  C   UNL     1       9.630  -4.543   9.437  1.00  0.00     0.031 C 
ATOM     36  C   UNL     1       9.930  -6.347   7.687  1.00  0.00     0.037 A 
BRANCH  23  37
ATOM     37  C   UNL     1       8.306  -8.438   2.242  1.00  0.00     0.058 A 
ATOM     38  C   UNL     1       8.868  -8.084   1.026  1.00  0.00     0.135 A 
ATOM     39  C   UNL     1       8.022  -9.704   2.527  1.00  0.00     0.135 A 
ATOM     40  F   UNL     1       9.398  -6.886   0.794  1.00  0.00    -0.206 F 
ATOM     41  C   UNL     1       8.826  -9.111   0.054  1.00  0.00     0.059 A 
ATOM     42  C   UNL     1       8.134 -10.679   1.565  1.00  0.00     0.059 A 
ATOM     43  F   UNL     1       7.625 -10.030   3.753  1.00  0.00    -0.206 F 
ATOM     44  C   UNL     1       8.626 -10.389   0.323  1.00  0.00     0.060 A 
BRANCH  44  45
ATOM     45  S   UNL     1       8.982 -11.685  -0.888  1.00  0.00     0.124 S 
ATOM     46  O   UNL     1       8.134 -11.460  -2.142  1.00  0.00    -0.237 OA
ATOM     47  O   UNL     1      10.466 -11.641  -1.261  1.00  0.00    -0.237 OA
ATOM     48  O   UNL     1       8.610 -13.213  -0.215  1.00  0.00    -0.744 OA
ENDBRANCH  44  45
ENDBRANCH  23  37
BRANCH  24  49
ATOM     49  C   UNL     1       7.235  -1.072   8.829  1.00  0.00     0.058 A 
ATOM     50  C   UNL     1       8.327  -0.385   9.332  1.00  0.00     0.135 A 
ATOM     51  C   UNL     1       6.005  -0.825   9.264  1.00  0.00     0.135 A 
ATOM     52  F   UNL     1       9.528  -0.412   8.761  1.00  0.00    -0.206 F 
ATOM     53  C   UNL     1       8.050   0.348  10.510  1.00  0.00     0.059 A 
ATOM     54  C   UNL     1       5.797   0.009  10.336  1.00  0.00     0.059 A 
ATOM     55  F   UNL     1       4.966  -1.391   8.658  1.00  0.00    -0.206 F 
ATOM     56  C   UNL     1       6.838   0.676  10.921  1.00  0.00     0.060 A 
BRANCH  56  57
ATOM     57  S   UNL     1       6.569   1.938  12.189  1.00  0.00     0.124 S 
ATOM     58  O   UNL     1       7.270   1.518  13.484  1.00  0.00    -0.237 OA
ATOM     59  O   UNL     1       7.143   3.274  11.709  1.00  0.00    -0.237 OA
ATOM     60  O   UNL     1       4.893   2.109  12.478  1.00  0.00    -0.744 OA
ENDBRANCH  56  57
ENDBRANCH  24  49
BRANCH  36  61
ATOM     61  C   UNL     1      10.897  -7.061   8.617  1.00  0.00     0.058 A 
ATOM     62  C   UNL     1      10.450  -7.378   9.889  1.00  0.00     0.135 A 
ATOM     63  C   UNL     1      12.150  -7.300   8.248  1.00  0.00     0.135 A 
ATOM     64  F   UNL     1       9.162  -7.395  10.222  1.00  0.00    -0.206 F 
ATOM     65  C   UNL     1      11.487  -7.680  10.803  1.00  0.00     0.059 A 
ATOM     66  C   UNL     1      13.081  -7.724   9.166  1.00  0.00     0.059 A 
ATOM     67  F   UNL     1      12.509  -7.126   6.980  1.00  0.00    -0.206 F 
ATOM     68  C   UNL     1      12.721  -7.999  10.457  1.00  0.00     0.060 A 
BRANCH  68  69
ATOM     69  S   UNL     1      13.873  -8.760  11.627  1.00  0.00     0.124 S 
ATOM     70  O   UNL     1      14.082  -7.823  12.819  1.00  0.00    -0.237 OA
ATOM     71  O   UNL     1      13.298 -10.091  12.117  1.00  0.00    -0.237 OA
ATOM     72  O   UNL     1      15.372  -9.038  10.851  1.00  0.00    -0.744 OA
ENDBRANCH  68  69
ENDBRANCH  36  61
ENDBRANCH  10  11
ENDBRANCH   3   5
ENDBRANCH   2   3
ENDBRANCH   1   2
BRANCH   1  73
ATOM     73  C   UNL     1       4.932   1.363   0.300  1.00  0.00     0.275 C 
BRANCH  73  74
ATOM     74  O   UNL     1       4.459   0.534   1.351  1.00  0.00    -0.458 OA
BRANCH  74  75
ATOM     75  C   UNL     1       3.063   0.373   1.555  1.00  0.00     0.340 C 
ATOM     76  O   UNL     1       2.237   0.972   0.796  1.00  0.00    -0.246 OA
BRANCH  75  77
ATOM     77  C   UNL     1       2.556  -0.514   2.680  1.00  0.00     0.083 A 
ATOM     78  C   UNL     1       1.421  -1.290   2.511  1.00  0.00     0.018 A 
ATOM     79  C   UNL     1       3.136  -0.392   3.868  1.00  0.00     0.053 A 
ATOM     80  C   UNL     1       0.800  -1.668   3.725  1.00  0.00     0.001 A 
ATOM     81  C   UNL     1       2.539  -0.905   4.994  1.00  0.00     0.027 A 
ATOM     82  C   UNL     1       1.384  -1.631   4.909  1.00  0.00     0.002 A 
BRANCH  79  83
ATOM     83  N   UNL     1       4.429   0.300   3.979  1.00  0.00    -0.355 N 
ATOM     84  H   UNL     1       4.860   0.669   3.175  1.00  0.00     0.167 HD
BRANCH  83  85
ATOM     85  C   UNL     1       5.077   0.440   5.292  1.00  0.00     0.040 A 
ATOM     86  C   UNL     1       5.348   1.705   5.785  1.00  0.00     0.026 A 
ATOM     87  C   UNL     1       5.401  -0.651   5.976  1.00  0.00     0.050 A 
ATOM     88  C   UNL     1       6.232   1.712   6.890  1.00  0.00     0.004 A 
ATOM     89  C   UNL     1       6.153  -0.560   7.122  1.00  0.00     0.109 A 
ATOM     90  C   UNL     1       6.508   0.657   7.635  1.00  0.00     0.024 A 
BRANCH  89  91
ATOM     91  S   UNL     1       6.681  -2.071   7.966  1.00  0.00     0.310 S 
ATOM     92  F   UNL     1       5.422  -1.875   8.910  1.00  0.00    -0.094 F 
ATOM     93  F   UNL     1       7.521  -1.272   9.033  1.00  0.00    -0.094 F 
ATOM     94  F   UNL     1       6.955  -3.408   8.711  1.00  0.00    -0.094 F 
ATOM     95  F   UNL     1       5.722  -2.833   6.968  1.00  0.00    -0.094 F 
ATOM     96  F   UNL     1       6.303  -0.707   7.264  1.00  0.00    -0.094 F 
ENDBRANCH  89  91
ENDBRANCH  83  85
ENDBRANCH  79  83
ENDBRANCH  75  77
ENDBRANCH  74  75
ENDBRANCH  73  74
ENDBRANCH   1  73
TORSDOF 17
