REMARK SMILES CC(C)[C@H](C)CNC(=O)N1CC(n2cc(C(=O)OCCOC(=O)c3ccc(-c4c5nc(c(-c6c(F)cc(S(=O)(=O)[O-])cc6F)c6ccc([nH]6)c(-c6c(F)cc(S(=O)(=O)[O-])cc6F)c6nc(c(-c7c(F)cc(S(=O)(=O)[O-])cc7F)c7ccc4[nH]7)C=C6)C=C5)cc3)nn2)C1
REMARK SMILES IDX 19 1 18 2 16 3 17 4 15 5 13 6 14 7 91 8 90 9 12 10 7 11 8 12
REMARK SMILES IDX 9 14 10 15 11 16 92 17 6 18 4 19 5 20 2 21 1 22 3 23 20 24
REMARK SMILES IDX 21 25 22 26 23 27 24 28 25 29 89 30 26 31 88 32 27 33 28 34
REMARK SMILES IDX 29 35 82 36 30 37 87 38 81 39 83 40 31 41 86 42 80 43 79 44
REMARK SMILES IDX 32 46 66 47 45 48 65 49 46 50 49 51 64 52 84 53 47 54 48 55
REMARK SMILES IDX 63 57 85 58 50 59 33 60 34 61 43 62 35 63 36 64 42 65 44 66
REMARK SMILES IDX 37 67 38 68 39 69 40 70 41 71 67 72 68 73 77 74 69 75 70 76
REMARK SMILES IDX 76 77 78 78 71 79 72 80 73 81 74 82 75 83 51 84 52 85 61 86
REMARK SMILES IDX 53 87 54 88 60 89 62 90 55 91 56 92 57 93 58 94 59 95
REMARK H PARENT 7 13 83 45 49 56
REMARK Flexibility Score: inf
ROOT
ATOM      1  C   UNL     1     -11.005   0.032   5.693  1.00  0.00     0.275 C 
ENDROOT
BRANCH   1   2
ATOM      2  O   UNL     1      -9.795   0.611   5.181  1.00  0.00    -0.457 OA
BRANCH   2   3
ATOM      3  C   UNL     1      -9.757   0.781   3.823  1.00  0.00     0.360 C 
ATOM      4  O   UNL     1     -10.580   0.291   3.050  1.00  0.00    -0.244 OA
BRANCH   3   5
ATOM      5  C   UNL     1      -8.643   1.604   3.389  1.00  0.00     0.190 A 
ATOM      6  N   UNL     1      -6.835   2.786   3.229  1.00  0.00    -0.245 N 
ATOM      7  C   UNL     1      -7.621   2.147   4.146  1.00  0.00     0.147 A 
ATOM      8  N   UNL     1      -7.332   2.664   1.990  1.00  0.00    -0.066 NA
ATOM      9  N   UNL     1      -8.452   1.961   2.075  1.00  0.00    -0.123 NA
BRANCH   6  10
ATOM     10  C   UNL     1      -5.544   3.323   3.533  1.00  0.00     0.148 C 
ATOM     11  N   UNL     1      -1.459   2.423   3.030  1.00  0.00    -0.338 N 
ATOM     12  C   UNL     1      -2.353   3.408   2.758  1.00  0.00     0.317 C 
ATOM     13  H   UNL     1      -0.605   2.731   3.411  1.00  0.00     0.165 HD
ATOM     14  O   UNL     1      -1.922   4.546   2.576  1.00  0.00    -0.249 OA
ATOM     15  N   UNL     1      -3.672   3.112   2.704  1.00  0.00    -0.320 N 
ATOM     16  C   UNL     1      -4.792   3.994   2.376  1.00  0.00     0.150 C 
ATOM     17  C   UNL     1      -4.489   2.198   3.476  1.00  0.00     0.150 C 
BRANCH  11  18
ATOM     18  C   UNL     1      -1.566   0.980   2.848  1.00  0.00     0.121 C 
BRANCH  18  19
ATOM     19  C   UNL     1      -1.125   0.551   1.429  1.00  0.00     0.008 C 
ATOM     20  C   UNL     1       0.388   0.753   1.229  1.00  0.00     0.010 C 
BRANCH  19  21
ATOM     21  C   UNL     1      -1.608  -0.896   1.110  1.00  0.00    -0.013 C 
ATOM     22  C   UNL     1      -1.690  -1.137  -0.401  1.00  0.00     0.008 C 
ATOM     23  C   UNL     1      -0.774  -2.004   1.762  1.00  0.00     0.008 C 
ENDBRANCH  19  21
ENDBRANCH  18  19
ENDBRANCH  11  18
ENDBRANCH   6  10
ENDBRANCH   3   5
ENDBRANCH   2   3
ENDBRANCH   1   2
BRANCH   1  24
ATOM     24  C   UNL     1     -12.023   1.108   6.050  1.00  0.00     0.275 C 
BRANCH  24  25
ATOM     25  O   UNL     1     -12.568   1.766   4.903  1.00  0.00    -0.458 OA
BRANCH  25  26
ATOM     26  C   UNL     1     -11.961   2.934   4.582  1.00  0.00     0.338 C 
ATOM     27  O   UNL     1     -10.803   3.240   4.814  1.00  0.00    -0.246 OA
BRANCH  26  28
ATOM     28  C   UNL     1     -12.965   3.901   4.117  1.00  0.00     0.060 A 
ATOM     29  C   UNL     1     -12.527   5.052   3.454  1.00  0.00     0.016 A 
ATOM     30  C   UNL     1     -14.294   3.768   4.543  1.00  0.00     0.016 A 
ATOM     31  C   UNL     1     -13.410   6.107   3.292  1.00  0.00     0.010 A 
ATOM     32  C   UNL     1     -15.164   4.830   4.404  1.00  0.00     0.010 A 
ATOM     33  C   UNL     1     -14.709   6.007   3.812  1.00  0.00    -0.014 A 
BRANCH  33  34
ATOM     34  C   UNL     1     -15.670   7.061   3.509  1.00  0.00     0.031 A 
ATOM     35  C   UNL     1     -16.063   7.049   2.073  1.00  0.00     0.074 A 
ATOM     36  C   UNL     1     -16.259   7.832   4.449  1.00  0.00     0.049 A 
ATOM     37  N   UNL     1     -15.826   7.952   1.182  1.00  0.00    -0.248 NA
ATOM     38  C   UNL     1     -16.604   5.795   1.512  1.00  0.00     0.031 C 
ATOM     39  C   UNL     1     -16.133   7.710   5.904  1.00  0.00     0.029 A 
ATOM     40  N   UNL     1     -17.180   8.831   4.314  1.00  0.00    -0.354 N 
ATOM     41  C   UNL     1     -16.425   7.489   0.012  1.00  0.00     0.074 A 
ATOM     42  C   UNL     1     -16.670   6.090   0.214  1.00  0.00     0.031 C 
ATOM     43  C   UNL     1     -17.108   8.434   6.503  1.00  0.00     0.029 A 
ATOM     44  C   UNL     1     -17.853   9.165   5.492  1.00  0.00     0.049 A 
ATOM     45  H   UNL     1     -17.355   9.280   3.456  1.00  0.00     0.167 HD
ATOM     46  C   UNL     1     -16.941   8.364  -0.894  1.00  0.00     0.037 A 
ATOM     47  C   UNL     1     -18.966   9.942   5.614  1.00  0.00     0.037 A 
ATOM     48  C   UNL     1     -16.380   9.678  -0.696  1.00  0.00     0.049 A 
ATOM     49  C   UNL     1     -19.072  10.744   4.369  1.00  0.00     0.074 A 
ATOM     50  C   UNL     1     -15.107  10.213  -0.723  1.00  0.00     0.029 A 
ATOM     51  N   UNL     1     -17.166  10.587  -0.034  1.00  0.00    -0.354 N 
ATOM     52  N   UNL     1     -18.230  11.682   4.033  1.00  0.00    -0.248 NA
ATOM     53  C   UNL     1     -19.864  10.197   3.280  1.00  0.00     0.031 C 
ATOM     54  C   UNL     1     -15.099  11.206   0.299  1.00  0.00     0.029 A 
ATOM     55  C   UNL     1     -16.383  11.288   0.840  1.00  0.00     0.049 A 
ATOM     56  H   UNL     1     -18.133  10.714  -0.167  1.00  0.00     0.167 HD
ATOM     57  C   UNL     1     -18.059  11.524   2.667  1.00  0.00     0.074 A 
ATOM     58  C   UNL     1     -19.163  10.664   2.244  1.00  0.00     0.031 C 
ATOM     59  C   UNL     1     -16.880  11.864   2.070  1.00  0.00     0.037 A 
BRANCH  46  60
ATOM     60  C   UNL     1     -18.258   8.155  -1.624  1.00  0.00     0.058 A 
ATOM     61  C   UNL     1     -18.698   9.154  -2.521  1.00  0.00     0.135 A 
ATOM     62  C   UNL     1     -19.235   7.197  -1.271  1.00  0.00     0.135 A 
ATOM     63  F   UNL     1     -17.861  10.118  -2.938  1.00  0.00    -0.206 F 
ATOM     64  C   UNL     1     -20.022   9.252  -2.949  1.00  0.00     0.059 A 
ATOM     65  C   UNL     1     -20.548   7.247  -1.726  1.00  0.00     0.059 A 
ATOM     66  F   UNL     1     -19.006   6.208  -0.401  1.00  0.00    -0.206 F 
ATOM     67  C   UNL     1     -20.944   8.299  -2.532  1.00  0.00     0.060 A 
BRANCH  67  68
ATOM     68  S   UNL     1     -22.668   8.458  -3.022  1.00  0.00     0.124 S 
ATOM     69  O   UNL     1     -23.074   9.644  -2.277  1.00  0.00    -0.237 OA
ATOM     70  O   UNL     1     -22.554   8.616  -4.468  1.00  0.00    -0.237 OA
ATOM     71  O   UNL     1     -23.260   7.199  -2.579  1.00  0.00    -0.744 OA
ENDBRANCH  67  68
ENDBRANCH  46  60
BRANCH  47  72
ATOM     72  C   UNL     1     -20.118   9.822   6.559  1.00  0.00     0.058 A 
ATOM     73  C   UNL     1     -21.106  10.826   6.646  1.00  0.00     0.135 A 
ATOM     74  C   UNL     1     -20.440   8.596   7.172  1.00  0.00     0.135 A 
ATOM     75  F   UNL     1     -20.901  12.026   6.080  1.00  0.00    -0.206 F 
ATOM     76  C   UNL     1     -22.355  10.607   7.245  1.00  0.00     0.059 A 
ATOM     77  C   UNL     1     -21.674   8.358   7.783  1.00  0.00     0.059 A 
ATOM     78  F   UNL     1     -19.601   7.553   7.114  1.00  0.00    -0.206 F 
ATOM     79  C   UNL     1     -22.639   9.357   7.791  1.00  0.00     0.060 A 
BRANCH  79  80
ATOM     80  S   UNL     1     -24.308   9.000   8.398  1.00  0.00     0.124 S 
ATOM     81  O   UNL     1     -24.375   9.819   9.603  1.00  0.00    -0.237 OA
ATOM     82  O   UNL     1     -25.144   9.434   7.284  1.00  0.00    -0.237 OA
ATOM     83  O   UNL     1     -24.282   7.557   8.627  1.00  0.00    -0.744 OA
ENDBRANCH  79  80
ENDBRANCH  47  72
BRANCH  59  84
ATOM     84  C   UNL     1     -15.935  12.771   2.814  1.00  0.00     0.058 A 
ATOM     85  C   UNL     1     -15.286  12.461   4.022  1.00  0.00     0.135 A 
ATOM     86  C   UNL     1     -15.564  13.963   2.173  1.00  0.00     0.135 A 
ATOM     87  F   UNL     1     -15.513  11.298   4.652  1.00  0.00    -0.206 F 
ATOM     88  C   UNL     1     -14.335  13.319   4.581  1.00  0.00     0.059 A 
ATOM     89  C   UNL     1     -14.594  14.812   2.691  1.00  0.00     0.059 A 
ATOM     90  F   UNL     1     -16.111  14.289   0.989  1.00  0.00    -0.206 F 
ATOM     91  C   UNL     1     -13.992  14.491   3.904  1.00  0.00     0.060 A 
BRANCH  91  92
ATOM     92  S   UNL     1     -12.712  15.568   4.582  1.00  0.00     0.124 S 
ATOM     93  O   UNL     1     -13.376  16.133   5.753  1.00  0.00    -0.237 OA
ATOM     94  O   UNL     1     -11.624  14.634   4.858  1.00  0.00    -0.237 OA
ATOM     95  O   UNL     1     -12.450  16.513   3.499  1.00  0.00    -0.744 OA
ENDBRANCH  91  92
ENDBRANCH  59  84
ENDBRANCH  33  34
ENDBRANCH  26  28
ENDBRANCH  25  26
ENDBRANCH  24  25
ENDBRANCH   1  24
TORSDOF 18
