REMARK SMILES O=C(OCCOC(=O)c1ccc(N2C(=O)/C(=C\C3=Cc4ccccc4OC3)SC2=S)cc1)c1ccc(-c2c3nc(c(-c4c(F)cc(S(=O)(=O)[O-])cc4F)c4ccc([nH]4)c(-c4c(F)cc(S(=O)(=O)[O-])cc4F)c4nc(c(-c5c(F)cc(S(=O)(=O)[O-])cc5F)c5ccc2[nH]5)C=C4)C=C3)cc1
REMARK SMILES IDX 4 1 3 2 2 3 1 4 33 5 34 6 98 7 35 8 97 9 36 10 37 11 38 12
REMARK SMILES IDX 91 13 39 14 96 15 90 16 92 17 40 18 95 19 89 20 88 21 41 23
REMARK SMILES IDX 75 24 54 25 74 26 55 27 58 28 73 29 93 30 56 31 57 32 72 34
REMARK SMILES IDX 94 35 59 36 42 37 43 38 52 39 44 40 45 41 51 42 53 43 46 44
REMARK SMILES IDX 47 45 48 46 49 47 50 48 76 49 77 50 86 51 78 52 79 53 85 54
REMARK SMILES IDX 87 55 80 56 81 57 82 58 83 59 84 60 60 61 61 62 70 63 62 64
REMARK SMILES IDX 63 65 69 66 71 67 64 68 65 69 66 70 67 71 68 72 5 73 6 74
REMARK SMILES IDX 7 75 8 76 9 77 10 78 32 79 11 80 31 81 12 82 13 83 14 84
REMARK SMILES IDX 29 85 15 86 16 87 28 88 30 89 17 90 18 91 19 92 27 93 20 94
REMARK SMILES IDX 26 95 21 96 25 97 22 98 24 99 23 100
REMARK H PARENT 92 22 58 33
REMARK Flexibility Score: inf
ROOT
ATOM      1  C   UNL     1       3.998   0.126  -1.730  1.00  0.00     0.275 C 
ENDROOT
BRANCH   1   2
ATOM      2  O   UNL     1       2.903  -0.506  -1.061  1.00  0.00    -0.458 OA
BRANCH   2   3
ATOM      3  C   UNL     1       2.693  -0.655   0.265  1.00  0.00     0.338 C 
ATOM      4  O   UNL     1       1.657  -1.220   0.618  1.00  0.00    -0.246 OA
BRANCH   3   5
ATOM      5  C   UNL     1       3.609  -0.139   1.341  1.00  0.00     0.060 A 
ATOM      6  C   UNL     1       4.821   0.549   1.188  1.00  0.00     0.016 A 
ATOM      7  C   UNL     1       3.161  -0.338   2.651  1.00  0.00     0.016 A 
ATOM      8  C   UNL     1       5.517   1.088   2.273  1.00  0.00     0.010 A 
ATOM      9  C   UNL     1       3.858   0.196   3.734  1.00  0.00     0.010 A 
ATOM     10  C   UNL     1       5.019   0.958   3.559  1.00  0.00    -0.014 A 
BRANCH  10  11
ATOM     11  C   UNL     1       5.731   1.567   4.713  1.00  0.00     0.031 A 
ATOM     12  C   UNL     1       6.216   0.660   5.806  1.00  0.00     0.074 A 
ATOM     13  C   UNL     1       5.906   2.906   4.796  1.00  0.00     0.049 A 
ATOM     14  N   UNL     1       6.847   0.958   6.910  1.00  0.00    -0.248 NA
ATOM     15  C   UNL     1       5.936  -0.778   5.646  1.00  0.00     0.031 C 
ATOM     16  C   UNL     1       5.429   3.896   3.821  1.00  0.00     0.029 A 
ATOM     17  N   UNL     1       6.511   3.678   5.759  1.00  0.00    -0.354 N 
ATOM     18  C   UNL     1       7.030  -0.252   7.566  1.00  0.00     0.074 A 
ATOM     19  C   UNL     1       6.351  -1.268   6.799  1.00  0.00     0.031 C 
ATOM     20  C   UNL     1       5.765   5.131   4.232  1.00  0.00     0.029 A 
ATOM     21  C   UNL     1       6.481   5.031   5.498  1.00  0.00     0.049 A 
ATOM     22  H   UNL     1       6.928   3.297   6.566  1.00  0.00     0.167 HD
ATOM     23  C   UNL     1       7.756  -0.511   8.677  1.00  0.00     0.037 A 
ATOM     24  C   UNL     1       6.990   6.067   6.197  1.00  0.00     0.037 A 
ATOM     25  C   UNL     1       8.451   0.503   9.414  1.00  0.00     0.049 A 
ATOM     26  C   UNL     1       7.768   5.762   7.454  1.00  0.00     0.074 A 
ATOM     27  C   UNL     1       9.257   0.362  10.527  1.00  0.00     0.029 A 
ATOM     28  N   UNL     1       8.414   1.856   9.106  1.00  0.00    -0.354 N 
ATOM     29  N   UNL     1       8.012   4.597   8.009  1.00  0.00    -0.248 NA
ATOM     30  C   UNL     1       8.361   6.902   8.165  1.00  0.00     0.031 C 
ATOM     31  C   UNL     1       9.674   1.639  10.918  1.00  0.00     0.029 A 
ATOM     32  C   UNL     1       9.171   2.567  10.017  1.00  0.00     0.049 A 
ATOM     33  H   UNL     1       7.921   2.251   8.351  1.00  0.00     0.167 HD
ATOM     34  C   UNL     1       8.830   4.859   9.102  1.00  0.00     0.074 A 
ATOM     35  C   UNL     1       9.035   6.294   9.131  1.00  0.00     0.031 C 
ATOM     36  C   UNL     1       9.371   3.995   9.998  1.00  0.00     0.037 A 
BRANCH  23  37
ATOM     37  C   UNL     1       7.821  -1.945   9.120  1.00  0.00     0.058 A 
ATOM     38  C   UNL     1       8.482  -2.922   8.354  1.00  0.00     0.135 A 
ATOM     39  C   UNL     1       7.157  -2.362  10.283  1.00  0.00     0.135 A 
ATOM     40  F   UNL     1       9.108  -2.581   7.216  1.00  0.00    -0.206 F 
ATOM     41  C   UNL     1       8.431  -4.269   8.693  1.00  0.00     0.059 A 
ATOM     42  C   UNL     1       7.122  -3.702  10.659  1.00  0.00     0.059 A 
ATOM     43  F   UNL     1       6.505  -1.472  11.046  1.00  0.00    -0.206 F 
ATOM     44  C   UNL     1       7.741  -4.650   9.844  1.00  0.00     0.060 A 
BRANCH  44  45
ATOM     45  S   UNL     1       7.650  -6.405  10.250  1.00  0.00     0.124 S 
ATOM     46  O   UNL     1       6.695  -6.885   9.256  1.00  0.00    -0.237 OA
ATOM     47  O   UNL     1       9.031  -6.840  10.063  1.00  0.00    -0.237 OA
ATOM     48  O   UNL     1       7.176  -6.410  11.630  1.00  0.00    -0.744 OA
ENDBRANCH  44  45
ENDBRANCH  23  37
BRANCH  24  49
ATOM     49  C   UNL     1       6.859   7.469   5.703  1.00  0.00     0.058 A 
ATOM     50  C   UNL     1       7.979   8.174   5.233  1.00  0.00     0.135 A 
ATOM     51  C   UNL     1       5.627   8.143   5.706  1.00  0.00     0.135 A 
ATOM     52  F   UNL     1       9.181   7.580   5.208  1.00  0.00    -0.206 F 
ATOM     53  C   UNL     1       7.892   9.499   4.814  1.00  0.00     0.059 A 
ATOM     54  C   UNL     1       5.509   9.463   5.271  1.00  0.00     0.059 A 
ATOM     55  F   UNL     1       4.518   7.513   6.125  1.00  0.00    -0.206 F 
ATOM     56  C   UNL     1       6.651  10.137   4.838  1.00  0.00     0.060 A 
BRANCH  56  57
ATOM     57  S   UNL     1       6.554  11.850   4.268  1.00  0.00     0.124 S 
ATOM     58  O   UNL     1       7.273  12.555   5.323  1.00  0.00    -0.237 OA
ATOM     59  O   UNL     1       7.228  11.778   2.975  1.00  0.00    -0.237 OA
ATOM     60  O   UNL     1       5.118  12.103   4.206  1.00  0.00    -0.744 OA
ENDBRANCH  56  57
ENDBRANCH  24  49
BRANCH  36  61
ATOM     61  C   UNL     1      10.284   4.568  11.043  1.00  0.00     0.058 A 
ATOM     62  C   UNL     1       9.796   5.320  12.121  1.00  0.00     0.135 A 
ATOM     63  C   UNL     1      11.661   4.294  10.998  1.00  0.00     0.135 A 
ATOM     64  F   UNL     1       8.488   5.612  12.205  1.00  0.00    -0.206 F 
ATOM     65  C   UNL     1      10.646   5.800  13.111  1.00  0.00     0.059 A 
ATOM     66  C   UNL     1      12.524   4.736  11.993  1.00  0.00     0.059 A 
ATOM     67  F   UNL     1      12.174   3.566   9.993  1.00  0.00    -0.206 F 
ATOM     68  C   UNL     1      12.008   5.498  13.040  1.00  0.00     0.060 A 
BRANCH  68  69
ATOM     69  S   UNL     1      13.093   6.089  14.354  1.00  0.00     0.124 S 
ATOM     70  O   UNL     1      13.199   7.508  14.031  1.00  0.00    -0.237 OA
ATOM     71  O   UNL     1      12.332   5.766  15.557  1.00  0.00    -0.237 OA
ATOM     72  O   UNL     1      14.312   5.308  14.164  1.00  0.00    -0.744 OA
ENDBRANCH  68  69
ENDBRANCH  36  61
ENDBRANCH  10  11
ENDBRANCH   3   5
ENDBRANCH   2   3
ENDBRANCH   1   2
BRANCH   1  73
ATOM     73  C   UNL     1       3.855   1.654  -1.837  1.00  0.00     0.275 C 
BRANCH  73  74
ATOM     74  O   UNL     1       3.373   2.311  -0.641  1.00  0.00    -0.458 OA
BRANCH  74  75
ATOM     75  C   UNL     1       2.026   2.487  -0.569  1.00  0.00     0.338 C 
ATOM     76  O   UNL     1       1.220   2.137  -1.421  1.00  0.00    -0.246 OA
BRANCH  75  77
ATOM     77  C   UNL     1       1.602   3.109   0.718  1.00  0.00     0.060 A 
ATOM     78  C   UNL     1       0.431   2.650   1.332  1.00  0.00     0.018 A 
ATOM     79  C   UNL     1       2.276   4.182   1.297  1.00  0.00     0.018 A 
ATOM     80  C   UNL     1      -0.075   3.267   2.497  1.00  0.00     0.028 A 
ATOM     81  C   UNL     1       1.756   4.801   2.457  1.00  0.00     0.028 A 
ATOM     82  C   UNL     1       0.554   4.380   3.074  1.00  0.00     0.051 A 
BRANCH  82  83
ATOM     83  N   UNL     1       0.048   5.035   4.271  1.00  0.00    -0.261 N 
ATOM     84  C   UNL     1      -0.629   4.340   5.288  1.00  0.00     0.270 C 
ATOM     85  C   UNL     1       0.048   6.414   4.452  1.00  0.00     0.152 C 
ATOM     86  O   UNL     1      -1.292   3.315   5.171  1.00  0.00    -0.268 OA
ATOM     87  C   UNL     1      -0.676   5.167   6.548  1.00  0.00     0.081 C 
ATOM     88  S   UNL     1      -0.603   6.825   6.043  1.00  0.00    -0.054 SA
ATOM     89  S   UNL     1       0.405   7.651   3.379  1.00  0.00    -0.051 S 
ATOM     90  C   UNL     1      -0.636   4.894   7.870  1.00  0.00     0.028 C 
BRANCH  90  91
ATOM     91  C   UNL     1      -0.323   3.690   8.667  1.00  0.00    -0.009 C 
ATOM     92  C   UNL     1      -0.418   2.407   8.259  1.00  0.00     0.019 C 
ATOM     93  C   UNL     1       0.999   3.889   9.427  1.00  0.00     0.265 C 
ATOM     94  C   UNL     1       0.715   2.162   7.330  1.00  0.00     0.017 A 
ATOM     95  O   UNL     1       2.095   3.836   8.488  1.00  0.00    -0.488 OA
ATOM     96  C   UNL     1       0.501   1.344   6.230  1.00  0.00     0.012 A 
ATOM     97  C   UNL     1       1.863   2.987   7.424  1.00  0.00     0.127 A 
ATOM     98  C   UNL     1       1.303   1.536   5.120  1.00  0.00     0.001 A 
ATOM     99  C   UNL     1       2.687   3.136   6.328  1.00  0.00     0.047 A 
ATOM    100  C   UNL     1       2.349   2.466   5.158  1.00  0.00     0.004 A 
ENDBRANCH  90  91
ENDBRANCH  82  83
ENDBRANCH  75  77
ENDBRANCH  74  75
ENDBRANCH  73  74
ENDBRANCH   1  73
TORSDOF 16
