REMARK SMILES CC(C)(CC(=O)Nc1sc2c(c1C#N)CCCCCC2)CC(=O)OCCOC(=O)c1ccc(-c2c3nc(c(-c4c(F)cc(S(=O)(=O)[O-])cc4F)c4ccc([nH]4)c(-c4c(F)cc(S(=O)(=O)[O-])cc4F)c4nc(c(-c5c(F)cc(S(=O)(=O)[O-])cc5F)c5ccc2[nH]5)C=C4)C=C3)cc1
REMARK SMILES IDX 22 1 23 2 21 3 2 4 1 5 3 6 4 7 5 8 6 9 7 10 8 12 9 13 12 14
REMARK SMILES IDX 10 15 11 16 13 17 14 18 20 19 19 20 15 22 16 23 17 24 18 25
REMARK SMILES IDX 24 27 25 28 26 29 27 30 28 31 29 32 30 33 31 34 95 35 32 36
REMARK SMILES IDX 94 37 33 38 34 39 35 40 88 41 36 42 93 43 87 44 89 45 37 46
REMARK SMILES IDX 92 47 86 48 85 49 38 51 72 52 51 53 71 54 52 55 55 56 70 57
REMARK SMILES IDX 90 58 53 59 54 60 69 62 91 63 56 64 39 65 40 66 49 67 41 68
REMARK SMILES IDX 42 69 48 70 50 71 43 72 44 73 45 74 46 75 47 76 73 77 74 78
REMARK SMILES IDX 83 79 75 80 76 81 82 82 84 83 77 84 78 85 79 86 80 87 81 88
REMARK SMILES IDX 57 89 58 90 67 91 59 92 60 93 66 94 68 95 61 96 62 97 63 98
REMARK SMILES IDX 64 99 65 100
REMARK H PARENT 7 11 89 50 55 61
REMARK Flexibility Score: 90.00
ROOT
ATOM      1  C   UNL     1       0.106   0.737   3.556  1.00  0.00     0.306 C 
ATOM      2  O   UNL     1       0.609   0.755   4.677  1.00  0.00    -0.252 OA
ENDROOT
BRANCH   1   3
ATOM      3  C   UNL     1       0.480   1.744   2.486  1.00  0.00     0.129 C 
BRANCH   3   4
ATOM      4  C   UNL     1       0.192   1.632   0.952  1.00  0.00    -0.016 C 
ATOM      5  C   UNL     1       1.316   0.910   0.235  1.00  0.00     0.012 C 
ATOM      6  C   UNL     1       0.374   3.096   0.423  1.00  0.00     0.012 C 
BRANCH   4   7
ATOM      7  C   UNL     1      -1.205   1.123   0.448  1.00  0.00     0.107 C 
BRANCH   7   8
ATOM      8  C   UNL     1      -1.883  -0.266   0.643  1.00  0.00     0.225 C 
ATOM      9  O   UNL     1      -2.838  -0.334   1.439  1.00  0.00    -0.275 OA
ATOM     10  N   UNL     1      -1.712  -1.398  -0.112  1.00  0.00    -0.317 N 
ATOM     11  H   UNL     1      -2.333  -2.132   0.102  1.00  0.00     0.170 HD
BRANCH  10  12
ATOM     12  C   UNL     1      -0.821  -1.678  -1.116  1.00  0.00     0.114 A 
ATOM     13  S   UNL     1       0.762  -2.003  -0.614  1.00  0.00    -0.121 S 
ATOM     14  C   UNL     1      -0.885  -2.388  -2.310  1.00  0.00     0.090 A 
ATOM     15  C   UNL     1       1.324  -1.681  -2.199  1.00  0.00     0.011 A 
ATOM     16  C   UNL     1       0.375  -2.250  -3.041  1.00  0.00    -0.014 A 
BRANCH  14  17
ATOM     17  C   UNL     1      -2.056  -3.079  -2.734  1.00  0.00     0.103 C 
ATOM     18  N   UNL     1      -3.024  -3.684  -2.982  1.00  0.00    -0.192 NA
ENDBRANCH  14  17
BRANCH  15  19
ATOM     19  C   UNL     1       2.644  -0.984  -2.374  1.00  0.00     0.047 C 
BRANCH  19  20
ATOM     20  C   UNL     1       3.376  -1.188  -3.687  1.00  0.00     0.006 CG0
ATOM     21  G   UNL     1       2.856  -0.350  -4.862  1.00  0.00     0.000 G0
ENDBRANCH  19  20
ENDBRANCH  15  19
BRANCH  16  22
ATOM     22  C   UNL     1       0.631  -2.609  -4.473  1.00  0.00     0.038 C 
BRANCH  22  23
ATOM     23  C   UNL     1       0.545  -1.407  -5.410  1.00  0.00     0.005 C 
BRANCH  23  24
ATOM     24  C   UNL     1       1.344  -0.163  -5.010  1.00  0.00     0.000 C 
BRANCH  24  25
ATOM     25  C   UNL     1       2.856  -0.350  -4.862  1.00  0.00     0.000 CG0
ATOM     26  G   UNL     1       3.376  -1.188  -3.687  1.00  0.00     0.000 G0
ENDBRANCH  24  25
ENDBRANCH  23  24
ENDBRANCH  22  23
ENDBRANCH  16  22
ENDBRANCH  10  12
ENDBRANCH   7   8
ENDBRANCH   4   7
ENDBRANCH   3   4
ENDBRANCH   1   3
BRANCH   1  27
ATOM     27  O   UNL     1      -0.854  -0.118   3.167  1.00  0.00    -0.462 OA
BRANCH  27  28
ATOM     28  C   UNL     1      -1.167  -1.216   4.042  1.00  0.00     0.274 C 
BRANCH  28  29
ATOM     29  C   UNL     1      -0.678  -2.516   3.414  1.00  0.00     0.275 C 
BRANCH  29  30
ATOM     30  O   UNL     1       0.705  -2.819   3.675  1.00  0.00    -0.458 OA
BRANCH  30  31
ATOM     31  C   UNL     1       1.622  -2.182   2.912  1.00  0.00     0.338 C 
ATOM     32  O   UNL     1       1.684  -0.992   2.678  1.00  0.00    -0.246 OA
BRANCH  31  33
ATOM     33  C   UNL     1       2.464  -3.131   2.177  1.00  0.00     0.060 A 
ATOM     34  C   UNL     1       3.332  -2.613   1.204  1.00  0.00     0.016 A 
ATOM     35  C   UNL     1       2.228  -4.501   2.283  1.00  0.00     0.016 A 
ATOM     36  C   UNL     1       3.806  -3.457   0.216  1.00  0.00     0.010 A 
ATOM     37  C   UNL     1       2.754  -5.346   1.333  1.00  0.00     0.010 A 
ATOM     38  C   UNL     1       3.456  -4.812   0.253  1.00  0.00    -0.014 A 
BRANCH  38  39
ATOM     39  C   UNL     1       4.141  -5.746  -0.632  1.00  0.00     0.031 A 
ATOM     40  C   UNL     1       5.602  -5.691  -0.336  1.00  0.00     0.074 A 
ATOM     41  C   UNL     1       3.499  -6.645  -1.414  1.00  0.00     0.049 A 
ATOM     42  N   UNL     1       6.531  -5.168  -1.070  1.00  0.00    -0.248 NA
ATOM     43  C   UNL     1       6.031  -5.923   1.063  1.00  0.00     0.031 C 
ATOM     44  C   UNL     1       2.055  -6.834  -1.596  1.00  0.00     0.029 A 
ATOM     45  N   UNL     1       4.019  -7.664  -2.164  1.00  0.00    -0.354 N 
ATOM     46  C   UNL     1       7.699  -5.321  -0.327  1.00  0.00     0.074 A 
ATOM     47  C   UNL     1       7.287  -5.475   1.037  1.00  0.00     0.031 C 
ATOM     48  C   UNL     1       1.817  -8.030  -2.191  1.00  0.00     0.029 A 
ATOM     49  C   UNL     1       3.081  -8.638  -2.559  1.00  0.00     0.049 A 
ATOM     50  H   UNL     1       4.972  -7.712  -2.408  1.00  0.00     0.167 HD
ATOM     51  C   UNL     1       8.852  -5.706  -0.938  1.00  0.00     0.037 A 
ATOM     52  C   UNL     1       3.367  -9.847  -3.130  1.00  0.00     0.037 A 
ATOM     53  C   UNL     1       8.756  -5.476  -2.359  1.00  0.00     0.049 A 
ATOM     54  C   UNL     1       4.737  -9.716  -3.692  1.00  0.00     0.074 A 
ATOM     55  C   UNL     1       8.606  -4.366  -3.165  1.00  0.00     0.029 A 
ATOM     56  N   UNL     1       8.367  -6.559  -3.108  1.00  0.00    -0.354 N 
ATOM     57  N   UNL     1       5.028  -8.897  -4.667  1.00  0.00    -0.248 NA
ATOM     58  C   UNL     1       5.842 -10.074  -2.817  1.00  0.00     0.031 C 
ATOM     59  C   UNL     1       7.747  -4.786  -4.223  1.00  0.00     0.029 A 
ATOM     60  C   UNL     1       7.495  -6.152  -4.081  1.00  0.00     0.049 A 
ATOM     61  H   UNL     1       8.669  -7.485  -2.966  1.00  0.00     0.167 HD
ATOM     62  C   UNL     1       6.215  -8.294  -4.275  1.00  0.00     0.074 A 
ATOM     63  C   UNL     1       6.695  -9.101  -3.150  1.00  0.00     0.031 C 
ATOM     64  C   UNL     1       6.522  -7.030  -4.696  1.00  0.00     0.037 A 
BRANCH  51  65
ATOM     65  C   UNL     1       9.818  -6.720  -0.350  1.00  0.00     0.058 A 
ATOM     66  C   UNL     1      11.009  -6.998  -1.050  1.00  0.00     0.135 A 
ATOM     67  C   UNL     1       9.514  -7.626   0.696  1.00  0.00     0.135 A 
ATOM     68  F   UNL     1      11.400  -6.215  -2.068  1.00  0.00    -0.206 F 
ATOM     69  C   UNL     1      11.795  -8.120  -0.780  1.00  0.00     0.059 A 
ATOM     70  C   UNL     1      10.308  -8.720   1.013  1.00  0.00     0.059 A 
ATOM     71  F   UNL     1       8.391  -7.561   1.417  1.00  0.00    -0.206 F 
ATOM     72  C   UNL     1      11.430  -8.980   0.251  1.00  0.00     0.060 A 
BRANCH  72  73
ATOM     73  S   UNL     1      12.413 -10.451   0.573  1.00  0.00     0.124 S 
ATOM     74  O   UNL     1      12.182 -11.230  -0.637  1.00  0.00    -0.237 OA
ATOM     75  O   UNL     1      13.749  -9.885   0.729  1.00  0.00    -0.237 OA
ATOM     76  O   UNL     1      11.822 -10.990   1.794  1.00  0.00    -0.744 OA
ENDBRANCH  72  73
ENDBRANCH  51  65
BRANCH  52  77
ATOM     77  C   UNL     1       2.736 -11.191  -2.924  1.00  0.00     0.058 A 
ATOM     78  C   UNL     1       2.987 -12.289  -3.777  1.00  0.00     0.135 A 
ATOM     79  C   UNL     1       2.118 -11.507  -1.700  1.00  0.00     0.135 A 
ATOM     80  F   UNL     1       3.608 -12.100  -4.952  1.00  0.00    -0.206 F 
ATOM     81  C   UNL     1       2.668 -13.615  -3.426  1.00  0.00     0.059 A 
ATOM     82  C   UNL     1       1.794 -12.816  -1.327  1.00  0.00     0.059 A 
ATOM     83  F   UNL     1       1.895 -10.552  -0.785  1.00  0.00    -0.206 F 
ATOM     84  C   UNL     1       2.085 -13.871  -2.186  1.00  0.00     0.060 A 
BRANCH  84  85
ATOM     85  S   UNL     1       1.798 -15.583  -1.652  1.00  0.00     0.124 S 
ATOM     86  O   UNL     1       0.743 -16.015  -2.561  1.00  0.00    -0.237 OA
ATOM     87  O   UNL     1       3.105 -16.198  -1.856  1.00  0.00    -0.237 OA
ATOM     88  O   UNL     1       1.394 -15.439  -0.255  1.00  0.00    -0.744 OA
ENDBRANCH  84  85
ENDBRANCH  52  77
BRANCH  64  89
ATOM     89  C   UNL     1       5.686  -6.428  -5.800  1.00  0.00     0.058 A 
ATOM     90  C   UNL     1       4.352  -5.998  -5.663  1.00  0.00     0.135 A 
ATOM     91  C   UNL     1       6.337  -6.115  -7.001  1.00  0.00     0.135 A 
ATOM     92  F   UNL     1       3.686  -6.175  -4.514  1.00  0.00    -0.206 F 
ATOM     93  C   UNL     1       3.692  -5.306  -6.684  1.00  0.00     0.059 A 
ATOM     94  C   UNL     1       5.711  -5.402  -8.018  1.00  0.00     0.059 A 
ATOM     95  F   UNL     1       7.628  -6.443  -7.166  1.00  0.00    -0.206 F 
ATOM     96  C   UNL     1       4.385  -5.007  -7.857  1.00  0.00     0.060 A 
BRANCH  96  97
ATOM     97  S   UNL     1       3.572  -4.026  -9.138  1.00  0.00     0.124 S 
ATOM     98  O   UNL     1       2.595  -4.968  -9.672  1.00  0.00    -0.237 OA
ATOM     99  O   UNL     1       3.021  -2.908  -8.375  1.00  0.00    -0.237 OA
ATOM    100  O   UNL     1       4.664  -3.675 -10.043  1.00  0.00    -0.744 OA
ENDBRANCH  96  97
ENDBRANCH  64  89
ENDBRANCH  38  39
ENDBRANCH  31  33
ENDBRANCH  30  31
ENDBRANCH  29  30
ENDBRANCH  28  29
ENDBRANCH  27  28
ENDBRANCH   1  27
TORSDOF 19
