REMARK SMILES O=C(OCCOC(=O)C1CC[NH+]([C@H]2CC(=O)N(c3ccc4c(c3)OCCO4)C2=O)CC1)c1ccc(-c2c3nc(c(-c4c(F)cc(S(=O)(=O)[O-])cc4F)c4ccc([nH]4)c(-c4c(F)cc(S(=O)(=O)[O-])cc4F)c4nc(c(-c5c(F)cc(S(=O)(=O)[O-])cc5F)c5ccc2[nH]5)C=C4)C=C3)cc1
REMARK SMILES IDX 4 1 3 2 2 3 1 4 32 5 33 6 97 7 34 8 96 9 35 10 36 11 37 12
REMARK SMILES IDX 90 13 38 14 95 15 89 16 91 17 39 18 94 19 88 20 87 21 40 23
REMARK SMILES IDX 74 24 53 25 73 26 54 27 57 28 72 29 92 30 55 31 56 32 71 34
REMARK SMILES IDX 93 35 58 36 41 37 42 38 51 39 43 40 44 41 50 42 52 43 45 44
REMARK SMILES IDX 46 45 47 46 48 47 49 48 75 49 76 50 85 51 77 52 78 53 84 54
REMARK SMILES IDX 86 55 79 56 80 57 81 58 82 59 83 60 59 61 60 62 69 63 61 64
REMARK SMILES IDX 62 65 68 66 70 67 63 68 64 69 65 70 66 71 67 72 5 73 6 74
REMARK SMILES IDX 7 75 8 76 9 77 10 78 31 79 11 80 30 81 12 82 13 84 14 85
REMARK SMILES IDX 28 86 15 87 17 88 29 89 16 90 18 91 19 92 23 93 20 94 22 95
REMARK SMILES IDX 21 96 24 97 27 98 25 99 26 100
REMARK H PARENT 91 22 57 33 12 83
REMARK Flexibility Score: inf
ROOT
ATOM      1  C   UNL     1       2.859 -10.437   0.930  1.00  0.00     0.275 C 
ENDROOT
BRANCH   1   2
ATOM      2  O   UNL     1       2.334  -9.487   1.859  1.00  0.00    -0.458 OA
BRANCH   2   3
ATOM      3  C   UNL     1       2.648  -8.184   2.011  1.00  0.00     0.338 C 
ATOM      4  O   UNL     1       1.919  -7.505   2.736  1.00  0.00    -0.246 OA
BRANCH   3   5
ATOM      5  C   UNL     1       3.776  -7.478   1.306  1.00  0.00     0.060 A 
ATOM      6  C   UNL     1       4.745  -8.016   0.453  1.00  0.00     0.016 A 
ATOM      7  C   UNL     1       3.769  -6.085   1.451  1.00  0.00     0.016 A 
ATOM      8  C   UNL     1       5.586  -7.192  -0.312  1.00  0.00     0.010 A 
ATOM      9  C   UNL     1       4.522  -5.268   0.607  1.00  0.00     0.010 A 
ATOM     10  C   UNL     1       5.443  -5.804  -0.295  1.00  0.00    -0.014 A 
BRANCH  10  11
ATOM     11  C   UNL     1       6.281  -4.935  -1.167  1.00  0.00     0.031 A 
ATOM     12  C   UNL     1       7.108  -3.841  -0.536  1.00  0.00     0.074 A 
ATOM     13  C   UNL     1       6.312  -5.115  -2.509  1.00  0.00     0.049 A 
ATOM     14  N   UNL     1       8.002  -3.065  -1.091  1.00  0.00    -0.248 NA
ATOM     15  C   UNL     1       6.875  -3.543   0.889  1.00  0.00     0.031 C 
ATOM     16  C   UNL     1       5.465  -6.039  -3.274  1.00  0.00     0.029 A 
ATOM     17  N   UNL     1       7.100  -4.538  -3.477  1.00  0.00    -0.354 N 
ATOM     18  C   UNL     1       8.450  -2.237  -0.070  1.00  0.00     0.074 A 
ATOM     19  C   UNL     1       7.601  -2.456   1.071  1.00  0.00     0.031 C 
ATOM     20  C   UNL     1       5.803  -5.991  -4.574  1.00  0.00     0.029 A 
ATOM     21  C   UNL     1       6.904  -5.052  -4.743  1.00  0.00     0.049 A 
ATOM     22  H   UNL     1       7.747  -3.821  -3.284  1.00  0.00     0.167 HD
ATOM     23  C   UNL     1       9.553  -1.459  -0.027  1.00  0.00     0.037 A 
ATOM     24  C   UNL     1       7.571  -4.824  -5.894  1.00  0.00     0.037 A 
ATOM     25  C   UNL     1      10.419  -1.264  -1.148  1.00  0.00     0.049 A 
ATOM     26  C   UNL     1       8.783  -3.924  -5.844  1.00  0.00     0.074 A 
ATOM     27  C   UNL     1      11.576  -0.515  -1.228  1.00  0.00     0.029 A 
ATOM     28  N   UNL     1      10.211  -1.834  -2.395  1.00  0.00    -0.354 N 
ATOM     29  N   UNL     1       9.288  -3.276  -4.820  1.00  0.00    -0.248 NA
ATOM     30  C   UNL     1       9.541  -3.756  -7.092  1.00  0.00     0.031 C 
ATOM     31  C   UNL     1      12.047  -0.598  -2.542  1.00  0.00     0.029 A 
ATOM     32  C   UNL     1      11.210  -1.440  -3.261  1.00  0.00     0.049 A 
ATOM     33  H   UNL     1       9.463  -2.430  -2.627  1.00  0.00     0.167 HD
ATOM     34  C   UNL     1      10.441  -2.656  -5.291  1.00  0.00     0.074 A 
ATOM     35  C   UNL     1      10.570  -3.026  -6.685  1.00  0.00     0.031 C 
ATOM     36  C   UNL     1      11.316  -1.851  -4.638  1.00  0.00     0.037 A 
BRANCH  23  37
ATOM     37  C   UNL     1       9.894  -0.854   1.304  1.00  0.00     0.058 A 
ATOM     38  C   UNL     1      10.300  -1.668   2.380  1.00  0.00     0.135 A 
ATOM     39  C   UNL     1       9.761   0.521   1.536  1.00  0.00     0.135 A 
ATOM     40  F   UNL     1      10.405  -2.998   2.221  1.00  0.00    -0.206 F 
ATOM     41  C   UNL     1      10.520  -1.145   3.647  1.00  0.00     0.059 A 
ATOM     42  C   UNL     1      10.008   1.071   2.791  1.00  0.00     0.059 A 
ATOM     43  F   UNL     1       9.361   1.337   0.549  1.00  0.00    -0.206 F 
ATOM     44  C   UNL     1      10.370   0.228   3.842  1.00  0.00     0.060 A 
BRANCH  44  45
ATOM     45  S   UNL     1      10.655   0.888   5.497  1.00  0.00     0.124 S 
ATOM     46  O   UNL     1       9.488   0.385   6.216  1.00  0.00    -0.237 OA
ATOM     47  O   UNL     1      11.931   0.279   5.856  1.00  0.00    -0.237 OA
ATOM     48  O   UNL     1      10.687   2.331   5.285  1.00  0.00    -0.744 OA
ENDBRANCH  44  45
ENDBRANCH  23  37
BRANCH  24  49
ATOM     49  C   UNL     1       7.178  -5.497  -7.170  1.00  0.00     0.058 A 
ATOM     50  C   UNL     1       8.010  -6.449  -7.784  1.00  0.00     0.135 A 
ATOM     51  C   UNL     1       5.991  -5.157  -7.838  1.00  0.00     0.135 A 
ATOM     52  F   UNL     1       9.157  -6.817  -7.192  1.00  0.00    -0.206 F 
ATOM     53  C   UNL     1       7.709  -6.997  -9.030  1.00  0.00     0.059 A 
ATOM     54  C   UNL     1       5.654  -5.711  -9.072  1.00  0.00     0.059 A 
ATOM     55  F   UNL     1       5.144  -4.271  -7.291  1.00  0.00    -0.206 F 
ATOM     56  C   UNL     1       6.531  -6.614  -9.672  1.00  0.00     0.060 A 
BRANCH  56  57
ATOM     57  S   UNL     1       6.157  -7.322 -11.293  1.00  0.00     0.124 S 
ATOM     58  O   UNL     1       7.143  -6.660 -12.139  1.00  0.00    -0.237 OA
ATOM     59  O   UNL     1       6.370  -8.748 -11.060  1.00  0.00    -0.237 OA
ATOM     60  O   UNL     1       4.768  -6.932 -11.518  1.00  0.00    -0.744 OA
ENDBRANCH  56  57
ENDBRANCH  24  49
BRANCH  36  61
ATOM     61  C   UNL     1      12.502  -1.349  -5.407  1.00  0.00     0.058 A 
ATOM     62  C   UNL     1      12.370  -0.380  -6.412  1.00  0.00     0.135 A 
ATOM     63  C   UNL     1      13.795  -1.790  -5.078  1.00  0.00     0.135 A 
ATOM     64  F   UNL     1      11.155   0.072  -6.760  1.00  0.00    -0.206 F 
ATOM     65  C   UNL     1      13.478   0.117  -7.086  1.00  0.00     0.059 A 
ATOM     66  C   UNL     1      14.919  -1.280  -5.714  1.00  0.00     0.059 A 
ATOM     67  F   UNL     1      13.973  -2.703  -4.110  1.00  0.00    -0.206 F 
ATOM     68  C   UNL     1      14.749  -0.338  -6.727  1.00  0.00     0.060 A 
BRANCH  68  69
ATOM     69  S   UNL     1      16.182   0.343  -7.584  1.00  0.00     0.124 S 
ATOM     70  O   UNL     1      16.089  -0.321  -8.880  1.00  0.00    -0.237 OA
ATOM     71  O   UNL     1      15.896   1.774  -7.582  1.00  0.00    -0.237 OA
ATOM     72  O   UNL     1      17.305  -0.067  -6.747  1.00  0.00    -0.744 OA
ENDBRANCH  68  69
ENDBRANCH  36  61
ENDBRANCH  10  11
ENDBRANCH   3   5
ENDBRANCH   2   3
ENDBRANCH   1   2
BRANCH   1  73
ATOM     73  C   UNL     1       2.337 -10.284  -0.503  1.00  0.00     0.274 C 
BRANCH  73  74
ATOM     74  O   UNL     1       2.249  -8.934  -1.001  1.00  0.00    -0.462 OA
BRANCH  74  75
ATOM     75  C   UNL     1       1.003  -8.367  -0.969  1.00  0.00     0.309 C 
ATOM     76  O   UNL     1       0.048  -8.862  -0.385  1.00  0.00    -0.252 OA
BRANCH  75  77
ATOM     77  C   UNL     1       0.902  -7.159  -1.902  1.00  0.00     0.110 C 
ATOM     78  C   UNL     1       1.985  -6.099  -1.719  1.00  0.00     0.077 C 
ATOM     79  C   UNL     1      -0.500  -6.526  -1.859  1.00  0.00     0.077 C 
ATOM     80  C   UNL     1       1.640  -5.034  -0.687  1.00  0.00     0.263 C 
ATOM     81  C   UNL     1      -0.682  -5.507  -0.722  1.00  0.00     0.263 C 
ATOM     82  N   UNL     1       0.320  -4.463  -0.933  1.00  0.00    -0.324 N 
ATOM     83  H   UNL     1       0.168  -4.175  -1.900  1.00  0.00     0.348 HD
BRANCH  82  84
ATOM     84  C   UNL     1       0.181  -3.179  -0.205  1.00  0.00     0.284 C 
ATOM     85  C   UNL     1       0.626  -2.090  -1.181  1.00  0.00     0.176 C 
ATOM     86  C   UNL     1      -1.260  -2.763   0.041  1.00  0.00     0.292 C 
ATOM     87  C   UNL     1      -0.643  -1.816  -1.935  1.00  0.00     0.240 C 
ATOM     88  N   UNL     1      -1.691  -2.128  -1.103  1.00  0.00    -0.245 N 
ATOM     89  O   UNL     1      -1.896  -3.042   1.042  1.00  0.00    -0.267 OA
ATOM     90  O   UNL     1      -0.683  -1.286  -3.040  1.00  0.00    -0.274 OA
BRANCH  88  91
ATOM     91  C   UNL     1      -3.042  -1.881  -1.397  1.00  0.00     0.056 A 
ATOM     92  C   UNL     1      -3.895  -1.326  -0.435  1.00  0.00     0.031 A 
ATOM     93  C   UNL     1      -3.548  -2.220  -2.657  1.00  0.00     0.077 A 
ATOM     94  C   UNL     1      -5.233  -1.074  -0.744  1.00  0.00     0.052 A 
ATOM     95  C   UNL     1      -4.895  -2.020  -2.942  1.00  0.00     0.163 A 
ATOM     96  C   UNL     1      -5.737  -1.441  -1.989  1.00  0.00     0.161 A 
ATOM     97  O   UNL     1      -5.327  -2.447  -4.171  1.00  0.00    -0.486 OA
ATOM     98  O   UNL     1      -7.069  -1.202  -2.210  1.00  0.00    -0.486 OA
ATOM     99  C   UNL     1      -6.600  -1.889  -4.500  1.00  0.00     0.271 C 
ATOM    100  C   UNL     1      -7.554  -1.967  -3.319  1.00  0.00     0.271 C 
ENDBRANCH  88  91
ENDBRANCH  82  84
ENDBRANCH  75  77
ENDBRANCH  74  75
ENDBRANCH  73  74
ENDBRANCH   1  73
TORSDOF 16
