REMARK SMILES CC(C)[C@H](NC(=O)[C@H](C)NC(=O)CNC(=O)OCc1ccccc1)C(=O)OCCOC(=O)c1ccc(-c2c3nc(c(-c4c(F)cc(S(=O)(=O)[O-])cc4F)c4ccc([nH]4)c(-c4c(F)cc(S(=O)(=O)[O-])cc4F)c4nc(c(-c5c(F)cc(S(=O)(=O)[O-])cc5F)c5ccc2[nH]5)C=C4)C=C3)cc1
REMARK SMILES IDX 25 1 26 2 4 3 2 4 1 5 3 6 5 7 6 8 7 10 8 11 9 12 10 13 11 14
REMARK SMILES IDX 12 16 13 17 14 18 15 19 16 21 17 22 18 23 19 24 20 25 24 26
REMARK SMILES IDX 21 27 23 28 22 29 27 30 28 31 29 32 30 33 31 34 32 35 33 36
REMARK SMILES IDX 34 37 98 38 35 39 97 40 36 41 37 42 38 43 91 44 39 45 96 46
REMARK SMILES IDX 90 47 92 48 40 49 95 50 89 51 88 52 41 54 75 55 54 56 74 57
REMARK SMILES IDX 55 58 58 59 73 60 93 61 56 62 57 63 72 65 94 66 59 67 42 68
REMARK SMILES IDX 43 69 52 70 44 71 45 72 51 73 53 74 46 75 47 76 48 77 49 78
REMARK SMILES IDX 50 79 76 80 77 81 86 82 78 83 79 84 85 85 87 86 80 87 81 88
REMARK SMILES IDX 82 89 83 90 84 91 60 92 61 93 70 94 62 95 63 96 69 97 71 98
REMARK SMILES IDX 64 99 65 100 66 101 67 102 68 103
REMARK H PARENT 5 9 10 15 14 20 92 53 58 64
REMARK Flexibility Score: inf
ROOT
ATOM      1  C   UNL     1      -0.620  -2.413   5.688  1.00  0.00     0.329 C 
ATOM      2  O   UNL     1      -0.662  -3.621   5.879  1.00  0.00    -0.250 OA
ENDROOT
BRANCH   1   3
ATOM      3  C   UNL     1      -1.704  -1.607   4.926  1.00  0.00     0.194 C 
BRANCH   3   4
ATOM      4  C   UNL     1      -2.415  -2.410   3.806  1.00  0.00     0.017 C 
ATOM      5  C   UNL     1      -3.380  -3.455   4.396  1.00  0.00     0.010 C 
ATOM      6  C   UNL     1      -3.217  -1.526   2.845  1.00  0.00     0.010 C 
ENDBRANCH   3   4
BRANCH   3   7
ATOM      7  N   UNL     1      -1.341  -0.219   4.596  1.00  0.00    -0.341 N 
ATOM      8  C   UNL     1      -0.427   0.348   3.766  1.00  0.00     0.242 C 
ATOM      9  H   UNL     1      -1.881   0.444   5.083  1.00  0.00     0.164 HD
ATOM     10  O   UNL     1      -0.438   1.582   3.698  1.00  0.00    -0.273 OA
BRANCH   8  11
ATOM     11  C   UNL     1       0.701  -0.474   3.108  1.00  0.00     0.168 C 
ATOM     12  C   UNL     1       1.504   0.413   2.152  1.00  0.00     0.041 C 
BRANCH  11  13
ATOM     13  N   UNL     1       0.255  -1.651   2.375  1.00  0.00    -0.343 N 
ATOM     14  C   UNL     1       0.834  -2.887   2.308  1.00  0.00     0.240 C 
ATOM     15  H   UNL     1      -0.575  -1.542   1.858  1.00  0.00     0.164 HD
ATOM     16  O   UNL     1       0.485  -3.645   1.402  1.00  0.00    -0.273 OA
BRANCH  14  17
ATOM     17  C   UNL     1       1.925  -3.286   3.303  1.00  0.00     0.219 C 
BRANCH  17  18
ATOM     18  N   UNL     1       3.220  -2.811   2.860  1.00  0.00    -0.312 N 
ATOM     19  C   UNL     1       4.006  -1.887   3.478  1.00  0.00     0.407 C 
ATOM     20  H   UNL     1       3.568  -3.197   2.024  1.00  0.00     0.167 HD
ATOM     21  O   UNL     1       5.021  -1.456   2.949  1.00  0.00    -0.225 OA
BRANCH  19  22
ATOM     22  O   UNL     1       3.521  -1.497   4.680  1.00  0.00    -0.445 OA
BRANCH  22  23
ATOM     23  C   UNL     1       4.225  -0.422   5.316  1.00  0.00     0.270 C 
BRANCH  23  24
ATOM     24  C   UNL     1       5.351  -0.915   6.188  1.00  0.00    -0.011 A 
ATOM     25  C   UNL     1       5.240  -2.088   6.948  1.00  0.00     0.007 A 
ATOM     26  C   UNL     1       6.529  -0.162   6.283  1.00  0.00     0.007 A 
ATOM     27  C   UNL     1       6.287  -2.508   7.769  1.00  0.00     0.000 A 
ATOM     28  C   UNL     1       7.580  -0.587   7.097  1.00  0.00     0.000 A 
ATOM     29  C   UNL     1       7.459  -1.760   7.839  1.00  0.00     0.000 A 
ENDBRANCH  23  24
ENDBRANCH  22  23
ENDBRANCH  19  22
ENDBRANCH  17  18
ENDBRANCH  14  17
ENDBRANCH  11  13
ENDBRANCH   8  11
ENDBRANCH   3   7
ENDBRANCH   1   3
BRANCH   1  30
ATOM     30  O   UNL     1       0.349  -1.609   6.205  1.00  0.00    -0.461 OA
BRANCH  30  31
ATOM     31  C   UNL     1       1.265  -2.229   7.133  1.00  0.00     0.274 C 
BRANCH  31  32
ATOM     32  C   UNL     1       1.767  -1.180   8.130  1.00  0.00     0.275 C 
BRANCH  32  33
ATOM     33  O   UNL     1       0.783  -0.994   9.158  1.00  0.00    -0.458 OA
BRANCH  33  34
ATOM     34  C   UNL     1      -0.294  -0.256   8.785  1.00  0.00     0.338 C 
ATOM     35  O   UNL     1      -0.394   0.503   7.850  1.00  0.00    -0.246 OA
BRANCH  34  36
ATOM     36  C   UNL     1      -1.433  -0.816   9.528  1.00  0.00     0.060 A 
ATOM     37  C   UNL     1      -2.500  -1.314   8.775  1.00  0.00     0.016 A 
ATOM     38  C   UNL     1      -1.411  -0.938  10.916  1.00  0.00     0.016 A 
ATOM     39  C   UNL     1      -3.555  -1.956   9.400  1.00  0.00     0.010 A 
ATOM     40  C   UNL     1      -2.474  -1.571  11.548  1.00  0.00     0.010 A 
ATOM     41  C   UNL     1      -3.546  -2.079  10.791  1.00  0.00    -0.014 A 
BRANCH  41  42
ATOM     42  C   UNL     1      -4.711  -2.653  11.482  1.00  0.00     0.031 A 
ATOM     43  C   UNL     1      -5.653  -1.713  12.166  1.00  0.00     0.074 A 
ATOM     44  C   UNL     1      -4.882  -3.985  11.508  1.00  0.00     0.049 A 
ATOM     45  N   UNL     1      -6.624  -1.975  12.993  1.00  0.00    -0.248 NA
ATOM     46  C   UNL     1      -5.461  -0.278  11.888  1.00  0.00     0.031 C 
ATOM     47  C   UNL     1      -4.036  -4.959  10.814  1.00  0.00     0.029 A 
ATOM     48  N   UNL     1      -5.810  -4.751  12.160  1.00  0.00    -0.354 N 
ATOM     49  C   UNL     1      -7.138  -0.740  13.366  1.00  0.00     0.074 A 
ATOM     50  C   UNL     1      -6.368   0.273  12.680  1.00  0.00     0.031 C 
ATOM     51  C   UNL     1      -4.471  -6.198  11.100  1.00  0.00     0.029 A 
ATOM     52  C   UNL     1      -5.586  -6.102  12.036  1.00  0.00     0.049 A 
ATOM     53  H   UNL     1      -6.563  -4.372  12.668  1.00  0.00     0.167 HD
ATOM     54  C   UNL     1      -8.160  -0.488  14.214  1.00  0.00     0.037 A 
ATOM     55  C   UNL     1      -6.190  -7.135  12.654  1.00  0.00     0.037 A 
ATOM     56  C   UNL     1      -8.907  -1.527  14.870  1.00  0.00     0.049 A 
ATOM     57  C   UNL     1      -7.290  -6.828  13.634  1.00  0.00     0.074 A 
ATOM     58  C   UNL     1      -9.973  -1.408  15.740  1.00  0.00     0.029 A 
ATOM     59  N   UNL     1      -8.655  -2.886  14.722  1.00  0.00    -0.354 N 
ATOM     60  N   UNL     1      -7.771  -5.658  13.990  1.00  0.00    -0.248 NA
ATOM     61  C   UNL     1      -7.922  -7.969  14.306  1.00  0.00     0.031 C 
ATOM     62  C   UNL     1     -10.340  -2.694  16.150  1.00  0.00     0.029 A 
ATOM     63  C   UNL     1      -9.531  -3.617  15.502  1.00  0.00     0.049 A 
ATOM     64  H   UNL     1      -7.955  -3.271  14.147  1.00  0.00     0.167 HD
ATOM     65  C   UNL     1      -8.768  -5.921  14.919  1.00  0.00     0.074 A 
ATOM     66  C   UNL     1      -8.833  -7.364  15.057  1.00  0.00     0.031 C 
ATOM     67  C   UNL     1      -9.559  -5.056  15.603  1.00  0.00     0.037 A 
BRANCH  54  68
ATOM     68  C   UNL     1      -8.489   0.949  14.501  1.00  0.00     0.058 A 
ATOM     69  C   UNL     1      -9.096   1.777  13.543  1.00  0.00     0.135 A 
ATOM     70  C   UNL     1      -8.190   1.508  15.754  1.00  0.00     0.135 A 
ATOM     71  F   UNL     1      -9.378   1.302  12.319  1.00  0.00    -0.206 F 
ATOM     72  C   UNL     1      -9.374   3.114  13.810  1.00  0.00     0.059 A 
ATOM     73  C   UNL     1      -8.482   2.837  16.051  1.00  0.00     0.059 A 
ATOM     74  F   UNL     1      -7.597   0.765  16.701  1.00  0.00    -0.206 F 
ATOM     75  C   UNL     1      -9.062   3.635  15.066  1.00  0.00     0.060 A 
BRANCH  75  76
ATOM     76  S   UNL     1      -9.428   5.372  15.397  1.00  0.00     0.124 S 
ATOM     77  O   UNL     1      -8.394   6.042  14.615  1.00  0.00    -0.237 OA
ATOM     78  O   UNL     1     -10.790   5.505  14.890  1.00  0.00    -0.237 OA
ATOM     79  O   UNL     1      -9.288   5.480  16.846  1.00  0.00    -0.744 OA
ENDBRANCH  75  76
ENDBRANCH  54  68
BRANCH  55  80
ATOM     80  C   UNL     1      -5.739  -8.528  12.395  1.00  0.00     0.058 A 
ATOM     81  C   UNL     1      -6.548  -9.433  11.694  1.00  0.00     0.135 A 
ATOM     82  C   UNL     1      -4.476  -8.976  12.818  1.00  0.00     0.135 A 
ATOM     83  F   UNL     1      -7.765  -9.056  11.273  1.00  0.00    -0.206 F 
ATOM     84  C   UNL     1      -6.128 -10.733  11.427  1.00  0.00     0.059 A 
ATOM     85  C   UNL     1      -4.024 -10.263  12.543  1.00  0.00     0.059 A 
ATOM     86  F   UNL     1      -3.656  -8.147  13.482  1.00  0.00    -0.206 F 
ATOM     87  C   UNL     1      -4.862 -11.138  11.854  1.00  0.00     0.060 A 
BRANCH  87  88
ATOM     88  S   UNL     1      -4.304 -12.810  11.455  1.00  0.00     0.124 S 
ATOM     89  O   UNL     1      -5.094 -13.611  12.382  1.00  0.00    -0.237 OA
ATOM     90  O   UNL     1      -4.663 -12.925  10.045  1.00  0.00    -0.237 OA
ATOM     91  O   UNL     1      -2.870 -12.758  11.726  1.00  0.00    -0.744 OA
ENDBRANCH  87  88
ENDBRANCH  55  80
BRANCH  67  92
ATOM     92  C   UNL     1     -10.565  -5.650  16.544  1.00  0.00     0.058 A 
ATOM     93  C   UNL     1     -10.182  -6.159  17.794  1.00  0.00     0.135 A 
ATOM     94  C   UNL     1     -11.931  -5.630  16.225  1.00  0.00     0.135 A 
ATOM     95  F   UNL     1      -8.886  -6.206  18.137  1.00  0.00    -0.206 F 
ATOM     96  C   UNL     1     -11.124  -6.636  18.696  1.00  0.00     0.059 A 
ATOM     97  C   UNL     1     -12.892  -6.080  17.122  1.00  0.00     0.059 A 
ATOM     98  F   UNL     1     -12.343  -5.143  15.044  1.00  0.00    -0.206 F 
ATOM     99  C   UNL     1     -12.478  -6.586  18.354  1.00  0.00     0.060 A 
BRANCH  99 100
ATOM    100  S   UNL     1     -13.695  -7.150  19.561  1.00  0.00     0.124 S 
ATOM    101  O   UNL     1     -13.536  -8.598  19.481  1.00  0.00    -0.237 OA
ATOM    102  O   UNL     1     -13.224  -6.527  20.794  1.00  0.00    -0.237 OA
ATOM    103  O   UNL     1     -14.954  -6.626  19.042  1.00  0.00    -0.744 OA
ENDBRANCH  99 100
ENDBRANCH  67  92
ENDBRANCH  41  42
ENDBRANCH  34  36
ENDBRANCH  33  34
ENDBRANCH  32  33
ENDBRANCH  31  32
ENDBRANCH  30  31
ENDBRANCH   1  30
TORSDOF 23
