REMARK SMILES CC[C@@H](C)[C@@H](NC(=O)Cn1ncc2ccccc2c1=O)C(=O)OCCOC(=O)c1ccc(-c2c3nc(c(-c4c(F)cc(S(=O)(=O)[O-])cc4F)c4ccc([nH]4)c(-c4c(F)cc(S(=O)(=O)[O-])cc4F)c4nc(c(-c5c(F)cc(S(=O)(=O)[O-])cc5F)c5ccc2[nH]5)C=C4)C=C3)cc1
REMARK SMILES IDX 24 1 23 2 21 3 22 4 5 5 3 6 4 7 2 8 1 9 6 10 7 11 8 13 9 14
REMARK SMILES IDX 10 15 11 16 19 17 12 18 18 19 20 20 13 21 17 22 14 23 16 24
REMARK SMILES IDX 15 25 25 26 26 27 27 28 28 29 29 30 30 31 94 32 31 33 93 34
REMARK SMILES IDX 32 35 33 36 34 37 87 38 35 39 92 40 86 41 88 42 36 43 91 44
REMARK SMILES IDX 85 45 84 46 37 48 71 49 50 50 70 51 51 52 54 53 69 54 89 55
REMARK SMILES IDX 52 56 53 57 68 59 90 60 55 61 38 62 39 63 48 64 40 65 41 66
REMARK SMILES IDX 47 67 49 68 42 69 43 70 44 71 45 72 46 73 72 74 73 75 82 76
REMARK SMILES IDX 74 77 75 78 81 79 83 80 76 81 77 82 78 83 79 84 80 85 56 86
REMARK SMILES IDX 57 87 66 88 58 89 59 90 65 91 67 92 60 93 61 94 62 95 63 96
REMARK SMILES IDX 64 97
REMARK H PARENT 6 12 88 47 54 58
REMARK Flexibility Score: inf
ROOT
ATOM      1  C   UNL     1       1.694   6.233  -2.734  1.00  0.00     0.274 C 
ENDROOT
BRANCH   1   2
ATOM      2  O   UNL     1       1.551   5.031  -1.933  1.00  0.00    -0.461 OA
BRANCH   2   3
ATOM      3  C   UNL     1       0.697   5.125  -0.883  1.00  0.00     0.329 C 
ATOM      4  O   UNL     1       0.034   6.132  -0.641  1.00  0.00    -0.250 OA
BRANCH   3   5
ATOM      5  C   UNL     1       0.686   3.924   0.087  1.00  0.00     0.195 C 
BRANCH   5   6
ATOM      6  C   UNL     1       1.073   2.457  -0.271  1.00  0.00     0.019 C 
ATOM      7  C   UNL     1       0.747   2.056  -1.706  1.00  0.00     0.010 C 
BRANCH   6   8
ATOM      8  C   UNL     1       0.399   1.466   0.724  1.00  0.00     0.002 C 
ATOM      9  C   UNL     1       0.826   0.011   0.550  1.00  0.00     0.004 C 
ENDBRANCH   6   8
ENDBRANCH   5   6
BRANCH   5  10
ATOM     10  N   UNL     1       1.187   4.335   1.415  1.00  0.00    -0.341 N 
ATOM     11  C   UNL     1       2.344   4.924   1.836  1.00  0.00     0.242 C 
ATOM     12  H   UNL     1       0.557   4.144   2.147  1.00  0.00     0.164 HD
ATOM     13  O   UNL     1       2.511   4.970   3.063  1.00  0.00    -0.273 OA
BRANCH  11  14
ATOM     14  C   UNL     1       3.292   5.697   0.908  1.00  0.00     0.248 C 
BRANCH  14  15
ATOM     15  N   UNL     1       3.996   4.999  -0.159  1.00  0.00    -0.220 N 
ATOM     16  N   UNL     1       4.029   3.631  -0.126  1.00  0.00    -0.177 NA
ATOM     17  C   UNL     1       4.655   5.755  -1.132  1.00  0.00     0.275 A 
ATOM     18  C   UNL     1       4.392   3.006  -1.201  1.00  0.00     0.142 A 
ATOM     19  C   UNL     1       5.009   5.035  -2.374  1.00  0.00     0.050 A 
ATOM     20  O   UNL     1       4.843   6.966  -1.064  1.00  0.00    -0.267 OA
ATOM     21  C   UNL     1       4.775   3.671  -2.434  1.00  0.00     0.007 A 
ATOM     22  C   UNL     1       5.408   5.720  -3.526  1.00  0.00     0.014 A 
ATOM     23  C   UNL     1       4.871   2.970  -3.635  1.00  0.00     0.010 A 
ATOM     24  C   UNL     1       5.517   5.028  -4.736  1.00  0.00     0.001 A 
ATOM     25  C   UNL     1       5.231   3.660  -4.793  1.00  0.00     0.001 A 
ENDBRANCH  14  15
ENDBRANCH  11  14
ENDBRANCH   5  10
ENDBRANCH   3   5
ENDBRANCH   2   3
ENDBRANCH   1   2
BRANCH   1  26
ATOM     26  C   UNL     1       1.563   5.923  -4.222  1.00  0.00     0.275 C 
BRANCH  26  27
ATOM     27  O   UNL     1       0.170   5.818  -4.533  1.00  0.00    -0.458 OA
BRANCH  27  28
ATOM     28  C   UNL     1      -0.359   4.585  -4.353  1.00  0.00     0.338 C 
ATOM     29  O   UNL     1       0.223   3.527  -4.290  1.00  0.00    -0.246 OA
BRANCH  28  30
ATOM     30  C   UNL     1      -1.772   4.797  -4.019  1.00  0.00     0.060 A 
ATOM     31  C   UNL     1      -2.612   5.410  -4.943  1.00  0.00     0.016 A 
ATOM     32  C   UNL     1      -2.232   4.428  -2.749  1.00  0.00     0.016 A 
ATOM     33  C   UNL     1      -3.929   5.657  -4.585  1.00  0.00     0.010 A 
ATOM     34  C   UNL     1      -3.554   4.665  -2.394  1.00  0.00     0.010 A 
ATOM     35  C   UNL     1      -4.405   5.277  -3.316  1.00  0.00    -0.014 A 
BRANCH  35  36
ATOM     36  C   UNL     1      -5.841   5.436  -3.029  1.00  0.00     0.031 A 
ATOM     37  C   UNL     1      -6.332   6.569  -2.189  1.00  0.00     0.074 A 
ATOM     38  C   UNL     1      -6.679   4.573  -3.632  1.00  0.00     0.049 A 
ATOM     39  N   UNL     1      -7.558   6.987  -2.027  1.00  0.00    -0.248 NA
ATOM     40  C   UNL     1      -5.327   7.335  -1.433  1.00  0.00     0.031 C 
ATOM     41  C   UNL     1      -6.255   3.417  -4.431  1.00  0.00     0.029 A 
ATOM     42  N   UNL     1      -8.043   4.553  -3.713  1.00  0.00    -0.354 N 
ATOM     43  C   UNL     1      -7.473   8.088  -1.187  1.00  0.00     0.074 A 
ATOM     44  C   UNL     1      -6.082   8.238  -0.819  1.00  0.00     0.031 C 
ATOM     45  C   UNL     1      -7.336   2.843  -4.978  1.00  0.00     0.029 A 
ATOM     46  C   UNL     1      -8.522   3.575  -4.552  1.00  0.00     0.049 A 
ATOM     47  H   UNL     1      -8.624   5.177  -3.220  1.00  0.00     0.167 HD
ATOM     48  C   UNL     1      -8.474   8.909  -0.792  1.00  0.00     0.037 A 
ATOM     49  C   UNL     1      -9.781   3.322  -4.953  1.00  0.00     0.037 A 
ATOM     50  C   UNL     1      -9.850   8.719  -1.173  1.00  0.00     0.049 A 
ATOM     51  C   UNL     1     -10.872   4.237  -4.472  1.00  0.00     0.074 A 
ATOM     52  C   UNL     1     -10.950   9.489  -0.841  1.00  0.00     0.029 A 
ATOM     53  N   UNL     1     -10.314   7.682  -1.973  1.00  0.00    -0.354 N 
ATOM     54  N   UNL     1     -10.772   5.314  -3.728  1.00  0.00    -0.248 NA
ATOM     55  C   UNL     1     -12.241   3.911  -4.885  1.00  0.00     0.031 C 
ATOM     56  C   UNL     1     -12.083   8.895  -1.405  1.00  0.00     0.029 A 
ATOM     57  C   UNL     1     -11.685   7.781  -2.129  1.00  0.00     0.049 A 
ATOM     58  H   UNL     1      -9.750   6.980  -2.370  1.00  0.00     0.167 HD
ATOM     59  C   UNL     1     -12.064   5.804  -3.595  1.00  0.00     0.074 A 
ATOM     60  C   UNL     1     -12.923   4.919  -4.359  1.00  0.00     0.031 C 
ATOM     61  C   UNL     1     -12.507   6.880  -2.900  1.00  0.00     0.037 A 
BRANCH  48  62
ATOM     62  C   UNL     1      -8.130  10.096   0.062  1.00  0.00     0.058 A 
ATOM     63  C   UNL     1      -7.476  11.214  -0.479  1.00  0.00     0.135 A 
ATOM     64  C   UNL     1      -8.549  10.169   1.401  1.00  0.00     0.135 A 
ATOM     65  F   UNL     1      -7.037  11.192  -1.748  1.00  0.00    -0.206 F 
ATOM     66  C   UNL     1      -7.258  12.365   0.271  1.00  0.00     0.059 A 
ATOM     67  C   UNL     1      -8.360  11.318   2.164  1.00  0.00     0.059 A 
ATOM     68  F   UNL     1      -9.173   9.126   1.970  1.00  0.00    -0.206 F 
ATOM     69  C   UNL     1      -7.716  12.413   1.589  1.00  0.00     0.060 A 
BRANCH  69  70
ATOM     70  S   UNL     1      -7.485  13.942   2.522  1.00  0.00     0.124 S 
ATOM     71  O   UNL     1      -6.034  13.976   2.677  1.00  0.00    -0.237 OA
ATOM     72  O   UNL     1      -8.049  14.941   1.620  1.00  0.00    -0.237 OA
ATOM     73  O   UNL     1      -8.240  13.712   3.749  1.00  0.00    -0.744 OA
ENDBRANCH  69  70
ENDBRANCH  48  62
BRANCH  49  74
ATOM     74  C   UNL     1     -10.061   2.190  -5.873  1.00  0.00     0.058 A 
ATOM     75  C   UNL     1     -10.512   2.411  -7.183  1.00  0.00     0.135 A 
ATOM     76  C   UNL     1      -9.876   0.860  -5.463  1.00  0.00     0.135 A 
ATOM     77  F   UNL     1     -10.698   3.663  -7.626  1.00  0.00    -0.206 F 
ATOM     78  C   UNL     1     -10.801   1.355  -8.042  1.00  0.00     0.059 A 
ATOM     79  C   UNL     1     -10.129  -0.211  -6.313  1.00  0.00     0.059 A 
ATOM     80  F   UNL     1      -9.421   0.593  -4.229  1.00  0.00    -0.206 F 
ATOM     81  C   UNL     1     -10.609   0.047  -7.596  1.00  0.00     0.060 A 
BRANCH  81  82
ATOM     82  S   UNL     1     -10.981  -1.316  -8.720  1.00  0.00     0.124 S 
ATOM     83  O   UNL     1     -12.438  -1.265  -8.769  1.00  0.00    -0.237 OA
ATOM     84  O   UNL     1     -10.286  -0.908  -9.937  1.00  0.00    -0.237 OA
ATOM     85  O   UNL     1     -10.413  -2.477  -8.041  1.00  0.00    -0.744 OA
ENDBRANCH  81  82
ENDBRANCH  49  74
BRANCH  61  86
ATOM     86  C   UNL     1     -13.982   7.158  -2.939  1.00  0.00     0.058 A 
ATOM     87  C   UNL     1     -14.892   6.357  -2.234  1.00  0.00     0.135 A 
ATOM     88  C   UNL     1     -14.480   8.272  -3.633  1.00  0.00     0.135 A 
ATOM     89  F   UNL     1     -14.464   5.276  -1.562  1.00  0.00    -0.206 F 
ATOM     90  C   UNL     1     -16.252   6.641  -2.230  1.00  0.00     0.059 A 
ATOM     91  C   UNL     1     -15.832   8.591  -3.618  1.00  0.00     0.059 A 
ATOM     92  F   UNL     1     -13.646   9.073  -4.314  1.00  0.00    -0.206 F 
ATOM     93  C   UNL     1     -16.712   7.764  -2.921  1.00  0.00     0.060 A 
BRANCH  93  94
ATOM     94  S   UNL     1     -18.475   8.142  -2.867  1.00  0.00     0.124 S 
ATOM     95  O   UNL     1     -19.029   7.077  -3.697  1.00  0.00    -0.237 OA
ATOM     96  O   UNL     1     -18.768   8.050  -1.440  1.00  0.00    -0.237 OA
ATOM     97  O   UNL     1     -18.554   9.485  -3.434  1.00  0.00    -0.744 OA
ENDBRANCH  93  94
ENDBRANCH  61  86
ENDBRANCH  35  36
ENDBRANCH  28  30
ENDBRANCH  27  28
ENDBRANCH  26  27
ENDBRANCH   1  26
TORSDOF 19
