REMARK SMILES O=C(OCCOC(=O)[C@H]1Cc2c([nH]c3ccccc23)[C@H](c2c[nH]c3ccccc23)[NH2+]1)c1ccc(-c2c3nc(c(-c4c(F)cc(S(=O)(=O)[O-])cc4F)c4ccc([nH]4)c(-c4c(F)cc(S(=O)(=O)[O-])cc4F)c4nc(c(-c5c(F)cc(S(=O)(=O)[O-])cc5F)c5ccc2[nH]5)C=C4)C=C3)cc1
REMARK SMILES IDX 4 1 3 2 2 3 1 4 31 5 32 6 96 7 33 8 95 9 34 10 35 11 36 12
REMARK SMILES IDX 89 13 37 14 94 15 88 16 90 17 38 18 93 19 87 20 86 21 39 23
REMARK SMILES IDX 73 24 52 25 72 26 53 27 56 28 71 29 91 30 54 31 55 32 70 34
REMARK SMILES IDX 92 35 57 36 40 37 41 38 50 39 42 40 43 41 49 42 51 43 44 44
REMARK SMILES IDX 45 45 46 46 47 47 48 48 74 49 75 50 84 51 76 52 77 53 83 54
REMARK SMILES IDX 85 55 78 56 79 57 80 58 81 59 82 60 58 61 59 62 68 63 60 64
REMARK SMILES IDX 61 65 67 66 69 67 62 68 63 69 64 70 65 71 66 72 5 73 6 74
REMARK SMILES IDX 7 75 8 76 9 77 10 78 30 79 11 80 20 81 12 84 19 85 13 86
REMARK SMILES IDX 14 87 18 88 15 90 17 91 16 92 21 93 22 94 29 95 23 96 24 97
REMARK SMILES IDX 28 98 25 100 27 101 26 102
REMARK H PARENT 90 22 56 33 30 82 30 83 13 89 23 99
REMARK Flexibility Score: inf
ROOT
ATOM      1  C   UNL     1       4.136  -1.322   0.901  1.00  0.00     0.275 C 
ENDROOT
BRANCH   1   2
ATOM      2  O   UNL     1       3.409  -0.141   1.250  1.00  0.00    -0.458 OA
BRANCH   2   3
ATOM      3  C   UNL     1       3.507   1.107   0.743  1.00  0.00     0.338 C 
ATOM      4  O   UNL     1       2.811   1.984   1.256  1.00  0.00    -0.246 OA
BRANCH   3   5
ATOM      5  C   UNL     1       4.315   1.474  -0.472  1.00  0.00     0.060 A 
ATOM      6  C   UNL     1       5.354   0.755  -1.079  1.00  0.00     0.016 A 
ATOM      7  C   UNL     1       3.917   2.658  -1.101  1.00  0.00     0.016 A 
ATOM      8  C   UNL     1       5.886   1.125  -2.329  1.00  0.00     0.010 A 
ATOM      9  C   UNL     1       4.405   2.992  -2.362  1.00  0.00     0.010 A 
ATOM     10  C   UNL     1       5.385   2.227  -3.013  1.00  0.00    -0.014 A 
BRANCH  10  11
ATOM     11  C   UNL     1       5.904   2.704  -4.331  1.00  0.00     0.031 A 
ATOM     12  C   UNL     1       6.324   4.147  -4.426  1.00  0.00     0.074 A 
ATOM     13  C   UNL     1       5.890   1.950  -5.452  1.00  0.00     0.049 A 
ATOM     14  N   UNL     1       6.503   4.903  -5.476  1.00  0.00    -0.248 NA
ATOM     15  C   UNL     1       6.507   4.847  -3.141  1.00  0.00     0.031 C 
ATOM     16  C   UNL     1       5.519   0.539  -5.540  1.00  0.00     0.029 A 
ATOM     17  N   UNL     1       6.126   2.304  -6.765  1.00  0.00    -0.354 N 
ATOM     18  C   UNL     1       6.782   6.164  -4.966  1.00  0.00     0.074 A 
ATOM     19  C   UNL     1       6.580   6.104  -3.538  1.00  0.00     0.031 C 
ATOM     20  C   UNL     1       5.461   0.174  -6.834  1.00  0.00     0.029 A 
ATOM     21  C   UNL     1       5.766   1.328  -7.669  1.00  0.00     0.049 A 
ATOM     22  H   UNL     1       6.514   3.169  -7.029  1.00  0.00     0.167 HD
ATOM     23  C   UNL     1       7.275   7.250  -5.604  1.00  0.00     0.037 A 
ATOM     24  C   UNL     1       5.640   1.375  -9.011  1.00  0.00     0.037 A 
ATOM     25  C   UNL     1       7.559   7.276  -7.007  1.00  0.00     0.049 A 
ATOM     26  C   UNL     1       6.081   2.611  -9.741  1.00  0.00     0.074 A 
ATOM     27  C   UNL     1       8.194   8.255  -7.745  1.00  0.00     0.029 A 
ATOM     28  N   UNL     1       7.227   6.254  -7.884  1.00  0.00    -0.354 N 
ATOM     29  N   UNL     1       6.443   3.768  -9.246  1.00  0.00    -0.248 NA
ATOM     30  C   UNL     1       6.160   2.528 -11.207  1.00  0.00     0.031 C 
ATOM     31  C   UNL     1       8.226   7.834  -9.079  1.00  0.00     0.029 A 
ATOM     32  C   UNL     1       7.639   6.579  -9.161  1.00  0.00     0.049 A 
ATOM     33  H   UNL     1       6.765   5.421  -7.633  1.00  0.00     0.167 HD
ATOM     34  C   UNL     1       6.888   4.518 -10.327  1.00  0.00     0.074 A 
ATOM     35  C   UNL     1       6.683   3.710 -11.511  1.00  0.00     0.031 C 
ATOM     36  C   UNL     1       7.463   5.745 -10.324  1.00  0.00     0.037 A 
BRANCH  23  37
ATOM     37  C   UNL     1       7.599   8.437  -4.742  1.00  0.00     0.058 A 
ATOM     38  C   UNL     1       8.604   8.363  -3.759  1.00  0.00     0.135 A 
ATOM     39  C   UNL     1       6.839   9.612  -4.815  1.00  0.00     0.135 A 
ATOM     40  F   UNL     1       9.355   7.255  -3.639  1.00  0.00    -0.206 F 
ATOM     41  C   UNL     1       8.773   9.367  -2.814  1.00  0.00     0.059 A 
ATOM     42  C   UNL     1       7.021  10.650  -3.904  1.00  0.00     0.059 A 
ATOM     43  F   UNL     1       5.878   9.742  -5.742  1.00  0.00    -0.206 F 
ATOM     44  C   UNL     1       7.961  10.497  -2.883  1.00  0.00     0.060 A 
BRANCH  44  45
ATOM     45  S   UNL     1       8.125  11.751  -1.596  1.00  0.00     0.124 S 
ATOM     46  O   UNL     1       7.403  11.127  -0.491  1.00  0.00    -0.237 OA
ATOM     47  O   UNL     1       9.573  11.846  -1.431  1.00  0.00    -0.237 OA
ATOM     48  O   UNL     1       7.487  12.924  -2.184  1.00  0.00    -0.744 OA
ENDBRANCH  44  45
ENDBRANCH  23  37
BRANCH  24  49
ATOM     49  C   UNL     1       5.064   0.226  -9.759  1.00  0.00     0.058 A 
ATOM     50  C   UNL     1       5.872  -0.742 -10.369  1.00  0.00     0.135 A 
ATOM     51  C   UNL     1       3.673   0.093  -9.887  1.00  0.00     0.135 A 
ATOM     52  F   UNL     1       7.207  -0.646 -10.288  1.00  0.00    -0.206 F 
ATOM     53  C   UNL     1       5.323  -1.804 -11.084  1.00  0.00     0.059 A 
ATOM     54  C   UNL     1       3.099  -0.962 -10.592  1.00  0.00     0.059 A 
ATOM     55  F   UNL     1       2.860   0.993  -9.313  1.00  0.00    -0.206 F 
ATOM     56  C   UNL     1       3.934  -1.906 -11.190  1.00  0.00     0.060 A 
BRANCH  56  57
ATOM     57  S   UNL     1       3.227  -3.316 -12.075  1.00  0.00     0.124 S 
ATOM     58  O   UNL     1       3.529  -2.974 -13.460  1.00  0.00    -0.237 OA
ATOM     59  O   UNL     1       3.977  -4.435 -11.515  1.00  0.00    -0.237 OA
ATOM     60  O   UNL     1       1.815  -3.267 -11.706  1.00  0.00    -0.744 OA
ENDBRANCH  56  57
ENDBRANCH  24  49
BRANCH  36  61
ATOM     61  C   UNL     1       8.022   6.263 -11.614  1.00  0.00     0.058 A 
ATOM     62  C   UNL     1       7.209   6.832 -12.601  1.00  0.00     0.135 A 
ATOM     63  C   UNL     1       9.416   6.317 -11.787  1.00  0.00     0.135 A 
ATOM     64  F   UNL     1       5.872   6.787 -12.486  1.00  0.00    -0.206 F 
ATOM     65  C   UNL     1       7.760   7.462 -13.711  1.00  0.00     0.059 A 
ATOM     66  C   UNL     1       9.988   6.962 -12.876  1.00  0.00     0.059 A 
ATOM     67  F   UNL     1      10.233   5.784 -10.864  1.00  0.00    -0.206 F 
ATOM     68  C   UNL     1       9.151   7.539 -13.829  1.00  0.00     0.060 A 
BRANCH  68  69
ATOM     69  S   UNL     1       9.854   8.470 -15.206  1.00  0.00     0.124 S 
ATOM     70  O   UNL     1       9.627   7.560 -16.323  1.00  0.00    -0.237 OA
ATOM     71  O   UNL     1       9.046   9.686 -15.203  1.00  0.00    -0.237 OA
ATOM     72  O   UNL     1      11.249   8.652 -14.816  1.00  0.00    -0.744 OA
ENDBRANCH  68  69
ENDBRANCH  36  61
ENDBRANCH  10  11
ENDBRANCH   3   5
ENDBRANCH   2   3
ENDBRANCH   1   2
BRANCH   1  73
ATOM     73  C   UNL     1       3.556  -2.088  -0.289  1.00  0.00     0.274 C 
BRANCH  73  74
ATOM     74  O   UNL     1       3.223  -1.283  -1.434  1.00  0.00    -0.458 OA
BRANCH  74  75
ATOM     75  C   UNL     1       1.895  -1.006  -1.621  1.00  0.00     0.365 C 
ATOM     76  O   UNL     1       1.028  -1.252  -0.788  1.00  0.00    -0.245 OA
BRANCH  75  77
ATOM     77  C   UNL     1       1.573  -0.427  -3.015  1.00  0.00     0.298 C 
ATOM     78  C   UNL     1       1.446   1.114  -2.972  1.00  0.00     0.115 C 
ATOM     79  N   UNL     1       2.501  -0.996  -4.039  1.00  0.00    -0.323 N 
ATOM     80  C   UNL     1       1.738   1.735  -4.297  1.00  0.00    -0.006 A 
ATOM     81  C   UNL     1       2.210  -0.538  -5.405  1.00  0.00     0.264 C 
ATOM     82  H   UNL     1       2.426  -2.013  -4.014  1.00  0.00     0.347 HD
ATOM     83  H   UNL     1       3.441  -0.674  -3.806  1.00  0.00     0.347 HD
ATOM     84  C   UNL     1       2.084   0.953  -5.380  1.00  0.00     0.083 A 
ATOM     85  C   UNL     1       1.857   3.101  -4.698  1.00  0.00     0.003 A 
ATOM     86  N   UNL     1       2.392   1.784  -6.423  1.00  0.00    -0.353 N 
ATOM     87  C   UNL     1       2.316   3.097  -6.018  1.00  0.00     0.046 A 
ATOM     88  C   UNL     1       1.699   4.347  -4.055  1.00  0.00     0.010 A 
ATOM     89  H   UNL     1       2.633   1.487  -7.331  1.00  0.00     0.166 HD
ATOM     90  C   UNL     1       2.657   4.265  -6.712  1.00  0.00     0.026 A 
ATOM     91  C   UNL     1       2.060   5.524  -4.727  1.00  0.00     0.001 A 
ATOM     92  C   UNL     1       2.538   5.480  -6.034  1.00  0.00     0.002 A 
BRANCH  81  93
ATOM     93  C   UNL     1       1.028  -1.219  -6.062  1.00  0.00     0.041 A 
ATOM     94  C   UNL     1       0.670  -0.966  -7.380  1.00  0.00     0.093 A 
ATOM     95  C   UNL     1       0.081  -2.204  -5.588  1.00  0.00     0.009 A 
ATOM     96  N   UNL     1      -0.457  -1.666  -7.687  1.00  0.00    -0.361 N 
ATOM     97  C   UNL     1      -0.882  -2.370  -6.590  1.00  0.00     0.046 A 
ATOM     98  C   UNL     1      -0.098  -2.960  -4.405  1.00  0.00     0.011 A 
ATOM     99  H   UNL     1      -0.900  -1.667  -8.566  1.00  0.00     0.166 HD
ATOM    100  C   UNL     1      -2.035  -3.146  -6.426  1.00  0.00     0.026 A 
ATOM    101  C   UNL     1      -1.254  -3.723  -4.213  1.00  0.00     0.001 A 
ATOM    102  C   UNL     1      -2.219  -3.797  -5.206  1.00  0.00     0.002 A 
ENDBRANCH  81  93
ENDBRANCH  75  77
ENDBRANCH  74  75
ENDBRANCH  73  74
ENDBRANCH   1  73
TORSDOF 15
