REMARK SMILES C[C@@](O)(CNC(=O)c1ccc(Br)cc1N)CC(=O)OCCOC(=O)c1ccc(-c2c3nc(c(-c4c(F)cc(S(=O)(=O)[O-])cc4F)c4ccc([nH]4)c(-c4c(F)cc(S(=O)(=O)[O-])cc4F)c4nc(c(-c5c(F)cc(S(=O)(=O)[O-])cc5F)c5ccc2[nH]5)C=C4)C=C3)cc1
REMARK SMILES IDX 20 1 19 2 17 3 18 4 16 5 2 6 1 7 3 8 4 10 5 11 6 12 7 14
REMARK SMILES IDX 8 15 9 16 14 17 10 18 13 19 11 20 12 21 15 22 21 25 22 26
REMARK SMILES IDX 23 27 24 28 25 29 26 30 90 31 27 32 89 33 28 34 29 35 30 36
REMARK SMILES IDX 83 37 31 38 88 39 82 40 84 41 32 42 87 43 81 44 80 45 33 47
REMARK SMILES IDX 67 48 46 49 66 50 47 51 50 52 65 53 85 54 48 55 49 56 64 58
REMARK SMILES IDX 86 59 51 60 34 61 35 62 44 63 36 64 37 65 43 66 45 67 38 68
REMARK SMILES IDX 39 69 40 70 41 71 42 72 68 73 69 74 78 75 70 76 71 77 77 78
REMARK SMILES IDX 79 79 72 80 73 81 74 82 75 83 76 84 52 85 53 86 62 87 54 88
REMARK SMILES IDX 55 89 61 90 63 91 56 92 57 93 58 94 59 95 60 96
REMARK H PARENT 3 9 5 13 15 23 15 24 84 46 50 57
REMARK Flexibility Score: inf
ROOT
ATOM      1  C   UNL     1      -0.858  -0.503   4.145  1.00  0.00     0.274 C 
ENDROOT
BRANCH   1   2
ATOM      2  O   UNL     1      -0.610   0.248   2.932  1.00  0.00    -0.462 OA
BRANCH   2   3
ATOM      3  C   UNL     1       0.356   1.185   2.970  1.00  0.00     0.308 C 
ATOM      4  O   UNL     1       1.081   1.382   3.942  1.00  0.00    -0.252 OA
BRANCH   3   5
ATOM      5  C   UNL     1       0.469   2.060   1.737  1.00  0.00     0.159 C 
BRANCH   5   6
ATOM      6  C   UNL     1       0.079   1.637   0.310  1.00  0.00     0.090 C 
ATOM      7  C   UNL     1       0.736   0.375  -0.244  1.00  0.00     0.044 C 
BRANCH   6   8
ATOM      8  O   UNL     1       0.595   2.710  -0.538  1.00  0.00    -0.388 OA
ATOM      9  H   UNL     1       0.388   2.517  -1.466  1.00  0.00     0.211 HD
ENDBRANCH   6   8
BRANCH   6  10
ATOM     10  C   UNL     1      -1.439   1.627   0.020  1.00  0.00     0.151 C 
BRANCH  10  11
ATOM     11  N   UNL     1      -2.283   0.826   0.892  1.00  0.00    -0.349 N 
ATOM     12  C   UNL     1      -3.130   1.226   1.903  1.00  0.00     0.253 C 
ATOM     13  H   UNL     1      -2.243  -0.146   0.738  1.00  0.00     0.163 HD
ATOM     14  O   UNL     1      -3.704   0.396   2.605  1.00  0.00    -0.269 OA
BRANCH  12  15
ATOM     15  C   UNL     1      -3.309   2.670   2.179  1.00  0.00     0.062 A 
ATOM     16  C   UNL     1      -3.758   3.495   1.139  1.00  0.00     0.017 A 
ATOM     17  C   UNL     1      -3.027   3.204   3.453  1.00  0.00     0.045 A 
ATOM     18  C   UNL     1      -3.802   4.874   1.315  1.00  0.00     0.016 A 
ATOM     19  C   UNL     1      -3.055   4.595   3.604  1.00  0.00     0.042 A 
ATOM     20  C   UNL     1      -3.436   5.418   2.543  1.00  0.00     0.020 A 
ATOM     21  Br  UNL     1      -3.457   7.294   2.773  1.00  0.00    -0.051 Br
BRANCH  17  22
ATOM     22  N   UNL     1      -2.583   2.423   4.516  1.00  0.00    -0.398 N 
ATOM     23  H   UNL     1      -2.556   1.443   4.429  1.00  0.00     0.156 HD
ATOM     24  H   UNL     1      -2.296   2.851   5.355  1.00  0.00     0.156 HD
ENDBRANCH  17  22
ENDBRANCH  12  15
ENDBRANCH  10  11
ENDBRANCH   6  10
ENDBRANCH   5   6
ENDBRANCH   3   5
ENDBRANCH   2   3
ENDBRANCH   1   2
BRANCH   1  25
ATOM     25  C   UNL     1      -0.498  -1.971   3.948  1.00  0.00     0.275 C 
BRANCH  25  26
ATOM     26  O   UNL     1       0.928  -2.104   3.902  1.00  0.00    -0.458 OA
BRANCH  26  27
ATOM     27  C   UNL     1       1.463  -1.933   2.675  1.00  0.00     0.338 C 
ATOM     28  O   UNL     1       0.875  -1.875   1.609  1.00  0.00    -0.246 OA
BRANCH  27  29
ATOM     29  C   UNL     1       2.897  -1.699   2.828  1.00  0.00     0.060 A 
ATOM     30  C   UNL     1       3.696  -2.742   3.279  1.00  0.00     0.016 A 
ATOM     31  C   UNL     1       3.440  -0.448   2.514  1.00  0.00     0.016 A 
ATOM     32  C   UNL     1       5.053  -2.516   3.450  1.00  0.00     0.010 A 
ATOM     33  C   UNL     1       4.803  -0.229   2.663  1.00  0.00     0.010 A 
ATOM     34  C   UNL     1       5.612  -1.260   3.147  1.00  0.00    -0.014 A 
BRANCH  34  35
ATOM     35  C   UNL     1       7.062  -1.061   3.326  1.00  0.00     0.031 A 
ATOM     36  C   UNL     1       7.574  -0.222   4.457  1.00  0.00     0.074 A 
ATOM     37  C   UNL     1       7.894  -1.701   2.486  1.00  0.00     0.049 A 
ATOM     38  N   UNL     1       8.808  -0.060   4.855  1.00  0.00    -0.248 NA
ATOM     39  C   UNL     1       6.585   0.538   5.240  1.00  0.00     0.031 C 
ATOM     40  C   UNL     1       7.471  -2.499   1.331  1.00  0.00     0.029 A 
ATOM     41  N   UNL     1       9.258  -1.811   2.486  1.00  0.00    -0.354 N 
ATOM     42  C   UNL     1       8.742   0.797   5.946  1.00  0.00     0.074 A 
ATOM     43  C   UNL     1       7.357   1.171   6.114  1.00  0.00     0.031 C 
ATOM     44  C   UNL     1       8.551  -3.058   0.765  1.00  0.00     0.029 A 
ATOM     45  C   UNL     1       9.740  -2.633   1.496  1.00  0.00     0.049 A 
ATOM     46  H   UNL     1       9.837  -1.346   3.132  1.00  0.00     0.167 HD
ATOM     47  C   UNL     1       9.753   1.202   6.748  1.00  0.00     0.037 A 
ATOM     48  C   UNL     1      11.003  -3.008   1.220  1.00  0.00     0.037 A 
ATOM     49  C   UNL     1      11.124   0.803   6.564  1.00  0.00     0.049 A 
ATOM     50  C   UNL     1      12.106  -2.519   2.119  1.00  0.00     0.074 A 
ATOM     51  C   UNL     1      12.222   1.124   7.342  1.00  0.00     0.029 A 
ATOM     52  N   UNL     1      11.585  -0.000   5.531  1.00  0.00    -0.354 N 
ATOM     53  N   UNL     1      12.020  -1.772   3.195  1.00  0.00    -0.248 NA
ATOM     54  C   UNL     1      13.474  -2.927   1.776  1.00  0.00     0.031 C 
ATOM     55  C   UNL     1      13.354   0.561   6.749  1.00  0.00     0.029 A 
ATOM     56  C   UNL     1      12.956  -0.162   5.635  1.00  0.00     0.049 A 
ATOM     57  H   UNL     1      11.021  -0.396   4.828  1.00  0.00     0.167 HD
ATOM     58  C   UNL     1      13.320  -1.636   3.667  1.00  0.00     0.074 A 
ATOM     59  C   UNL     1      14.168  -2.400   2.775  1.00  0.00     0.031 C 
ATOM     60  C   UNL     1      13.774  -0.936   4.736  1.00  0.00     0.037 A 
BRANCH  47  61
ATOM     61  C   UNL     1       9.431   2.098   7.912  1.00  0.00     0.058 A 
ATOM     62  C   UNL     1       8.773   1.607   9.050  1.00  0.00     0.135 A 
ATOM     63  C   UNL     1       9.895   3.423   7.944  1.00  0.00     0.135 A 
ATOM     64  F   UNL     1       8.292   0.353   9.066  1.00  0.00    -0.206 F 
ATOM     65  C   UNL     1       8.597   2.393  10.183  1.00  0.00     0.059 A 
ATOM     66  C   UNL     1       9.751   4.220   9.075  1.00  0.00     0.059 A 
ATOM     67  F   UNL     1      10.523   3.945   6.878  1.00  0.00    -0.206 F 
ATOM     68  C   UNL     1       9.104   3.694  10.193  1.00  0.00     0.060 A 
BRANCH  68  69
ATOM     69  S   UNL     1       8.936   4.668  11.703  1.00  0.00     0.124 S 
ATOM     70  O   UNL     1       7.490   4.859  11.770  1.00  0.00    -0.237 OA
ATOM     71  O   UNL     1       9.504   3.776  12.709  1.00  0.00    -0.237 OA
ATOM     72  O   UNL     1       9.713   5.871  11.423  1.00  0.00    -0.744 OA
ENDBRANCH  68  69
ENDBRANCH  47  61
BRANCH  48  73
ATOM     73  C   UNL     1      11.283  -3.893   0.058  1.00  0.00     0.058 A 
ATOM     74  C   UNL     1      11.775  -5.194   0.234  1.00  0.00     0.135 A 
ATOM     75  C   UNL     1      11.065  -3.450  -1.256  1.00  0.00     0.135 A 
ATOM     76  F   UNL     1      11.998  -5.666   1.471  1.00  0.00    -0.206 F 
ATOM     77  C   UNL     1      12.073  -6.013  -0.850  1.00  0.00     0.059 A 
ATOM     78  C   UNL     1      11.324  -4.262  -2.355  1.00  0.00     0.059 A 
ATOM     79  F   UNL     1      10.573  -2.222  -1.481  1.00  0.00    -0.206 F 
ATOM     80  C   UNL     1      11.845  -5.536  -2.142  1.00  0.00     0.060 A 
BRANCH  80  81
ATOM     81  S   UNL     1      12.232  -6.609  -3.541  1.00  0.00     0.124 S 
ATOM     82  O   UNL     1      13.688  -6.649  -3.486  1.00  0.00    -0.237 OA
ATOM     83  O   UNL     1      11.544  -7.843  -3.177  1.00  0.00    -0.237 OA
ATOM     84  O   UNL     1      11.663  -5.894  -4.680  1.00  0.00    -0.744 OA
ENDBRANCH  80  81
ENDBRANCH  48  73
BRANCH  60  85
ATOM     85  C   UNL     1      15.251  -0.975   5.011  1.00  0.00     0.058 A 
ATOM     86  C   UNL     1      16.166  -0.299   4.189  1.00  0.00     0.135 A 
ATOM     87  C   UNL     1      15.747  -1.629   6.150  1.00  0.00     0.135 A 
ATOM     88  F   UNL     1      15.743   0.337   3.085  1.00  0.00    -0.206 F 
ATOM     89  C   UNL     1      17.526  -0.286   4.478  1.00  0.00     0.059 A 
ATOM     90  C   UNL     1      17.099  -1.601   6.476  1.00  0.00     0.059 A 
ATOM     91  F   UNL     1      14.911  -2.280   6.975  1.00  0.00    -0.206 F 
ATOM     92  C   UNL     1      17.981  -0.934   5.628  1.00  0.00     0.060 A 
BRANCH  92  93
ATOM     93  S   UNL     1      19.744  -0.870   6.007  1.00  0.00     0.124 S 
ATOM     94  O   UNL     1      20.304  -1.703   4.948  1.00  0.00    -0.237 OA
ATOM     95  O   UNL     1      20.029   0.558   5.909  1.00  0.00    -0.237 OA
ATOM     96  O   UNL     1      19.824  -1.430   7.353  1.00  0.00    -0.744 OA
ENDBRANCH  92  93
ENDBRANCH  60  85
ENDBRANCH  34  35
ENDBRANCH  27  29
ENDBRANCH  26  27
ENDBRANCH  25  26
ENDBRANCH   1  25
TORSDOF 20
