REMARK SMILES COc1cccc(NC(=O)/C(C#N)=C\c2ccc(O[C@@H](C)C(=O)OCCOC(=O)c3ccc(-c4c5nc(c(-c6c(F)cc(S(=O)(=O)[O-])cc6F)c6ccc([nH]6)c(-c6c(F)cc(S(=O)(=O)[O-])cc6F)c6nc(c(-c7c(F)cc(S(=O)(=O)[O-])cc7F)c7ccc4[nH]7)C=C6)C=C5)cc3)cc2)c1
REMARK SMILES IDX 24 1 22 2 23 3 20 4 21 5 19 6 18 7 15 8 16 9 97 10 17 11
REMARK SMILES IDX 96 12 14 13 11 14 9 15 8 16 10 18 7 19 3 20 4 21 98 22 5 23
REMARK SMILES IDX 6 24 2 25 1 26 12 27 13 28 25 29 26 30 27 31 28 32 29 33
REMARK SMILES IDX 30 34 31 35 95 36 32 37 94 38 33 39 34 40 35 41 88 42 36 43
REMARK SMILES IDX 93 44 87 45 89 46 37 47 92 48 86 49 85 50 38 52 72 53 51 54
REMARK SMILES IDX 71 55 52 56 55 57 70 58 90 59 53 60 54 61 69 63 91 64 56 65
REMARK SMILES IDX 39 66 40 67 49 68 41 69 42 70 48 71 50 72 43 73 44 74 45 75
REMARK SMILES IDX 46 76 47 77 73 78 74 79 83 80 75 81 76 82 82 83 84 84 77 85
REMARK SMILES IDX 78 86 79 87 80 88 81 89 57 90 58 91 67 92 59 93 60 94 66 95
REMARK SMILES IDX 68 96 61 97 62 98 63 99 64 100 65 101
REMARK H PARENT 8 17 89 51 55 62
REMARK Flexibility Score: inf
ROOT
ATOM      1  O   UNL     1       9.623   7.101   4.653  1.00  0.00    -0.459 OA
ENDROOT
BRANCH   1   2
ATOM      2  C   UNL     1      10.617   6.177   4.670  1.00  0.00     0.347 C 
ATOM      3  O   UNL     1      11.550   6.159   3.876  1.00  0.00    -0.248 OA
BRANCH   2   4
ATOM      4  C   UNL     1      10.442   5.128   5.808  1.00  0.00     0.279 C 
ATOM      5  C   UNL     1      10.460   3.696   5.270  1.00  0.00     0.066 C 
BRANCH   4   6
ATOM      6  O   UNL     1       9.489   5.280   6.855  1.00  0.00    -0.479 OA
BRANCH   6   7
ATOM      7  C   UNL     1       8.160   5.358   6.572  1.00  0.00     0.120 A 
ATOM      8  C   UNL     1       5.392   5.562   6.196  1.00  0.00    -0.024 A 
ATOM      9  C   UNL     1       5.919   5.618   7.486  1.00  0.00     0.012 A 
ATOM     10  C   UNL     1       6.259   5.480   5.105  1.00  0.00     0.012 A 
ATOM     11  C   UNL     1       7.306   5.529   7.667  1.00  0.00     0.047 A 
ATOM     12  C   UNL     1       7.616   5.306   5.296  1.00  0.00     0.047 A 
BRANCH   8  13
ATOM     13  C   UNL     1       3.962   5.667   5.905  1.00  0.00     0.033 C 
ATOM     14  C   UNL     1       3.259   4.877   5.055  1.00  0.00     0.118 C 
BRANCH  14  15
ATOM     15  C   UNL     1       3.813   3.563   4.539  1.00  0.00     0.266 C 
ATOM     16  N   UNL     1       3.342   2.869   3.466  1.00  0.00    -0.321 N 
ATOM     17  H   UNL     1       4.053   2.369   3.003  1.00  0.00     0.170 HD
ATOM     18  O   UNL     1       4.827   3.061   5.037  1.00  0.00    -0.268 OA
BRANCH  16  19
ATOM     19  C   UNL     1       2.093   2.697   2.863  1.00  0.00     0.045 A 
ATOM     20  C   UNL     1       0.850   1.914   0.939  1.00  0.00     0.120 A 
ATOM     21  C   UNL     1      -0.333   2.377   1.503  1.00  0.00     0.046 A 
ATOM     22  C   UNL     1       2.067   2.098   1.597  1.00  0.00     0.072 A 
ATOM     23  C   UNL     1      -0.317   2.895   2.793  1.00  0.00     0.006 A 
ATOM     24  C   UNL     1       0.888   2.995   3.489  1.00  0.00     0.026 A 
BRANCH  20  25
ATOM     25  O   UNL     1       0.776   1.319  -0.291  1.00  0.00    -0.497 OA
ATOM     26  C   UNL     1       1.172  -0.052  -0.218  1.00  0.00     0.278 C 
ENDBRANCH  20  25
ENDBRANCH  16  19
ENDBRANCH  14  15
BRANCH  14  27
ATOM     27  C   UNL     1       2.058   5.465   4.577  1.00  0.00     0.105 C 
ATOM     28  N   UNL     1       1.100   6.029   4.234  1.00  0.00    -0.192 NA
ENDBRANCH  14  27
ENDBRANCH   8  13
ENDBRANCH   6   7
ENDBRANCH   4   6
ENDBRANCH   2   4
ENDBRANCH   1   2
BRANCH   1  29
ATOM     29  C   UNL     1       9.652   8.154   3.673  1.00  0.00     0.274 C 
BRANCH  29  30
ATOM     30  C   UNL     1       9.692   9.505   4.386  1.00  0.00     0.275 C 
BRANCH  30  31
ATOM     31  O   UNL     1      10.942   9.660   5.078  1.00  0.00    -0.458 OA
BRANCH  31  32
ATOM     32  C   UNL     1      10.955   9.156   6.335  1.00  0.00     0.338 C 
ATOM     33  O   UNL     1      10.015   8.713   6.971  1.00  0.00    -0.246 OA
BRANCH  32  34
ATOM     34  C   UNL     1      12.345   9.062   6.790  1.00  0.00     0.060 A 
ATOM     35  C   UNL     1      12.870   7.792   7.030  1.00  0.00     0.016 A 
ATOM     36  C   UNL     1      13.099  10.203   7.044  1.00  0.00     0.016 A 
ATOM     37  C   UNL     1      14.148   7.644   7.545  1.00  0.00     0.010 A 
ATOM     38  C   UNL     1      14.391  10.058   7.551  1.00  0.00     0.010 A 
ATOM     39  C   UNL     1      14.915   8.779   7.817  1.00  0.00    -0.014 A 
BRANCH  39  40
ATOM     40  C   UNL     1      16.243   8.626   8.447  1.00  0.00     0.031 A 
ATOM     41  C   UNL     1      16.438   9.061   9.869  1.00  0.00     0.074 A 
ATOM     42  C   UNL     1      17.253   8.081   7.745  1.00  0.00     0.049 A 
ATOM     43  N   UNL     1      17.537   9.117  10.573  1.00  0.00    -0.248 NA
ATOM     44  C   UNL     1      15.233   9.501  10.590  1.00  0.00     0.031 C 
ATOM     45  C   UNL     1      17.151   7.565   6.379  1.00  0.00     0.029 A 
ATOM     46  N   UNL     1      18.564   7.872   8.085  1.00  0.00    -0.354 N 
ATOM     47  C   UNL     1      17.164   9.627  11.811  1.00  0.00     0.074 A 
ATOM     48  C   UNL     1      15.742   9.888  11.751  1.00  0.00     0.031 C 
ATOM     49  C   UNL     1      18.347   7.092   5.999  1.00  0.00     0.029 A 
ATOM     50  C   UNL     1      19.312   7.329   7.069  1.00  0.00     0.049 A 
ATOM     51  H   UNL     1      18.934   8.091   8.970  1.00  0.00     0.167 HD
ATOM     52  C   UNL     1      17.943   9.852  12.896  1.00  0.00     0.037 A 
ATOM     53  C   UNL     1      20.633   7.081   6.999  1.00  0.00     0.037 A 
ATOM     54  C   UNL     1      19.357   9.578  12.931  1.00  0.00     0.049 A 
ATOM     55  C   UNL     1      21.493   7.413   8.187  1.00  0.00     0.074 A 
ATOM     56  C   UNL     1      20.245   9.760  13.975  1.00  0.00     0.029 A 
ATOM     57  N   UNL     1      20.092   9.068  11.867  1.00  0.00    -0.354 N 
ATOM     58  N   UNL     1      21.138   7.910   9.349  1.00  0.00    -0.248 NA
ATOM     59  C   UNL     1      22.932   7.158   8.053  1.00  0.00     0.031 C 
ATOM     60  C   UNL     1      21.525   9.415  13.525  1.00  0.00     0.029 A 
ATOM     61  C   UNL     1      21.427   8.956  12.220  1.00  0.00     0.049 A 
ATOM     62  H   UNL     1      19.718   8.822  10.990  1.00  0.00     0.167 HD
ATOM     63  C   UNL     1      22.306   8.002  10.097  1.00  0.00     0.074 A 
ATOM     64  C   UNL     1      23.376   7.501   9.256  1.00  0.00     0.031 C 
ATOM     65  C   UNL     1      22.477   8.455  11.364  1.00  0.00     0.037 A 
BRANCH  52  66
ATOM     66  C   UNL     1      17.287  10.468  14.102  1.00  0.00     0.058 A 
ATOM     67  C   UNL     1      16.337   9.777  14.873  1.00  0.00     0.135 A 
ATOM     68  C   UNL     1      17.599  11.784  14.483  1.00  0.00     0.135 A 
ATOM     69  F   UNL     1      15.986   8.522  14.547  1.00  0.00    -0.206 F 
ATOM     70  C   UNL     1      15.686  10.383  15.943  1.00  0.00     0.059 A 
ATOM     71  C   UNL     1      16.985  12.399  15.570  1.00  0.00     0.059 A 
ATOM     72  F   UNL     1      18.499  12.495  13.785  1.00  0.00    -0.206 F 
ATOM     73  C   UNL     1      16.012  11.697  16.279  1.00  0.00     0.060 A 
BRANCH  73  74
ATOM     74  S   UNL     1      15.132  12.484  17.646  1.00  0.00     0.124 S 
ATOM     75  O   UNL     1      13.813  12.699  17.057  1.00  0.00    -0.237 OA
ATOM     76  O   UNL     1      15.200  11.465  18.689  1.00  0.00    -0.237 OA
ATOM     77  O   UNL     1      15.909  13.692  17.902  1.00  0.00    -0.744 OA
ENDBRANCH  73  74
ENDBRANCH  52  66
BRANCH  53  78
ATOM     78  C   UNL     1      21.207   6.493   5.761  1.00  0.00     0.058 A 
ATOM     79  C   UNL     1      21.688   5.177   5.746  1.00  0.00     0.135 A 
ATOM     80  C   UNL     1      21.241   7.215   4.556  1.00  0.00     0.135 A 
ATOM     81  F   UNL     1      21.685   4.450   6.874  1.00  0.00    -0.206 F 
ATOM     82  C   UNL     1      22.180   4.594   4.583  1.00  0.00     0.059 A 
ATOM     83  C   UNL     1      21.703   6.645   3.374  1.00  0.00     0.059 A 
ATOM     84  F   UNL     1      20.782   8.476   4.513  1.00  0.00    -0.206 F 
ATOM     85  C   UNL     1      22.174   5.333   3.399  1.00  0.00     0.060 A 
BRANCH  85  86
ATOM     86  S   UNL     1      22.744   4.537   1.882  1.00  0.00     0.124 S 
ATOM     87  O   UNL     1      24.177   4.429   2.126  1.00  0.00    -0.237 OA
ATOM     88  O   UNL     1      21.997   3.283   1.897  1.00  0.00    -0.237 OA
ATOM     89  O   UNL     1      22.351   5.480   0.839  1.00  0.00    -0.744 OA
ENDBRANCH  85  86
ENDBRANCH  53  78
BRANCH  65  90
ATOM     90  C   UNL     1      23.868   8.394  11.934  1.00  0.00     0.058 A 
ATOM     91  C   UNL     1      24.886   9.258  11.500  1.00  0.00     0.135 A 
ATOM     92  C   UNL     1      24.172   7.489  12.965  1.00  0.00     0.135 A 
ATOM     93  F   UNL     1      24.652  10.135  10.511  1.00  0.00    -0.206 F 
ATOM     94  C   UNL     1      26.162   9.211  12.052  1.00  0.00     0.059 A 
ATOM     95  C   UNL     1      25.431   7.447  13.553  1.00  0.00     0.059 A 
ATOM     96  F   UNL     1      23.232   6.647  13.424  1.00  0.00    -0.206 F 
ATOM     97  C   UNL     1      26.424   8.304  13.081  1.00  0.00     0.060 A 
BRANCH  97  98
ATOM     98  S   UNL     1      28.073   8.280  13.813  1.00  0.00     0.124 S 
ATOM     99  O   UNL     1      28.858   7.662  12.749  1.00  0.00    -0.237 OA
ATOM    100  O   UNL     1      28.330   9.697  14.050  1.00  0.00    -0.237 OA
ATOM    101  O   UNL     1      27.900   7.471  15.016  1.00  0.00    -0.744 OA
ENDBRANCH  97  98
ENDBRANCH  65  90
ENDBRANCH  39  40
ENDBRANCH  32  34
ENDBRANCH  31  32
ENDBRANCH  30  31
ENDBRANCH  29  30
ENDBRANCH   1  29
TORSDOF 21
