REMARK SMILES Cc1cc(S[C@@H](C)c2ccc(C(=O)OCCOC(=O)c3ccc(-c4c5nc(c(-c6c(F)cc(S(=O)(=O)[O-])cc6F)c6ccc([nH]6)c(-c6c(F)cc(S(=O)(=O)[O-])cc6F)c6nc(c(-c7c(F)cc(S(=O)(=O)[O-])cc7F)c7ccc4[nH]7)C=C6)C=C5)cc3)o2)n(C)n1
REMARK SMILES IDX 15 1 14 2 12 3 13 4 11 5 8 6 9 7 86 8 10 9 6 10 7 11 5 12
REMARK SMILES IDX 4 13 1 14 2 15 3 16 89 17 87 18 88 19 16 20 17 21 18 22
REMARK SMILES IDX 19 23 20 24 21 25 85 26 22 27 84 28 23 29 24 30 25 31 78 32
REMARK SMILES IDX 26 33 83 34 77 35 79 36 27 37 82 38 76 39 75 40 28 42 62 43
REMARK SMILES IDX 41 44 61 45 42 46 45 47 60 48 80 49 43 50 44 51 59 53 81 54
REMARK SMILES IDX 46 55 29 56 30 57 39 58 31 59 32 60 38 61 40 62 33 63 34 64
REMARK SMILES IDX 35 65 36 66 37 67 63 68 64 69 73 70 65 71 66 72 72 73 74 74
REMARK SMILES IDX 67 75 68 76 69 77 70 78 71 79 47 80 48 81 57 82 49 83 50 84
REMARK SMILES IDX 56 85 58 86 51 87 52 88 53 89 54 90 55 91
REMARK H PARENT 79 41 45 52
REMARK Flexibility Score: inf
ROOT
ATOM      1  C   UNL     1      -3.066  -2.496  -5.866  1.00  0.00     0.275 C 
ENDROOT
BRANCH   1   2
ATOM      2  O   UNL     1      -2.545  -3.443  -4.913  1.00  0.00    -0.456 OA
BRANCH   2   3
ATOM      3  C   UNL     1      -1.360  -3.111  -4.312  1.00  0.00     0.374 C 
ATOM      4  O   UNL     1      -0.739  -2.087  -4.547  1.00  0.00    -0.242 OA
BRANCH   3   5
ATOM      5  C   UNL     1      -0.975  -4.150  -3.378  1.00  0.00     0.211 A 
ATOM      6  C   UNL     1       0.151  -4.950  -1.636  1.00  0.00     0.118 A 
ATOM      7  C   UNL     1      -0.695  -5.956  -2.061  1.00  0.00     0.048 A 
ATOM      8  O   UNL     1       0.019  -3.877  -2.477  1.00  0.00    -0.453 OA
ATOM      9  C   UNL     1      -1.419  -5.442  -3.167  1.00  0.00     0.058 A 
BRANCH   6  10
ATOM     10  C   UNL     1       1.103  -4.845  -0.468  1.00  0.00     0.116 C 
ATOM     11  C   UNL     1       0.408  -5.159   0.871  1.00  0.00     0.028 C 
BRANCH  10  12
ATOM     12  S   UNL     1       2.048  -3.261  -0.412  1.00  0.00    -0.096 SA
BRANCH  12  13
ATOM     13  C   UNL     1       0.854  -2.145   0.164  1.00  0.00     0.095 A 
ATOM     14  C   UNL     1      -2.374  -0.942   1.300  1.00  0.00     0.069 C 
ATOM     15  C   UNL     1      -0.963  -1.192   0.957  1.00  0.00     0.061 A 
ATOM     16  C   UNL     1      -0.514  -2.197   0.096  1.00  0.00     0.060 A 
ATOM     17  N   UNL     1       0.047  -0.445   1.414  1.00  0.00    -0.178 NA
ATOM     18  N   UNL     1       1.146  -0.983   0.832  1.00  0.00    -0.262 N 
ATOM     19  C   UNL     1       2.380  -0.229   0.827  1.00  0.00     0.175 C 
ENDBRANCH  12  13
ENDBRANCH  10  12
ENDBRANCH   6  10
ENDBRANCH   3   5
ENDBRANCH   2   3
ENDBRANCH   1   2
BRANCH   1  20
ATOM     20  C   UNL     1      -4.156  -1.606  -5.261  1.00  0.00     0.275 C 
BRANCH  20  21
ATOM     21  O   UNL     1      -3.601  -0.508  -4.509  1.00  0.00    -0.458 OA
BRANCH  21  22
ATOM     22  C   UNL     1      -3.496  -0.728  -3.179  1.00  0.00     0.338 C 
ATOM     23  O   UNL     1      -3.817  -1.743  -2.580  1.00  0.00    -0.246 OA
BRANCH  22  24
ATOM     24  C   UNL     1      -2.851   0.412  -2.506  1.00  0.00     0.060 A 
ATOM     25  C   UNL     1      -1.506   0.289  -2.203  1.00  0.00     0.016 A 
ATOM     26  C   UNL     1      -3.591   1.464  -1.959  1.00  0.00     0.016 A 
ATOM     27  C   UNL     1      -0.949   1.126  -1.236  1.00  0.00     0.010 A 
ATOM     28  C   UNL     1      -2.990   2.345  -1.031  1.00  0.00     0.010 A 
ATOM     29  C   UNL     1      -1.685   2.125  -0.564  1.00  0.00    -0.014 A 
BRANCH  29  30
ATOM     30  C   UNL     1      -1.097   2.759   0.689  1.00  0.00     0.031 A 
ATOM     31  C   UNL     1      -1.827   2.728   2.038  1.00  0.00     0.074 A 
ATOM     32  C   UNL     1       0.192   3.177   0.697  1.00  0.00     0.049 A 
ATOM     33  N   UNL     1      -1.361   2.982   3.244  1.00  0.00    -0.248 NA
ATOM     34  C   UNL     1      -3.247   2.338   2.050  1.00  0.00     0.031 C 
ATOM     35  C   UNL     1       1.063   3.246  -0.478  1.00  0.00     0.029 A 
ATOM     36  N   UNL     1       1.023   3.553   1.733  1.00  0.00    -0.354 N 
ATOM     37  C   UNL     1      -2.400   2.718   4.137  1.00  0.00     0.074 A 
ATOM     38  C   UNL     1      -3.532   2.304   3.344  1.00  0.00     0.031 C 
ATOM     39  C   UNL     1       2.318   3.509  -0.087  1.00  0.00     0.029 A 
ATOM     40  C   UNL     1       2.332   3.760   1.352  1.00  0.00     0.049 A 
ATOM     41  H   UNL     1       0.710   3.664   2.660  1.00  0.00     0.167 HD
ATOM     42  C   UNL     1      -2.441   2.824   5.489  1.00  0.00     0.037 A 
ATOM     43  C   UNL     1       3.424   4.136   2.051  1.00  0.00     0.037 A 
ATOM     44  C   UNL     1      -1.375   3.351   6.303  1.00  0.00     0.049 A 
ATOM     45  C   UNL     1       3.300   4.430   3.522  1.00  0.00     0.074 A 
ATOM     46  C   UNL     1      -1.393   3.644   7.657  1.00  0.00     0.029 A 
ATOM     47  N   UNL     1      -0.119   3.702   5.837  1.00  0.00    -0.354 N 
ATOM     48  N   UNL     1       2.285   4.223   4.325  1.00  0.00    -0.248 NA
ATOM     49  C   UNL     1       4.463   5.050   4.175  1.00  0.00     0.031 C 
ATOM     50  C   UNL     1      -0.184   4.263   7.988  1.00  0.00     0.029 A 
ATOM     51  C   UNL     1       0.623   4.269   6.863  1.00  0.00     0.049 A 
ATOM     52  H   UNL     1       0.200   3.570   4.915  1.00  0.00     0.167 HD
ATOM     53  C   UNL     1       2.684   4.693   5.573  1.00  0.00     0.074 A 
ATOM     54  C   UNL     1       4.049   5.153   5.430  1.00  0.00     0.031 C 
ATOM     55  C   UNL     1       1.974   4.751   6.727  1.00  0.00     0.037 A 
BRANCH  42  56
ATOM     56  C   UNL     1      -3.740   2.490   6.180  1.00  0.00     0.058 A 
ATOM     57  C   UNL     1      -4.150   1.170   6.427  1.00  0.00     0.135 A 
ATOM     58  C   UNL     1      -4.570   3.527   6.639  1.00  0.00     0.135 A 
ATOM     59  F   UNL     1      -3.407   0.138   5.998  1.00  0.00    -0.206 F 
ATOM     60  C   UNL     1      -5.344   0.892   7.092  1.00  0.00     0.059 A 
ATOM     61  C   UNL     1      -5.755   3.273   7.322  1.00  0.00     0.059 A 
ATOM     62  F   UNL     1      -4.228   4.808   6.427  1.00  0.00    -0.206 F 
ATOM     63  C   UNL     1      -6.141   1.952   7.534  1.00  0.00     0.060 A 
BRANCH  63  64
ATOM     64  S   UNL     1      -7.695   1.583   8.378  1.00  0.00     0.124 S 
ATOM     65  O   UNL     1      -8.495   1.029   7.289  1.00  0.00    -0.237 OA
ATOM     66  O   UNL     1      -7.277   0.632   9.403  1.00  0.00    -0.237 OA
ATOM     67  O   UNL     1      -8.133   2.884   8.874  1.00  0.00    -0.744 OA
ENDBRANCH  63  64
ENDBRANCH  42  56
BRANCH  43  68
ATOM     68  C   UNL     1       4.728   4.348   1.350  1.00  0.00     0.058 A 
ATOM     69  C   UNL     1       5.875   3.608   1.678  1.00  0.00     0.135 A 
ATOM     70  C   UNL     1       4.853   5.319   0.341  1.00  0.00     0.135 A 
ATOM     71  F   UNL     1       5.826   2.689   2.654  1.00  0.00    -0.206 F 
ATOM     72  C   UNL     1       7.092   3.821   1.032  1.00  0.00     0.059 A 
ATOM     73  C   UNL     1       6.042   5.515  -0.350  1.00  0.00     0.059 A 
ATOM     74  F   UNL     1       3.796   6.070  -0.007  1.00  0.00    -0.206 F 
ATOM     75  C   UNL     1       7.161   4.770   0.010  1.00  0.00     0.060 A 
BRANCH  75  76
ATOM     76  S   UNL     1       8.716   4.997  -0.878  1.00  0.00     0.124 S 
ATOM     77  O   UNL     1       9.493   5.772   0.082  1.00  0.00    -0.237 OA
ATOM     78  O   UNL     1       9.154   3.621  -1.093  1.00  0.00    -0.237 OA
ATOM     79  O   UNL     1       8.309   5.711  -2.085  1.00  0.00    -0.744 OA
ENDBRANCH  75  76
ENDBRANCH  43  68
BRANCH  55  80
ATOM     80  C   UNL     1       2.656   5.330   7.939  1.00  0.00     0.058 A 
ATOM     81  C   UNL     1       2.994   6.692   8.021  1.00  0.00     0.135 A 
ATOM     82  C   UNL     1       2.963   4.518   9.043  1.00  0.00     0.135 A 
ATOM     83  F   UNL     1       2.722   7.519   7.000  1.00  0.00    -0.206 F 
ATOM     84  C   UNL     1       3.655   7.214   9.129  1.00  0.00     0.059 A 
ATOM     85  C   UNL     1       3.593   5.026  10.176  1.00  0.00     0.059 A 
ATOM     86  F   UNL     1       2.649   3.212   9.031  1.00  0.00    -0.206 F 
ATOM     87  C   UNL     1       3.956   6.371  10.200  1.00  0.00     0.060 A 
BRANCH  87  88
ATOM     88  S   UNL     1       4.829   7.056  11.624  1.00  0.00     0.124 S 
ATOM     89  O   UNL     1       6.172   7.241  11.084  1.00  0.00    -0.237 OA
ATOM     90  O   UNL     1       4.080   8.279  11.893  1.00  0.00    -0.237 OA
ATOM     91  O   UNL     1       4.700   6.013  12.637  1.00  0.00    -0.744 OA
ENDBRANCH  87  88
ENDBRANCH  55  80
ENDBRANCH  29  30
ENDBRANCH  22  24
ENDBRANCH  21  22
ENDBRANCH  20  21
ENDBRANCH   1  20
TORSDOF 17
