REMARK SMILES Cc1cc(C)c2nc(NS(=O)(=O)c3cc(C(=O)OCCOC(=O)c4ccc(-c5c6nc(c(-c7c(F)cc(S(=O)(=O)[O-])cc7F)c7ccc([nH]7)c(-c7c(F)cc(S(=O)(=O)[O-])cc7F)c7nc(c(-c8c(F)cc(S(=O)(=O)[O-])cc8F)c8ccc5[nH]8)C=C7)C=C6)cc4)ccc3Cl)sc2c1
REMARK SMILES IDX 19 1 18 2 16 3 17 4 15 5 13 6 14 7 92 8 91 9 93 10 90 11
REMARK SMILES IDX 10 12 11 13 12 14 9 15 8 17 1 18 2 19 3 20 96 21 4 22 95 23
REMARK SMILES IDX 5 24 6 25 94 26 7 27 20 28 21 29 22 30 23 31 24 32 25 33
REMARK SMILES IDX 89 34 26 35 88 36 27 37 28 38 29 39 82 40 30 41 87 42 81 43
REMARK SMILES IDX 83 44 31 45 86 46 80 47 79 48 32 50 66 51 45 52 65 53 46 54
REMARK SMILES IDX 49 55 64 56 84 57 47 58 48 59 63 61 85 62 50 63 33 64 34 65
REMARK SMILES IDX 43 66 35 67 36 68 42 69 44 70 37 71 38 72 39 73 40 74 41 75
REMARK SMILES IDX 67 76 68 77 77 78 69 79 70 80 76 81 78 82 71 83 72 84 73 85
REMARK SMILES IDX 74 86 75 87 51 88 52 89 61 90 53 91 54 92 60 93 62 94 55 95
REMARK SMILES IDX 56 96 57 97 58 98 59 99
REMARK H PARENT 9 16 83 49 49 60
REMARK Flexibility Score: inf
ROOT
ATOM      1  C   UNL     1       6.325   5.156   5.756  1.00  0.00     0.275 C 
ENDROOT
BRANCH   1   2
ATOM      2  O   UNL     1       5.308   4.880   4.774  1.00  0.00    -0.458 OA
BRANCH   2   3
ATOM      3  C   UNL     1       4.507   5.915   4.411  1.00  0.00     0.338 C 
ATOM      4  O   UNL     1       4.359   6.960   5.026  1.00  0.00    -0.246 OA
BRANCH   3   5
ATOM      5  C   UNL     1       3.937   5.670   3.051  1.00  0.00     0.061 A 
ATOM      6  C   UNL     1       2.856   6.570   1.054  1.00  0.00     0.107 A 
ATOM      7  C   UNL     1       3.257   6.708   2.401  1.00  0.00     0.039 A 
ATOM      8  C   UNL     1       3.229   5.437   0.330  1.00  0.00     0.061 A 
ATOM      9  C   UNL     1       3.847   4.375   1.001  1.00  0.00     0.023 A 
ATOM     10  Cl  UNL     1       2.957   5.239  -1.361  1.00  0.00    -0.083 Cl
ATOM     11  C   UNL     1       4.174   4.479   2.357  1.00  0.00     0.017 A 
BRANCH   6  12
ATOM     12  S   UNL     1       1.756   7.809   0.410  1.00  0.00     0.265 S 
ATOM     13  O   UNL     1       2.512   8.559  -0.570  1.00  0.00    -0.201 OA
ATOM     14  O   UNL     1       1.167   8.482   1.551  1.00  0.00    -0.201 OA
BRANCH  12  15
ATOM     15  N   UNL     1       0.486   7.102  -0.405  1.00  0.00    -0.255 N 
ATOM     16  H   UNL     1       0.100   7.584  -1.171  1.00  0.00     0.182 HD
BRANCH  15  17
ATOM     17  C   UNL     1      -0.065   5.854  -0.061  1.00  0.00     0.197 A 
ATOM     18  C   UNL     1       0.725  -0.138   0.025  1.00  0.00     0.044 C 
ATOM     19  C   UNL     1       0.122   1.224  -0.168  1.00  0.00    -0.049 A 
ATOM     20  C   UNL     1      -0.662   1.506  -1.292  1.00  0.00     0.009 A 
ATOM     21  C   UNL     1       0.381   2.229   0.772  1.00  0.00     0.024 A 
ATOM     22  C   UNL     1      -1.121   2.810  -1.572  1.00  0.00    -0.024 A 
ATOM     23  C   UNL     1      -0.037   3.531   0.471  1.00  0.00     0.057 A 
ATOM     24  C   UNL     1      -1.976   3.061  -2.780  1.00  0.00     0.047 C 
ATOM     25  C   UNL     1      -0.680   3.853  -0.725  1.00  0.00     0.087 A 
ATOM     26  S   UNL     1       0.107   4.982   1.396  1.00  0.00    -0.096 S 
ATOM     27  N   UNL     1      -0.737   5.216  -0.991  1.00  0.00    -0.219 NA
ENDBRANCH  15  17
ENDBRANCH  12  15
ENDBRANCH   6  12
ENDBRANCH   3   5
ENDBRANCH   2   3
ENDBRANCH   1   2
BRANCH   1  28
ATOM     28  C   UNL     1       7.631   5.530   5.066  1.00  0.00     0.275 C 
BRANCH  28  29
ATOM     29  O   UNL     1       7.548   6.858   4.551  1.00  0.00    -0.458 OA
BRANCH  29  30
ATOM     30  C   UNL     1       7.204   6.951   3.248  1.00  0.00     0.338 C 
ATOM     31  O   UNL     1       6.767   6.060   2.539  1.00  0.00    -0.246 OA
BRANCH  30  32
ATOM     32  C   UNL     1       7.646   8.245   2.723  1.00  0.00     0.060 A 
ATOM     33  C   UNL     1       7.376   8.501   1.376  1.00  0.00     0.016 A 
ATOM     34  C   UNL     1       8.587   8.988   3.450  1.00  0.00     0.016 A 
ATOM     35  C   UNL     1       8.225   9.344   0.696  1.00  0.00     0.010 A 
ATOM     36  C   UNL     1       9.433   9.828   2.768  1.00  0.00     0.010 A 
ATOM     37  C   UNL     1       9.305   9.908   1.386  1.00  0.00    -0.014 A 
BRANCH  37  38
ATOM     38  C   UNL     1      10.309  10.605   0.612  1.00  0.00     0.031 A 
ATOM     39  C   UNL     1       9.821  11.869   0.018  1.00  0.00     0.074 A 
ATOM     40  C   UNL     1      11.583  10.174   0.543  1.00  0.00     0.049 A 
ATOM     41  N   UNL     1       9.662  12.156  -1.230  1.00  0.00    -0.248 NA
ATOM     42  C   UNL     1       9.286  12.878   0.947  1.00  0.00     0.031 C 
ATOM     43  C   UNL     1      12.240   9.110   1.310  1.00  0.00     0.029 A 
ATOM     44  N   UNL     1      12.604  10.689  -0.185  1.00  0.00    -0.354 N 
ATOM     45  C   UNL     1       9.199  13.467  -1.251  1.00  0.00     0.074 A 
ATOM     46  C   UNL     1       8.821  13.795   0.100  1.00  0.00     0.031 C 
ATOM     47  C   UNL     1      13.582   9.231   1.181  1.00  0.00     0.029 A 
ATOM     48  C   UNL     1      13.867  10.279   0.216  1.00  0.00     0.049 A 
ATOM     49  H   UNL     1      12.460  11.305  -0.939  1.00  0.00     0.167 HD
ATOM     50  C   UNL     1       9.380  14.274  -2.330  1.00  0.00     0.037 A 
ATOM     51  C   UNL     1      15.038  10.848  -0.169  1.00  0.00     0.037 A 
ATOM     52  C   UNL     1       9.684  13.524  -3.519  1.00  0.00     0.049 A 
ATOM     53  C   UNL     1      14.755  11.611  -1.418  1.00  0.00     0.074 A 
ATOM     54  C   UNL     1       9.011  12.569  -4.256  1.00  0.00     0.029 A 
ATOM     55  N   UNL     1      11.000  13.431  -3.903  1.00  0.00    -0.354 N 
ATOM     56  N   UNL     1      14.414  11.056  -2.549  1.00  0.00    -0.248 NA
ATOM     57  C   UNL     1      14.401  13.017  -1.283  1.00  0.00     0.031 C 
ATOM     58  C   UNL     1      10.014  11.643  -4.670  1.00  0.00     0.029 A 
ATOM     59  C   UNL     1      11.243  12.112  -4.203  1.00  0.00     0.049 A 
ATOM     60  H   UNL     1      11.647  14.170  -3.954  1.00  0.00     0.167 HD
ATOM     61  C   UNL     1      13.460  11.906  -3.094  1.00  0.00     0.074 A 
ATOM     62  C   UNL     1      13.549  13.132  -2.304  1.00  0.00     0.031 C 
ATOM     63  C   UNL     1      12.501  11.443  -3.949  1.00  0.00     0.037 A 
BRANCH  50  64
ATOM     64  C   UNL     1       9.621  15.753  -2.205  1.00  0.00     0.058 A 
ATOM     65  C   UNL     1       9.506  16.583  -3.333  1.00  0.00     0.135 A 
ATOM     66  C   UNL     1      10.220  16.339  -1.065  1.00  0.00     0.135 A 
ATOM     67  F   UNL     1       8.975  16.114  -4.473  1.00  0.00    -0.206 F 
ATOM     68  C   UNL     1       9.995  17.890  -3.343  1.00  0.00     0.059 A 
ATOM     69  C   UNL     1      10.660  17.655  -1.034  1.00  0.00     0.059 A 
ATOM     70  F   UNL     1      10.499  15.630   0.037  1.00  0.00    -0.206 F 
ATOM     71  C   UNL     1      10.581  18.411  -2.191  1.00  0.00     0.060 A 
BRANCH  71  72
ATOM     72  S   UNL     1      11.320  20.052  -2.236  1.00  0.00     0.124 S 
ATOM     73  O   UNL     1      12.450  19.836  -3.132  1.00  0.00    -0.237 OA
ATOM     74  O   UNL     1      10.227  20.860  -2.768  1.00  0.00    -0.237 OA
ATOM     75  O   UNL     1      11.659  20.308  -0.840  1.00  0.00    -0.744 OA
ENDBRANCH  71  72
ENDBRANCH  50  64
BRANCH  51  76
ATOM     76  C   UNL     1      16.221  11.153   0.684  1.00  0.00     0.058 A 
ATOM     77  C   UNL     1      17.419  11.605   0.103  1.00  0.00     0.135 A 
ATOM     78  C   UNL     1      16.106  11.318   2.080  1.00  0.00     0.135 A 
ATOM     79  F   UNL     1      17.609  11.495  -1.221  1.00  0.00    -0.206 F 
ATOM     80  C   UNL     1      18.411  12.254   0.846  1.00  0.00     0.059 A 
ATOM     81  C   UNL     1      17.086  11.953   2.842  1.00  0.00     0.059 A 
ATOM     82  F   UNL     1      14.992  10.956   2.733  1.00  0.00    -0.206 F 
ATOM     83  C   UNL     1      18.220  12.451   2.213  1.00  0.00     0.060 A 
BRANCH  83  84
ATOM     84  S   UNL     1      19.396  13.470   3.134  1.00  0.00     0.124 S 
ATOM     85  O   UNL     1      20.599  12.645   3.104  1.00  0.00    -0.237 OA
ATOM     86  O   UNL     1      19.438  14.688   2.332  1.00  0.00    -0.237 OA
ATOM     87  O   UNL     1      18.769  13.611   4.445  1.00  0.00    -0.744 OA
ENDBRANCH  83  84
ENDBRANCH  51  76
BRANCH  63  88
ATOM     88  C   UNL     1      12.653  10.042  -4.489  1.00  0.00     0.058 A 
ATOM     89  C   UNL     1      12.598   8.878  -3.700  1.00  0.00     0.135 A 
ATOM     90  C   UNL     1      12.723   9.866  -5.878  1.00  0.00     0.135 A 
ATOM     91  F   UNL     1      12.425   8.953  -2.373  1.00  0.00    -0.206 F 
ATOM     92  C   UNL     1      12.660   7.601  -4.262  1.00  0.00     0.059 A 
ATOM     93  C   UNL     1      12.755   8.602  -6.463  1.00  0.00     0.059 A 
ATOM     94  F   UNL     1      12.714  10.935  -6.691  1.00  0.00    -0.206 F 
ATOM     95  C   UNL     1      12.739   7.473  -5.648  1.00  0.00     0.060 A 
BRANCH  95  96
ATOM     96  S   UNL     1      12.764   5.821  -6.379  1.00  0.00     0.124 S 
ATOM     97  O   UNL     1      14.069   5.318  -5.963  1.00  0.00    -0.237 OA
ATOM     98  O   UNL     1      11.611   5.179  -5.754  1.00  0.00    -0.237 OA
ATOM     99  O   UNL     1      12.623   6.077  -7.811  1.00  0.00    -0.744 OA
ENDBRANCH  95  96
ENDBRANCH  63  88
ENDBRANCH  37  38
ENDBRANCH  30  32
ENDBRANCH  29  30
ENDBRANCH  28  29
ENDBRANCH   1  28
TORSDOF 17
