REMARK SMILES Cc1c(C(=O)OCCOC(=O)c2ccc(-c3c4nc(c(-c5c(F)cc(S(=O)(=O)[O-])cc5F)c5ccc([nH]5)c(-c5c(F)cc(S(=O)(=O)[O-])cc5F)c5nc(c(-c6c(F)cc(S(=O)(=O)[O-])cc6F)c6ccc3[nH]6)C=C5)C=C4)cc2)cnn1[C@H]1CCS(=O)(=O)C1
REMARK SMILES IDX 8 1 7 2 6 3 4 4 5 5 3 6 1 7 2 8 80 9 78 10 79 11 81 12 82 13
REMARK SMILES IDX 87 14 83 15 84 16 85 17 86 18 9 19 10 20 11 21 12 22 13 23
REMARK SMILES IDX 77 24 14 25 76 26 15 27 16 28 17 29 70 30 18 31 75 32 69 33
REMARK SMILES IDX 71 34 19 35 74 36 68 37 67 38 20 40 54 41 33 42 53 43 34 44
REMARK SMILES IDX 37 45 52 46 72 47 35 48 36 49 51 51 73 52 38 53 21 54 22 55
REMARK SMILES IDX 31 56 23 57 24 58 30 59 32 60 25 61 26 62 27 63 28 64 29 65
REMARK SMILES IDX 55 66 56 67 65 68 57 69 58 70 64 71 66 72 59 73 60 74 61 75
REMARK SMILES IDX 62 76 63 77 39 78 40 79 49 80 41 81 42 82 48 83 50 84 43 85
REMARK SMILES IDX 44 86 45 87 46 88 47 89
REMARK H PARENT 71 39 37 50
REMARK Flexibility Score: inf
ROOT
ATOM      1  C   UNL     1      -1.351  -1.864   9.893  1.00  0.00     0.275 C 
ENDROOT
BRANCH   1   2
ATOM      2  C   UNL     1      -2.718  -1.484   9.332  1.00  0.00     0.275 C 
BRANCH   2   3
ATOM      3  O   UNL     1      -2.737  -1.511   7.894  1.00  0.00    -0.458 OA
BRANCH   3   4
ATOM      4  C   UNL     1      -2.404  -0.330   7.293  1.00  0.00     0.341 C 
ATOM      5  O   UNL     1      -2.321   0.740   7.894  1.00  0.00    -0.246 OA
BRANCH   4   6
ATOM      6  C   UNL     1      -2.106  -0.464   5.877  1.00  0.00     0.100 A 
ATOM      7  C   UNL     1      -0.337   1.389   5.688  1.00  0.00     0.067 C 
ATOM      8  C   UNL     1      -1.232   0.334   5.135  1.00  0.00     0.050 A 
ATOM      9  N   UNL     1      -1.285  -0.148   3.844  1.00  0.00    -0.265 N 
ATOM     10  C   UNL     1      -2.531  -1.451   4.976  1.00  0.00     0.151 A 
ATOM     11  N   UNL     1      -2.080  -1.242   3.740  1.00  0.00    -0.180 NA
BRANCH   9  12
ATOM     12  C   UNL     1      -0.688   0.295   2.590  1.00  0.00     0.123 C 
ATOM     13  C   UNL     1      -1.776   0.712   1.575  1.00  0.00     0.044 C 
ATOM     14  C   UNL     1       0.272   1.472   2.622  1.00  0.00     0.164 C 
ATOM     15  C   UNL     1      -1.078   1.287   0.349  1.00  0.00     0.139 C 
ATOM     16  S   UNL     1       0.471   1.944   0.925  1.00  0.00     0.152 S 
ATOM     17  O   UNL     1       1.544   1.163   0.347  1.00  0.00    -0.229 OA
ATOM     18  O   UNL     1       0.428   3.388   0.840  1.00  0.00    -0.229 OA
ENDBRANCH   9  12
ENDBRANCH   4   6
ENDBRANCH   3   4
ENDBRANCH   2   3
ENDBRANCH   1   2
BRANCH   1  19
ATOM     19  O   UNL     1      -0.355  -0.865   9.660  1.00  0.00    -0.458 OA
BRANCH  19  20
ATOM     20  C   UNL     1       0.390  -1.081   8.553  1.00  0.00     0.338 C 
ATOM     21  O   UNL     1       0.068  -1.740   7.578  1.00  0.00    -0.246 OA
BRANCH  20  22
ATOM     22  C   UNL     1       1.757  -0.587   8.754  1.00  0.00     0.060 A 
ATOM     23  C   UNL     1       2.619  -0.650   7.655  1.00  0.00     0.016 A 
ATOM     24  C   UNL     1       2.233  -0.322  10.046  1.00  0.00     0.016 A 
ATOM     25  C   UNL     1       3.978  -0.581   7.871  1.00  0.00     0.010 A 
ATOM     26  C   UNL     1       3.595  -0.253  10.260  1.00  0.00     0.010 A 
ATOM     27  C   UNL     1       4.454  -0.452   9.181  1.00  0.00    -0.014 A 
BRANCH  27  28
ATOM     28  C   UNL     1       5.892  -0.503   9.366  1.00  0.00     0.031 A 
ATOM     29  C   UNL     1       6.632   0.634   8.764  1.00  0.00     0.074 A 
ATOM     30  C   UNL     1       6.492  -1.460  10.098  1.00  0.00     0.049 A 
ATOM     31  N   UNL     1       7.530   0.606   7.835  1.00  0.00    -0.248 NA
ATOM     32  C   UNL     1       6.218   1.990   9.159  1.00  0.00     0.031 C 
ATOM     33  C   UNL     1       5.870  -2.459  10.972  1.00  0.00     0.029 A 
ATOM     34  N   UNL     1       7.820  -1.655  10.306  1.00  0.00    -0.354 N 
ATOM     35  C   UNL     1       7.939   1.926   7.663  1.00  0.00     0.074 A 
ATOM     36  C   UNL     1       6.997   2.742   8.383  1.00  0.00     0.031 C 
ATOM     37  C   UNL     1       6.815  -2.972  11.791  1.00  0.00     0.029 A 
ATOM     38  C   UNL     1       8.110  -2.426  11.419  1.00  0.00     0.049 A 
ATOM     39  H   UNL     1       8.514  -1.281   9.717  1.00  0.00     0.167 HD
ATOM     40  C   UNL     1       9.143   2.242   7.113  1.00  0.00     0.037 A 
ATOM     41  C   UNL     1       9.310  -2.500  12.048  1.00  0.00     0.037 A 
ATOM     42  C   UNL     1       9.687   1.145   6.356  1.00  0.00     0.049 A 
ATOM     43  C   UNL     1      10.347  -2.046  11.077  1.00  0.00     0.074 A 
ATOM     44  C   UNL     1       9.240   0.409   5.274  1.00  0.00     0.029 A 
ATOM     45  N   UNL     1      10.708   0.408   6.907  1.00  0.00    -0.354 N 
ATOM     46  N   UNL     1      10.663  -2.696   9.988  1.00  0.00    -0.248 NA
ATOM     47  C   UNL     1      10.708  -0.635  11.079  1.00  0.00     0.031 C 
ATOM     48  C   UNL     1       9.659  -0.927   5.538  1.00  0.00     0.029 A 
ATOM     49  C   UNL     1      10.377  -0.913   6.735  1.00  0.00     0.049 A 
ATOM     50  H   UNL     1      11.520   0.759   7.340  1.00  0.00     0.167 HD
ATOM     51  C   UNL     1      10.872  -1.714   9.029  1.00  0.00     0.074 A 
ATOM     52  C   UNL     1      10.972  -0.466   9.780  1.00  0.00     0.031 C 
ATOM     53  C   UNL     1      10.668  -1.952   7.698  1.00  0.00     0.037 A 
BRANCH  40  54
ATOM     54  C   UNL     1       9.969   3.429   7.541  1.00  0.00     0.058 A 
ATOM     55  C   UNL     1      11.109   3.792   6.796  1.00  0.00     0.135 A 
ATOM     56  C   UNL     1       9.846   4.045   8.807  1.00  0.00     0.135 A 
ATOM     57  F   UNL     1      11.332   3.261   5.584  1.00  0.00    -0.206 F 
ATOM     58  C   UNL     1      12.091   4.643   7.305  1.00  0.00     0.059 A 
ATOM     59  C   UNL     1      10.782   4.939   9.309  1.00  0.00     0.059 A 
ATOM     60  F   UNL     1       8.865   3.732   9.663  1.00  0.00    -0.206 F 
ATOM     61  C   UNL     1      11.926   5.194   8.573  1.00  0.00     0.060 A 
BRANCH  61  62
ATOM     62  S   UNL     1      13.252   6.176   9.296  1.00  0.00     0.124 S 
ATOM     63  O   UNL     1      14.257   5.152   9.559  1.00  0.00    -0.237 OA
ATOM     64  O   UNL     1      13.557   7.113   8.220  1.00  0.00    -0.237 OA
ATOM     65  O   UNL     1      12.626   6.766  10.475  1.00  0.00    -0.744 OA
ENDBRANCH  61  62
ENDBRANCH  40  54
BRANCH  41  66
ATOM     66  C   UNL     1       9.533  -2.558  13.519  1.00  0.00     0.058 A 
ATOM     67  C   UNL     1      10.797  -2.851  14.058  1.00  0.00     0.135 A 
ATOM     68  C   UNL     1       8.567  -2.084  14.434  1.00  0.00     0.135 A 
ATOM     69  F   UNL     1      11.788  -3.274  13.260  1.00  0.00    -0.206 F 
ATOM     70  C   UNL     1      11.093  -2.659  15.414  1.00  0.00     0.059 A 
ATOM     71  C   UNL     1       8.832  -1.904  15.789  1.00  0.00     0.059 A 
ATOM     72  F   UNL     1       7.351  -1.691  14.027  1.00  0.00    -0.206 F 
ATOM     73  C   UNL     1      10.105  -2.171  16.270  1.00  0.00     0.060 A 
BRANCH  73  74
ATOM     74  S   UNL     1      10.516  -1.773  17.985  1.00  0.00     0.124 S 
ATOM     75  O   UNL     1      10.731  -3.097  18.558  1.00  0.00    -0.237 OA
ATOM     76  O   UNL     1      11.705  -0.942  17.831  1.00  0.00    -0.237 OA
ATOM     77  O   UNL     1       9.327  -1.072  18.464  1.00  0.00    -0.744 OA
ENDBRANCH  73  74
ENDBRANCH  41  66
BRANCH  53  78
ATOM     78  C   UNL     1      10.464  -3.373   7.236  1.00  0.00     0.058 A 
ATOM     79  C   UNL     1       9.392  -4.187   7.643  1.00  0.00     0.135 A 
ATOM     80  C   UNL     1      11.284  -3.866   6.208  1.00  0.00     0.135 A 
ATOM     81  F   UNL     1       8.492  -3.749   8.534  1.00  0.00    -0.206 F 
ATOM     82  C   UNL     1       9.173  -5.449   7.088  1.00  0.00     0.059 A 
ATOM     83  C   UNL     1      11.064  -5.108   5.616  1.00  0.00     0.059 A 
ATOM     84  F   UNL     1      12.284  -3.110   5.724  1.00  0.00    -0.206 F 
ATOM     85  C   UNL     1      10.014  -5.901   6.072  1.00  0.00     0.060 A 
BRANCH  85  86
ATOM     86  S   UNL     1       9.674  -7.497   5.298  1.00  0.00     0.124 S 
ATOM     87  O   UNL     1      10.081  -8.435   6.340  1.00  0.00    -0.237 OA
ATOM     88  O   UNL     1       8.240  -7.426   5.035  1.00  0.00    -0.237 OA
ATOM     89  O   UNL     1      10.518  -7.485   4.106  1.00  0.00    -0.744 OA
ENDBRANCH  85  86
ENDBRANCH  53  78
ENDBRANCH  27  28
ENDBRANCH  20  22
ENDBRANCH  19  20
ENDBRANCH   1  19
TORSDOF 15
