REMARK SMILES COc1ccc2c(c1)c(Cc1nc(-c3ccc(C(=O)OCCOC(=O)c4ccc(-c5c6nc(c(-c7c(F)cc(S(=O)(=O)[O-])cc7F)c7ccc([nH]7)c(-c7c(F)cc(S(=O)(=O)[O-])cc7F)c7nc(c(-c8c(F)cc(S(=O)(=O)[O-])cc8F)c8ccc5[nH]8)C=C7)C=C6)cc4)cc3)cs1)c(C)n2C(=O)c1ccc(Cl)cc1
REMARK SMILES IDX 21 1 20 2 18 3 19 4 17 5 14 6 15 7 93 8 16 9 92 10 13 11
REMARK SMILES IDX 11 12 12 13 95 14 94 15 10 16 9 17 3 18 4 19 8 20 5 21 7 22
REMARK SMILES IDX 6 23 98 24 96 25 97 26 2 27 1 28 99 29 100 30 101 31 102 32
REMARK SMILES IDX 107 33 103 34 106 35 104 36 105 37 22 38 23 39 24 40 25 41
REMARK SMILES IDX 26 42 27 43 91 44 28 45 90 46 29 47 30 48 31 49 84 50 32 51
REMARK SMILES IDX 89 52 83 53 85 54 33 55 88 56 82 57 81 58 34 60 68 61 47 62
REMARK SMILES IDX 67 63 48 64 51 65 66 66 86 67 49 68 50 69 65 71 87 72 52 73
REMARK SMILES IDX 35 74 36 75 45 76 37 77 38 78 44 79 46 80 39 81 40 82 41 83
REMARK SMILES IDX 42 84 43 85 69 86 70 87 79 88 71 89 72 90 78 91 80 92 73 93
REMARK SMILES IDX 74 94 75 95 76 96 77 97 53 98 54 99 63 100 55 101 56 102
REMARK SMILES IDX 62 103 64 104 57 105 58 106 59 107 60 108 61 109
REMARK H PARENT 85 59 51 70
REMARK Flexibility Score: inf
ROOT
ATOM      1  C   UNL     1      -3.691   1.550  -7.668  1.00  0.00     0.275 C 
ENDROOT
BRANCH   1   2
ATOM      2  O   UNL     1      -3.753   2.070  -6.315  1.00  0.00    -0.458 OA
BRANCH   2   3
ATOM      3  C   UNL     1      -2.603   2.007  -5.595  1.00  0.00     0.338 C 
ATOM      4  O   UNL     1      -1.544   1.545  -5.990  1.00  0.00    -0.246 OA
BRANCH   3   5
ATOM      5  C   UNL     1      -2.736   2.724  -4.291  1.00  0.00     0.060 A 
ATOM      6  C   UNL     1      -2.803   4.458  -2.045  1.00  0.00     0.001 A 
ATOM      7  C   UNL     1      -1.621   4.259  -2.746  1.00  0.00     0.011 A 
ATOM      8  C   UNL     1      -3.916   3.677  -2.391  1.00  0.00     0.011 A 
ATOM      9  C   UNL     1      -1.605   3.383  -3.829  1.00  0.00     0.016 A 
ATOM     10  C   UNL     1      -3.891   2.825  -3.524  1.00  0.00     0.016 A 
BRANCH   6  11
ATOM     11  C   UNL     1      -2.827   5.497  -1.022  1.00  0.00     0.081 A 
ATOM     12  C   UNL     1      -2.580   6.290   1.034  1.00  0.00     0.098 A 
ATOM     13  N   UNL     1      -2.939   5.227   0.329  1.00  0.00    -0.241 NA
ATOM     14  S   UNL     1      -2.403   7.737   0.110  1.00  0.00    -0.126 S 
ATOM     15  C   UNL     1      -2.616   6.829  -1.331  1.00  0.00     0.095 A 
BRANCH  12  16
ATOM     16  C   UNL     1      -2.248   6.285   2.527  1.00  0.00     0.105 C 
BRANCH  16  17
ATOM     17  C   UNL     1      -0.824   5.834   2.754  1.00  0.00    -0.012 A 
ATOM     18  C   UNL     1      -0.405   2.680   0.828  1.00  0.00     0.119 A 
ATOM     19  C   UNL     1       0.707   3.226   0.233  1.00  0.00     0.048 A 
ATOM     20  C   UNL     1      -1.004   3.419   1.828  1.00  0.00     0.057 A 
ATOM     21  C   UNL     1       1.465   4.261   0.833  1.00  0.00     0.031 A 
ATOM     22  C   UNL     1      -0.346   4.576   2.317  1.00  0.00     0.008 A 
ATOM     23  C   UNL     1       0.982   4.842   1.991  1.00  0.00     0.057 A 
ATOM     24  N   UNL     1       1.457   5.844   2.842  1.00  0.00    -0.280 N 
ATOM     25  C   UNL     1       0.282   6.561   3.199  1.00  0.00     0.028 A 
ATOM     26  C   UNL     1       0.257   7.898   3.857  1.00  0.00     0.065 C 
BRANCH  18  27
ATOM     27  O   UNL     1      -1.042   1.584   0.318  1.00  0.00    -0.497 OA
ATOM     28  C   UNL     1      -0.186   0.437   0.230  1.00  0.00     0.278 C 
ENDBRANCH  18  27
BRANCH  24  29
ATOM     29  C   UNL     1       2.812   6.149   3.229  1.00  0.00     0.262 C 
ATOM     30  O   UNL     1       2.988   7.201   3.853  1.00  0.00    -0.268 OA
BRANCH  29  31
ATOM     31  C   UNL     1       4.076   5.368   3.057  1.00  0.00     0.040 A 
ATOM     32  C   UNL     1       4.687   5.144   1.820  1.00  0.00     0.015 A 
ATOM     33  C   UNL     1       4.821   5.083   4.221  1.00  0.00     0.015 A 
ATOM     34  C   UNL     1       5.963   4.551   1.753  1.00  0.00     0.021 A 
ATOM     35  C   UNL     1       6.099   4.506   4.154  1.00  0.00     0.021 A 
ATOM     36  C   UNL     1       6.658   4.224   2.916  1.00  0.00     0.041 A 
ATOM     37  Cl  UNL     1       8.223   3.511   2.811  1.00  0.00    -0.084 Cl
ENDBRANCH  29  31
ENDBRANCH  24  29
ENDBRANCH  16  17
ENDBRANCH  12  16
ENDBRANCH   6  11
ENDBRANCH   3   5
ENDBRANCH   2   3
ENDBRANCH   1   2
BRANCH   1  38
ATOM     38  C   UNL     1      -4.096   2.629  -8.682  1.00  0.00     0.275 C 
BRANCH  38  39
ATOM     39  O   UNL     1      -2.970   3.489  -8.915  1.00  0.00    -0.458 OA
BRANCH  39  40
ATOM     40  C   UNL     1      -3.009   4.705  -8.305  1.00  0.00     0.338 C 
ATOM     41  O   UNL     1      -3.992   5.346  -8.030  1.00  0.00    -0.246 OA
BRANCH  40  42
ATOM     42  C   UNL     1      -1.650   4.923  -7.734  1.00  0.00     0.060 A 
ATOM     43  C   UNL     1      -0.506   4.320  -8.267  1.00  0.00     0.016 A 
ATOM     44  C   UNL     1      -1.586   5.542  -6.492  1.00  0.00     0.016 A 
ATOM     45  C   UNL     1       0.619   4.115  -7.454  1.00  0.00     0.010 A 
ATOM     46  C   UNL     1      -0.440   5.372  -5.714  1.00  0.00     0.010 A 
ATOM     47  C   UNL     1       0.612   4.524  -6.116  1.00  0.00    -0.014 A 
BRANCH  47  48
ATOM     48  C   UNL     1       1.806   4.308  -5.237  1.00  0.00     0.031 A 
ATOM     49  C   UNL     1       2.665   5.517  -5.339  1.00  0.00     0.074 A 
ATOM     50  C   UNL     1       2.192   3.291  -4.400  1.00  0.00     0.049 A 
ATOM     51  N   UNL     1       3.656   5.666  -6.154  1.00  0.00    -0.248 NA
ATOM     52  C   UNL     1       2.228   6.764  -4.691  1.00  0.00     0.031 C 
ATOM     53  C   UNL     1       1.478   2.091  -3.946  1.00  0.00     0.029 A 
ATOM     54  N   UNL     1       3.398   3.132  -3.725  1.00  0.00    -0.354 N 
ATOM     55  C   UNL     1       4.105   6.960  -5.951  1.00  0.00     0.074 A 
ATOM     56  C   UNL     1       3.048   7.648  -5.260  1.00  0.00     0.031 C 
ATOM     57  C   UNL     1       2.155   1.464  -2.946  1.00  0.00     0.029 A 
ATOM     58  C   UNL     1       3.475   2.065  -2.793  1.00  0.00     0.049 A 
ATOM     59  H   UNL     1       4.161   3.733  -3.885  1.00  0.00     0.167 HD
ATOM     60  C   UNL     1       5.414   7.285  -6.118  1.00  0.00     0.037 A 
ATOM     61  C   UNL     1       4.533   1.686  -1.977  1.00  0.00     0.037 A 
ATOM     62  C   UNL     1       6.123   6.249  -6.830  1.00  0.00     0.049 A 
ATOM     63  C   UNL     1       5.741   2.300  -2.534  1.00  0.00     0.074 A 
ATOM     64  C   UNL     1       6.002   5.667  -8.079  1.00  0.00     0.029 A 
ATOM     65  N   UNL     1       6.874   5.371  -6.086  1.00  0.00    -0.354 N 
ATOM     66  N   UNL     1       6.308   1.842  -3.607  1.00  0.00    -0.248 NA
ATOM     67  C   UNL     1       6.008   3.691  -2.209  1.00  0.00     0.031 C 
ATOM     68  C   UNL     1       6.267   4.279  -7.877  1.00  0.00     0.029 A 
ATOM     69  C   UNL     1       6.598   4.102  -6.537  1.00  0.00     0.049 A 
ATOM     70  H   UNL     1       7.496   5.608  -5.361  1.00  0.00     0.167 HD
ATOM     71  C   UNL     1       6.614   2.977  -4.329  1.00  0.00     0.074 A 
ATOM     72  C   UNL     1       6.503   4.089  -3.384  1.00  0.00     0.031 C 
ATOM     73  C   UNL     1       6.625   2.940  -5.690  1.00  0.00     0.037 A 
BRANCH  60  74
ATOM     74  C   UNL     1       6.109   8.354  -5.316  1.00  0.00     0.058 A 
ATOM     75  C   UNL     1       7.391   8.782  -5.706  1.00  0.00     0.135 A 
ATOM     76  C   UNL     1       5.675   8.804  -4.047  1.00  0.00     0.135 A 
ATOM     77  F   UNL     1       7.915   8.391  -6.879  1.00  0.00    -0.206 F 
ATOM     78  C   UNL     1       8.199   9.562  -4.878  1.00  0.00     0.059 A 
ATOM     79  C   UNL     1       6.434   9.635  -3.236  1.00  0.00     0.059 A 
ATOM     80  F   UNL     1       4.539   8.378  -3.481  1.00  0.00    -0.206 F 
ATOM     81  C   UNL     1       7.710   9.979  -3.642  1.00  0.00     0.060 A 
BRANCH  81  82
ATOM     82  S   UNL     1       8.777  10.914  -2.537  1.00  0.00     0.124 S 
ATOM     83  O   UNL     1       9.780   9.914  -2.190  1.00  0.00    -0.237 OA
ATOM     84  O   UNL     1       9.225  12.000  -3.401  1.00  0.00    -0.237 OA
ATOM     85  O   UNL     1       7.878  11.308  -1.457  1.00  0.00    -0.744 OA
ENDBRANCH  81  82
ENDBRANCH  60  74
BRANCH  61  86
ATOM     86  C   UNL     1       4.562   1.181  -0.548  1.00  0.00     0.058 A 
ATOM     87  C   UNL     1       5.581   0.584   0.209  1.00  0.00     0.135 A 
ATOM     88  C   UNL     1       3.597   1.767   0.244  1.00  0.00     0.135 A 
ATOM     89  F   UNL     1       6.708   0.179  -0.393  1.00  0.00    -0.206 F 
ATOM     90  C   UNL     1       5.534   0.501   1.637  1.00  0.00     0.059 A 
ATOM     91  C   UNL     1       3.434   1.626   1.622  1.00  0.00     0.059 A 
ATOM     92  F   UNL     1       2.983   2.774  -0.352  1.00  0.00    -0.206 F 
ATOM     93  C   UNL     1       4.426   0.993   2.335  1.00  0.00     0.060 A 
BRANCH  93  94
ATOM     94  S   UNL     1       4.338   1.088   4.151  1.00  0.00     0.124 S 
ATOM     95  O   UNL     1       3.687  -0.171   4.492  1.00  0.00    -0.237 OA
ATOM     96  O   UNL     1       5.734   1.212   4.551  1.00  0.00    -0.237 OA
ATOM     97  O   UNL     1       3.525   2.281   4.385  1.00  0.00    -0.744 OA
ENDBRANCH  93  94
ENDBRANCH  61  86
BRANCH  73  98
ATOM     98  C   UNL     1       6.450   1.582  -6.321  1.00  0.00     0.058 A 
ATOM     99  C   UNL     1       5.256   0.834  -6.280  1.00  0.00     0.135 A 
ATOM    100  C   UNL     1       7.515   1.041  -7.045  1.00  0.00     0.135 A 
ATOM    101  F   UNL     1       4.163   1.318  -5.678  1.00  0.00    -0.206 F 
ATOM    102  C   UNL     1       5.140  -0.414  -6.894  1.00  0.00     0.059 A 
ATOM    103  C   UNL     1       7.416  -0.189  -7.689  1.00  0.00     0.059 A 
ATOM    104  F   UNL     1       8.664   1.727  -7.157  1.00  0.00    -0.206 F 
ATOM    105  C   UNL     1       6.230  -0.918  -7.599  1.00  0.00     0.060 A 
BRANCH 105 106
ATOM    106  S   UNL     1       6.072  -2.506  -8.445  1.00  0.00     0.124 S 
ATOM    107  O   UNL     1       5.960  -3.442  -7.332  1.00  0.00    -0.237 OA
ATOM    108  O   UNL     1       4.862  -2.320  -9.241  1.00  0.00    -0.237 OA
ATOM    109  O   UNL     1       7.307  -2.603  -9.220  1.00  0.00    -0.744 OA
ENDBRANCH 105 106
ENDBRANCH  73  98
ENDBRANCH  47  48
ENDBRANCH  40  42
ENDBRANCH  39  40
ENDBRANCH  38  39
ENDBRANCH   1  38
TORSDOF 20
