REMARK SMILES CC(C)N1C[C@@]2(CCCN(c3ccc(C(=O)OCCOC(=O)c4ccc(-c5c6nc(c(-c7c(F)cc(S(=O)(=O)[O-])cc7F)c7ccc([nH]7)c(-c7c(F)cc(S(=O)(=O)[O-])cc7F)c7nc(c(-c8c(F)cc(S(=O)(=O)[O-])cc8F)c8ccc5[nH]8)C=C7)C=C6)cc4)cn3)C2)CCC1=O
REMARK SMILES IDX 19 1 18 2 17 3 15 4 16 5 14 6 11 7 12 8 90 9 13 10 89 11
REMARK SMILES IDX 10 12 4 13 5 14 94 15 6 16 93 17 95 18 7 19 91 20 92 21 8 22
REMARK SMILES IDX 9 23 2 24 1 25 3 26 20 27 21 28 22 29 23 30 24 31 88 32
REMARK SMILES IDX 25 33 87 34 26 35 27 36 28 37 81 38 29 39 86 40 80 41 82 42
REMARK SMILES IDX 30 43 85 44 79 45 78 46 31 48 65 49 44 50 64 51 45 52 48 53
REMARK SMILES IDX 63 54 83 55 46 56 47 57 62 59 84 60 49 61 32 62 33 63 42 64
REMARK SMILES IDX 34 65 35 66 41 67 43 68 36 69 37 70 38 71 39 72 40 73 66 74
REMARK SMILES IDX 67 75 76 76 68 77 69 78 75 79 77 80 70 81 71 82 72 83 73 84
REMARK SMILES IDX 74 85 50 86 51 87 60 88 52 89 53 90 59 91 61 92 54 93 55 94
REMARK SMILES IDX 56 95 57 96 58 97
REMARK H PARENT 82 47 48 58
REMARK Flexibility Score: inf
ROOT
ATOM      1  C   UNL     1      -6.878  -3.796  -5.457  1.00  0.00     0.275 C 
ENDROOT
BRANCH   1   2
ATOM      2  C   UNL     1      -7.710  -3.305  -4.270  1.00  0.00     0.275 C 
BRANCH   2   3
ATOM      3  O   UNL     1      -6.885  -2.804  -3.200  1.00  0.00    -0.458 OA
BRANCH   3   4
ATOM      4  C   UNL     1      -6.699  -3.658  -2.171  1.00  0.00     0.339 C 
ATOM      5  O   UNL     1      -7.151  -4.789  -2.054  1.00  0.00    -0.246 OA
BRANCH   4   6
ATOM      6  C   UNL     1      -5.900  -3.026  -1.127  1.00  0.00     0.078 A 
ATOM      7  C   UNL     1      -4.345  -1.999   0.922  1.00  0.00     0.128 A 
ATOM      8  C   UNL     1      -5.738  -1.899   0.977  1.00  0.00     0.048 A 
ATOM      9  N   UNL     1      -3.757  -2.638  -0.110  1.00  0.00    -0.238 NA
ATOM     10  C   UNL     1      -6.524  -2.396  -0.063  1.00  0.00     0.021 A 
ATOM     11  C   UNL     1      -4.526  -3.134  -1.107  1.00  0.00     0.129 A 
BRANCH   7  12
ATOM     12  N   UNL     1      -3.515  -1.359   1.822  1.00  0.00    -0.356 N 
ATOM     13  N   UNL     1      -0.886   1.151  -0.790  1.00  0.00    -0.340 N 
ATOM     14  C   UNL     1      -1.478   1.574   0.479  1.00  0.00     0.128 C 
ATOM     15  C   UNL     1      -1.710   0.948  -1.895  1.00  0.00     0.222 C 
ATOM     16  C   UNL     1      -2.735   0.790   0.892  1.00  0.00     0.006 C 
ATOM     17  C   UNL     1      -3.086   0.392  -1.592  1.00  0.00     0.101 C 
ATOM     18  O   UNL     1      -1.363   1.081  -3.066  1.00  0.00    -0.275 OA
ATOM     19  C   UNL     1      -3.345   1.464   2.159  1.00  0.00     0.012 C 
ATOM     20  C   UNL     1      -2.348  -0.677   1.247  1.00  0.00     0.127 C 
ATOM     21  C   UNL     1      -3.701   0.917  -0.306  1.00  0.00     0.020 C 
ATOM     22  C   UNL     1      -4.408   0.630   2.889  1.00  0.00     0.022 C 
ATOM     23  C   UNL     1      -3.971  -0.821   3.090  1.00  0.00     0.118 C 
BRANCH  13  24
ATOM     24  C   UNL     1       0.592   1.173  -0.868  1.00  0.00     0.078 C 
ATOM     25  C   UNL     1       1.164  -0.005  -0.067  1.00  0.00     0.031 C 
ATOM     26  C   UNL     1       1.217   1.157  -2.265  1.00  0.00     0.031 C 
ENDBRANCH  13  24
ENDBRANCH   7  12
ENDBRANCH   4   6
ENDBRANCH   3   4
ENDBRANCH   2   3
ENDBRANCH   1   2
BRANCH   1  27
ATOM     27  O   UNL     1      -6.115  -4.972  -5.126  1.00  0.00    -0.458 OA
BRANCH  27  28
ATOM     28  C   UNL     1      -4.848  -4.711  -4.733  1.00  0.00     0.338 C 
ATOM     29  O   UNL     1      -4.315  -3.619  -4.653  1.00  0.00    -0.246 OA
BRANCH  28  30
ATOM     30  C   UNL     1      -4.170  -5.928  -4.266  1.00  0.00     0.060 A 
ATOM     31  C   UNL     1      -4.139  -6.154  -2.894  1.00  0.00     0.016 A 
ATOM     32  C   UNL     1      -3.349  -6.663  -5.118  1.00  0.00     0.016 A 
ATOM     33  C   UNL     1      -3.180  -6.994  -2.349  1.00  0.00     0.010 A 
ATOM     34  C   UNL     1      -2.471  -7.610  -4.572  1.00  0.00     0.010 A 
ATOM     35  C   UNL     1      -2.335  -7.744  -3.176  1.00  0.00    -0.014 A 
BRANCH  35  36
ATOM     36  C   UNL     1      -1.285  -8.609  -2.565  1.00  0.00     0.031 A 
ATOM     37  C   UNL     1       0.167  -8.411  -2.926  1.00  0.00     0.074 A 
ATOM     38  C   UNL     1      -1.621  -9.539  -1.647  1.00  0.00     0.049 A 
ATOM     39  N   UNL     1       1.202  -9.159  -2.638  1.00  0.00    -0.248 NA
ATOM     40  C   UNL     1       0.498  -7.225  -3.734  1.00  0.00     0.031 C 
ATOM     41  C   UNL     1      -2.979  -9.800  -1.160  1.00  0.00     0.029 A 
ATOM     42  N   UNL     1      -0.847 -10.428  -0.943  1.00  0.00    -0.354 N 
ATOM     43  C   UNL     1       2.289  -8.575  -3.281  1.00  0.00     0.074 A 
ATOM     44  C   UNL     1       1.787  -7.412  -3.980  1.00  0.00     0.031 C 
ATOM     45  C   UNL     1      -2.935 -10.739  -0.205  1.00  0.00     0.029 A 
ATOM     46  C   UNL     1      -1.567 -11.226  -0.085  1.00  0.00     0.049 A 
ATOM     47  H   UNL     1       0.131 -10.488  -1.043  1.00  0.00     0.167 HD
ATOM     48  C   UNL     1       3.584  -8.974  -3.285  1.00  0.00     0.037 A 
ATOM     49  C   UNL     1      -1.186 -12.268   0.678  1.00  0.00     0.037 A 
ATOM     50  C   UNL     1       4.082 -10.095  -2.527  1.00  0.00     0.049 A 
ATOM     51  C   UNL     1       0.251 -12.704   0.643  1.00  0.00     0.074 A 
ATOM     52  C   UNL     1       5.377 -10.579  -2.453  1.00  0.00     0.029 A 
ATOM     53  N   UNL     1       3.311 -10.893  -1.692  1.00  0.00    -0.354 N 
ATOM     54  N   UNL     1       1.252 -12.189  -0.032  1.00  0.00    -0.248 NA
ATOM     55  C   UNL     1       0.607 -13.872   1.457  1.00  0.00     0.031 C 
ATOM     56  C   UNL     1       5.382 -11.691  -1.603  1.00  0.00     0.029 A 
ATOM     57  C   UNL     1       4.101 -11.870  -1.107  1.00  0.00     0.049 A 
ATOM     58  H   UNL     1       2.345 -10.780  -1.538  1.00  0.00     0.167 HD
ATOM     59  C   UNL     1       2.361 -12.963   0.287  1.00  0.00     0.074 A 
ATOM     60  C   UNL     1       1.910 -13.965   1.233  1.00  0.00     0.031 C 
ATOM     61  C   UNL     1       3.635 -12.858  -0.166  1.00  0.00     0.037 A 
BRANCH  48  62
ATOM     62  C   UNL     1       4.548  -8.223  -4.166  1.00  0.00     0.058 A 
ATOM     63  C   UNL     1       4.976  -6.918  -3.873  1.00  0.00     0.135 A 
ATOM     64  C   UNL     1       5.076  -8.837  -5.315  1.00  0.00     0.135 A 
ATOM     65  F   UNL     1       4.494  -6.275  -2.797  1.00  0.00    -0.206 F 
ATOM     66  C   UNL     1       5.866  -6.239  -4.702  1.00  0.00     0.059 A 
ATOM     67  C   UNL     1       5.990  -8.189  -6.142  1.00  0.00     0.059 A 
ATOM     68  F   UNL     1       4.706 -10.085  -5.645  1.00  0.00    -0.206 F 
ATOM     69  C   UNL     1       6.366  -6.883  -5.835  1.00  0.00     0.060 A 
BRANCH  69  70
ATOM     70  S   UNL     1       7.523  -5.992  -6.899  1.00  0.00     0.124 S 
ATOM     71  O   UNL     1       6.636  -5.043  -7.564  1.00  0.00    -0.237 OA
ATOM     72  O   UNL     1       8.457  -5.419  -5.935  1.00  0.00    -0.237 OA
ATOM     73  O   UNL     1       8.075  -7.039  -7.753  1.00  0.00    -0.744 OA
ENDBRANCH  69  70
ENDBRANCH  48  62
BRANCH  49  74
ATOM     74  C   UNL     1      -2.193 -12.997   1.496  1.00  0.00     0.058 A 
ATOM     75  C   UNL     1      -2.163 -12.950   2.897  1.00  0.00     0.135 A 
ATOM     76  C   UNL     1      -3.220 -13.742   0.891  1.00  0.00     0.135 A 
ATOM     77  F   UNL     1      -1.196 -12.262   3.524  1.00  0.00    -0.206 F 
ATOM     78  C   UNL     1      -3.106 -13.621   3.670  1.00  0.00     0.059 A 
ATOM     79  C   UNL     1      -4.192 -14.394   1.641  1.00  0.00     0.059 A 
ATOM     80  F   UNL     1      -3.303 -13.810  -0.447  1.00  0.00    -0.206 F 
ATOM     81  C   UNL     1      -4.120 -14.337   3.031  1.00  0.00     0.060 A 
BRANCH  81  82
ATOM     82  S   UNL     1      -5.370 -15.162   4.040  1.00  0.00     0.124 S 
ATOM     83  O   UNL     1      -4.624 -16.305   4.554  1.00  0.00    -0.237 OA
ATOM     84  O   UNL     1      -5.710 -14.130   5.015  1.00  0.00    -0.237 OA
ATOM     85  O   UNL     1      -6.423 -15.476   3.079  1.00  0.00    -0.744 OA
ENDBRANCH  81  82
ENDBRANCH  49  74
BRANCH  61  86
ATOM     86  C   UNL     1       4.635 -13.832   0.391  1.00  0.00     0.058 A 
ATOM     87  C   UNL     1       4.628 -15.188   0.029  1.00  0.00     0.135 A 
ATOM     88  C   UNL     1       5.621 -13.398   1.292  1.00  0.00     0.135 A 
ATOM     89  F   UNL     1       3.701 -15.655  -0.824  1.00  0.00    -0.206 F 
ATOM     90  C   UNL     1       5.538 -16.089   0.571  1.00  0.00     0.059 A 
ATOM     91  C   UNL     1       6.559 -14.276   1.824  1.00  0.00     0.059 A 
ATOM     92  F   UNL     1       5.679 -12.109   1.662  1.00  0.00    -0.206 F 
ATOM     93  C   UNL     1       6.498 -15.624   1.472  1.00  0.00     0.060 A 
BRANCH  93  94
ATOM     94  S   UNL     1       7.675 -16.801   2.170  1.00  0.00     0.124 S 
ATOM     95  O   UNL     1       6.844 -17.506   3.141  1.00  0.00    -0.237 OA
ATOM     96  O   UNL     1       8.077 -17.574   1.000  1.00  0.00    -0.237 OA
ATOM     97  O   UNL     1       8.714 -15.946   2.736  1.00  0.00    -0.744 OA
ENDBRANCH  93  94
ENDBRANCH  61  86
ENDBRANCH  35  36
ENDBRANCH  28  30
ENDBRANCH  27  28
ENDBRANCH   1  27
TORSDOF 16
