REMARK SMILES Cc1ccc(S(=O)(=O)Nc2ccc(C(=O)CCC(=O)OCCOC(=O)c3ccc(-c4c5nc(c(-c6c(F)cc(S(=O)(=O)[O-])cc6F)c6ccc([nH]6)c(-c6c(F)cc(S(=O)(=O)[O-])cc6F)c6nc(c(-c7c(F)cc(S(=O)(=O)[O-])cc7F)c7ccc4[nH]7)C=C6)C=C5)cc3)cc2)c(C)c1
REMARK SMILES IDX 20 1 18 2 19 3 17 4 16 5 14 6 15 7 13 8 10 9 11 10 93 11
REMARK SMILES IDX 12 12 92 13 9 14 6 16 7 17 8 18 5 19 1 20 2 21 3 22 96 23
REMARK SMILES IDX 4 24 94 25 95 26 21 27 22 28 23 29 24 30 25 31 26 32 27 33
REMARK SMILES IDX 91 34 28 35 90 36 29 37 30 38 31 39 84 40 32 41 89 42 83 43
REMARK SMILES IDX 85 44 33 45 88 46 82 47 81 48 34 50 68 51 47 52 67 53 48 54
REMARK SMILES IDX 51 55 66 56 86 57 49 58 50 59 65 61 87 62 52 63 35 64 36 65
REMARK SMILES IDX 45 66 37 67 38 68 44 69 46 70 39 71 40 72 41 73 42 74 43 75
REMARK SMILES IDX 69 76 70 77 79 78 71 79 72 80 78 81 80 82 73 83 74 84 75 85
REMARK SMILES IDX 76 86 77 87 53 88 54 89 63 90 55 91 56 92 62 93 64 94 57 95
REMARK SMILES IDX 58 96 59 97 60 98 61 99
REMARK H PARENT 9 15 85 49 51 60
REMARK Flexibility Score: inf
ROOT
ATOM      1  O   UNL     1       2.207  -3.261   1.060  1.00  0.00    -0.462 OA
ENDROOT
BRANCH   1   2
ATOM      2  C   UNL     1       3.291  -3.174   0.259  1.00  0.00     0.306 C 
ATOM      3  O   UNL     1       3.596  -2.190  -0.401  1.00  0.00    -0.252 OA
BRANCH   2   4
ATOM      4  C   UNL     1       4.106  -4.449   0.277  1.00  0.00     0.131 C 
BRANCH   4   5
ATOM      5  C   UNL     1       3.427  -5.662   0.920  1.00  0.00     0.093 C 
BRANCH   5   6
ATOM      6  C   UNL     1       2.486  -6.355  -0.053  1.00  0.00     0.163 C 
ATOM      7  O   UNL     1       2.891  -7.225  -0.823  1.00  0.00    -0.294 OA
BRANCH   6   8
ATOM      8  C   UNL     1       1.089  -5.861  -0.207  1.00  0.00     0.018 A 
ATOM      9  C   UNL     1      -1.295  -4.454  -0.680  1.00  0.00     0.049 A 
ATOM     10  C   UNL     1      -0.580  -5.011  -1.741  1.00  0.00     0.027 A 
ATOM     11  C   UNL     1      -0.927  -4.787   0.622  1.00  0.00     0.027 A 
ATOM     12  C   UNL     1       0.611  -5.702  -1.510  1.00  0.00     0.014 A 
ATOM     13  C   UNL     1       0.280  -5.473   0.865  1.00  0.00     0.014 A 
BRANCH   9  14
ATOM     14  N   UNL     1      -2.414  -3.650  -1.025  1.00  0.00    -0.280 N 
ATOM     15  H   UNL     1      -3.004  -3.991  -1.736  1.00  0.00     0.180 HD
BRANCH  14  16
ATOM     16  S   UNL     1      -2.831  -2.174  -0.340  1.00  0.00     0.262 S 
ATOM     17  O   UNL     1      -2.742  -2.307   1.099  1.00  0.00    -0.201 OA
ATOM     18  O   UNL     1      -4.077  -1.812  -0.984  1.00  0.00    -0.201 OA
BRANCH  16  19
ATOM     19  C   UNL     1      -1.635  -0.920  -0.820  1.00  0.00     0.090 A 
ATOM     20  C   UNL     1       1.940   1.467  -0.658  1.00  0.00     0.044 C 
ATOM     21  C   UNL     1       0.649   0.720  -0.849  1.00  0.00    -0.051 A 
ATOM     22  C   UNL     1       0.587  -0.420  -1.656  1.00  0.00     0.005 A 
ATOM     23  C   UNL     1      -0.510   1.138  -0.193  1.00  0.00     0.008 A 
ATOM     24  C   UNL     1      -0.552  -1.242  -1.645  1.00  0.00     0.023 A 
ATOM     25  C   UNL     1      -1.668   0.337  -0.177  1.00  0.00    -0.030 A 
ATOM     26  C   UNL     1      -2.898   0.928   0.457  1.00  0.00     0.046 C 
ENDBRANCH  16  19
ENDBRANCH  14  16
ENDBRANCH   9  14
ENDBRANCH   6   8
ENDBRANCH   5   6
ENDBRANCH   4   5
ENDBRANCH   2   4
ENDBRANCH   1   2
BRANCH   1  27
ATOM     27  C   UNL     1       1.275  -2.173   1.020  1.00  0.00     0.274 C 
BRANCH  27  28
ATOM     28  C   UNL     1       0.402  -2.130   2.272  1.00  0.00     0.275 C 
BRANCH  28  29
ATOM     29  O   UNL     1       1.206  -1.736   3.375  1.00  0.00    -0.458 OA
BRANCH  29  30
ATOM     30  C   UNL     1       1.995  -2.725   3.847  1.00  0.00     0.338 C 
ATOM     31  O   UNL     1       1.920  -3.929   3.666  1.00  0.00    -0.246 OA
BRANCH  30  32
ATOM     32  C   UNL     1       3.123  -2.033   4.441  1.00  0.00     0.060 A 
ATOM     33  C   UNL     1       4.380  -2.142   3.840  1.00  0.00     0.016 A 
ATOM     34  C   UNL     1       2.887  -1.236   5.560  1.00  0.00     0.016 A 
ATOM     35  C   UNL     1       5.452  -1.489   4.420  1.00  0.00     0.010 A 
ATOM     36  C   UNL     1       3.953  -0.571   6.125  1.00  0.00     0.010 A 
ATOM     37  C   UNL     1       5.237  -0.739   5.582  1.00  0.00    -0.014 A 
BRANCH  37  38
ATOM     38  C   UNL     1       6.377  -0.238   6.356  1.00  0.00     0.031 A 
ATOM     39  C   UNL     1       6.729  -0.963   7.617  1.00  0.00     0.074 A 
ATOM     40  C   UNL     1       7.007   0.870   5.942  1.00  0.00     0.049 A 
ATOM     41  N   UNL     1       7.581  -0.637   8.546  1.00  0.00    -0.248 NA
ATOM     42  C   UNL     1       5.991  -2.213   7.882  1.00  0.00     0.031 C 
ATOM     43  C   UNL     1       6.691   1.611   4.719  1.00  0.00     0.029 A 
ATOM     44  N   UNL     1       8.019   1.579   6.519  1.00  0.00    -0.354 N 
ATOM     45  C   UNL     1       7.471  -1.628   9.514  1.00  0.00     0.074 A 
ATOM     46  C   UNL     1       6.437  -2.540   9.084  1.00  0.00     0.031 C 
ATOM     47  C   UNL     1       7.487   2.689   4.648  1.00  0.00     0.029 A 
ATOM     48  C   UNL     1       8.332   2.726   5.836  1.00  0.00     0.049 A 
ATOM     49  H   UNL     1       8.479   1.295   7.342  1.00  0.00     0.167 HD
ATOM     50  C   UNL     1       8.185  -1.756  10.655  1.00  0.00     0.037 A 
ATOM     51  C   UNL     1       9.190   3.707   6.166  1.00  0.00     0.037 A 
ATOM     52  C   UNL     1       9.197  -0.808  11.042  1.00  0.00     0.049 A 
ATOM     53  C   UNL     1       9.974   3.549   7.437  1.00  0.00     0.074 A 
ATOM     54  C   UNL     1      10.005  -0.809  12.161  1.00  0.00     0.029 A 
ATOM     55  N   UNL     1       9.531   0.323  10.303  1.00  0.00    -0.354 N 
ATOM     56  N   UNL     1       9.885   2.602   8.345  1.00  0.00    -0.248 NA
ATOM     57  C   UNL     1      10.981   4.572   7.726  1.00  0.00     0.031 C 
ATOM     58  C   UNL     1      10.800   0.343  12.118  1.00  0.00     0.029 A 
ATOM     59  C   UNL     1      10.527   1.035  10.945  1.00  0.00     0.049 A 
ATOM     60  H   UNL     1       9.118   0.580   9.447  1.00  0.00     0.167 HD
ATOM     61  C   UNL     1      10.838   2.902   9.307  1.00  0.00     0.074 A 
ATOM     62  C   UNL     1      11.501   4.115   8.858  1.00  0.00     0.031 C 
ATOM     63  C   UNL     1      11.146   2.245  10.455  1.00  0.00     0.037 A 
BRANCH  50  64
ATOM     64  C   UNL     1       7.863  -2.928  11.543  1.00  0.00     0.058 A 
ATOM     65  C   UNL     1       8.115  -4.252  11.144  1.00  0.00     0.135 A 
ATOM     66  C   UNL     1       7.251  -2.733  12.792  1.00  0.00     0.135 A 
ATOM     67  F   UNL     1       8.677  -4.503   9.950  1.00  0.00    -0.206 F 
ATOM     68  C   UNL     1       7.730  -5.338  11.925  1.00  0.00     0.059 A 
ATOM     69  C   UNL     1       6.885  -3.804  13.604  1.00  0.00     0.059 A 
ATOM     70  F   UNL     1       6.977  -1.492  13.225  1.00  0.00    -0.206 F 
ATOM     71  C   UNL     1       7.107  -5.103  13.152  1.00  0.00     0.060 A 
BRANCH  71  72
ATOM     72  S   UNL     1       6.581  -6.521  14.139  1.00  0.00     0.124 S 
ATOM     73  O   UNL     1       5.418  -6.983  13.386  1.00  0.00    -0.237 OA
ATOM     74  O   UNL     1       7.753  -7.389  14.089  1.00  0.00    -0.237 OA
ATOM     75  O   UNL     1       6.291  -5.937  15.445  1.00  0.00    -0.744 OA
ENDBRANCH  71  72
ENDBRANCH  50  64
BRANCH  51  76
ATOM     76  C   UNL     1       9.337   4.878   5.265  1.00  0.00     0.058 A 
ATOM     77  C   UNL     1      10.475   5.036   4.464  1.00  0.00     0.135 A 
ATOM     78  C   UNL     1       8.294   5.806   5.111  1.00  0.00     0.135 A 
ATOM     79  F   UNL     1      11.496   4.172   4.571  1.00  0.00    -0.206 F 
ATOM     80  C   UNL     1      10.576   6.072   3.539  1.00  0.00     0.059 A 
ATOM     81  C   UNL     1       8.362   6.836   4.177  1.00  0.00     0.059 A 
ATOM     82  F   UNL     1       7.170   5.683   5.835  1.00  0.00    -0.206 F 
ATOM     83  C   UNL     1       9.509   6.961   3.396  1.00  0.00     0.060 A 
BRANCH  83  84
ATOM     84  S   UNL     1       9.616   8.245   2.130  1.00  0.00     0.124 S 
ATOM     85  O   UNL     1      10.597   9.152   2.713  1.00  0.00    -0.237 OA
ATOM     86  O   UNL     1      10.059   7.487   0.963  1.00  0.00    -0.237 OA
ATOM     87  O   UNL     1       8.250   8.755   2.053  1.00  0.00    -0.744 OA
ENDBRANCH  83  84
ENDBRANCH  51  76
BRANCH  63  88
ATOM     88  C   UNL     1      12.262   2.819  11.278  1.00  0.00     0.058 A 
ATOM     89  C   UNL     1      12.097   3.996  12.022  1.00  0.00     0.135 A 
ATOM     90  C   UNL     1      13.496   2.154  11.353  1.00  0.00     0.135 A 
ATOM     91  F   UNL     1      10.936   4.669  11.976  1.00  0.00    -0.206 F 
ATOM     92  C   UNL     1      13.132   4.514  12.790  1.00  0.00     0.059 A 
ATOM     93  C   UNL     1      14.534   2.637  12.139  1.00  0.00     0.059 A 
ATOM     94  F   UNL     1      13.695   1.016  10.668  1.00  0.00    -0.206 F 
ATOM     95  C   UNL     1      14.347   3.827  12.842  1.00  0.00     0.060 A 
BRANCH  95  96
ATOM     96  S   UNL     1      15.676   4.498  13.860  1.00  0.00     0.124 S 
ATOM     97  O   UNL     1      16.124   5.625  13.048  1.00  0.00    -0.237 OA
ATOM     98  O   UNL     1      14.979   4.843  15.095  1.00  0.00    -0.237 OA
ATOM     99  O   UNL     1      16.616   3.387  13.966  1.00  0.00    -0.744 OA
ENDBRANCH  95  96
ENDBRANCH  63  88
ENDBRANCH  37  38
ENDBRANCH  30  32
ENDBRANCH  29  30
ENDBRANCH  28  29
ENDBRANCH  27  28
ENDBRANCH   1  27
TORSDOF 20
