REMARK SMILES CCC(CC)([NH2+]CC(=O)Nc1ccc(C)cc1)C(=O)OCCOC(=O)c1ccc(-c2c3nc(c(-c4c(F)cc(S(=O)(=O)[O-])cc4F)c4ccc([nH]4)c(-c4c(F)cc(S(=O)(=O)[O-])cc4F)c4nc(c(-c5c(F)cc(S(=O)(=O)[O-])cc5F)c5ccc2[nH]5)C=C4)C=C3)cc1
REMARK SMILES IDX 21 1 20 2 18 3 19 4 3 5 2 6 1 7 4 8 5 9 6 10 7 13 8 14 9 15
REMARK SMILES IDX 10 16 11 18 12 19 17 20 13 21 16 22 14 23 15 24 22 25 23 26
REMARK SMILES IDX 24 27 25 28 26 29 27 30 91 31 28 32 90 33 29 34 30 35 31 36
REMARK SMILES IDX 84 37 32 38 89 39 83 40 85 41 33 42 88 43 82 44 81 45 34 47
REMARK SMILES IDX 68 48 47 49 67 50 48 51 51 52 66 53 86 54 49 55 50 56 65 58
REMARK SMILES IDX 87 59 52 60 35 61 36 62 45 63 37 64 38 65 44 66 46 67 39 68
REMARK SMILES IDX 40 69 41 70 42 71 43 72 69 73 70 74 79 75 71 76 72 77 78 78
REMARK SMILES IDX 80 79 73 80 74 81 75 82 76 83 77 84 53 85 54 86 63 87 55 88
REMARK SMILES IDX 56 89 62 90 64 91 57 92 58 93 59 94 60 95 61 96
REMARK H PARENT 6 11 6 12 10 17 85 46 51 57
REMARK Flexibility Score: inf
ROOT
ATOM      1  C   UNL     1       4.731   4.189  -3.194  1.00  0.00     0.274 C 
ENDROOT
BRANCH   1   2
ATOM      2  O   UNL     1       2.998   3.672  -2.918  1.00  0.00    -0.457 OA
BRANCH   2   3
ATOM      3  C   UNL     1       1.654   4.190  -2.317  1.00  0.00     0.368 C 
ATOM      4  O   UNL     1       1.522   5.409  -2.093  1.00  0.00    -0.245 OA
BRANCH   3   5
ATOM      5  C   UNL     1       0.014   3.171  -2.221  1.00  0.00     0.194 C 
BRANCH   5   6
ATOM      6  C   UNL     1      -0.822   3.548  -0.866  1.00  0.00     0.077 C 
ATOM      7  C   UNL     1      -1.267   2.482   0.226  1.00  0.00     0.011 C 
ENDBRANCH   5   6
BRANCH   5   8
ATOM      8  C   UNL     1      -1.117   1.966  -3.016  1.00  0.00     0.077 C 
ATOM      9  C   UNL     1      -2.507   1.578  -2.492  1.00  0.00     0.011 C 
ENDBRANCH   5   8
BRANCH   5  10
ATOM     10  N   UNL     1      -0.207   3.874  -3.468  1.00  0.00    -0.324 N 
ATOM     11  H   UNL     1       0.064   4.854  -3.392  1.00  0.00     0.347 HD
ATOM     12  H   UNL     1      -1.184   3.890  -3.759  1.00  0.00     0.347 HD
BRANCH  10  13
ATOM     13  C   UNL     1       0.693   3.133  -4.419  1.00  0.00     0.363 C 
BRANCH  13  14
ATOM     14  C   UNL     1       1.694   1.756  -3.896  1.00  0.00     0.279 C 
ATOM     15  O   UNL     1       2.419   1.388  -4.841  1.00  0.00    -0.268 OA
ATOM     16  N   UNL     1       1.586   1.058  -2.376  1.00  0.00    -0.321 N 
ATOM     17  H   UNL     1       0.743   1.384  -1.986  1.00  0.00     0.170 HD
BRANCH  16  18
ATOM     18  C   UNL     1       2.428  -0.173  -0.966  1.00  0.00     0.041 A 
ATOM     19  C   UNL     1       1.862  -0.620   0.460  1.00  0.00     0.026 A 
ATOM     20  C   UNL     1       3.741  -0.545  -0.758  1.00  0.00     0.026 A 
ATOM     21  C   UNL     1       2.544  -0.800   1.687  1.00  0.00     0.005 A 
ATOM     22  C   UNL     1       4.460  -0.710   0.443  1.00  0.00     0.005 A 
ATOM     23  C   UNL     1       3.896  -0.724   1.677  1.00  0.00    -0.051 A 
ATOM     24  C   UNL     1       4.809  -0.702   2.840  1.00  0.00     0.044 C 
ENDBRANCH  16  18
ENDBRANCH  13  14
ENDBRANCH  10  13
ENDBRANCH   5  10
ENDBRANCH   3   5
ENDBRANCH   2   3
ENDBRANCH   1   2
BRANCH   1  25
ATOM     25  C   UNL     1       6.152   4.278  -1.805  1.00  0.00     0.275 C 
BRANCH  25  26
ATOM     26  O   UNL     1       5.855   3.381  -0.136  1.00  0.00    -0.458 OA
BRANCH  26  27
ATOM     27  C   UNL     1       4.431   2.328   0.287  1.00  0.00     0.338 C 
ATOM     28  O   UNL     1       4.380   2.046   1.483  1.00  0.00    -0.246 OA
BRANCH  27  29
ATOM     29  C   UNL     1       3.069   1.845  -0.987  1.00  0.00     0.060 A 
ATOM     30  C   UNL     1       1.355   1.486  -0.423  1.00  0.00     0.016 A 
ATOM     31  C   UNL     1       3.550   0.957  -2.501  1.00  0.00     0.016 A 
ATOM     32  C   UNL     1       0.356   0.032  -1.140  1.00  0.00     0.010 A 
ATOM     33  C   UNL     1       2.655  -0.456  -3.183  1.00  0.00     0.010 A 
ATOM     34  C   UNL     1       1.132  -1.004  -2.450  1.00  0.00    -0.014 A 
BRANCH  34  35
ATOM     35  C   UNL     1       1.362  -2.593  -2.494  1.00  0.00     0.031 A 
ATOM     36  C   UNL     1       1.356  -2.941  -3.971  1.00  0.00     0.074 A 
ATOM     37  C   UNL     1       2.560  -3.081  -1.965  1.00  0.00     0.049 A 
ATOM     38  N   UNL     1       2.379  -3.330  -4.655  1.00  0.00    -0.248 NA
ATOM     39  C   UNL     1       0.185  -2.682  -4.801  1.00  0.00     0.031 C 
ATOM     40  C   UNL     1       2.788  -3.530  -0.587  1.00  0.00     0.029 A 
ATOM     41  N   UNL     1       3.890  -2.878  -2.422  1.00  0.00    -0.354 N 
ATOM     42  C   UNL     1       2.032  -3.373  -5.990  1.00  0.00     0.074 A 
ATOM     43  C   UNL     1       0.675  -2.882  -6.035  1.00  0.00     0.031 C 
ATOM     44  C   UNL     1       4.114  -3.488  -0.296  1.00  0.00     0.029 A 
ATOM     45  C   UNL     1       4.887  -2.929  -1.455  1.00  0.00     0.049 A 
ATOM     46  H   UNL     1       4.094  -2.712  -3.371  1.00  0.00     0.167 HD
ATOM     47  C   UNL     1       2.911  -3.887  -6.897  1.00  0.00     0.037 A 
ATOM     48  C   UNL     1       6.207  -2.468  -1.380  1.00  0.00     0.037 A 
ATOM     49  C   UNL     1       4.062  -4.491  -6.246  1.00  0.00     0.049 A 
ATOM     50  C   UNL     1       6.723  -3.949  -1.567  1.00  0.00     0.074 A 
ATOM     51  C   UNL     1       5.434  -4.423  -6.347  1.00  0.00     0.029 A 
ATOM     52  N   UNL     1       3.786  -5.401  -5.242  1.00  0.00    -0.354 N 
ATOM     53  N   UNL     1       6.522  -4.602  -2.693  1.00  0.00    -0.248 NA
ATOM     54  C   UNL     1       6.678  -4.934  -0.427  1.00  0.00     0.031 C 
ATOM     55  C   UNL     1       5.967  -5.245  -5.320  1.00  0.00     0.029 A 
ATOM     56  C   UNL     1       4.918  -5.716  -4.544  1.00  0.00     0.049 A 
ATOM     57  H   UNL     1       2.894  -5.772  -5.054  1.00  0.00     0.167 HD
ATOM     58  C   UNL     1       5.752  -5.759  -2.362  1.00  0.00     0.074 A 
ATOM     59  C   UNL     1       6.021  -5.985  -0.961  1.00  0.00     0.031 C 
ATOM     60  C   UNL     1       4.808  -6.306  -3.213  1.00  0.00     0.037 A 
BRANCH  47  61
ATOM     61  C   UNL     1       2.743  -4.016  -8.388  1.00  0.00     0.058 A 
ATOM     62  C   UNL     1       3.457  -5.029  -9.075  1.00  0.00     0.135 A 
ATOM     63  C   UNL     1       1.985  -3.156  -9.201  1.00  0.00     0.135 A 
ATOM     64  F   UNL     1       4.192  -5.938  -8.417  1.00  0.00    -0.206 F 
ATOM     65  C   UNL     1       3.448  -5.162 -10.457  1.00  0.00     0.059 A 
ATOM     66  C   UNL     1       1.923  -3.303 -10.594  1.00  0.00     0.059 A 
ATOM     67  F   UNL     1       1.306  -2.126  -8.676  1.00  0.00    -0.206 F 
ATOM     68  C   UNL     1       2.675  -4.297 -11.214  1.00  0.00     0.060 A 
BRANCH  68  69
ATOM     69  S   UNL     1       2.692  -4.508 -13.003  1.00  0.00     0.124 S 
ATOM     70  O   UNL     1       4.076  -4.184 -13.333  1.00  0.00    -0.237 OA
ATOM     71  O   UNL     1       2.318  -5.912 -13.151  1.00  0.00    -0.237 OA
ATOM     72  O   UNL     1       1.696  -3.548 -13.469  1.00  0.00    -0.744 OA
ENDBRANCH  68  69
ENDBRANCH  47  61
BRANCH  48  73
ATOM     73  C   UNL     1       6.866  -0.887  -1.829  1.00  0.00     0.058 A 
ATOM     74  C   UNL     1       7.222   0.043  -0.863  1.00  0.00     0.135 A 
ATOM     75  C   UNL     1       6.286   0.034  -2.769  1.00  0.00     0.135 A 
ATOM     76  F   UNL     1       8.086  -0.296   0.115  1.00  0.00    -0.206 F 
ATOM     77  C   UNL     1       6.509   1.443  -0.722  1.00  0.00     0.059 A 
ATOM     78  C   UNL     1       5.926   1.678  -2.784  1.00  0.00     0.059 A 
ATOM     79  F   UNL     1       5.258  -0.602  -3.326  1.00  0.00    -0.206 F 
ATOM     80  C   UNL     1       5.406   2.333  -1.618  1.00  0.00     0.060 A 
BRANCH  80  81
ATOM     81  S   UNL     1       4.148   4.336  -0.775  1.00  0.00     0.124 S 
ATOM     82  O   UNL     1       4.798   4.966   0.418  1.00  0.00    -0.237 OA
ATOM     83  O   UNL     1       4.112   5.479  -1.700  1.00  0.00    -0.237 OA
ATOM     84  O   UNL     1       2.827   3.920  -0.303  1.00  0.00    -0.744 OA
ENDBRANCH  80  81
ENDBRANCH  48  73
BRANCH  60  85
ATOM     85  C   UNL     1       3.682  -7.359  -2.905  1.00  0.00     0.058 A 
ATOM     86  C   UNL     1       3.077  -7.612  -1.652  1.00  0.00     0.135 A 
ATOM     87  C   UNL     1       3.108  -8.133  -3.958  1.00  0.00     0.135 A 
ATOM     88  F   UNL     1       3.359  -6.853  -0.584  1.00  0.00    -0.206 F 
ATOM     89  C   UNL     1       2.135  -8.652  -1.438  1.00  0.00     0.059 A 
ATOM     90  C   UNL     1       2.137  -9.134  -3.780  1.00  0.00     0.059 A 
ATOM     91  F   UNL     1       3.480  -7.950  -5.233  1.00  0.00    -0.206 F 
ATOM     92  C   UNL     1       1.713  -9.445  -2.502  1.00  0.00     0.060 A 
BRANCH  92  93
ATOM     93  S   UNL     1       0.717 -10.935  -2.209  1.00  0.00     0.124 S 
ATOM     94  O   UNL     1       1.670 -11.790  -1.508  1.00  0.00    -0.237 OA
ATOM     95  O   UNL     1      -0.392 -10.434  -1.404  1.00  0.00    -0.237 OA
ATOM     96  O   UNL     1       0.356 -11.383  -3.552  1.00  0.00    -0.744 OA
ENDBRANCH  92  93
ENDBRANCH  60  85
ENDBRANCH  34  35
ENDBRANCH  27  29
ENDBRANCH  26  27
ENDBRANCH  25  26
ENDBRANCH   1  25
TORSDOF 20
