REMARK SMILES CC[NH+](CC)[C@](C)(C(=O)OCCOC(=O)c1ccc(-c2c3nc(c(-c4c(F)cc(S(=O)(=O)[O-])cc4F)c4ccc([nH]4)c(-c4c(F)cc(S(=O)(=O)[O-])cc4F)c4nc(c(-c5c(F)cc(S(=O)(=O)[O-])cc5F)c5ccc2[nH]5)C=C4)C=C3)cc1)c1cc(F)c(C)cc1F
REMARK SMILES IDX 12 1 11 2 10 3 8 4 9 5 6 6 7 7 3 8 2 10 1 11 4 12 5 13 82 14
REMARK SMILES IDX 83 15 89 16 84 17 88 18 90 19 85 20 86 21 87 22 13 23 14 24
REMARK SMILES IDX 15 25 16 26 17 27 81 28 18 29 80 30 19 31 20 32 21 33 74 34
REMARK SMILES IDX 22 35 79 36 73 37 75 38 23 39 78 40 72 41 71 42 24 44 58 45
REMARK SMILES IDX 37 46 57 47 38 48 41 49 56 50 76 51 39 52 40 53 55 55 77 56
REMARK SMILES IDX 42 57 25 58 26 59 35 60 27 61 28 62 34 63 36 64 29 65 30 66
REMARK SMILES IDX 31 67 32 68 33 69 59 70 60 71 69 72 61 73 62 74 68 75 70 76
REMARK SMILES IDX 63 77 64 78 65 79 66 80 67 81 43 82 44 83 53 84 45 85 46 86
REMARK SMILES IDX 52 87 54 88 47 89 48 90 49 91 50 92 51 93
REMARK H PARENT 3 9 75 43 41 54
REMARK Flexibility Score: inf
ROOT
ATOM      1  C   UNL     1       2.853   2.732   0.909  1.00  0.00     0.275 C 
ENDROOT
BRANCH   1   2
ATOM      2  C   UNL     1       3.069   1.484   0.067  1.00  0.00     0.274 C 
BRANCH   2   3
ATOM      3  O   UNL     1       2.314   0.376   0.607  1.00  0.00    -0.457 OA
BRANCH   3   4
ATOM      4  C   UNL     1       3.035  -0.678   1.099  1.00  0.00     0.373 C 
ATOM      5  O   UNL     1       4.256  -0.659   1.232  1.00  0.00    -0.244 OA
BRANCH   4   6
ATOM      6  C   UNL     1       2.132  -1.940   1.398  1.00  0.00     0.221 C 
ATOM      7  C   UNL     1       0.626  -1.629   1.206  1.00  0.00     0.098 C 
BRANCH   6   8
ATOM      8  N   UNL     1       2.531  -3.067   0.436  1.00  0.00    -0.318 N 
ATOM      9  H   UNL     1       3.537  -3.105   0.603  1.00  0.00     0.349 HD
BRANCH   8  10
ATOM     10  C   UNL     1       2.355  -2.824  -1.019  1.00  0.00     0.259 C 
ATOM     11  C   UNL     1       2.980  -1.604  -1.680  1.00  0.00     0.071 C 
ENDBRANCH   8  10
BRANCH   8  12
ATOM     12  C   UNL     1       1.863  -4.359   0.756  1.00  0.00     0.259 C 
ATOM     13  C   UNL     1       2.675  -5.557   0.260  1.00  0.00     0.071 C 
ENDBRANCH   8  12
ENDBRANCH   6   8
BRANCH   6  14
ATOM     14  C   UNL     1       2.450  -2.300   2.890  1.00  0.00     0.062 A 
ATOM     15  C   UNL     1       3.476  -3.209   3.228  1.00  0.00     0.053 A 
ATOM     16  C   UNL     1       1.783  -1.696   3.970  1.00  0.00     0.133 A 
ATOM     17  C   UNL     1       3.733  -3.560   4.558  1.00  0.00     0.126 A 
ATOM     18  C   UNL     1       2.049  -2.036   5.302  1.00  0.00     0.046 A 
ATOM     19  F   UNL     1       0.887  -0.723   3.762  1.00  0.00    -0.206 F 
ATOM     20  F   UNL     1       4.673  -4.481   4.808  1.00  0.00    -0.207 F 
ATOM     21  C   UNL     1       3.033  -2.977   5.612  1.00  0.00    -0.012 A 
ATOM     22  C   UNL     1       3.310  -3.355   7.037  1.00  0.00     0.047 C 
ENDBRANCH   6  14
ENDBRANCH   4   6
ENDBRANCH   3   4
ENDBRANCH   2   3
ENDBRANCH   1   2
BRANCH   1  23
ATOM     23  O   UNL     1       3.445   2.494   2.191  1.00  0.00    -0.458 OA
BRANCH  23  24
ATOM     24  C   UNL     1       2.697   2.815   3.266  1.00  0.00     0.338 C 
ATOM     25  O   UNL     1       1.653   3.452   3.272  1.00  0.00    -0.246 OA
BRANCH  24  26
ATOM     26  C   UNL     1       3.333   2.251   4.472  1.00  0.00     0.060 A 
ATOM     27  C   UNL     1       3.963   1.007   4.422  1.00  0.00     0.016 A 
ATOM     28  C   UNL     1       3.226   2.928   5.687  1.00  0.00     0.016 A 
ATOM     29  C   UNL     1       4.401   0.401   5.597  1.00  0.00     0.010 A 
ATOM     30  C   UNL     1       3.744   2.350   6.851  1.00  0.00     0.010 A 
ATOM     31  C   UNL     1       4.292   1.054   6.832  1.00  0.00    -0.014 A 
BRANCH  31  32
ATOM     32  C   UNL     1       4.656   0.359   8.102  1.00  0.00     0.031 A 
ATOM     33  C   UNL     1       3.645   0.263   9.221  1.00  0.00     0.074 A 
ATOM     34  C   UNL     1       5.859  -0.229   8.266  1.00  0.00     0.049 A 
ATOM     35  N   UNL     1       3.824  -0.069  10.474  1.00  0.00    -0.248 NA
ATOM     36  C   UNL     1       2.251   0.601   8.887  1.00  0.00     0.031 C 
ATOM     37  C   UNL     1       6.922  -0.294   7.261  1.00  0.00     0.029 A 
ATOM     38  N   UNL     1       6.384  -0.904   9.342  1.00  0.00    -0.354 N 
ATOM     39  C   UNL     1       2.593   0.113  11.096  1.00  0.00     0.074 A 
ATOM     40  C   UNL     1       1.667   0.557  10.077  1.00  0.00     0.031 C 
ATOM     41  C   UNL     1       7.940  -1.023   7.742  1.00  0.00     0.029 A 
ATOM     42  C   UNL     1       7.656  -1.382   9.126  1.00  0.00     0.049 A 
ATOM     43  H   UNL     1       5.896  -1.033  10.187  1.00  0.00     0.167 HD
ATOM     44  C   UNL     1       2.271  -0.062  12.400  1.00  0.00     0.037 A 
ATOM     45  C   UNL     1       8.521  -1.995   9.958  1.00  0.00     0.037 A 
ATOM     46  C   UNL     1       3.171  -0.591  13.393  1.00  0.00     0.049 A 
ATOM     47  C   UNL     1       8.141  -2.197  11.397  1.00  0.00     0.074 A 
ATOM     48  C   UNL     1       2.943  -0.798  14.743  1.00  0.00     0.029 A 
ATOM     49  N   UNL     1       4.460  -1.033  13.136  1.00  0.00    -0.354 N 
ATOM     50  N   UNL     1       7.022  -1.885  12.005  1.00  0.00    -0.248 NA
ATOM     51  C   UNL     1       9.155  -2.802  12.270  1.00  0.00     0.031 C 
ATOM     52  C   UNL     1       4.099  -1.353  15.305  1.00  0.00     0.029 A 
ATOM     53  C   UNL     1       5.035  -1.519  14.298  1.00  0.00     0.049 A 
ATOM     54  H   UNL     1       4.901  -1.005  12.256  1.00  0.00     0.167 HD
ATOM     55  C   UNL     1       7.203  -2.242  13.336  1.00  0.00     0.074 A 
ATOM     56  C   UNL     1       8.525  -2.826  13.437  1.00  0.00     0.031 C 
ATOM     57  C   UNL     1       6.357  -2.086  14.384  1.00  0.00     0.037 A 
BRANCH  44  58
ATOM     58  C   UNL     1       0.899   0.365  12.843  1.00  0.00     0.058 A 
ATOM     59  C   UNL     1      -0.251  -0.382  12.548  1.00  0.00     0.135 A 
ATOM     60  C   UNL     1       0.743   1.533  13.609  1.00  0.00     0.135 A 
ATOM     61  F   UNL     1      -0.161  -1.494  11.801  1.00  0.00    -0.206 F 
ATOM     62  C   UNL     1      -1.511   0.025  12.979  1.00  0.00     0.059 A 
ATOM     63  C   UNL     1      -0.503   1.946  14.070  1.00  0.00     0.059 A 
ATOM     64  F   UNL     1       1.811   2.286  13.917  1.00  0.00    -0.206 F 
ATOM     65  C   UNL     1      -1.627   1.192  13.738  1.00  0.00     0.060 A 
BRANCH  65  66
ATOM     66  S   UNL     1      -3.264   1.706  14.301  1.00  0.00     0.124 S 
ATOM     67  O   UNL     1      -3.825   2.275  13.080  1.00  0.00    -0.237 OA
ATOM     68  O   UNL     1      -3.855   0.446  14.742  1.00  0.00    -0.237 OA
ATOM     69  O   UNL     1      -2.972   2.662  15.364  1.00  0.00    -0.744 OA
ENDBRANCH  65  66
ENDBRANCH  44  58
BRANCH  45  70
ATOM     70  C   UNL     1       9.858  -2.408   9.456  1.00  0.00     0.058 A 
ATOM     71  C   UNL     1      10.174  -3.762   9.278  1.00  0.00     0.135 A 
ATOM     72  C   UNL     1      10.831  -1.457   9.111  1.00  0.00     0.135 A 
ATOM     73  F   UNL     1       9.283  -4.708   9.613  1.00  0.00    -0.206 F 
ATOM     74  C   UNL     1      11.405  -4.161   8.767  1.00  0.00     0.059 A 
ATOM     75  C   UNL     1      12.058  -1.829   8.573  1.00  0.00     0.059 A 
ATOM     76  F   UNL     1      10.574  -0.148   9.257  1.00  0.00    -0.206 F 
ATOM     77  C   UNL     1      12.338  -3.185   8.410  1.00  0.00     0.060 A 
BRANCH  77  78
ATOM     78  S   UNL     1      13.901  -3.696   7.662  1.00  0.00     0.124 S 
ATOM     79  O   UNL     1      14.686  -4.051   8.839  1.00  0.00    -0.237 OA
ATOM     80  O   UNL     1      13.493  -4.808   6.809  1.00  0.00    -0.237 OA
ATOM     81  O   UNL     1      14.333  -2.498   6.949  1.00  0.00    -0.744 OA
ENDBRANCH  77  78
ENDBRANCH  45  70
BRANCH  57  82
ATOM     82  C   UNL     1       6.839  -2.562  15.723  1.00  0.00     0.058 A 
ATOM     83  C   UNL     1       7.783  -1.831  16.461  1.00  0.00     0.135 A 
ATOM     84  C   UNL     1       6.349  -3.755  16.276  1.00  0.00     0.135 A 
ATOM     85  F   UNL     1       8.285  -0.687  15.971  1.00  0.00    -0.206 F 
ATOM     86  C   UNL     1       8.252  -2.285  17.689  1.00  0.00     0.059 A 
ATOM     87  C   UNL     1       6.790  -4.218  17.512  1.00  0.00     0.059 A 
ATOM     88  F   UNL     1       5.438  -4.484  15.613  1.00  0.00    -0.206 F 
ATOM     89  C   UNL     1       7.755  -3.485  18.203  1.00  0.00     0.060 A 
BRANCH  89  90
ATOM     90  S   UNL     1       8.373  -4.072  19.794  1.00  0.00     0.124 S 
ATOM     91  O   UNL     1       9.661  -4.642  19.416  1.00  0.00    -0.237 OA
ATOM     92  O   UNL     1       8.429  -2.846  20.585  1.00  0.00    -0.237 OA
ATOM     93  O   UNL     1       7.358  -5.034  20.215  1.00  0.00    -0.744 OA
ENDBRANCH  89  90
ENDBRANCH  57  82
ENDBRANCH  31  32
ENDBRANCH  24  26
ENDBRANCH  23  24
ENDBRANCH   1  23
TORSDOF 18
