REMARK SMILES NS(=O)(=O)c1ccc(-n2nc(C(=O)OCCOC(=O)c3ccc(-c4c5nc(c(-c6c(F)cc(S(=O)(=O)[O-])cc6F)c6ccc([nH]6)c(-c6c(F)cc(S(=O)(=O)[O-])cc6F)c6nc(c(-c7c(F)cc(S(=O)(=O)[O-])cc7F)c7ccc4[nH]7)C=C6)C=C5)cc3)cc2-c2cc3ccccc3s2)cc1
REMARK SMILES IDX 15 1 14 2 12 3 13 4 11 5 9 6 10 7 87 8 86 9 8 10 5 11 6 12
REMARK SMILES IDX 98 13 7 14 97 15 2 16 3 17 4 18 1 19 88 22 89 23 96 24 90 25
REMARK SMILES IDX 95 26 91 27 94 28 92 29 93 30 16 31 17 32 18 33 19 34 20 35
REMARK SMILES IDX 21 36 85 37 22 38 84 39 23 40 24 41 25 42 78 43 26 44 83 45
REMARK SMILES IDX 77 46 79 47 27 48 82 49 76 50 75 51 28 53 62 54 41 55 61 56
REMARK SMILES IDX 42 57 45 58 60 59 80 60 43 61 44 62 59 64 81 65 46 66 29 67
REMARK SMILES IDX 30 68 39 69 31 70 32 71 38 72 40 73 33 74 34 75 35 76 36 77
REMARK SMILES IDX 37 78 63 79 64 80 73 81 65 82 66 83 72 84 74 85 67 86 68 87
REMARK SMILES IDX 69 88 70 89 71 90 47 91 48 92 57 93 49 94 50 95 56 96 58 97
REMARK SMILES IDX 51 98 52 99 53 100 54 101 55 102
REMARK H PARENT 1 20 1 21 79 52 45 63
REMARK Flexibility Score: inf
ROOT
ATOM      1  C   UNL     1       0.618   8.243   9.353  1.00  0.00     0.275 C 
ENDROOT
BRANCH   1   2
ATOM      2  O   UNL     1       1.196   7.330   8.410  1.00  0.00    -0.457 OA
BRANCH   2   3
ATOM      3  C   UNL     1       0.360   6.844   7.430  1.00  0.00     0.358 C 
ATOM      4  O   UNL     1      -0.864   6.902   7.488  1.00  0.00    -0.244 OA
BRANCH   3   5
ATOM      5  C   UNL     1       1.122   6.242   6.327  1.00  0.00     0.171 A 
ATOM      6  N   UNL     1       1.593   4.913   4.726  1.00  0.00    -0.231 N 
ATOM      7  N   UNL     1       0.581   5.668   5.236  1.00  0.00    -0.160 NA
ATOM      8  C   UNL     1       2.714   4.979   5.524  1.00  0.00     0.085 A 
ATOM      9  C   UNL     1       2.525   6.117   6.286  1.00  0.00     0.068 A 
BRANCH   6  10
ATOM     10  C   UNL     1       1.363   4.147   3.568  1.00  0.00     0.065 A 
ATOM     11  C   UNL     1       0.814   2.690   1.275  1.00  0.00     0.082 A 
ATOM     12  C   UNL     1       1.252   2.030   2.430  1.00  0.00     0.024 A 
ATOM     13  C   UNL     1       0.657   4.079   1.257  1.00  0.00     0.024 A 
ATOM     14  C   UNL     1       1.553   2.765   3.577  1.00  0.00     0.030 A 
ATOM     15  C   UNL     1       0.901   4.808   2.420  1.00  0.00     0.030 A 
BRANCH  11  16
ATOM     16  S   UNL     1       0.471   1.794  -0.208  1.00  0.00     0.238 S 
ATOM     17  O   UNL     1       1.194   2.392  -1.298  1.00  0.00    -0.207 OA
ATOM     18  O   UNL     1      -0.948   1.509  -0.259  1.00  0.00    -0.207 OA
BRANCH  16  19
ATOM     19  N   UNL     1       1.212   0.298   0.029  1.00  0.00    -0.225 NA
ATOM     20  H   UNL     1       1.061  -0.289  -0.791  1.00  0.00     0.137 HD
ATOM     21  H   UNL     1       0.810  -0.154   0.850  1.00  0.00     0.137 HD
ENDBRANCH  16  19
ENDBRANCH  11  16
ENDBRANCH   6  10
BRANCH   8  22
ATOM     22  C   UNL     1       3.737   4.000   5.797  1.00  0.00     0.054 A 
ATOM     23  C   UNL     1       5.105   4.248   5.905  1.00  0.00     0.031 A 
ATOM     24  S   UNL     1       3.402   2.969   7.183  1.00  0.00    -0.134 S 
ATOM     25  C   UNL     1       5.345   4.610   7.300  1.00  0.00    -0.007 A 
ATOM     26  C   UNL     1       4.316   4.119   8.117  1.00  0.00     0.035 A 
ATOM     27  C   UNL     1       6.292   5.484   7.878  1.00  0.00     0.009 A 
ATOM     28  C   UNL     1       4.106   4.576   9.426  1.00  0.00     0.019 A 
ATOM     29  C   UNL     1       6.073   5.971   9.173  1.00  0.00     0.001 A 
ATOM     30  C   UNL     1       4.972   5.555   9.917  1.00  0.00     0.001 A 
ENDBRANCH   8  22
ENDBRANCH   3   5
ENDBRANCH   2   3
ENDBRANCH   1   2
BRANCH   1  31
ATOM     31  C   UNL     1       0.658   9.667   8.816  1.00  0.00     0.275 C 
BRANCH  31  32
ATOM     32  O   UNL     1      -0.190   9.793   7.680  1.00  0.00    -0.458 OA
BRANCH  32  33
ATOM     33  C   UNL     1       0.421   9.618   6.486  1.00  0.00     0.338 C 
ATOM     34  O   UNL     1       1.545   9.183   6.296  1.00  0.00    -0.246 OA
BRANCH  33  35
ATOM     35  C   UNL     1      -0.402  10.218   5.439  1.00  0.00     0.060 A 
ATOM     36  C   UNL     1       0.030  10.060   4.121  1.00  0.00     0.016 A 
ATOM     37  C   UNL     1      -1.337  11.193   5.812  1.00  0.00     0.016 A 
ATOM     38  C   UNL     1      -0.295  11.050   3.221  1.00  0.00     0.010 A 
ATOM     39  C   UNL     1      -1.650  12.180   4.917  1.00  0.00     0.010 A 
ATOM     40  C   UNL     1      -1.045  12.148   3.667  1.00  0.00    -0.014 A 
BRANCH  40  41
ATOM     41  C   UNL     1      -1.346  13.206   2.732  1.00  0.00     0.031 A 
ATOM     42  C   UNL     1      -2.347  12.745   1.751  1.00  0.00     0.074 A 
ATOM     43  C   UNL     1      -0.860  14.459   2.837  1.00  0.00     0.049 A 
ATOM     44  N   UNL     1      -2.107  12.280   0.571  1.00  0.00    -0.248 NA
ATOM     45  C   UNL     1      -3.720  12.489   2.222  1.00  0.00     0.031 C 
ATOM     46  C   UNL     1      -0.111  15.048   3.952  1.00  0.00     0.029 A 
ATOM     47  N   UNL     1      -1.008  15.511   1.982  1.00  0.00    -0.354 N 
ATOM     48  C   UNL     1      -3.362  12.008   0.042  1.00  0.00     0.074 A 
ATOM     49  C   UNL     1      -4.244  11.863   1.165  1.00  0.00     0.031 C 
ATOM     50  C   UNL     1      -0.078  16.395   3.812  1.00  0.00     0.029 A 
ATOM     51  C   UNL     1      -0.654  16.747   2.526  1.00  0.00     0.049 A 
ATOM     52  H   UNL     1      -1.336  15.408   1.060  1.00  0.00     0.167 HD
ATOM     53  C   UNL     1      -3.627  12.341  -1.252  1.00  0.00     0.037 A 
ATOM     54  C   UNL     1      -0.858  17.959   1.944  1.00  0.00     0.037 A 
ATOM     55  C   UNL     1      -2.400  12.649  -1.946  1.00  0.00     0.049 A 
ATOM     56  C   UNL     1      -0.969  17.713   0.484  1.00  0.00     0.074 A 
ATOM     57  C   UNL     1      -1.336  11.948  -2.469  1.00  0.00     0.029 A 
ATOM     58  N   UNL     1      -1.985  13.941  -1.753  1.00  0.00    -0.354 N 
ATOM     59  N   UNL     1       0.020  17.257  -0.239  1.00  0.00    -0.248 NA
ATOM     60  C   UNL     1      -2.292  17.581  -0.116  1.00  0.00     0.031 C 
ATOM     61  C   UNL     1      -0.228  12.848  -2.472  1.00  0.00     0.029 A 
ATOM     62  C   UNL     1      -0.652  14.093  -2.013  1.00  0.00     0.049 A 
ATOM     63  H   UNL     1      -2.577  14.672  -1.462  1.00  0.00     0.167 HD
ATOM     64  C   UNL     1      -0.582  16.420  -1.159  1.00  0.00     0.074 A 
ATOM     65  C   UNL     1      -1.996  16.780  -1.143  1.00  0.00     0.031 C 
ATOM     66  C   UNL     1       0.046  15.291  -1.597  1.00  0.00     0.037 A 
BRANCH  53  67
ATOM     67  C   UNL     1      -4.945  12.916  -1.733  1.00  0.00     0.058 A 
ATOM     68  C   UNL     1      -5.135  13.110  -3.117  1.00  0.00     0.135 A 
ATOM     69  C   UNL     1      -5.900  13.546  -0.901  1.00  0.00     0.135 A 
ATOM     70  F   UNL     1      -4.277  12.579  -4.004  1.00  0.00    -0.206 F 
ATOM     71  C   UNL     1      -6.165  13.900  -3.630  1.00  0.00     0.059 A 
ATOM     72  C   UNL     1      -6.962  14.294  -1.392  1.00  0.00     0.059 A 
ATOM     73  F   UNL     1      -5.806  13.554   0.432  1.00  0.00    -0.206 F 
ATOM     74  C   UNL     1      -7.073  14.492  -2.756  1.00  0.00     0.060 A 
BRANCH  74  75
ATOM     75  S   UNL     1      -8.383  15.540  -3.405  1.00  0.00     0.124 S 
ATOM     76  O   UNL     1      -7.627  16.678  -3.913  1.00  0.00    -0.237 OA
ATOM     77  O   UNL     1      -8.990  14.673  -4.410  1.00  0.00    -0.237 OA
ATOM     78  O   UNL     1      -9.213  15.805  -2.233  1.00  0.00    -0.744 OA
ENDBRANCH  74  75
ENDBRANCH  53  67
BRANCH  54  79
ATOM     79  C   UNL     1      -1.323  19.229   2.570  1.00  0.00     0.058 A 
ATOM     80  C   UNL     1      -1.262  20.457   1.881  1.00  0.00     0.135 A 
ATOM     81  C   UNL     1      -2.126  19.211   3.726  1.00  0.00     0.135 A 
ATOM     82  F   UNL     1      -0.534  20.563   0.759  1.00  0.00    -0.206 F 
ATOM     83  C   UNL     1      -1.999  21.580   2.281  1.00  0.00     0.059 A 
ATOM     84  C   UNL     1      -2.869  20.317   4.145  1.00  0.00     0.059 A 
ATOM     85  F   UNL     1      -2.287  18.081   4.432  1.00  0.00    -0.206 F 
ATOM     86  C   UNL     1      -2.821  21.493   3.404  1.00  0.00     0.060 A 
BRANCH  86  87
ATOM     87  S   UNL     1      -3.908  22.879   3.829  1.00  0.00     0.124 S 
ATOM     88  O   UNL     1      -2.951  23.890   4.266  1.00  0.00    -0.237 OA
ATOM     89  O   UNL     1      -4.581  23.145   2.562  1.00  0.00    -0.237 OA
ATOM     90  O   UNL     1      -4.759  22.331   4.882  1.00  0.00    -0.744 OA
ENDBRANCH  86  87
ENDBRANCH  54  79
BRANCH  66  91
ATOM     91  C   UNL     1       1.544  15.255  -1.559  1.00  0.00     0.058 A 
ATOM     92  C   UNL     1       2.335  15.193  -0.400  1.00  0.00     0.135 A 
ATOM     93  C   UNL     1       2.203  15.184  -2.796  1.00  0.00     0.135 A 
ATOM     94  F   UNL     1       1.773  15.183   0.818  1.00  0.00    -0.206 F 
ATOM     95  C   UNL     1       3.728  15.091  -0.475  1.00  0.00     0.059 A 
ATOM     96  C   UNL     1       3.580  15.052  -2.894  1.00  0.00     0.059 A 
ATOM     97  F   UNL     1       1.493  15.197  -3.936  1.00  0.00    -0.206 F 
ATOM     98  C   UNL     1       4.340  15.019  -1.729  1.00  0.00     0.060 A 
BRANCH  98  99
ATOM     99  S   UNL     1       6.133  14.834  -1.838  1.00  0.00     0.124 S 
ATOM    100  O   UNL     1       6.606  16.126  -1.355  1.00  0.00    -0.237 OA
ATOM    101  O   UNL     1       6.387  13.696  -0.959  1.00  0.00    -0.237 OA
ATOM    102  O   UNL     1       6.366  14.577  -3.257  1.00  0.00    -0.744 OA
ENDBRANCH  98  99
ENDBRANCH  66  91
ENDBRANCH  40  41
ENDBRANCH  33  35
ENDBRANCH  32  33
ENDBRANCH  31  32
ENDBRANCH   1  31
TORSDOF 18
