REMARK SMILES Cc1nn(Cc2ccc(Cl)cc2Cl)c(C)c1NC(=O)c1c(C(=O)OCCOC(=O)c2ccc(-c3c4nc(c(-c5c(F)cc(S(=O)(=O)[O-])cc5F)c5ccc([nH]5)c(-c5c(F)cc(S(=O)(=O)[O-])cc5F)c5nc(c(-c6c(F)cc(S(=O)(=O)[O-])cc6F)c6ccc3[nH]6)C=C5)C=C4)cc2)cnn1C
REMARK SMILES IDX 25 1 24 2 22 3 23 4 21 5 20 6 98 7 96 8 97 9 99 10 18 11
REMARK SMILES IDX 17 12 19 14 16 15 1 16 2 17 3 18 4 19 14 20 15 21 5 22 6 23
REMARK SMILES IDX 7 24 12 25 8 26 11 27 13 28 9 29 10 30 26 31 27 32 28 33
REMARK SMILES IDX 29 34 30 35 31 36 95 37 32 38 94 39 33 40 34 41 35 42 88 43
REMARK SMILES IDX 36 44 93 45 87 46 89 47 37 48 92 49 86 50 85 51 38 53 72 54
REMARK SMILES IDX 51 55 71 56 52 57 55 58 70 59 90 60 53 61 54 62 69 64 91 65
REMARK SMILES IDX 56 66 39 67 40 68 49 69 41 70 42 71 48 72 50 73 43 74 44 75
REMARK SMILES IDX 45 76 46 77 47 78 73 79 74 80 83 81 75 82 76 83 82 84 84 85
REMARK SMILES IDX 77 86 78 87 79 88 80 89 81 90 57 91 58 92 67 93 59 94 60 95
REMARK SMILES IDX 66 96 68 97 61 98 62 99 63 100 64 101 65 102
REMARK H PARENT 17 13 89 52 55 63
REMARK Flexibility Score: inf
ROOT
ATOM      1  C   UNL     1      -0.068  -3.731   3.823  1.00  0.00     0.275 C 
ENDROOT
BRANCH   1   2
ATOM      2  O   UNL     1      -1.082  -3.896   2.813  1.00  0.00    -0.458 OA
BRANCH   2   3
ATOM      3  C   UNL     1      -2.339  -3.522   3.175  1.00  0.00     0.342 C 
ATOM      4  O   UNL     1      -2.671  -3.206   4.312  1.00  0.00    -0.246 OA
BRANCH   3   5
ATOM      5  C   UNL     1      -3.322  -3.755   2.143  1.00  0.00     0.111 A 
ATOM      6  C   UNL     1      -3.645  -3.058   0.977  1.00  0.00     0.140 A 
ATOM      7  N   UNL     1      -4.874  -3.579   0.619  1.00  0.00    -0.262 N 
ATOM      8  C   UNL     1      -4.272  -4.795   2.218  1.00  0.00     0.151 A 
ATOM      9  N   UNL     1      -5.187  -4.727   1.257  1.00  0.00    -0.180 NA
ATOM     10  C   UNL     1      -5.787  -3.100  -0.395  1.00  0.00     0.174 C 
BRANCH   6  11
ATOM     11  C   UNL     1      -3.052  -1.946   0.264  1.00  0.00     0.274 C 
ATOM     12  N   UNL     1      -1.814  -2.026  -0.353  1.00  0.00    -0.317 N 
ATOM     13  H   UNL     1      -1.558  -1.225  -0.865  1.00  0.00     0.170 HD
ATOM     14  O   UNL     1      -3.667  -0.885   0.124  1.00  0.00    -0.267 OA
BRANCH  12  15
ATOM     15  C   UNL     1      -0.882  -3.040  -0.368  1.00  0.00     0.085 A 
ATOM     16  C   UNL     1       1.406  -1.863  -1.027  1.00  0.00     0.071 C 
ATOM     17  C   UNL     1       0.525  -2.945  -0.559  1.00  0.00     0.083 A 
ATOM     18  N   UNL     1       1.125  -4.071  -0.176  1.00  0.00    -0.175 NA
ATOM     19  N   UNL     1       0.128  -4.965  -0.146  1.00  0.00    -0.263 N 
ATOM     20  C   UNL     1      -1.097  -4.402  -0.403  1.00  0.00     0.060 A 
ATOM     21  C   UNL     1      -2.275  -5.183  -0.840  1.00  0.00     0.069 C 
BRANCH  19  22
ATOM     22  C   UNL     1       0.514  -6.370  -0.097  1.00  0.00     0.181 C 
BRANCH  22  23
ATOM     23  C   UNL     1       0.903  -6.806  -1.491  1.00  0.00    -0.008 A 
ATOM     24  C   UNL     1       2.081  -6.272  -2.059  1.00  0.00     0.009 A 
ATOM     25  C   UNL     1       0.055  -7.566  -2.304  1.00  0.00     0.047 A 
ATOM     26  C   UNL     1       2.350  -6.415  -3.418  1.00  0.00     0.021 A 
ATOM     27  C   UNL     1       0.311  -7.688  -3.669  1.00  0.00     0.041 A 
ATOM     28  Cl  UNL     1      -1.328  -8.391  -1.673  1.00  0.00    -0.084 Cl
ATOM     29  C   UNL     1       1.449  -7.104  -4.220  1.00  0.00     0.042 A 
ATOM     30  Cl  UNL     1       1.744  -7.255  -5.905  1.00  0.00    -0.084 Cl
ENDBRANCH  22  23
ENDBRANCH  19  22
ENDBRANCH  12  15
ENDBRANCH   6  11
ENDBRANCH   3   5
ENDBRANCH   2   3
ENDBRANCH   1   2
BRANCH   1  31
ATOM     31  C   UNL     1       1.096  -2.936   3.249  1.00  0.00     0.275 C 
BRANCH  31  32
ATOM     32  O   UNL     1       1.020  -1.504   3.405  1.00  0.00    -0.458 OA
BRANCH  32  33
ATOM     33  C   UNL     1      -0.024  -0.854   2.827  1.00  0.00     0.338 C 
ATOM     34  O   UNL     1      -1.183  -1.174   2.834  1.00  0.00    -0.246 OA
BRANCH  33  35
ATOM     35  C   UNL     1       0.501   0.198   1.929  1.00  0.00     0.060 A 
ATOM     36  C   UNL     1      -0.326   0.560   0.865  1.00  0.00     0.016 A 
ATOM     37  C   UNL     1       1.837   0.604   1.967  1.00  0.00     0.016 A 
ATOM     38  C   UNL     1       0.252   1.069  -0.282  1.00  0.00     0.010 A 
ATOM     39  C   UNL     1       2.398   1.199   0.847  1.00  0.00     0.010 A 
ATOM     40  C   UNL     1       1.635   1.319  -0.316  1.00  0.00    -0.014 A 
BRANCH  40  41
ATOM     41  C   UNL     1       2.203   1.834  -1.572  1.00  0.00     0.031 A 
ATOM     42  C   UNL     1       1.435   3.012  -2.080  1.00  0.00     0.074 A 
ATOM     43  C   UNL     1       3.346   1.359  -2.122  1.00  0.00     0.049 A 
ATOM     44  N   UNL     1       0.945   3.220  -3.260  1.00  0.00    -0.248 NA
ATOM     45  C   UNL     1       0.976   3.989  -1.062  1.00  0.00     0.031 C 
ATOM     46  C   UNL     1       4.217   0.302  -1.588  1.00  0.00     0.029 A 
ATOM     47  N   UNL     1       4.062   1.792  -3.205  1.00  0.00    -0.354 N 
ATOM     48  C   UNL     1       0.322   4.463  -3.174  1.00  0.00     0.074 A 
ATOM     49  C   UNL     1       0.176   4.772  -1.778  1.00  0.00     0.031 C 
ATOM     50  C   UNL     1       5.433   0.382  -2.167  1.00  0.00     0.029 A 
ATOM     51  C   UNL     1       5.413   1.443  -3.154  1.00  0.00     0.049 A 
ATOM     52  H   UNL     1       3.663   2.299  -3.948  1.00  0.00     0.167 HD
ATOM     53  C   UNL     1       0.264   5.314  -4.230  1.00  0.00     0.037 A 
ATOM     54  C   UNL     1       6.461   2.069  -3.756  1.00  0.00     0.037 A 
ATOM     55  C   UNL     1       0.365   4.634  -5.486  1.00  0.00     0.049 A 
ATOM     56  C   UNL     1       5.905   2.913  -4.843  1.00  0.00     0.074 A 
ATOM     57  C   UNL     1      -0.397   3.680  -6.129  1.00  0.00     0.029 A 
ATOM     58  N   UNL     1       1.577   4.653  -6.128  1.00  0.00    -0.354 N 
ATOM     59  N   UNL     1       5.333   2.436  -5.914  1.00  0.00    -0.248 NA
ATOM     60  C   UNL     1       5.561   4.288  -4.512  1.00  0.00     0.031 C 
ATOM     61  C   UNL     1       0.536   2.865  -6.828  1.00  0.00     0.029 A 
ATOM     62  C   UNL     1       1.810   3.395  -6.620  1.00  0.00     0.049 A 
ATOM     63  H   UNL     1       2.172   5.432  -6.218  1.00  0.00     0.167 HD
ATOM     64  C   UNL     1       4.246   3.270  -6.132  1.00  0.00     0.074 A 
ATOM     65  C   UNL     1       4.480   4.434  -5.281  1.00  0.00     0.031 C 
ATOM     66  C   UNL     1       3.126   2.816  -6.765  1.00  0.00     0.037 A 
BRANCH  53  67
ATOM     67  C   UNL     1       0.534   6.782  -4.049  1.00  0.00     0.058 A 
ATOM     68  C   UNL     1       0.147   7.706  -5.031  1.00  0.00     0.135 A 
ATOM     69  C   UNL     1       1.396   7.275  -3.039  1.00  0.00     0.135 A 
ATOM     70  F   UNL     1      -0.626   7.322  -6.058  1.00  0.00    -0.206 F 
ATOM     71  C   UNL     1       0.599   9.027  -5.016  1.00  0.00     0.059 A 
ATOM     72  C   UNL     1       1.802   8.597  -2.967  1.00  0.00     0.059 A 
ATOM     73  F   UNL     1       1.964   6.470  -2.131  1.00  0.00    -0.206 F 
ATOM     74  C   UNL     1       1.428   9.459  -3.981  1.00  0.00     0.060 A 
BRANCH  74  75
ATOM     75  S   UNL     1       2.082  11.136  -3.998  1.00  0.00     0.124 S 
ATOM     76  O   UNL     1       3.013  11.070  -5.119  1.00  0.00    -0.237 OA
ATOM     77  O   UNL     1       0.875  11.928  -4.211  1.00  0.00    -0.237 OA
ATOM     78  O   UNL     1       2.690  11.273  -2.678  1.00  0.00    -0.744 OA
ENDBRANCH  74  75
ENDBRANCH  53  67
BRANCH  54  79
ATOM     79  C   UNL     1       7.819   2.304  -3.169  1.00  0.00     0.058 A 
ATOM     80  C   UNL     1       8.902   2.753  -3.949  1.00  0.00     0.135 A 
ATOM     81  C   UNL     1       8.021   2.335  -1.772  1.00  0.00     0.135 A 
ATOM     82  F   UNL     1       8.796   2.799  -5.286  1.00  0.00    -0.206 F 
ATOM     83  C   UNL     1      10.096   3.224  -3.377  1.00  0.00     0.059 A 
ATOM     84  C   UNL     1       9.203   2.781  -1.183  1.00  0.00     0.059 A 
ATOM     85  F   UNL     1       7.038   2.019  -0.918  1.00  0.00    -0.206 F 
ATOM     86  C   UNL     1      10.231   3.245  -1.989  1.00  0.00     0.060 A 
BRANCH  86  87
ATOM     87  S   UNL     1      11.698   3.986  -1.231  1.00  0.00     0.124 S 
ATOM     88  O   UNL     1      12.740   3.031  -1.591  1.00  0.00    -0.237 OA
ATOM     89  O   UNL     1      11.764   5.285  -1.891  1.00  0.00    -0.237 OA
ATOM     90  O   UNL     1      11.359   4.030   0.190  1.00  0.00    -0.744 OA
ENDBRANCH  86  87
ENDBRANCH  54  79
BRANCH  66  91
ATOM     91  C   UNL     1       3.208   1.504  -7.501  1.00  0.00     0.058 A 
ATOM     92  C   UNL     1       3.412   0.254  -6.890  1.00  0.00     0.135 A 
ATOM     93  C   UNL     1       2.908   1.508  -8.871  1.00  0.00     0.135 A 
ATOM     94  F   UNL     1       3.609   0.157  -5.567  1.00  0.00    -0.206 F 
ATOM     95  C   UNL     1       3.352  -0.936  -7.620  1.00  0.00     0.059 A 
ATOM     96  C   UNL     1       2.812   0.335  -9.611  1.00  0.00     0.059 A 
ATOM     97  F   UNL     1       2.645   2.667  -9.498  1.00  0.00    -0.206 F 
ATOM     98  C   UNL     1       3.046  -0.885  -8.981  1.00  0.00     0.060 A 
BRANCH  98  99
ATOM     99  S   UNL     1       2.886  -2.425  -9.911  1.00  0.00     0.124 S 
ATOM    100  O   UNL     1       4.269  -2.886  -9.980  1.00  0.00    -0.237 OA
ATOM    101  O   UNL     1       1.995  -3.213  -9.064  1.00  0.00    -0.237 OA
ATOM    102  O   UNL     1       2.307  -1.998 -11.182  1.00  0.00    -0.744 OA
ENDBRANCH  98  99
ENDBRANCH  66  91
ENDBRANCH  40  41
ENDBRANCH  33  35
ENDBRANCH  32  33
ENDBRANCH  31  32
ENDBRANCH   1  31
TORSDOF 18
