REMARK SMILES Cc1ccc(S(=O)(=O)N2CCC(C(=O)N3CCC[C@@H](C(=O)OCCOC(=O)c4ccc(-c5c6nc(c(-c7c(F)cc(S(=O)(=O)[O-])cc7F)c7ccc([nH]7)c(-c7c(F)cc(S(=O)(=O)[O-])cc7F)c7nc(c(-c8c(F)cc(S(=O)(=O)[O-])cc8F)c8ccc5[nH]8)C=C7)C=C6)cc4)C3)CC2)cc1
REMARK SMILES IDX 23 1 22 2 20 3 21 4 19 5 15 6 16 7 94 8 17 9 18 10 13 11
REMARK SMILES IDX 14 12 12 13 9 14 10 15 96 16 11 17 95 18 6 19 7 20 8 21 5 22
REMARK SMILES IDX 1 23 2 24 3 25 98 26 4 27 97 28 24 29 25 30 26 31 27 32
REMARK SMILES IDX 28 33 29 34 93 35 30 36 92 37 31 38 32 39 33 40 86 41 34 42
REMARK SMILES IDX 91 43 85 44 87 45 35 46 90 47 84 48 83 49 36 51 70 52 49 53
REMARK SMILES IDX 69 54 50 55 53 56 68 57 88 58 51 59 52 60 67 62 89 63 54 64
REMARK SMILES IDX 37 65 38 66 47 67 39 68 40 69 46 70 48 71 41 72 42 73 43 74
REMARK SMILES IDX 44 75 45 76 71 77 72 78 81 79 73 80 74 81 80 82 82 83 75 84
REMARK SMILES IDX 76 85 77 86 78 87 79 88 55 89 56 90 65 91 57 92 58 93 64 94
REMARK SMILES IDX 66 95 59 96 60 97 61 98 62 99 63 100
REMARK H PARENT 87 50 53 61
REMARK Flexibility Score: inf
ROOT
ATOM      1  C   UNL     1     -11.392   3.944   3.524  1.00  0.00     0.274 C 
ENDROOT
BRANCH   1   2
ATOM      2  O   UNL     1     -11.129   4.900   2.475  1.00  0.00    -0.462 OA
BRANCH   2   3
ATOM      3  C   UNL     1      -9.807   5.534   2.465  1.00  0.00     0.310 C 
ATOM      4  O   UNL     1      -9.459   5.517   3.675  1.00  0.00    -0.252 OA
BRANCH   3   5
ATOM      5  C   UNL     1      -8.736   6.146   0.637  1.00  0.00     0.119 C 
ATOM      6  N   UNL     1      -6.478   5.958  -0.958  1.00  0.00    -0.342 N 
ATOM      7  C   UNL     1      -6.991   6.694  -2.082  1.00  0.00     0.119 C 
ATOM      8  C   UNL     1      -7.481   5.202  -0.233  1.00  0.00     0.134 C 
ATOM      9  C   UNL     1      -8.110   7.612  -1.660  1.00  0.00     0.022 C 
ATOM     10  C   UNL     1      -9.232   6.927  -0.843  1.00  0.00     0.019 C 
BRANCH   6  11
ATOM     11  C   UNL     1      -5.105   5.913  -0.736  1.00  0.00     0.225 C 
ATOM     12  O   UNL     1      -4.389   6.870  -1.062  1.00  0.00    -0.275 OA
BRANCH  11  13
ATOM     13  C   UNL     1      -4.398   4.578  -0.379  1.00  0.00     0.081 C 
ATOM     14  N   UNL     1      -3.964   1.715  -0.133  1.00  0.00    -0.198 NA
ATOM     15  C   UNL     1      -3.857   2.557   1.092  1.00  0.00     0.103 C 
ATOM     16  C   UNL     1      -3.721   2.388  -1.423  1.00  0.00     0.103 C 
ATOM     17  C   UNL     1      -4.652   3.853   0.944  1.00  0.00     0.030 C 
ATOM     18  C   UNL     1      -4.583   3.628  -1.562  1.00  0.00     0.030 C 
BRANCH  14  19
ATOM     19  S   UNL     1      -3.473   0.088  -0.014  1.00  0.00     0.243 S 
ATOM     20  O   UNL     1      -3.830  -0.570  -1.258  1.00  0.00    -0.207 OA
ATOM     21  O   UNL     1      -3.900  -0.451   1.258  1.00  0.00    -0.207 OA
BRANCH  19  22
ATOM     22  C   UNL     1      -1.687   0.075   0.024  1.00  0.00     0.082 A 
ATOM     23  C   UNL     1       2.608  -0.166  -0.007  1.00  0.00     0.044 C 
ATOM     24  C   UNL     1       1.112  -0.089   0.009  1.00  0.00    -0.051 A 
ATOM     25  C   UNL     1       0.337  -1.255  -0.011  1.00  0.00     0.005 A 
ATOM     26  C   UNL     1       0.475   1.153   0.046  1.00  0.00     0.005 A 
ATOM     27  C   UNL     1      -1.058  -1.176  -0.005  1.00  0.00     0.022 A 
ATOM     28  C   UNL     1      -0.916   1.234   0.053  1.00  0.00     0.022 A 
ENDBRANCH  19  22
ENDBRANCH  14  19
ENDBRANCH  11  13
ENDBRANCH   6  11
ENDBRANCH   3   5
ENDBRANCH   2   3
ENDBRANCH   1   2
BRANCH   1  29
ATOM     29  C   UNL     1     -10.637   2.636   3.230  1.00  0.00     0.275 C 
BRANCH  29  30
ATOM     30  O   UNL     1      -9.198   2.783   3.241  1.00  0.00    -0.458 OA
BRANCH  30  31
ATOM     31  C   UNL     1      -8.567   2.817   2.040  1.00  0.00     0.338 C 
ATOM     32  O   UNL     1      -8.312   1.875   1.311  1.00  0.00    -0.246 OA
BRANCH  31  33
ATOM     33  C   UNL     1      -8.614   4.195   1.539  1.00  0.00     0.060 A 
ATOM     34  C   UNL     1      -7.729   5.543   2.378  1.00  0.00     0.016 A 
ATOM     35  C   UNL     1     -10.095   4.558   0.597  1.00  0.00     0.016 A 
ATOM     36  C   UNL     1      -8.484   7.179   2.530  1.00  0.00     0.010 A 
ATOM     37  C   UNL     1     -10.851   6.183   0.772  1.00  0.00     0.010 A 
ATOM     38  C   UNL     1     -10.074   7.456   1.790  1.00  0.00    -0.014 A 
BRANCH  38  39
ATOM     39  C   UNL     1     -11.081   8.291   2.486  1.00  0.00     0.031 A 
ATOM     40  C   UNL     1     -11.814   9.216   1.601  1.00  0.00     0.074 A 
ATOM     41  C   UNL     1     -11.341   8.098   3.810  1.00  0.00     0.049 A 
ATOM     42  N   UNL     1     -12.115  10.437   1.881  1.00  0.00    -0.248 NA
ATOM     43  C   UNL     1     -12.063   8.916   0.182  1.00  0.00     0.031 C 
ATOM     44  C   UNL     1     -12.482   8.509   4.631  1.00  0.00     0.029 A 
ATOM     45  N   UNL     1     -10.504   7.534   4.766  1.00  0.00    -0.354 N 
ATOM     46  C   UNL     1     -12.942  10.841   0.845  1.00  0.00     0.074 A 
ATOM     47  C   UNL     1     -12.522  10.075  -0.272  1.00  0.00     0.031 C 
ATOM     48  C   UNL     1     -12.156   8.434   5.941  1.00  0.00     0.029 A 
ATOM     49  C   UNL     1     -10.764   8.030   6.038  1.00  0.00     0.049 A 
ATOM     50  H   UNL     1      -9.811   6.864   4.566  1.00  0.00     0.167 HD
ATOM     51  C   UNL     1     -14.140  11.428   1.125  1.00  0.00     0.037 A 
ATOM     52  C   UNL     1      -9.779   8.721   6.686  1.00  0.00     0.037 A 
ATOM     53  C   UNL     1     -14.208  11.640   2.570  1.00  0.00     0.049 A 
ATOM     54  C   UNL     1     -10.077  10.206   6.594  1.00  0.00     0.074 A 
ATOM     55  C   UNL     1     -14.843  10.967   3.599  1.00  0.00     0.029 A 
ATOM     56  N   UNL     1     -13.203  12.394   3.157  1.00  0.00    -0.354 N 
ATOM     57  N   UNL     1     -10.856  10.717   5.670  1.00  0.00    -0.248 NA
ATOM     58  C   UNL     1      -9.702  11.197   7.603  1.00  0.00     0.031 C 
ATOM     59  C   UNL     1     -14.139  11.270   4.806  1.00  0.00     0.029 A 
ATOM     60  C   UNL     1     -13.073  12.103   4.499  1.00  0.00     0.049 A 
ATOM     61  H   UNL     1     -12.653  13.054   2.677  1.00  0.00     0.167 HD
ATOM     62  C   UNL     1     -11.162  12.011   5.981  1.00  0.00     0.074 A 
ATOM     63  C   UNL     1     -10.402  12.270   7.192  1.00  0.00     0.031 C 
ATOM     64  C   UNL     1     -12.038  12.782   5.266  1.00  0.00     0.037 A 
BRANCH  51  65
ATOM     65  C   UNL     1     -15.334  11.550   0.182  1.00  0.00     0.058 A 
ATOM     66  C   UNL     1     -16.558  12.038   0.687  1.00  0.00     0.135 A 
ATOM     67  C   UNL     1     -15.379  11.223  -1.197  1.00  0.00     0.135 A 
ATOM     68  F   UNL     1     -16.686  12.400   1.971  1.00  0.00    -0.206 F 
ATOM     69  C   UNL     1     -17.709  12.188  -0.095  1.00  0.00     0.059 A 
ATOM     70  C   UNL     1     -16.517  11.359  -1.996  1.00  0.00     0.059 A 
ATOM     71  F   UNL     1     -14.329  10.765  -1.877  1.00  0.00    -0.206 F 
ATOM     72  C   UNL     1     -17.678  11.854  -1.440  1.00  0.00     0.060 A 
BRANCH  72  73
ATOM     73  S   UNL     1     -19.144  12.117  -2.449  1.00  0.00     0.124 S 
ATOM     74  O   UNL     1     -20.121  11.252  -1.795  1.00  0.00    -0.237 OA
ATOM     75  O   UNL     1     -19.360  13.552  -2.299  1.00  0.00    -0.237 OA
ATOM     76  O   UNL     1     -18.726  11.686  -3.780  1.00  0.00    -0.744 OA
ENDBRANCH  72  73
ENDBRANCH  51  65
BRANCH  52  77
ATOM     77  C   UNL     1      -8.488   7.949   6.688  1.00  0.00     0.058 A 
ATOM     78  C   UNL     1      -8.529   6.717   7.380  1.00  0.00     0.135 A 
ATOM     79  C   UNL     1      -7.470   8.077   5.731  1.00  0.00     0.135 A 
ATOM     80  F   UNL     1      -9.435   6.535   8.356  1.00  0.00    -0.206 F 
ATOM     81  C   UNL     1      -7.751   5.618   7.016  1.00  0.00     0.059 A 
ATOM     82  C   UNL     1      -6.641   6.984   5.371  1.00  0.00     0.059 A 
ATOM     83  F   UNL     1      -7.343   9.219   5.038  1.00  0.00    -0.206 F 
ATOM     84  C   UNL     1      -6.822   5.743   5.989  1.00  0.00     0.060 A 
BRANCH  84  85
ATOM     85  S   UNL     1      -5.941   4.228   5.482  1.00  0.00     0.124 S 
ATOM     86  O   UNL     1      -4.932   4.111   6.527  1.00  0.00    -0.237 OA
ATOM     87  O   UNL     1      -6.998   3.221   5.508  1.00  0.00    -0.237 OA
ATOM     88  O   UNL     1      -5.403   4.524   4.160  1.00  0.00    -0.744 OA
ENDBRANCH  84  85
ENDBRANCH  52  77
BRANCH  64  89
ATOM     89  C   UNL     1     -12.010  14.294   5.258  1.00  0.00     0.058 A 
ATOM     90  C   UNL     1     -10.886  15.041   5.644  1.00  0.00     0.135 A 
ATOM     91  C   UNL     1     -13.071  15.046   4.689  1.00  0.00     0.135 A 
ATOM     92  F   UNL     1      -9.740  14.457   6.020  1.00  0.00    -0.206 F 
ATOM     93  C   UNL     1     -10.873  16.429   5.617  1.00  0.00     0.059 A 
ATOM     94  C   UNL     1     -13.029  16.425   4.544  1.00  0.00     0.059 A 
ATOM     95  F   UNL     1     -14.192  14.471   4.229  1.00  0.00    -0.206 F 
ATOM     96  C   UNL     1     -11.952  17.112   5.072  1.00  0.00     0.060 A 
BRANCH  96  97
ATOM     97  S   UNL     1     -11.927  18.904   5.066  1.00  0.00     0.124 S 
ATOM     98  O   UNL     1     -12.257  19.195   6.458  1.00  0.00    -0.237 OA
ATOM     99  O   UNL     1     -10.554  19.197   4.666  1.00  0.00    -0.237 OA
ATOM    100  O   UNL     1     -12.949  19.257   4.087  1.00  0.00    -0.744 OA
ENDBRANCH  96  97
ENDBRANCH  64  89
ENDBRANCH  38  39
ENDBRANCH  31  33
ENDBRANCH  30  31
ENDBRANCH  29  30
ENDBRANCH   1  29
TORSDOF 18
