REMARK SMILES Cc1cc(NC(=O)CCC(=O)OCCOC(=O)c2ccc(-c3c4nc(c(-c5c(F)cc(S(=O)(=O)[O-])cc5F)c5ccc([nH]5)c(-c5c(F)cc(S(=O)(=O)[O-])cc5F)c5nc(c(-c6c(F)cc(S(=O)(=O)[O-])cc6F)c6ccc3[nH]6)C=C5)C=C4)cc2)ccc1S(=O)(=O)[O-]
REMARK SMILES IDX 13 1 12 2 10 3 11 4 9 5 8 6 6 7 5 8 7 10 4 11 1 12 2 13 3 14
REMARK SMILES IDX 86 15 85 16 84 17 87 18 88 19 89 20 90 21 14 22 15 23 16 24
REMARK SMILES IDX 17 25 18 26 19 27 83 28 20 29 82 30 21 31 22 32 23 33 76 34
REMARK SMILES IDX 24 35 81 36 75 37 77 38 25 39 80 40 74 41 73 42 26 44 60 45
REMARK SMILES IDX 39 46 59 47 40 48 43 49 58 50 78 51 41 52 42 53 57 55 79 56
REMARK SMILES IDX 44 57 27 58 28 59 37 60 29 61 30 62 36 63 38 64 31 65 32 66
REMARK SMILES IDX 33 67 34 68 35 69 61 70 62 71 71 72 63 73 64 74 70 75 72 76
REMARK SMILES IDX 65 77 66 78 67 79 68 80 69 81 45 82 46 83 55 84 47 85 48 86
REMARK SMILES IDX 54 87 56 88 49 89 50 90 51 91 52 92 53 93
REMARK H PARENT 5 9 77 43 43 54
REMARK Flexibility Score: inf
ROOT
ATOM      1  C   UNL     1      -1.810  -0.098  -1.691  1.00  0.00     0.274 C 
ENDROOT
BRANCH   1   2
ATOM      2  O   UNL     1      -1.709  -1.514  -1.839  1.00  0.00    -0.462 OA
BRANCH   2   3
ATOM      3  C   UNL     1      -2.041  -2.079  -0.654  1.00  0.00     0.306 C 
ATOM      4  O   UNL     1      -2.726  -1.501   0.148  1.00  0.00    -0.252 OA
BRANCH   3   5
ATOM      5  C   UNL     1      -1.486  -3.458  -0.447  1.00  0.00     0.132 C 
BRANCH   5   6
ATOM      6  C   UNL     1      -1.040  -3.614   1.020  1.00  0.00     0.112 C 
BRANCH   6   7
ATOM      7  C   UNL     1      -2.107  -3.229   2.036  1.00  0.00     0.224 C 
ATOM      8  N   UNL     1      -2.236  -2.003   2.644  1.00  0.00    -0.326 N 
ATOM      9  H   UNL     1      -2.982  -1.982   3.287  1.00  0.00     0.169 HD
ATOM     10  O   UNL     1      -3.025  -4.041   2.237  1.00  0.00    -0.275 OA
BRANCH   8  11
ATOM     11  C   UNL     1      -1.553  -0.759   2.571  1.00  0.00     0.041 A 
ATOM     12  C   UNL     1       1.919   0.804   2.340  1.00  0.00     0.046 C 
ATOM     13  C   UNL     1       0.419   0.717   2.402  1.00  0.00    -0.032 A 
ATOM     14  C   UNL     1      -0.173  -0.573   2.610  1.00  0.00     0.030 A 
ATOM     15  C   UNL     1      -0.411   1.820   2.123  1.00  0.00     0.057 A 
ATOM     16  C   UNL     1      -1.803   1.650   2.161  1.00  0.00     0.021 A 
ATOM     17  C   UNL     1      -2.358   0.385   2.411  1.00  0.00     0.027 A 
BRANCH  15  18
ATOM     18  S   UNL     1       0.148   3.407   1.478  1.00  0.00     0.124 S 
ATOM     19  O   UNL     1      -0.239   3.455   0.081  1.00  0.00    -0.237 OA
ATOM     20  O   UNL     1      -0.302   4.422   2.407  1.00  0.00    -0.237 OA
ATOM     21  O   UNL     1       1.755   3.445   1.466  1.00  0.00    -0.744 OA
ENDBRANCH  15  18
ENDBRANCH   8  11
ENDBRANCH   6   7
ENDBRANCH   5   6
ENDBRANCH   3   5
ENDBRANCH   2   3
ENDBRANCH   1   2
BRANCH   1  22
ATOM     22  C   UNL     1      -0.547   0.430  -0.965  1.00  0.00     0.275 C 
BRANCH  22  23
ATOM     23  O   UNL     1       0.303  -0.578  -0.198  1.00  0.00    -0.458 OA
BRANCH  23  24
ATOM     24  C   UNL     1       1.377  -1.460  -0.360  1.00  0.00     0.338 C 
ATOM     25  O   UNL     1       1.788  -2.145   0.566  1.00  0.00    -0.246 OA
BRANCH  24  26
ATOM     26  C   UNL     1       1.931  -1.661  -1.715  1.00  0.00     0.060 A 
ATOM     27  C   UNL     1       2.041  -2.866  -2.448  1.00  0.00     0.016 A 
ATOM     28  C   UNL     1       1.735  -0.559  -2.422  1.00  0.00     0.016 A 
ATOM     29  C   UNL     1       1.610  -2.863  -3.807  1.00  0.00     0.010 A 
ATOM     30  C   UNL     1       0.693  -0.869  -3.193  1.00  0.00     0.010 A 
ATOM     31  C   UNL     1       0.842  -1.780  -4.184  1.00  0.00    -0.014 A 
BRANCH  31  32
ATOM     32  C   UNL     1      -0.006  -1.302  -5.296  1.00  0.00     0.031 A 
ATOM     33  C   UNL     1      -0.997  -2.229  -5.839  1.00  0.00     0.074 A 
ATOM     34  C   UNL     1      -0.044   0.066  -5.479  1.00  0.00     0.049 A 
ATOM     35  N   UNL     1      -1.011  -2.730  -7.026  1.00  0.00    -0.248 NA
ATOM     36  C   UNL     1      -2.086  -2.716  -4.983  1.00  0.00     0.031 C 
ATOM     37  C   UNL     1      -0.846   1.008  -6.234  1.00  0.00     0.029 A 
ATOM     38  N   UNL     1       0.816   0.983  -4.805  1.00  0.00    -0.354 N 
ATOM     39  C   UNL     1      -2.321  -3.148  -7.191  1.00  0.00     0.074 A 
ATOM     40  C   UNL     1      -2.821  -3.412  -5.854  1.00  0.00     0.031 C 
ATOM     41  C   UNL     1      -0.151   2.177  -6.323  1.00  0.00     0.029 A 
ATOM     42  C   UNL     1       1.136   2.031  -5.628  1.00  0.00     0.049 A 
ATOM     43  H   UNL     1       1.135   0.878  -3.879  1.00  0.00     0.167 HD
ATOM     44  C   UNL     1      -3.092  -2.619  -8.193  1.00  0.00     0.037 A 
ATOM     45  C   UNL     1       2.430   1.965  -6.057  1.00  0.00     0.037 A 
ATOM     46  C   UNL     1      -2.467  -1.419  -8.775  1.00  0.00     0.049 A 
ATOM     47  C   UNL     1       2.430   1.403  -7.456  1.00  0.00     0.074 A 
ATOM     48  C   UNL     1      -2.794  -0.074  -8.831  1.00  0.00     0.029 A 
ATOM     49  N   UNL     1      -1.140  -1.468  -9.164  1.00  0.00    -0.354 N 
ATOM     50  N   UNL     1       1.353   1.017  -8.080  1.00  0.00    -0.248 NA
ATOM     51  C   UNL     1       3.639   1.157  -8.225  1.00  0.00     0.031 C 
ATOM     52  C   UNL     1      -1.663   0.653  -9.322  1.00  0.00     0.029 A 
ATOM     53  C   UNL     1      -0.636  -0.244  -9.543  1.00  0.00     0.049 A 
ATOM     54  H   UNL     1      -0.609  -2.297  -9.169  1.00  0.00     0.167 HD
ATOM     55  C   UNL     1       1.682   0.390  -9.237  1.00  0.00     0.074 A 
ATOM     56  C   UNL     1       3.134   0.508  -9.288  1.00  0.00     0.031 C 
ATOM     57  C   UNL     1       0.739  -0.200 -10.032  1.00  0.00     0.037 A 
BRANCH  44  58
ATOM     58  C   UNL     1      -4.531  -3.045  -8.427  1.00  0.00     0.058 A 
ATOM     59  C   UNL     1      -5.415  -2.266  -9.199  1.00  0.00     0.135 A 
ATOM     60  C   UNL     1      -5.061  -4.288  -7.999  1.00  0.00     0.135 A 
ATOM     61  F   UNL     1      -5.038  -1.103  -9.743  1.00  0.00    -0.206 F 
ATOM     62  C   UNL     1      -6.724  -2.653  -9.480  1.00  0.00     0.059 A 
ATOM     63  C   UNL     1      -6.382  -4.684  -8.242  1.00  0.00     0.059 A 
ATOM     64  F   UNL     1      -4.296  -5.186  -7.356  1.00  0.00    -0.206 F 
ATOM     65  C   UNL     1      -7.205  -3.861  -8.996  1.00  0.00     0.060 A 
BRANCH  65  66
ATOM     66  S   UNL     1      -8.890  -4.342  -9.417  1.00  0.00     0.124 S 
ATOM     67  O   UNL     1      -9.660  -3.190  -8.958  1.00  0.00    -0.237 OA
ATOM     68  O   UNL     1      -8.802  -4.511 -10.863  1.00  0.00    -0.237 OA
ATOM     69  O   UNL     1      -9.095  -5.569  -8.653  1.00  0.00    -0.744 OA
ENDBRANCH  65  66
ENDBRANCH  44  58
BRANCH  45  70
ATOM     70  C   UNL     1       3.422   1.543  -4.959  1.00  0.00     0.058 A 
ATOM     71  C   UNL     1       3.538   2.317  -3.778  1.00  0.00     0.135 A 
ATOM     72  C   UNL     1       4.023   0.267  -4.902  1.00  0.00     0.135 A 
ATOM     73  F   UNL     1       2.929   3.512  -3.695  1.00  0.00    -0.206 F 
ATOM     74  C   UNL     1       4.172   1.851  -2.617  1.00  0.00     0.059 A 
ATOM     75  C   UNL     1       4.668  -0.221  -3.749  1.00  0.00     0.059 A 
ATOM     76  F   UNL     1       3.907  -0.581  -5.934  1.00  0.00    -0.206 F 
ATOM     77  C   UNL     1       4.726   0.572  -2.604  1.00  0.00     0.060 A 
BRANCH  77  78
ATOM     78  S   UNL     1       5.277  -0.110  -1.012  1.00  0.00     0.124 S 
ATOM     79  O   UNL     1       6.559   0.559  -0.830  1.00  0.00    -0.237 OA
ATOM     80  O   UNL     1       4.204   0.333  -0.123  1.00  0.00    -0.237 OA
ATOM     81  O   UNL     1       5.334  -1.546  -1.255  1.00  0.00    -0.744 OA
ENDBRANCH  77  78
ENDBRANCH  45  70
BRANCH  57  82
ATOM     82  C   UNL     1       1.067  -0.847 -11.348  1.00  0.00     0.058 A 
ATOM     83  C   UNL     1       2.054  -0.337 -12.202  1.00  0.00     0.135 A 
ATOM     84  C   UNL     1       0.330  -1.944 -11.855  1.00  0.00     0.135 A 
ATOM     85  F   UNL     1       2.697   0.807 -11.918  1.00  0.00    -0.206 F 
ATOM     86  C   UNL     1       2.387  -0.956 -13.401  1.00  0.00     0.059 A 
ATOM     87  C   UNL     1       0.600  -2.538 -13.075  1.00  0.00     0.059 A 
ATOM     88  F   UNL     1      -0.690  -2.506 -11.196  1.00  0.00    -0.206 F 
ATOM     89  C   UNL     1       1.659  -2.063 -13.823  1.00  0.00     0.060 A 
BRANCH  89  90
ATOM     90  S   UNL     1       2.070  -2.844 -15.383  1.00  0.00     0.124 S 
ATOM     91  O   UNL     1       2.234  -1.693 -16.267  1.00  0.00    -0.237 OA
ATOM     92  O   UNL     1       3.293  -3.558 -15.035  1.00  0.00    -0.237 OA
ATOM     93  O   UNL     1       0.908  -3.682 -15.663  1.00  0.00    -0.744 OA
ENDBRANCH  89  90
ENDBRANCH  57  82
ENDBRANCH  31  32
ENDBRANCH  24  26
ENDBRANCH  23  24
ENDBRANCH  22  23
ENDBRANCH   1  22
TORSDOF 18
