REMARK SMILES CCc1ccsc1Cn1cccc1C(=O)OCCOC(=O)c1ccc(-c2c3nc(c(-c4c(F)cc(S(=O)(=O)[O-])cc4F)c4ccc([nH]4)c(-c4c(F)cc(S(=O)(=O)[O-])cc4F)c4nc(c(-c5c(F)cc(S(=O)(=O)[O-])cc5F)c5ccc2[nH]5)C=C4)C=C3)cc1
REMARK SMILES IDX 17 1 16 2 14 3 15 4 13 5 9 6 10 7 11 8 12 9 8 10 7 11 3 12
REMARK SMILES IDX 4 13 5 14 6 15 2 16 1 17 18 18 19 19 20 20 21 21 22 22 23 23
REMARK SMILES IDX 87 24 24 25 86 26 25 27 26 28 27 29 80 30 28 31 85 32 79 33
REMARK SMILES IDX 81 34 29 35 84 36 78 37 77 38 30 40 64 41 43 42 63 43 44 44
REMARK SMILES IDX 47 45 62 46 82 47 45 48 46 49 61 51 83 52 48 53 31 54 32 55
REMARK SMILES IDX 41 56 33 57 34 58 40 59 42 60 35 61 36 62 37 63 38 64 39 65
REMARK SMILES IDX 65 66 66 67 75 68 67 69 68 70 74 71 76 72 69 73 70 74 71 75
REMARK SMILES IDX 72 76 73 77 49 78 50 79 59 80 51 81 52 82 58 83 60 84 53 85
REMARK SMILES IDX 54 86 55 87 56 88 57 89
REMARK H PARENT 81 39 47 50
REMARK Flexibility Score: inf
ROOT
ATOM      1  C   UNL     1      -2.796  -0.347  -0.691  1.00  0.00     0.275 C 
ENDROOT
BRANCH   1   2
ATOM      2  O   UNL     1      -2.370   0.973  -0.308  1.00  0.00    -0.457 OA
BRANCH   2   3
ATOM      3  C   UNL     1      -3.378   1.890  -0.201  1.00  0.00     0.355 C 
ATOM      4  O   UNL     1      -4.509   1.697  -0.591  1.00  0.00    -0.244 OA
BRANCH   3   5
ATOM      5  C   UNL     1      -2.956   3.096   0.503  1.00  0.00     0.127 A 
ATOM      6  N   UNL     1      -1.697   3.620   0.777  1.00  0.00    -0.337 N 
ATOM      7  C   UNL     1      -1.857   4.842   1.410  1.00  0.00     0.087 A 
ATOM      8  C   UNL     1      -3.189   5.054   1.654  1.00  0.00     0.020 A 
ATOM      9  C   UNL     1      -3.876   3.974   1.078  1.00  0.00     0.035 A 
BRANCH   6  10
ATOM     10  C   UNL     1      -0.388   3.157   0.295  1.00  0.00     0.169 C 
BRANCH  10  11
ATOM     11  C   UNL     1       0.619   2.865   1.387  1.00  0.00     0.027 A 
ATOM     12  C   UNL     1       1.056   1.643   1.892  1.00  0.00    -0.033 A 
ATOM     13  C   UNL     1       2.022   1.822   2.940  1.00  0.00     0.016 A 
ATOM     14  C   UNL     1       2.335   3.141   3.159  1.00  0.00     0.065 A 
ATOM     15  S   UNL     1       1.511   4.169   2.084  1.00  0.00    -0.147 S 
BRANCH  12  16
ATOM     16  C   UNL     1       0.594   0.283   1.457  1.00  0.00     0.033 C 
ATOM     17  C   UNL     1       1.210  -0.164   0.142  1.00  0.00     0.009 C 
ENDBRANCH  12  16
ENDBRANCH  10  11
ENDBRANCH   6  10
ENDBRANCH   3   5
ENDBRANCH   2   3
ENDBRANCH   1   2
BRANCH   1  18
ATOM     18  C   UNL     1      -2.984  -1.278   0.512  1.00  0.00     0.275 C 
BRANCH  18  19
ATOM     19  O   UNL     1      -4.002  -0.874   1.437  1.00  0.00    -0.458 OA
BRANCH  19  20
ATOM     20  C   UNL     1      -3.564  -0.025   2.396  1.00  0.00     0.338 C 
ATOM     21  O   UNL     1      -2.542   0.640   2.373  1.00  0.00    -0.246 OA
BRANCH  20  22
ATOM     22  C   UNL     1      -4.386  -0.081   3.603  1.00  0.00     0.060 A 
ATOM     23  C   UNL     1      -4.489   1.087   4.368  1.00  0.00     0.016 A 
ATOM     24  C   UNL     1      -4.830  -1.316   4.087  1.00  0.00     0.016 A 
ATOM     25  C   UNL     1      -5.013   1.015   5.647  1.00  0.00     0.010 A 
ATOM     26  C   UNL     1      -5.328  -1.393   5.380  1.00  0.00     0.010 A 
ATOM     27  C   UNL     1      -5.415  -0.226   6.156  1.00  0.00    -0.014 A 
BRANCH  27  28
ATOM     28  C   UNL     1      -6.080  -0.256   7.474  1.00  0.00     0.031 A 
ATOM     29  C   UNL     1      -7.601  -0.029   7.348  1.00  0.00     0.074 A 
ATOM     30  C   UNL     1      -5.268  -0.450   8.558  1.00  0.00     0.049 A 
ATOM     31  N   UNL     1      -8.473   0.348   8.234  1.00  0.00    -0.248 NA
ATOM     32  C   UNL     1      -8.244  -0.193   6.010  1.00  0.00     0.031 C 
ATOM     33  C   UNL     1      -3.803  -0.659   8.489  1.00  0.00     0.029 A 
ATOM     34  N   UNL     1      -5.484  -0.514   9.920  1.00  0.00    -0.354 N 
ATOM     35  C   UNL     1      -9.751   0.224   7.643  1.00  0.00     0.074 A 
ATOM     36  C   UNL     1      -9.540   0.011   6.246  1.00  0.00     0.031 C 
ATOM     37  C   UNL     1      -3.267  -0.747   9.726  1.00  0.00     0.029 A 
ATOM     38  C   UNL     1      -4.315  -0.643  10.722  1.00  0.00     0.049 A 
ATOM     39  H   UNL     1      -6.386  -0.472  10.310  1.00  0.00     0.167 HD
ATOM     40  C   UNL     1     -10.913   0.163   8.355  1.00  0.00     0.037 A 
ATOM     41  C   UNL     1      -4.203  -0.644  12.089  1.00  0.00     0.037 A 
ATOM     42  C   UNL     1     -10.650   0.315   9.744  1.00  0.00     0.049 A 
ATOM     43  C   UNL     1      -5.588  -0.700  12.578  1.00  0.00     0.074 A 
ATOM     44  C   UNL     1     -10.332   1.401  10.514  1.00  0.00     0.029 A 
ATOM     45  N   UNL     1     -10.412  -0.831  10.462  1.00  0.00    -0.354 N 
ATOM     46  N   UNL     1      -6.346  -1.753  12.523  1.00  0.00    -0.248 NA
ATOM     47  C   UNL     1      -6.197   0.520  13.120  1.00  0.00     0.031 C 
ATOM     48  C   UNL     1      -9.517   0.870  11.533  1.00  0.00     0.029 A 
ATOM     49  C   UNL     1      -9.476  -0.525  11.421  1.00  0.00     0.049 A 
ATOM     50  H   UNL     1     -10.833  -1.709  10.316  1.00  0.00     0.167 HD
ATOM     51  C   UNL     1      -7.599  -1.228  12.714  1.00  0.00     0.074 A 
ATOM     52  C   UNL     1      -7.415   0.047  13.371  1.00  0.00     0.031 C 
ATOM     53  C   UNL     1      -8.608  -1.588  11.881  1.00  0.00     0.037 A 
BRANCH  40  54
ATOM     54  C   UNL     1     -12.308  -0.249   7.968  1.00  0.00     0.058 A 
ATOM     55  C   UNL     1     -13.379   0.190   8.784  1.00  0.00     0.135 A 
ATOM     56  C   UNL     1     -12.589  -1.310   7.094  1.00  0.00     0.135 A 
ATOM     57  F   UNL     1     -13.229   1.244   9.605  1.00  0.00    -0.206 F 
ATOM     58  C   UNL     1     -14.596  -0.478   8.846  1.00  0.00     0.059 A 
ATOM     59  C   UNL     1     -13.823  -1.970   7.108  1.00  0.00     0.059 A 
ATOM     60  F   UNL     1     -11.651  -1.792   6.268  1.00  0.00    -0.206 F 
ATOM     61  C   UNL     1     -14.793  -1.587   8.033  1.00  0.00     0.060 A 
BRANCH  61  62
ATOM     62  S   UNL     1     -16.306  -2.548   8.248  1.00  0.00     0.124 S 
ATOM     63  O   UNL     1     -16.026  -3.267   9.486  1.00  0.00    -0.237 OA
ATOM     64  O   UNL     1     -17.327  -1.508   8.339  1.00  0.00    -0.237 OA
ATOM     65  O   UNL     1     -16.361  -3.362   7.038  1.00  0.00    -0.744 OA
ENDBRANCH  61  62
ENDBRANCH  40  54
BRANCH  41  66
ATOM     66  C   UNL     1      -3.134  -0.541  13.166  1.00  0.00     0.058 A 
ATOM     67  C   UNL     1      -1.754  -0.409  12.964  1.00  0.00     0.135 A 
ATOM     68  C   UNL     1      -3.528  -0.410  14.533  1.00  0.00     0.135 A 
ATOM     69  F   UNL     1      -1.206  -0.624  11.762  1.00  0.00    -0.206 F 
ATOM     70  C   UNL     1      -0.870  -0.024  13.995  1.00  0.00     0.059 A 
ATOM     71  C   UNL     1      -2.688   0.022  15.555  1.00  0.00     0.059 A 
ATOM     72  F   UNL     1      -4.783  -0.657  14.935  1.00  0.00    -0.206 F 
ATOM     73  C   UNL     1      -1.357   0.247  15.272  1.00  0.00     0.060 A 
BRANCH  73  74
ATOM     74  S   UNL     1      -0.319   1.019  16.534  1.00  0.00     0.124 S 
ATOM     75  O   UNL     1       0.240  -0.139  17.221  1.00  0.00    -0.237 OA
ATOM     76  O   UNL     1       0.622   1.803  15.739  1.00  0.00    -0.237 OA
ATOM     77  O   UNL     1      -1.275   1.810  17.305  1.00  0.00    -0.744 OA
ENDBRANCH  73  74
ENDBRANCH  41  66
BRANCH  53  78
ATOM     78  C   UNL     1      -8.419  -2.945  11.220  1.00  0.00     0.058 A 
ATOM     79  C   UNL     1      -8.403  -4.118  11.991  1.00  0.00     0.135 A 
ATOM     80  C   UNL     1      -8.152  -3.114   9.850  1.00  0.00     0.135 A 
ATOM     81  F   UNL     1      -8.643  -4.052  13.311  1.00  0.00    -0.206 F 
ATOM     82  C   UNL     1      -8.146  -5.376  11.434  1.00  0.00     0.059 A 
ATOM     83  C   UNL     1      -7.903  -4.357   9.262  1.00  0.00     0.059 A 
ATOM     84  F   UNL     1      -8.121  -2.062   9.035  1.00  0.00    -0.206 F 
ATOM     85  C   UNL     1      -7.900  -5.488  10.065  1.00  0.00     0.060 A 
BRANCH  85  86
ATOM     86  S   UNL     1      -7.586  -7.118   9.351  1.00  0.00     0.124 S 
ATOM     87  O   UNL     1      -6.421  -7.573  10.103  1.00  0.00    -0.237 OA
ATOM     88  O   UNL     1      -8.833  -7.821   9.633  1.00  0.00    -0.237 OA
ATOM     89  O   UNL     1      -7.337  -6.838   7.938  1.00  0.00    -0.744 OA
ENDBRANCH  85  86
ENDBRANCH  53  78
ENDBRANCH  27  28
ENDBRANCH  20  22
ENDBRANCH  19  20
ENDBRANCH  18  19
ENDBRANCH   1  18
TORSDOF 17
