REMARK SMILES Cc1occc1C(=O)NN1C(=O)/C(=C\c2ccc(O[C@H](C)C(=O)OCCOC(=O)c3ccc(-c4c5nc(c(-c6c(F)cc(S(=O)(=O)[O-])cc6F)c6ccc([nH]6)c(-c6c(F)cc(S(=O)(=O)[O-])cc6F)c6nc(c(-c7c(F)cc(S(=O)(=O)[O-])cc7F)c7ccc4[nH]7)C=C6)C=C5)cc3)cc2)SC1=S
REMARK SMILES IDX 25 1 24 2 22 3 23 4 20 5 21 6 19 7 18 8 15 9 16 10 97 11
REMARK SMILES IDX 17 12 96 13 14 14 10 15 11 16 99 17 12 18 13 19 98 20 100 21
REMARK SMILES IDX 9 22 7 23 8 24 6 26 1 27 2 28 3 29 4 30 5 31 26 32 27 33
REMARK SMILES IDX 28 34 29 35 30 36 31 37 95 38 32 39 94 40 33 41 34 42 35 43
REMARK SMILES IDX 88 44 36 45 93 46 87 47 89 48 37 49 92 50 86 51 85 52 38 54
REMARK SMILES IDX 72 55 51 56 71 57 52 58 55 59 70 60 90 61 53 62 54 63 69 65
REMARK SMILES IDX 91 66 56 67 39 68 40 69 49 70 41 71 42 72 48 73 50 74 43 75
REMARK SMILES IDX 44 76 45 77 46 78 47 79 73 80 74 81 83 82 75 83 76 84 82 85
REMARK SMILES IDX 84 86 77 87 78 88 79 89 80 90 81 91 57 92 58 93 67 94 59 95
REMARK SMILES IDX 60 96 66 97 68 98 61 99 62 100 63 101 64 102 65 103
REMARK H PARENT 9 25 89 53 55 64
REMARK Flexibility Score: inf
ROOT
ATOM      1  C   UNL     1       5.493  -1.589  -7.452  1.00  0.00     0.274 C 
ENDROOT
BRANCH   1   2
ATOM      2  O   UNL     1       5.706  -2.721  -6.588  1.00  0.00    -0.459 OA
BRANCH   2   3
ATOM      3  C   UNL     1       5.404  -3.932  -7.130  1.00  0.00     0.347 C 
ATOM      4  O   UNL     1       4.977  -4.091  -8.270  1.00  0.00    -0.248 OA
BRANCH   3   5
ATOM      5  C   UNL     1       5.606  -5.092  -6.158  1.00  0.00     0.279 C 
ATOM      6  C   UNL     1       6.952  -5.152  -5.433  1.00  0.00     0.066 C 
BRANCH   5   7
ATOM      7  O   UNL     1       4.429  -5.304  -5.384  1.00  0.00    -0.479 OA
BRANCH   7   8
ATOM      8  C   UNL     1       4.225  -4.751  -4.164  1.00  0.00     0.120 A 
ATOM      9  C   UNL     1       3.751  -4.093  -1.477  1.00  0.00    -0.024 A 
ATOM     10  C   UNL     1       4.762  -3.454  -2.200  1.00  0.00     0.012 A 
ATOM     11  C   UNL     1       2.877  -4.943  -2.157  1.00  0.00     0.012 A 
ATOM     12  C   UNL     1       4.982  -3.766  -3.545  1.00  0.00     0.047 A 
ATOM     13  C   UNL     1       3.135  -5.292  -3.482  1.00  0.00     0.047 A 
BRANCH   9  14
ATOM     14  C   UNL     1       3.684  -3.876  -0.026  1.00  0.00     0.029 C 
ATOM     15  N   UNL     1       3.244  -6.927   1.902  1.00  0.00    -0.198 N 
ATOM     16  C   UNL     1       3.570  -6.315   0.704  1.00  0.00     0.285 C 
ATOM     17  C   UNL     1       3.372  -6.189   3.058  1.00  0.00     0.168 C 
ATOM     18  O   UNL     1       3.806  -6.916  -0.333  1.00  0.00    -0.266 OA
ATOM     19  C   UNL     1       3.641  -4.838   0.909  1.00  0.00     0.082 C 
ATOM     20  S   UNL     1       3.636  -4.499   2.612  1.00  0.00    -0.052 SA
ATOM     21  S   UNL     1       3.316  -6.719   4.636  1.00  0.00    -0.050 S 
BRANCH  15  22
ATOM     22  N   UNL     1       3.073  -8.307   1.869  1.00  0.00    -0.254 N 
ATOM     23  C   UNL     1       1.893  -9.005   1.984  1.00  0.00     0.273 C 
ATOM     24  O   UNL     1       1.932 -10.215   1.750  1.00  0.00    -0.267 OA
ATOM     25  H   UNL     1       3.889  -8.845   1.749  1.00  0.00     0.192 HD
BRANCH  23  26
ATOM     26  C   UNL     1       0.661  -8.402   2.481  1.00  0.00     0.082 A 
ATOM     27  C   UNL     1       0.262  -6.019   1.359  1.00  0.00     0.088 C 
ATOM     28  C   UNL     1       0.034  -7.189   2.229  1.00  0.00     0.113 A 
ATOM     29  O   UNL     1      -1.128  -7.101   2.944  1.00  0.00    -0.469 OA
ATOM     30  C   UNL     1      -1.299  -8.269   3.600  1.00  0.00     0.196 A 
ATOM     31  C   UNL     1      -0.251  -9.109   3.336  1.00  0.00     0.056 A 
ENDBRANCH  23  26
ENDBRANCH  15  22
ENDBRANCH   9  14
ENDBRANCH   7   8
ENDBRANCH   5   7
ENDBRANCH   3   5
ENDBRANCH   2   3
ENDBRANCH   1   2
BRANCH   1  32
ATOM     32  C   UNL     1       6.786  -1.129  -8.134  1.00  0.00     0.275 C 
BRANCH  32  33
ATOM     33  O   UNL     1       7.313  -2.119  -9.036  1.00  0.00    -0.458 OA
BRANCH  33  34
ATOM     34  C   UNL     1       8.191  -2.985  -8.477  1.00  0.00     0.338 C 
ATOM     35  O   UNL     1       8.586  -2.986  -7.324  1.00  0.00    -0.246 OA
BRANCH  34  36
ATOM     36  C   UNL     1       8.517  -4.059  -9.427  1.00  0.00     0.060 A 
ATOM     37  C   UNL     1       8.118  -5.357  -9.102  1.00  0.00     0.016 A 
ATOM     38  C   UNL     1       9.290  -3.821 -10.562  1.00  0.00     0.016 A 
ATOM     39  C   UNL     1       8.514  -6.433  -9.885  1.00  0.00     0.010 A 
ATOM     40  C   UNL     1       9.674  -4.903 -11.364  1.00  0.00     0.010 A 
ATOM     41  C   UNL     1       9.302  -6.215 -11.019  1.00  0.00    -0.014 A 
BRANCH  41  42
ATOM     42  C   UNL     1       9.765  -7.378 -11.808  1.00  0.00     0.031 A 
ATOM     43  C   UNL     1      11.200  -7.811 -11.726  1.00  0.00     0.074 A 
ATOM     44  C   UNL     1       8.884  -8.067 -12.557  1.00  0.00     0.049 A 
ATOM     45  N   UNL     1      11.820  -8.746 -12.397  1.00  0.00    -0.248 NA
ATOM     46  C   UNL     1      12.050  -7.097 -10.759  1.00  0.00     0.031 C 
ATOM     47  C   UNL     1       7.454  -7.773 -12.662  1.00  0.00     0.029 A 
ATOM     48  N   UNL     1       9.063  -9.156 -13.371  1.00  0.00    -0.354 N 
ATOM     49  C   UNL     1      13.136  -8.718 -11.956  1.00  0.00     0.074 A 
ATOM     50  C   UNL     1      13.229  -7.668 -10.964  1.00  0.00     0.031 C 
ATOM     51  C   UNL     1       6.885  -8.661 -13.494  1.00  0.00     0.029 A 
ATOM     52  C   UNL     1       7.916  -9.552 -14.017  1.00  0.00     0.049 A 
ATOM     53  H   UNL     1       9.929  -9.611 -13.482  1.00  0.00     0.167 HD
ATOM     54  C   UNL     1      14.171  -9.500 -12.346  1.00  0.00     0.037 A 
ATOM     55  C   UNL     1       7.727 -10.504 -14.950  1.00  0.00     0.037 A 
ATOM     56  C   UNL     1      14.062 -10.554 -13.321  1.00  0.00     0.049 A 
ATOM     57  C   UNL     1       8.902 -11.324 -15.404  1.00  0.00     0.074 A 
ATOM     58  C   UNL     1      15.050 -11.403 -13.787  1.00  0.00     0.029 A 
ATOM     59  N   UNL     1      12.890 -10.906 -13.976  1.00  0.00    -0.354 N 
ATOM     60  N   UNL     1      10.150 -11.268 -15.002  1.00  0.00    -0.248 NA
ATOM     61  C   UNL     1       8.649 -12.328 -16.446  1.00  0.00     0.031 C 
ATOM     62  C   UNL     1      14.483 -12.248 -14.748  1.00  0.00     0.029 A 
ATOM     63  C   UNL     1      13.133 -11.950 -14.854  1.00  0.00     0.049 A 
ATOM     64  H   UNL     1      12.015 -10.477 -13.838  1.00  0.00     0.167 HD
ATOM     65  C   UNL     1      10.828 -12.237 -15.731  1.00  0.00     0.074 A 
ATOM     66  C   UNL     1       9.849 -12.875 -16.589  1.00  0.00     0.031 C 
ATOM     67  C   UNL     1      12.142 -12.569 -15.697  1.00  0.00     0.037 A 
BRANCH  54  68
ATOM     68  C   UNL     1      15.518  -9.219 -11.743  1.00  0.00     0.058 A 
ATOM     69  C   UNL     1      15.829  -9.584 -10.424  1.00  0.00     0.135 A 
ATOM     70  C   UNL     1      16.517  -8.592 -12.504  1.00  0.00     0.135 A 
ATOM     71  F   UNL     1      14.902 -10.167  -9.648  1.00  0.00    -0.206 F 
ATOM     72  C   UNL     1      17.078  -9.316  -9.873  1.00  0.00     0.059 A 
ATOM     73  C   UNL     1      17.780  -8.334 -11.980  1.00  0.00     0.059 A 
ATOM     74  F   UNL     1      16.269  -8.219 -13.769  1.00  0.00    -0.206 F 
ATOM     75  C   UNL     1      18.046  -8.686 -10.658  1.00  0.00     0.060 A 
BRANCH  75  76
ATOM     76  S   UNL     1      19.662  -8.339  -9.930  1.00  0.00     0.124 S 
ATOM     77  O   UNL     1      19.357  -7.189  -9.084  1.00  0.00    -0.237 OA
ATOM     78  O   UNL     1      19.964  -9.581  -9.226  1.00  0.00    -0.237 OA
ATOM     79  O   UNL     1      20.503  -8.059 -11.089  1.00  0.00    -0.744 OA
ENDBRANCH  75  76
ENDBRANCH  54  68
BRANCH  55  80
ATOM     80  C   UNL     1       6.378 -10.706 -15.537  1.00  0.00     0.058 A 
ATOM     81  C   UNL     1       5.622 -11.849 -15.243  1.00  0.00     0.135 A 
ATOM     82  C   UNL     1       5.812  -9.749 -16.394  1.00  0.00     0.135 A 
ATOM     83  F   UNL     1       6.125 -12.796 -14.436  1.00  0.00    -0.206 F 
ATOM     84  C   UNL     1       4.356 -12.043 -15.785  1.00  0.00     0.059 A 
ATOM     85  C   UNL     1       4.539  -9.909 -16.930  1.00  0.00     0.059 A 
ATOM     86  F   UNL     1       6.491  -8.631 -16.697  1.00  0.00    -0.206 F 
ATOM     87  C   UNL     1       3.822 -11.066 -16.627  1.00  0.00     0.060 A 
BRANCH  87  88
ATOM     88  S   UNL     1       2.157 -11.298 -17.287  1.00  0.00     0.124 S 
ATOM     89  O   UNL     1       2.397 -12.262 -18.355  1.00  0.00    -0.237 OA
ATOM     90  O   UNL     1       1.429 -11.800 -16.126  1.00  0.00    -0.237 OA
ATOM     91  O   UNL     1       1.779  -9.956 -17.720  1.00  0.00    -0.744 OA
ENDBRANCH  87  88
ENDBRANCH  55  80
BRANCH  67  92
ATOM     92  C   UNL     1      12.590 -13.684 -16.596  1.00  0.00     0.058 A 
ATOM     93  C   UNL     1      12.757 -13.490 -17.976  1.00  0.00     0.135 A 
ATOM     94  C   UNL     1      12.898 -14.947 -16.066  1.00  0.00     0.135 A 
ATOM     95  F   UNL     1      12.468 -12.302 -18.531  1.00  0.00    -0.206 F 
ATOM     96  C   UNL     1      13.198 -14.517 -18.804  1.00  0.00     0.059 A 
ATOM     97  C   UNL     1      13.360 -15.982 -16.872  1.00  0.00     0.059 A 
ATOM     98  F   UNL     1      12.762 -15.179 -14.751  1.00  0.00    -0.206 F 
ATOM     99  C   UNL     1      13.496 -15.760 -18.242  1.00  0.00     0.060 A 
BRANCH  99 100
ATOM    100  S   UNL     1      14.100 -17.078 -19.319  1.00  0.00     0.124 S 
ATOM    101  O   UNL     1      12.865 -17.524 -19.956  1.00  0.00    -0.237 OA
ATOM    102  O   UNL     1      15.040 -16.372 -20.184  1.00  0.00    -0.237 OA
ATOM    103  O   UNL     1      14.705 -18.025 -18.387  1.00  0.00    -0.744 OA
ENDBRANCH  99 100
ENDBRANCH  67  92
ENDBRANCH  41  42
ENDBRANCH  34  36
ENDBRANCH  33  34
ENDBRANCH  32  33
ENDBRANCH   1  32
TORSDOF 19
