REMARK SMILES Cc1cc(C[N@H+]2CC[C@](C)(C(=O)OCCOC(=O)c3ccc(-c4c5nc(c(-c6c(F)cc(S(=O)(=O)[O-])cc6F)c6ccc([nH]6)c(-c6c(F)cc(S(=O)(=O)[O-])cc6F)c6nc(c(-c7c(F)cc(S(=O)(=O)[O-])cc7F)c7ccc4[nH]7)C=C6)C=C5)cc3)C2)c2ccccc2n1
REMARK SMILES IDX 15 1 14 2 13 3 11 4 12 5 9 6 6 7 7 8 85 9 8 11 10 12 5 13
REMARK SMILES IDX 4 14 1 15 2 16 3 17 92 18 91 19 86 20 90 21 87 22 89 23
REMARK SMILES IDX 88 24 16 25 17 26 18 27 19 28 20 29 84 30 21 31 83 32 22 33
REMARK SMILES IDX 23 34 24 35 77 36 25 37 82 38 76 39 78 40 26 41 81 42 75 43
REMARK SMILES IDX 74 44 27 46 61 47 40 48 60 49 41 50 44 51 59 52 79 53 42 54
REMARK SMILES IDX 43 55 58 57 80 58 45 59 28 60 29 61 38 62 30 63 31 64 37 65
REMARK SMILES IDX 39 66 32 67 33 68 34 69 35 70 36 71 62 72 63 73 72 74 64 75
REMARK SMILES IDX 65 76 71 77 73 78 66 79 67 80 68 81 69 82 70 83 46 84 47 85
REMARK SMILES IDX 56 86 48 87 49 88 55 89 57 90 50 91 51 92 52 93 53 94 54 95
REMARK H PARENT 6 10 78 45 44 56
REMARK Flexibility Score: inf
ROOT
ATOM      1  C   UNL     1       5.438   4.918   3.227  1.00  0.00     0.275 C 
ENDROOT
BRANCH   1   2
ATOM      2  C   UNL     1       5.428   3.391   3.237  1.00  0.00     0.274 C 
BRANCH   2   3
ATOM      3  O   UNL     1       4.219   2.908   2.617  1.00  0.00    -0.461 OA
BRANCH   3   4
ATOM      4  C   UNL     1       3.207   2.535   3.453  1.00  0.00     0.317 C 
ATOM      5  O   UNL     1       3.305   2.458   4.671  1.00  0.00    -0.251 OA
BRANCH   4   6
ATOM      6  C   UNL     1       1.962   2.130   2.681  1.00  0.00     0.119 C 
ATOM      7  N   UNL     1       0.408   3.066   1.096  1.00  0.00    -0.330 N 
ATOM      8  C   UNL     1      -0.359   2.589   2.243  1.00  0.00     0.263 C 
ATOM      9  C   UNL     1       1.834   2.888   1.355  1.00  0.00     0.281 C 
ATOM     10  H   UNL     1       0.244   4.070   1.025  1.00  0.00     0.348 HD
ATOM     11  C   UNL     1       0.660   2.542   3.373  1.00  0.00     0.086 C 
ATOM     12  C   UNL     1       2.023   0.607   2.520  1.00  0.00     0.030 C 
BRANCH   7  13
ATOM     13  C   UNL     1      -0.096   2.765  -0.245  1.00  0.00     0.299 C 
BRANCH  13  14
ATOM     14  C   UNL     1      -0.446   1.308  -0.491  1.00  0.00     0.017 A 
ATOM     15  C   UNL     1      -3.486  -0.887   0.066  1.00  0.00     0.067 C 
ATOM     16  C   UNL     1      -2.085  -0.434  -0.213  1.00  0.00     0.038 A 
ATOM     17  C   UNL     1      -1.774   0.914  -0.265  1.00  0.00     0.033 A 
ATOM     18  N   UNL     1      -1.145  -1.397  -0.335  1.00  0.00    -0.253 NA
ATOM     19  C   UNL     1       0.123  -1.033  -0.590  1.00  0.00     0.071 A 
ATOM     20  C   UNL     1       0.521   0.310  -0.763  1.00  0.00     0.009 A 
ATOM     21  C   UNL     1       1.093  -2.026  -0.645  1.00  0.00     0.029 A 
ATOM     22  C   UNL     1       1.857   0.573  -1.148  1.00  0.00     0.011 A 
ATOM     23  C   UNL     1       2.432  -1.744  -0.924  1.00  0.00     0.002 A 
ATOM     24  C   UNL     1       2.809  -0.442  -1.210  1.00  0.00     0.001 A 
ENDBRANCH  13  14
ENDBRANCH   7  13
ENDBRANCH   4   6
ENDBRANCH   3   4
ENDBRANCH   2   3
ENDBRANCH   1   2
BRANCH   1  25
ATOM     25  O   UNL     1       4.363   5.386   4.056  1.00  0.00    -0.458 OA
BRANCH  25  26
ATOM     26  C   UNL     1       3.679   6.467   3.610  1.00  0.00     0.338 C 
ATOM     27  O   UNL     1       3.965   7.160   2.650  1.00  0.00    -0.246 OA
BRANCH  26  28
ATOM     28  C   UNL     1       2.478   6.676   4.455  1.00  0.00     0.060 A 
ATOM     29  C   UNL     1       1.810   5.589   5.013  1.00  0.00     0.016 A 
ATOM     30  C   UNL     1       1.948   7.955   4.619  1.00  0.00     0.016 A 
ATOM     31  C   UNL     1       0.566   5.753   5.621  1.00  0.00     0.010 A 
ATOM     32  C   UNL     1       0.761   8.131   5.348  1.00  0.00     0.010 A 
ATOM     33  C   UNL     1       0.029   7.028   5.828  1.00  0.00    -0.014 A 
BRANCH  33  34
ATOM     34  C   UNL     1      -1.297   7.204   6.500  1.00  0.00     0.031 A 
ATOM     35  C   UNL     1      -2.369   8.044   5.846  1.00  0.00     0.074 A 
ATOM     36  C   UNL     1      -1.571   6.610   7.683  1.00  0.00     0.049 A 
ATOM     37  N   UNL     1      -3.456   8.553   6.369  1.00  0.00    -0.248 NA
ATOM     38  C   UNL     1      -2.184   8.373   4.423  1.00  0.00     0.031 C 
ATOM     39  C   UNL     1      -0.673   5.722   8.425  1.00  0.00     0.029 A 
ATOM     40  N   UNL     1      -2.698   6.660   8.471  1.00  0.00    -0.354 N 
ATOM     41  C   UNL     1      -4.040   9.322   5.367  1.00  0.00     0.074 A 
ATOM     42  C   UNL     1      -3.193   9.204   4.200  1.00  0.00     0.031 C 
ATOM     43  C   UNL     1      -1.298   5.271   9.523  1.00  0.00     0.029 A 
ATOM     44  C   UNL     1      -2.595   5.924   9.631  1.00  0.00     0.049 A 
ATOM     45  H   UNL     1      -3.502   7.173   8.229  1.00  0.00     0.167 HD
ATOM     46  C   UNL     1      -5.173  10.063   5.421  1.00  0.00     0.037 A 
ATOM     47  C   UNL     1      -3.416   5.828  10.695  1.00  0.00     0.037 A 
ATOM     48  C   UNL     1      -6.056  10.111   6.559  1.00  0.00     0.049 A 
ATOM     49  C   UNL     1      -4.671   6.654  10.731  1.00  0.00     0.074 A 
ATOM     50  C   UNL     1      -7.211  10.857   6.725  1.00  0.00     0.029 A 
ATOM     51  N   UNL     1      -5.906   9.350   7.708  1.00  0.00    -0.354 N 
ATOM     52  N   UNL     1      -5.133   7.488   9.832  1.00  0.00    -0.248 NA
ATOM     53  C   UNL     1      -5.498   6.552  11.942  1.00  0.00     0.031 C 
ATOM     54  C   UNL     1      -7.756  10.552   7.978  1.00  0.00     0.029 A 
ATOM     55  C   UNL     1      -6.955   9.595   8.578  1.00  0.00     0.049 A 
ATOM     56  H   UNL     1      -5.163   8.727   7.879  1.00  0.00     0.167 HD
ATOM     57  C   UNL     1      -6.302   8.012  10.369  1.00  0.00     0.074 A 
ATOM     58  C   UNL     1      -6.494   7.380  11.658  1.00  0.00     0.031 C 
ATOM     59  C   UNL     1      -7.134   8.948   9.851  1.00  0.00     0.037 A 
BRANCH  46  60
ATOM     60  C   UNL     1      -5.524  10.904   4.225  1.00  0.00     0.058 A 
ATOM     61  C   UNL     1      -6.063  10.346   3.057  1.00  0.00     0.135 A 
ATOM     62  C   UNL     1      -5.379  12.301   4.279  1.00  0.00     0.135 A 
ATOM     63  F   UNL     1      -6.203   9.016   2.946  1.00  0.00    -0.206 F 
ATOM     64  C   UNL     1      -6.439  11.143   1.979  1.00  0.00     0.059 A 
ATOM     65  C   UNL     1      -5.768  13.118   3.222  1.00  0.00     0.059 A 
ATOM     66  F   UNL     1      -4.867  12.886   5.373  1.00  0.00    -0.206 F 
ATOM     67  C   UNL     1      -6.290  12.528   2.072  1.00  0.00     0.060 A 
BRANCH  67  68
ATOM     68  S   UNL     1      -6.813  13.552   0.679  1.00  0.00     0.124 S 
ATOM     69  O   UNL     1      -5.729  13.325  -0.272  1.00  0.00    -0.237 OA
ATOM     70  O   UNL     1      -8.100  12.965   0.323  1.00  0.00    -0.237 OA
ATOM     71  O   UNL     1      -6.877  14.894   1.249  1.00  0.00    -0.744 OA
ENDBRANCH  67  68
ENDBRANCH  46  60
BRANCH  47  72
ATOM     72  C   UNL     1      -3.040   4.975  11.856  1.00  0.00     0.058 A 
ATOM     73  C   UNL     1      -3.757   3.810  12.162  1.00  0.00     0.135 A 
ATOM     74  C   UNL     1      -1.962   5.317  12.687  1.00  0.00     0.135 A 
ATOM     75  F   UNL     1      -4.805   3.449  11.406  1.00  0.00    -0.206 F 
ATOM     76  C   UNL     1      -3.430   3.021  13.261  1.00  0.00     0.059 A 
ATOM     77  C   UNL     1      -1.597   4.529  13.773  1.00  0.00     0.059 A 
ATOM     78  F   UNL     1      -1.236   6.417  12.431  1.00  0.00    -0.206 F 
ATOM     79  C   UNL     1      -2.347   3.390  14.061  1.00  0.00     0.060 A 
BRANCH  79  80
ATOM     80  S   UNL     1      -1.894   2.348  15.465  1.00  0.00     0.124 S 
ATOM     81  O   UNL     1      -2.831   2.807  16.483  1.00  0.00    -0.237 OA
ATOM     82  O   UNL     1      -2.123   1.003  14.945  1.00  0.00    -0.237 OA
ATOM     83  O   UNL     1      -0.493   2.691  15.691  1.00  0.00    -0.744 OA
ENDBRANCH  79  80
ENDBRANCH  47  72
BRANCH  59  84
ATOM     84  C   UNL     1      -8.338   9.316  10.667  1.00  0.00     0.058 A 
ATOM     85  C   UNL     1      -8.234  10.152  11.788  1.00  0.00     0.135 A 
ATOM     86  C   UNL     1      -9.610   8.842  10.312  1.00  0.00     0.135 A 
ATOM     87  F   UNL     1      -7.037  10.624  12.171  1.00  0.00    -0.206 F 
ATOM     88  C   UNL     1      -9.349  10.486  12.549  1.00  0.00     0.059 A 
ATOM     89  C   UNL     1     -10.742   9.178  11.047  1.00  0.00     0.059 A 
ATOM     90  F   UNL     1      -9.761   8.044   9.242  1.00  0.00    -0.206 F 
ATOM     91  C   UNL     1     -10.599   9.989  12.172  1.00  0.00     0.060 A 
BRANCH  91  92
ATOM     92  S   UNL     1     -12.045  10.437  13.157  1.00  0.00     0.124 S 
ATOM     93  O   UNL     1     -11.907   9.543  14.302  1.00  0.00    -0.237 OA
ATOM     94  O   UNL     1     -11.817  11.853  13.428  1.00  0.00    -0.237 OA
ATOM     95  O   UNL     1     -13.163  10.149  12.265  1.00  0.00    -0.744 OA
ENDBRANCH  91  92
ENDBRANCH  59  84
ENDBRANCH  33  34
ENDBRANCH  26  28
ENDBRANCH  25  26
ENDBRANCH   1  25
TORSDOF 16
