REMARK SMILES CC1=CC[C@@H]2C(=O)N(c3ccc(Cl)c(C(=O)OCCOC(=O)c4ccc(-c5c6nc(c(-c7c(F)cc(S(=O)(=O)[O-])cc7F)c7ccc([nH]7)c(-c7c(F)cc(S(=O)(=O)[O-])cc7F)c7nc(c(-c8c(F)cc(S(=O)(=O)[O-])cc8F)c8ccc5[nH]8)C=C7)C=C6)cc4)c3)C(=O)[C@H]2C1
REMARK SMILES IDX 19 1 18 2 17 3 15 4 16 5 14 6 9 7 10 8 89 9 11 10 12 11
REMARK SMILES IDX 13 12 8 13 1 14 2 15 3 16 93 17 4 18 92 19 5 20 90 21 6 22
REMARK SMILES IDX 91 23 7 24 20 25 21 26 22 27 23 28 24 29 88 30 25 31 87 32
REMARK SMILES IDX 26 33 27 34 28 35 81 36 29 37 86 38 80 39 82 40 30 41 85 42
REMARK SMILES IDX 79 43 78 44 31 46 65 47 44 48 64 49 45 50 48 51 63 52 83 53
REMARK SMILES IDX 46 54 47 55 62 57 84 58 49 59 32 60 33 61 42 62 34 63 35 64
REMARK SMILES IDX 41 65 43 66 36 67 37 68 38 69 39 70 40 71 66 72 67 73 76 74
REMARK SMILES IDX 68 75 69 76 75 77 77 78 70 79 71 80 72 81 73 82 74 83 50 84
REMARK SMILES IDX 51 85 60 86 52 87 53 88 59 89 61 90 54 91 55 92 56 93 57 94
REMARK SMILES IDX 58 95
REMARK H PARENT 82 45 48 56
REMARK Flexibility Score: inf
ROOT
ATOM      1  C   UNL     1       4.028 -11.388   3.769  1.00  0.00     0.275 C 
ENDROOT
BRANCH   1   2
ATOM      2  C   UNL     1       2.653 -11.847   3.295  1.00  0.00     0.275 C 
BRANCH   2   3
ATOM      3  O   UNL     1       2.278 -11.174   2.074  1.00  0.00    -0.458 OA
BRANCH   3   4
ATOM      4  C   UNL     1       1.279 -10.267   2.192  1.00  0.00     0.339 C 
ATOM      5  O   UNL     1       0.720  -9.928   3.218  1.00  0.00    -0.246 OA
BRANCH   4   6
ATOM      6  C   UNL     1       0.958  -9.633   0.897  1.00  0.00     0.080 A 
ATOM      7  C   UNL     1       0.391  -7.538  -0.222  1.00  0.00     0.053 A 
ATOM      8  C   UNL     1      -0.070  -8.266  -1.319  1.00  0.00     0.028 A 
ATOM      9  C   UNL     1       0.906  -8.229   0.876  1.00  0.00     0.044 A 
ATOM     10  C   UNL     1       0.034  -9.664  -1.330  1.00  0.00     0.023 A 
ATOM     11  C   UNL     1       0.535 -10.354  -0.219  1.00  0.00     0.055 A 
ATOM     12  Cl  UNL     1       0.510 -12.080  -0.273  1.00  0.00    -0.083 Cl
BRANCH   7  13
ATOM     13  N   UNL     1       0.276  -6.134  -0.167  1.00  0.00    -0.250 N 
ATOM     14  C   UNL     1       1.109  -0.116   0.112  1.00  0.00     0.039 C 
ATOM     15  C   UNL     1       0.488  -1.485   0.142  1.00  0.00    -0.076 C 
ATOM     16  C   UNL     1      -0.854  -1.644   0.232  1.00  0.00    -0.027 C 
ATOM     17  C   UNL     1       1.450  -2.670   0.082  1.00  0.00     0.044 C 
ATOM     18  C   UNL     1      -1.550  -2.988   0.160  1.00  0.00     0.041 C 
ATOM     19  C   UNL     1       0.700  -3.942   0.440  1.00  0.00     0.096 C 
ATOM     20  C   UNL     1      -0.570  -4.002  -0.396  1.00  0.00     0.096 C 
ATOM     21  C   UNL     1       1.315  -5.286   0.184  1.00  0.00     0.238 C 
ATOM     22  C   UNL     1      -0.912  -5.459  -0.380  1.00  0.00     0.238 C 
ATOM     23  O   UNL     1       2.493  -5.565   0.340  1.00  0.00    -0.274 OA
ATOM     24  O   UNL     1      -2.022  -5.925  -0.582  1.00  0.00    -0.274 OA
ENDBRANCH   7  13
ENDBRANCH   4   6
ENDBRANCH   3   4
ENDBRANCH   2   3
ENDBRANCH   1   2
BRANCH   1  25
ATOM     25  O   UNL     1       3.967 -10.002   4.148  1.00  0.00    -0.458 OA
BRANCH  25  26
ATOM     26  C   UNL     1       4.655  -9.151   3.358  1.00  0.00     0.338 C 
ATOM     27  O   UNL     1       5.386  -9.437   2.416  1.00  0.00    -0.246 OA
BRANCH  26  28
ATOM     28  C   UNL     1       4.374  -7.764   3.755  1.00  0.00     0.060 A 
ATOM     29  C   UNL     1       3.070  -7.289   3.668  1.00  0.00     0.016 A 
ATOM     30  C   UNL     1       5.415  -6.891   4.059  1.00  0.00     0.016 A 
ATOM     31  C   UNL     1       2.823  -5.920   3.725  1.00  0.00     0.010 A 
ATOM     32  C   UNL     1       5.139  -5.532   4.255  1.00  0.00     0.010 A 
ATOM     33  C   UNL     1       3.849  -5.014   4.032  1.00  0.00    -0.014 A 
BRANCH  33  34
ATOM     34  C   UNL     1       3.588  -3.541   4.075  1.00  0.00     0.031 A 
ATOM     35  C   UNL     1       4.447  -2.590   3.273  1.00  0.00     0.074 A 
ATOM     36  C   UNL     1       2.584  -3.036   4.823  1.00  0.00     0.049 A 
ATOM     37  N   UNL     1       4.533  -1.285   3.351  1.00  0.00    -0.248 NA
ATOM     38  C   UNL     1       5.344  -3.185   2.269  1.00  0.00     0.031 C 
ATOM     39  C   UNL     1       1.643  -3.819   5.627  1.00  0.00     0.029 A 
ATOM     40  N   UNL     1       2.182  -1.737   5.028  1.00  0.00    -0.354 N 
ATOM     41  C   UNL     1       5.550  -0.914   2.476  1.00  0.00     0.074 A 
ATOM     42  C   UNL     1       6.044  -2.132   1.869  1.00  0.00     0.031 C 
ATOM     43  C   UNL     1       0.749  -2.996   6.193  1.00  0.00     0.029 A 
ATOM     44  C   UNL     1       1.113  -1.619   5.886  1.00  0.00     0.049 A 
ATOM     45  H   UNL     1       2.619  -0.964   4.602  1.00  0.00     0.167 HD
ATOM     46  C   UNL     1       6.029   0.325   2.207  1.00  0.00     0.037 A 
ATOM     47  C   UNL     1       0.518  -0.532   6.417  1.00  0.00     0.037 A 
ATOM     48  C   UNL     1       5.476   1.542   2.745  1.00  0.00     0.049 A 
ATOM     49  C   UNL     1       1.055   0.832   6.096  1.00  0.00     0.074 A 
ATOM     50  C   UNL     1       5.871   2.848   2.504  1.00  0.00     0.029 A 
ATOM     51  N   UNL     1       4.395   1.608   3.612  1.00  0.00    -0.354 N 
ATOM     52  N   UNL     1       2.061   1.159   5.321  1.00  0.00    -0.248 NA
ATOM     53  C   UNL     1       0.393   1.975   6.739  1.00  0.00     0.031 C 
ATOM     54  C   UNL     1       5.045   3.701   3.244  1.00  0.00     0.029 A 
ATOM     55  C   UNL     1       4.111   2.930   3.916  1.00  0.00     0.049 A 
ATOM     56  H   UNL     1       3.903   0.830   3.960  1.00  0.00     0.167 HD
ATOM     57  C   UNL     1       2.149   2.545   5.379  1.00  0.00     0.074 A 
ATOM     58  C   UNL     1       1.080   2.996   6.247  1.00  0.00     0.031 C 
ATOM     59  C   UNL     1       3.040   3.367   4.774  1.00  0.00     0.037 A 
BRANCH  46  60
ATOM     60  C   UNL     1       7.232   0.436   1.308  1.00  0.00     0.058 A 
ATOM     61  C   UNL     1       7.154   0.222  -0.076  1.00  0.00     0.135 A 
ATOM     62  C   UNL     1       8.477   0.813   1.841  1.00  0.00     0.135 A 
ATOM     63  F   UNL     1       5.993  -0.150  -0.638  1.00  0.00    -0.206 F 
ATOM     64  C   UNL     1       8.273   0.350  -0.896  1.00  0.00     0.059 A 
ATOM     65  C   UNL     1       9.602   0.974   1.037  1.00  0.00     0.059 A 
ATOM     66  F   UNL     1       8.608   1.037   3.159  1.00  0.00    -0.206 F 
ATOM     67  C   UNL     1       9.493   0.725  -0.330  1.00  0.00     0.060 A 
BRANCH  67  68
ATOM     68  S   UNL     1      10.933   0.899  -1.406  1.00  0.00     0.124 S 
ATOM     69  O   UNL     1      11.278  -0.497  -1.657  1.00  0.00    -0.237 OA
ATOM     70  O   UNL     1      10.387   1.631  -2.545  1.00  0.00    -0.237 OA
ATOM     71  O   UNL     1      11.883   1.643  -0.585  1.00  0.00    -0.744 OA
ENDBRANCH  67  68
ENDBRANCH  46  60
BRANCH  47  72
ATOM     72  C   UNL     1      -0.628  -0.700   7.351  1.00  0.00     0.058 A 
ATOM     73  C   UNL     1      -1.927  -0.332   6.972  1.00  0.00     0.135 A 
ATOM     74  C   UNL     1      -0.452  -1.258   8.627  1.00  0.00     0.135 A 
ATOM     75  F   UNL     1      -2.143   0.217   5.766  1.00  0.00    -0.206 F 
ATOM     76  C   UNL     1      -3.011  -0.507   7.825  1.00  0.00     0.059 A 
ATOM     77  C   UNL     1      -1.525  -1.470   9.486  1.00  0.00     0.059 A 
ATOM     78  F   UNL     1       0.769  -1.639   9.033  1.00  0.00    -0.206 F 
ATOM     79  C   UNL     1      -2.800  -1.083   9.079  1.00  0.00     0.060 A 
BRANCH  79  80
ATOM     80  S   UNL     1      -4.222  -1.373  10.155  1.00  0.00     0.124 S 
ATOM     81  O   UNL     1      -4.477  -0.033  10.669  1.00  0.00    -0.237 OA
ATOM     82  O   UNL     1      -5.214  -1.899   9.221  1.00  0.00    -0.237 OA
ATOM     83  O   UNL     1      -3.714  -2.338  11.125  1.00  0.00    -0.744 OA
ENDBRANCH  79  80
ENDBRANCH  47  72
BRANCH  59  84
ATOM     84  C   UNL     1       2.875   4.843   4.999  1.00  0.00     0.058 A 
ATOM     85  C   UNL     1       3.237   5.448   6.212  1.00  0.00     0.135 A 
ATOM     86  C   UNL     1       2.379   5.665   3.975  1.00  0.00     0.135 A 
ATOM     87  F   UNL     1       3.707   4.703   7.225  1.00  0.00    -0.206 F 
ATOM     88  C   UNL     1       3.091   6.817   6.411  1.00  0.00     0.059 A 
ATOM     89  C   UNL     1       2.247   7.040   4.144  1.00  0.00     0.059 A 
ATOM     90  F   UNL     1       2.026   5.135   2.793  1.00  0.00    -0.206 F 
ATOM     91  C   UNL     1       2.594   7.605   5.371  1.00  0.00     0.060 A 
BRANCH  91  92
ATOM     92  S   UNL     1       2.431   9.384   5.630  1.00  0.00     0.124 S 
ATOM     93  O   UNL     1       1.235   9.451   6.463  1.00  0.00    -0.237 OA
ATOM     94  O   UNL     1       3.686   9.722   6.295  1.00  0.00    -0.237 OA
ATOM     95  O   UNL     1       2.285   9.912   4.277  1.00  0.00    -0.744 OA
ENDBRANCH  91  92
ENDBRANCH  59  84
ENDBRANCH  33  34
ENDBRANCH  26  28
ENDBRANCH  25  26
ENDBRANCH   1  25
TORSDOF 15
