REMARK SMILES Cc1cc(=O)c(Oc2ccc(C(=O)OCCOC(=O)c3ccc(-c4c5nc(c(-c6c(F)cc(S(=O)(=O)[O-])cc6F)c6ccc([nH]6)c(-c6c(F)cc(S(=O)(=O)[O-])cc6F)c6nc(c(-c7c(F)cc(S(=O)(=O)[O-])cc7F)c7ccc4[nH]7)C=C6)C=C5)cc3)cc2)c(-c2ccc(S(C)(=O)=O)cc2)o1
REMARK SMILES IDX 15 1 14 2 12 3 13 4 11 5 8 6 9 7 87 8 10 9 86 10 7 11 6 12
REMARK SMILES IDX 1 13 2 14 3 15 99 16 4 17 88 18 5 19 89 20 90 21 98 22 91 23
REMARK SMILES IDX 97 24 92 25 93 26 94 27 95 28 96 29 16 30 17 31 18 32 19 33
REMARK SMILES IDX 20 34 21 35 85 36 22 37 84 38 23 39 24 40 25 41 78 42 26 43
REMARK SMILES IDX 83 44 77 45 79 46 27 47 82 48 76 49 75 50 28 52 62 53 41 54
REMARK SMILES IDX 61 55 42 56 45 57 60 58 80 59 43 60 44 61 59 63 81 64 46 65
REMARK SMILES IDX 29 66 30 67 39 68 31 69 32 70 38 71 40 72 33 73 34 74 35 75
REMARK SMILES IDX 36 76 37 77 63 78 64 79 73 80 65 81 66 82 72 83 74 84 67 85
REMARK SMILES IDX 68 86 69 87 70 88 71 89 47 90 48 91 57 92 49 93 50 94 56 95
REMARK SMILES IDX 58 96 51 97 52 98 53 99 54 100 55 101
REMARK H PARENT 79 51 45 62
REMARK Flexibility Score: inf
ROOT
ATOM      1  C   UNL     1       0.530  11.514  -3.054  1.00  0.00     0.275 C 
ENDROOT
BRANCH   1   2
ATOM      2  O   UNL     1      -0.015  10.240  -3.455  1.00  0.00    -0.458 OA
BRANCH   2   3
ATOM      3  C   UNL     1       0.768   9.467  -4.253  1.00  0.00     0.338 C 
ATOM      4  O   UNL     1       1.803   9.816  -4.800  1.00  0.00    -0.246 OA
BRANCH   3   5
ATOM      5  C   UNL     1       0.284   8.058  -4.244  1.00  0.00     0.060 A 
ATOM      6  C   UNL     1      -0.420   5.381  -3.844  1.00  0.00     0.127 A 
ATOM      7  C   UNL     1       0.871   5.691  -4.258  1.00  0.00     0.048 A 
ATOM      8  C   UNL     1      -1.387   6.388  -3.745  1.00  0.00     0.048 A 
ATOM      9  C   UNL     1       1.214   7.031  -4.480  1.00  0.00     0.019 A 
ATOM     10  C   UNL     1      -1.033   7.727  -3.914  1.00  0.00     0.019 A 
BRANCH   6  11
ATOM     11  O   UNL     1      -0.858   4.108  -3.602  1.00  0.00    -0.449 OA
BRANCH  11  12
ATOM     12  C   UNL     1      -0.171   3.224  -2.785  1.00  0.00     0.217 A 
ATOM     13  C   UNL     1       1.206   0.146  -0.090  1.00  0.00     0.088 C 
ATOM     14  C   UNL     1       0.752   1.111  -1.140  1.00  0.00     0.105 A 
ATOM     15  C   UNL     1       0.133   0.744  -2.264  1.00  0.00     0.098 A 
ATOM     16  O   UNL     1       1.011   2.428  -0.838  1.00  0.00    -0.457 OA
ATOM     17  C   UNL     1      -0.315   1.790  -3.197  1.00  0.00     0.228 A 
ATOM     18  C   UNL     1       0.461   3.454  -1.607  1.00  0.00     0.180 A 
ATOM     19  O   UNL     1      -0.840   1.461  -4.259  1.00  0.00    -0.285 OA
BRANCH  18  20
ATOM     20  C   UNL     1       0.611   4.735  -0.882  1.00  0.00     0.021 A 
ATOM     21  C   UNL     1       1.865   5.074  -0.340  1.00  0.00     0.013 A 
ATOM     22  C   UNL     1      -0.493   5.529  -0.551  1.00  0.00     0.013 A 
ATOM     23  C   UNL     1       2.009   6.162   0.530  1.00  0.00     0.021 A 
ATOM     24  C   UNL     1      -0.353   6.631   0.300  1.00  0.00     0.021 A 
ATOM     25  C   UNL     1       0.895   6.934   0.856  1.00  0.00     0.067 A 
BRANCH  25  26
ATOM     26  S   UNL     1       1.007   8.254   2.047  1.00  0.00     0.175 S 
ATOM     27  C   UNL     1       2.133   7.684   3.289  1.00  0.00     0.163 C 
ATOM     28  O   UNL     1       1.615   9.408   1.415  1.00  0.00    -0.224 OA
ATOM     29  O   UNL     1      -0.294   8.367   2.684  1.00  0.00    -0.224 OA
ENDBRANCH  25  26
ENDBRANCH  18  20
ENDBRANCH  11  12
ENDBRANCH   6  11
ENDBRANCH   3   5
ENDBRANCH   2   3
ENDBRANCH   1   2
BRANCH   1  30
ATOM     30  C   UNL     1       1.095  11.480  -1.625  1.00  0.00     0.275 C 
BRANCH  30  31
ATOM     31  O   UNL     1       2.373  10.820  -1.526  1.00  0.00    -0.458 OA
BRANCH  31  32
ATOM     32  C   UNL     1       2.283   9.478  -1.392  1.00  0.00     0.338 C 
ATOM     33  O   UNL     1       1.262   8.810  -1.466  1.00  0.00    -0.246 OA
BRANCH  32  34
ATOM     34  C   UNL     1       3.594   8.838  -1.188  1.00  0.00     0.060 A 
ATOM     35  C   UNL     1       4.477   9.232  -0.179  1.00  0.00     0.016 A 
ATOM     36  C   UNL     1       3.859   7.694  -1.944  1.00  0.00     0.016 A 
ATOM     37  C   UNL     1       5.642   8.486   0.048  1.00  0.00     0.010 A 
ATOM     38  C   UNL     1       5.002   6.942  -1.709  1.00  0.00     0.010 A 
ATOM     39  C   UNL     1       5.915   7.348  -0.729  1.00  0.00    -0.014 A 
BRANCH  39  40
ATOM     40  C   UNL     1       7.215   6.643  -0.655  1.00  0.00     0.031 A 
ATOM     41  C   UNL     1       8.208   6.874  -1.760  1.00  0.00     0.074 A 
ATOM     42  C   UNL     1       7.477   5.763   0.328  1.00  0.00     0.049 A 
ATOM     43  N   UNL     1       9.385   6.338  -1.945  1.00  0.00    -0.248 NA
ATOM     44  C   UNL     1       7.799   7.814  -2.817  1.00  0.00     0.031 C 
ATOM     45  C   UNL     1       6.570   5.422   1.424  1.00  0.00     0.029 A 
ATOM     46  N   UNL     1       8.587   4.991   0.558  1.00  0.00    -0.354 N 
ATOM     47  C   UNL     1       9.857   6.878  -3.135  1.00  0.00     0.074 A 
ATOM     48  C   UNL     1       8.807   7.718  -3.668  1.00  0.00     0.031 C 
ATOM     49  C   UNL     1       7.173   4.527   2.227  1.00  0.00     0.029 A 
ATOM     50  C   UNL     1       8.501   4.224   1.696  1.00  0.00     0.049 A 
ATOM     51  H   UNL     1       9.371   4.986  -0.036  1.00  0.00     0.167 HD
ATOM     52  C   UNL     1      11.070   6.725  -3.715  1.00  0.00     0.037 A 
ATOM     53  C   UNL     1       9.404   3.390   2.250  1.00  0.00     0.037 A 
ATOM     54  C   UNL     1      12.111   5.895  -3.176  1.00  0.00     0.049 A 
ATOM     55  C   UNL     1      10.747   3.220   1.589  1.00  0.00     0.074 A 
ATOM     56  C   UNL     1      13.386   5.680  -3.663  1.00  0.00     0.029 A 
ATOM     57  N   UNL     1      11.989   5.141  -2.017  1.00  0.00    -0.354 N 
ATOM     58  N   UNL     1      11.201   3.777   0.491  1.00  0.00    -0.248 NA
ATOM     59  C   UNL     1      11.703   2.316   2.244  1.00  0.00     0.031 C 
ATOM     60  C   UNL     1      14.029   4.777  -2.809  1.00  0.00     0.029 A 
ATOM     61  C   UNL     1      13.165   4.454  -1.773  1.00  0.00     0.049 A 
ATOM     62  H   UNL     1      11.184   5.100  -1.452  1.00  0.00     0.167 HD
ATOM     63  C   UNL     1      12.502   3.309   0.334  1.00  0.00     0.074 A 
ATOM     64  C   UNL     1      12.764   2.428   1.455  1.00  0.00     0.031 C 
ATOM     65  C   UNL     1      13.398   3.583  -0.646  1.00  0.00     0.037 A 
BRANCH  52  66
ATOM     66  C   UNL     1      11.312   7.494  -4.983  1.00  0.00     0.058 A 
ATOM     67  C   UNL     1      11.421   8.896  -4.971  1.00  0.00     0.135 A 
ATOM     68  C   UNL     1      11.373   6.843  -6.225  1.00  0.00     0.135 A 
ATOM     69  F   UNL     1      11.349   9.569  -3.811  1.00  0.00    -0.206 F 
ATOM     70  C   UNL     1      11.517   9.629  -6.148  1.00  0.00     0.059 A 
ATOM     71  C   UNL     1      11.499   7.556  -7.415  1.00  0.00     0.059 A 
ATOM     72  F   UNL     1      11.276   5.507  -6.294  1.00  0.00    -0.206 F 
ATOM     73  C   UNL     1      11.541   8.950  -7.367  1.00  0.00     0.060 A 
BRANCH  73  74
ATOM     74  S   UNL     1      11.604   9.918  -8.889  1.00  0.00     0.124 S 
ATOM     75  O   UNL     1      10.234  10.413  -8.974  1.00  0.00    -0.237 OA
ATOM     76  O   UNL     1      12.621  10.919  -8.582  1.00  0.00    -0.237 OA
ATOM     77  O   UNL     1      11.981   8.935  -9.900  1.00  0.00    -0.744 OA
ENDBRANCH  73  74
ENDBRANCH  52  66
BRANCH  53  78
ATOM     78  C   UNL     1       9.092   2.722   3.541  1.00  0.00     0.058 A 
ATOM     79  C   UNL     1       9.673   3.177   4.734  1.00  0.00     0.135 A 
ATOM     80  C   UNL     1       8.172   1.666   3.623  1.00  0.00     0.135 A 
ATOM     81  F   UNL     1      10.565   4.180   4.705  1.00  0.00    -0.206 F 
ATOM     82  C   UNL     1       9.347   2.618   5.965  1.00  0.00     0.059 A 
ATOM     83  C   UNL     1       7.818   1.099   4.845  1.00  0.00     0.059 A 
ATOM     84  F   UNL     1       7.580   1.203   2.512  1.00  0.00    -0.206 F 
ATOM     85  C   UNL     1       8.409   1.586   6.011  1.00  0.00     0.060 A 
BRANCH  85  86
ATOM     86  S   UNL     1       7.920   0.940   7.627  1.00  0.00     0.124 S 
ATOM     87  O   UNL     1       9.128   0.237   8.042  1.00  0.00    -0.237 OA
ATOM     88  O   UNL     1       7.608   2.163   8.359  1.00  0.00    -0.237 OA
ATOM     89  O   UNL     1       6.772   0.094   7.316  1.00  0.00    -0.744 OA
ENDBRANCH  85  86
ENDBRANCH  53  78
BRANCH  65  90
ATOM     90  C   UNL     1      14.751   2.936  -0.555  1.00  0.00     0.058 A 
ATOM     91  C   UNL     1      14.938   1.588  -0.893  1.00  0.00     0.135 A 
ATOM     92  C   UNL     1      15.884   3.698  -0.229  1.00  0.00     0.135 A 
ATOM     93  F   UNL     1      13.884   0.817  -1.207  1.00  0.00    -0.206 F 
ATOM     94  C   UNL     1      16.204   1.015  -0.908  1.00  0.00     0.059 A 
ATOM     95  C   UNL     1      17.162   3.151  -0.258  1.00  0.00     0.059 A 
ATOM     96  F   UNL     1      15.756   4.996   0.092  1.00  0.00    -0.206 F 
ATOM     97  C   UNL     1      17.312   1.807  -0.597  1.00  0.00     0.060 A 
BRANCH  97  98
ATOM     98  S   UNL     1      18.956   1.066  -0.690  1.00  0.00     0.124 S 
ATOM     99  O   UNL     1      18.963   0.218   0.497  1.00  0.00    -0.237 OA
ATOM    100  O   UNL     1      18.910   0.366  -1.970  1.00  0.00    -0.237 OA
ATOM    101  O   UNL     1      19.851   2.219  -0.645  1.00  0.00    -0.744 OA
ENDBRANCH  97  98
ENDBRANCH  65  90
ENDBRANCH  39  40
ENDBRANCH  32  34
ENDBRANCH  31  32
ENDBRANCH  30  31
ENDBRANCH   1  30
TORSDOF 18
