REMARK SMILES Cc1oc2cc3c(cc2c1C)[C@H](C)[C@@H](CC(=O)N[C@H](CC1=c2ccccc2=NC1)C(=O)OCCOC(=O)c1ccc(-c2c4nc(c(-c5c(F)cc(S(=O)(=O)[O-])cc5F)c5ccc([nH]5)c(-c5c(F)cc(S(=O)(=O)[O-])cc5F)c5nc(c(-c6c(F)cc(S(=O)(=O)[O-])cc6F)c6ccc2[nH]6)C=C5)C=C4)cc1)C(=O)O3
REMARK SMILES IDX 33 1 32 2 30 3 31 4 19 5 18 6 16 7 17 8 15 10 14 11 1 12
REMARK SMILES IDX 2 13 3 14 10 15 4 16 9 17 11 18 5 19 8 20 6 21 7 22 106 23
REMARK SMILES IDX 12 24 104 25 13 26 105 27 20 28 21 29 22 30 29 31 23 32
REMARK SMILES IDX 27 33 28 34 24 35 26 36 25 37 34 38 35 39 36 40 37 41 38 42
REMARK SMILES IDX 39 43 103 44 40 45 102 46 41 47 42 48 43 49 96 50 44 51
REMARK SMILES IDX 101 52 95 53 97 54 45 55 100 56 94 57 93 58 46 60 80 61
REMARK SMILES IDX 59 62 79 63 60 64 63 65 78 66 98 67 61 68 62 69 77 71 99 72
REMARK SMILES IDX 64 73 47 74 48 75 57 76 49 77 50 78 56 79 58 80 51 81 52 82
REMARK SMILES IDX 53 83 54 84 55 85 81 86 82 87 91 88 83 89 84 90 90 91 92 92
REMARK SMILES IDX 85 93 86 94 87 95 88 96 89 97 65 98 66 99 75 100 67 101
REMARK SMILES IDX 68 102 74 103 76 104 69 105 70 106 71 107 72 108 73 109
REMARK H PARENT 18 9 97 59 63 70
REMARK Flexibility Score: inf
ROOT
ATOM      1  C   UNL     1       1.440  11.911   4.723  1.00  0.00     0.274 C 
ENDROOT
BRANCH   1   2
ATOM      2  O   UNL     1       0.658  11.209   3.736  1.00  0.00    -0.461 OA
BRANCH   2   3
ATOM      3  C   UNL     1       1.185  10.130   3.122  1.00  0.00     0.329 C 
ATOM      4  O   UNL     1       2.290   9.675   3.393  1.00  0.00    -0.250 OA
BRANCH   3   5
ATOM      5  C   UNL     1       0.342   9.658   1.914  1.00  0.00     0.196 C 
BRANCH   5   6
ATOM      6  N   UNL     1       0.993  10.026   0.635  1.00  0.00    -0.342 N 
ATOM      7  C   UNL     1       1.366  11.215   0.095  1.00  0.00     0.221 C 
ATOM      8  O   UNL     1       1.587  11.252  -1.119  1.00  0.00    -0.275 OA
ATOM      9  H   UNL     1       1.196   9.253   0.061  1.00  0.00     0.164 HD
BRANCH   7  10
ATOM     10  C   UNL     1       1.558  12.479   0.919  1.00  0.00     0.116 C 
BRANCH  10  11
ATOM     11  C   UNL     1       0.427  13.485   0.723  1.00  0.00     0.116 C 
ATOM     12  C   UNL     1      -5.402  18.858   3.744  1.00  0.00     0.088 C 
ATOM     13  C   UNL     1      -4.239  18.096   3.249  1.00  0.00     0.105 A 
ATOM     14  O   UNL     1      -4.548  16.942   2.604  1.00  0.00    -0.461 OA
ATOM     15  C   UNL     1      -2.868  18.294   3.262  1.00  0.00    -0.002 A 
ATOM     16  C   UNL     1      -3.381  16.386   2.198  1.00  0.00     0.138 A 
ATOM     17  C   UNL     1      -2.301  17.162   2.596  1.00  0.00     0.024 A 
ATOM     18  C   UNL     1      -2.120  19.440   3.828  1.00  0.00     0.049 C 
ATOM     19  C   UNL     1      -3.283  15.202   1.491  1.00  0.00     0.095 A 
ATOM     20  C   UNL     1      -0.991  16.715   2.304  1.00  0.00     0.020 A 
ATOM     21  C   UNL     1      -1.983  14.790   1.210  1.00  0.00     0.138 A 
ATOM     22  C   UNL     1      -0.820  15.509   1.603  1.00  0.00    -0.001 A 
ATOM     23  O   UNL     1      -1.895  13.549   0.589  1.00  0.00    -0.426 OA
ATOM     24  C   UNL     1       0.566  14.837   1.473  1.00  0.00     0.035 C 
ATOM     25  C   UNL     1      -0.868  13.001   1.294  1.00  0.00     0.315 C 
ATOM     26  C   UNL     1       1.636  15.717   0.835  1.00  0.00     0.014 C 
ATOM     27  O   UNL     1      -1.011  12.496   2.394  1.00  0.00    -0.251 OA
ENDBRANCH  10  11
ENDBRANCH   7  10
ENDBRANCH   5   6
BRANCH   5  28
ATOM     28  C   UNL     1      -1.213   9.864   1.885  1.00  0.00     0.070 C 
BRANCH  28  29
ATOM     29  C   UNL     1      -2.095   8.646   1.582  1.00  0.00    -0.037 C 
ATOM     30  C   UNL     1      -2.084   8.094   0.360  1.00  0.00     0.001 A 
ATOM     31  C   UNL     1      -1.980   7.548   2.601  1.00  0.00     0.174 C 
ATOM     32  C   UNL     1      -3.209   7.830  -0.519  1.00  0.00     0.010 A 
ATOM     33  C   UNL     1      -1.345   6.837   0.678  1.00  0.00     0.065 A 
ATOM     34  N   UNL     1      -1.179   6.515   1.921  1.00  0.00    -0.280 NA
ATOM     35  C   UNL     1      -3.059   6.855  -1.438  1.00  0.00     0.001 A 
ATOM     36  C   UNL     1      -0.928   6.084  -0.517  1.00  0.00     0.028 A 
ATOM     37  C   UNL     1      -1.793   6.133  -1.546  1.00  0.00     0.002 A 
ENDBRANCH  28  29
ENDBRANCH   5  28
ENDBRANCH   3   5
ENDBRANCH   2   3
ENDBRANCH   1   2
BRANCH   1  38
ATOM     38  C   UNL     1       0.467  12.521   5.735  1.00  0.00     0.275 C 
BRANCH  38  39
ATOM     39  O   UNL     1       0.062  11.508   6.659  1.00  0.00    -0.458 OA
BRANCH  39  40
ATOM     40  C   UNL     1      -0.818  10.593   6.161  1.00  0.00     0.338 C 
ATOM     41  O   UNL     1      -1.633  10.736   5.282  1.00  0.00    -0.246 OA
BRANCH  40  42
ATOM     42  C   UNL     1      -0.384   9.304   6.708  1.00  0.00     0.060 A 
ATOM     43  C   UNL     1      -0.242   9.140   8.079  1.00  0.00     0.016 A 
ATOM     44  C   UNL     1       0.007   8.304   5.815  1.00  0.00     0.016 A 
ATOM     45  C   UNL     1       0.305   7.960   8.555  1.00  0.00     0.010 A 
ATOM     46  C   UNL     1       0.551   7.118   6.284  1.00  0.00     0.010 A 
ATOM     47  C   UNL     1       0.703   6.950   7.659  1.00  0.00    -0.014 A 
BRANCH  47  48
ATOM     48  C   UNL     1       1.286   5.737   8.236  1.00  0.00     0.031 A 
ATOM     49  C   UNL     1       0.866   4.436   7.625  1.00  0.00     0.074 A 
ATOM     50  C   UNL     1       2.528   5.838   8.746  1.00  0.00     0.049 A 
ATOM     51  N   UNL     1       1.412   3.884   6.582  1.00  0.00    -0.248 NA
ATOM     52  C   UNL     1      -0.383   3.798   8.045  1.00  0.00     0.031 C 
ATOM     53  C   UNL     1       3.640   6.557   8.115  1.00  0.00     0.029 A 
ATOM     54  N   UNL     1       3.087   5.193   9.818  1.00  0.00    -0.354 N 
ATOM     55  C   UNL     1       0.595   2.828   6.204  1.00  0.00     0.074 A 
ATOM     56  C   UNL     1      -0.510   2.821   7.135  1.00  0.00     0.031 C 
ATOM     57  C   UNL     1       4.787   6.177   8.713  1.00  0.00     0.029 A 
ATOM     58  C   UNL     1       4.476   5.292   9.832  1.00  0.00     0.049 A 
ATOM     59  H   UNL     1       2.565   4.714  10.501  1.00  0.00     0.167 HD
ATOM     60  C   UNL     1       0.865   1.994   5.165  1.00  0.00     0.037 A 
ATOM     61  C   UNL     1       5.288   4.320  10.330  1.00  0.00     0.037 A 
ATOM     62  C   UNL     1       2.091   2.240   4.470  1.00  0.00     0.049 A 
ATOM     63  C   UNL     1       5.239   3.332   9.184  1.00  0.00     0.074 A 
ATOM     64  C   UNL     1       2.503   2.902   3.334  1.00  0.00     0.029 A 
ATOM     65  N   UNL     1       3.247   1.745   5.027  1.00  0.00    -0.354 N 
ATOM     66  N   UNL     1       5.915   3.414   8.066  1.00  0.00    -0.248 NA
ATOM     67  C   UNL     1       4.092   2.420   9.130  1.00  0.00     0.031 C 
ATOM     68  C   UNL     1       3.899   3.150   3.524  1.00  0.00     0.029 A 
ATOM     69  C   UNL     1       4.234   2.666   4.788  1.00  0.00     0.049 A 
ATOM     70  H   UNL     1       3.346   0.891   5.506  1.00  0.00     0.167 HD
ATOM     71  C   UNL     1       5.114   2.797   7.100  1.00  0.00     0.074 A 
ATOM     72  C   UNL     1       4.021   2.184   7.827  1.00  0.00     0.031 C 
ATOM     73  C   UNL     1       5.268   2.973   5.754  1.00  0.00     0.037 A 
BRANCH  60  74
ATOM     74  C   UNL     1       0.111   0.756   4.870  1.00  0.00     0.058 A 
ATOM     75  C   UNL     1       0.647  -0.460   5.323  1.00  0.00     0.135 A 
ATOM     76  C   UNL     1      -0.970   0.713   3.983  1.00  0.00     0.135 A 
ATOM     77  F   UNL     1       1.686  -0.458   6.176  1.00  0.00    -0.206 F 
ATOM     78  C   UNL     1       0.176  -1.680   4.863  1.00  0.00     0.059 A 
ATOM     79  C   UNL     1      -1.468  -0.504   3.513  1.00  0.00     0.059 A 
ATOM     80  F   UNL     1      -1.518   1.849   3.525  1.00  0.00    -0.206 F 
ATOM     81  C   UNL     1      -0.864  -1.692   3.935  1.00  0.00     0.060 A 
BRANCH  81  82
ATOM     82  S   UNL     1      -1.367  -3.286   3.253  1.00  0.00     0.124 S 
ATOM     83  O   UNL     1      -0.172  -3.688   2.519  1.00  0.00    -0.237 OA
ATOM     84  O   UNL     1      -1.658  -4.054   4.460  1.00  0.00    -0.237 OA
ATOM     85  O   UNL     1      -2.527  -2.955   2.431  1.00  0.00    -0.744 OA
ENDBRANCH  81  82
ENDBRANCH  60  74
BRANCH  61  86
ATOM     86  C   UNL     1       5.005   3.981  11.765  1.00  0.00     0.058 A 
ATOM     87  C   UNL     1       4.923   5.045  12.694  1.00  0.00     0.135 A 
ATOM     88  C   UNL     1       4.752   2.700  12.274  1.00  0.00     0.135 A 
ATOM     89  F   UNL     1       5.271   6.291  12.331  1.00  0.00    -0.206 F 
ATOM     90  C   UNL     1       4.449   4.872  13.990  1.00  0.00     0.059 A 
ATOM     91  C   UNL     1       4.256   2.502  13.564  1.00  0.00     0.059 A 
ATOM     92  F   UNL     1       4.944   1.608  11.522  1.00  0.00    -0.206 F 
ATOM     93  C   UNL     1       4.069   3.599  14.400  1.00  0.00     0.060 A 
BRANCH  93  94
ATOM     94  S   UNL     1       3.268   3.424  16.007  1.00  0.00     0.124 S 
ATOM     95  O   UNL     1       4.314   3.873  16.919  1.00  0.00    -0.237 OA
ATOM     96  O   UNL     1       2.122   4.317  15.865  1.00  0.00    -0.237 OA
ATOM     97  O   UNL     1       2.945   2.002  16.071  1.00  0.00    -0.744 OA
ENDBRANCH  93  94
ENDBRANCH  61  86
BRANCH  73  98
ATOM     98  C   UNL     1       6.478   3.728   5.321  1.00  0.00     0.058 A 
ATOM     99  C   UNL     1       7.746   3.140   5.416  1.00  0.00     0.135 A 
ATOM    100  C   UNL     1       6.387   5.001   4.734  1.00  0.00     0.135 A 
ATOM    101  F   UNL     1       7.890   1.919   5.958  1.00  0.00    -0.206 F 
ATOM    102  C   UNL     1       8.877   3.773   4.912  1.00  0.00     0.059 A 
ATOM    103  C   UNL     1       7.501   5.640   4.198  1.00  0.00     0.059 A 
ATOM    104  F   UNL     1       5.202   5.627   4.635  1.00  0.00    -0.206 F 
ATOM    105  C   UNL     1       8.743   5.014   4.287  1.00  0.00     0.060 A 
BRANCH 105 106
ATOM    106  S   UNL     1      10.199   5.756   3.523  1.00  0.00     0.124 S 
ATOM    107  O   UNL     1      10.986   6.154   4.686  1.00  0.00    -0.237 OA
ATOM    108  O   UNL     1      10.741   4.646   2.743  1.00  0.00    -0.237 OA
ATOM    109  O   UNL     1       9.653   6.855   2.731  1.00  0.00    -0.744 OA
ENDBRANCH 105 106
ENDBRANCH  73  98
ENDBRANCH  47  48
ENDBRANCH  40  42
ENDBRANCH  39  40
ENDBRANCH  38  39
ENDBRANCH   1  38
TORSDOF 19
