REMARK SMILES O=C(C[C@@H]1C(=O)NC(=S)N1c1ccccc1)OCCOC(=O)c1ccc(-c2c3nc(c(-c4c(F)cc(S(=O)(=O)[O-])cc4F)c4ccc([nH]4)c(-c4c(F)cc(S(=O)(=O)[O-])cc4F)c4nc(c(-c5c(F)cc(S(=O)(=O)[O-])cc5F)c5ccc2[nH]5)C=C4)C=C3)cc1
REMARK SMILES IDX 19 1 18 2 17 3 2 4 1 5 3 6 4 7 5 8 10 9 6 10 7 11 8 12 9 14
REMARK SMILES IDX 11 15 12 16 16 17 13 18 15 19 14 20 20 21 21 22 22 23 23 24
REMARK SMILES IDX 24 25 88 26 25 27 87 28 26 29 27 30 28 31 81 32 29 33 86 34
REMARK SMILES IDX 80 35 82 36 30 37 85 38 79 39 78 40 31 42 65 43 44 44 64 45
REMARK SMILES IDX 45 46 48 47 63 48 83 49 46 50 47 51 62 53 84 54 49 55 32 56
REMARK SMILES IDX 33 57 42 58 34 59 35 60 41 61 43 62 36 63 37 64 38 65 39 66
REMARK SMILES IDX 40 67 66 68 67 69 76 70 68 71 69 72 75 73 77 74 70 75 71 76
REMARK SMILES IDX 72 77 73 78 74 79 50 80 51 81 60 82 52 83 53 84 59 85 61 86
REMARK SMILES IDX 54 87 55 88 56 89 57 90 58 91
REMARK H PARENT 7 13 82 41 48 52
REMARK Flexibility Score: inf
ROOT
ATOM      1  C   UNL     1       4.415   1.965  -1.251  1.00  0.00     0.275 C 
ENDROOT
BRANCH   1   2
ATOM      2  C   UNL     1       4.571   0.449  -1.140  1.00  0.00     0.274 C 
BRANCH   2   3
ATOM      3  O   UNL     1       3.306  -0.234  -1.036  1.00  0.00    -0.462 OA
BRANCH   3   4
ATOM      4  C   UNL     1       2.610  -0.484   0.091  1.00  0.00     0.308 C 
ATOM      5  O   UNL     1       1.439  -0.850   0.004  1.00  0.00    -0.252 OA
BRANCH   4   6
ATOM      6  C   UNL     1       3.251  -0.288   1.443  1.00  0.00     0.158 C 
BRANCH   6   7
ATOM      7  C   UNL     1       3.984  -1.473   2.057  1.00  0.00     0.190 C 
ATOM      8  C   UNL     1       5.456  -1.399   1.665  1.00  0.00     0.249 C 
ATOM      9  N   UNL     1       3.663  -2.831   1.633  1.00  0.00    -0.306 N 
ATOM     10  O   UNL     1       6.215  -0.462   1.867  1.00  0.00    -0.272 OA
ATOM     11  N   UNL     1       5.781  -2.513   0.966  1.00  0.00    -0.301 N 
ATOM     12  C   UNL     1       4.737  -3.386   0.914  1.00  0.00     0.180 C 
ATOM     13  H   UNL     1       6.658  -2.671   0.549  1.00  0.00     0.172 HD
ATOM     14  S   UNL     1       4.864  -4.803   0.057  1.00  0.00    -0.040 S 
BRANCH   9  15
ATOM     15  C   UNL     1       2.577  -3.535   2.226  1.00  0.00     0.044 A 
ATOM     16  C   UNL     1       2.741  -4.843   2.701  1.00  0.00     0.026 A 
ATOM     17  C   UNL     1       1.336  -2.921   2.429  1.00  0.00     0.026 A 
ATOM     18  C   UNL     1       1.690  -5.527   3.320  1.00  0.00     0.002 A 
ATOM     19  C   UNL     1       0.273  -3.613   3.020  1.00  0.00     0.002 A 
ATOM     20  C   UNL     1       0.450  -4.917   3.466  1.00  0.00     0.000 A 
ENDBRANCH   9  15
ENDBRANCH   6   7
ENDBRANCH   4   6
ENDBRANCH   3   4
ENDBRANCH   2   3
ENDBRANCH   1   2
BRANCH   1  21
ATOM     21  O   UNL     1       3.951   2.510  -0.003  1.00  0.00    -0.458 OA
BRANCH  21  22
ATOM     22  C   UNL     1       2.636   2.838   0.044  1.00  0.00     0.338 C 
ATOM     23  O   UNL     1       1.855   2.826  -0.893  1.00  0.00    -0.246 OA
BRANCH  22  24
ATOM     24  C   UNL     1       2.225   3.043   1.454  1.00  0.00     0.060 A 
ATOM     25  C   UNL     1       0.933   2.643   1.819  1.00  0.00     0.016 A 
ATOM     26  C   UNL     1       3.082   3.596   2.413  1.00  0.00     0.016 A 
ATOM     27  C   UNL     1       0.480   2.843   3.124  1.00  0.00     0.010 A 
ATOM     28  C   UNL     1       2.625   3.795   3.723  1.00  0.00     0.010 A 
ATOM     29  C   UNL     1       1.309   3.453   4.075  1.00  0.00    -0.014 A 
BRANCH  29  30
ATOM     30  C   UNL     1       0.732   3.875   5.377  1.00  0.00     0.031 A 
ATOM     31  C   UNL     1       0.265   5.298   5.535  1.00  0.00     0.074 A 
ATOM     32  C   UNL     1       0.573   3.002   6.389  1.00  0.00     0.049 A 
ATOM     33  N   UNL     1      -0.343   5.864   6.545  1.00  0.00    -0.248 NA
ATOM     34  C   UNL     1       0.518   6.202   4.401  1.00  0.00     0.031 C 
ATOM     35  C   UNL     1       0.983   1.599   6.371  1.00  0.00     0.029 A 
ATOM     36  N   UNL     1       0.019   3.174   7.634  1.00  0.00    -0.354 N 
ATOM     37  C   UNL     1      -0.575   7.178   6.157  1.00  0.00     0.074 A 
ATOM     38  C   UNL     1       0.013   7.343   4.845  1.00  0.00     0.031 C 
ATOM     39  C   UNL     1       0.674   1.039   7.555  1.00  0.00     0.029 A 
ATOM     40  C   UNL     1       0.048   2.043   8.414  1.00  0.00     0.049 A 
ATOM     41  H   UNL     1      -0.363   4.029   7.939  1.00  0.00     0.167 HD
ATOM     42  C   UNL     1      -1.241   8.155   6.818  1.00  0.00     0.037 A 
ATOM     43  C   UNL     1      -0.384   1.843   9.676  1.00  0.00     0.037 A 
ATOM     44  C   UNL     1      -1.808   8.007   8.132  1.00  0.00     0.049 A 
ATOM     45  C   UNL     1      -1.074   2.962  10.416  1.00  0.00     0.074 A 
ATOM     46  C   UNL     1      -2.494   8.945   8.885  1.00  0.00     0.029 A 
ATOM     47  N   UNL     1      -1.748   6.851   8.893  1.00  0.00    -0.354 N 
ATOM     48  N   UNL     1      -1.332   4.184  10.014  1.00  0.00    -0.248 NA
ATOM     49  C   UNL     1      -1.550   2.666  11.776  1.00  0.00     0.031 C 
ATOM     50  C   UNL     1      -2.819   8.365  10.116  1.00  0.00     0.029 A 
ATOM     51  C   UNL     1      -2.373   7.054  10.113  1.00  0.00     0.049 A 
ATOM     52  H   UNL     1      -1.324   6.008   8.609  1.00  0.00     0.167 HD
ATOM     53  C   UNL     1      -2.023   4.791  11.059  1.00  0.00     0.074 A 
ATOM     54  C   UNL     1      -2.157   3.799  12.104  1.00  0.00     0.031 C 
ATOM     55  C   UNL     1      -2.506   6.056  11.144  1.00  0.00     0.037 A 
BRANCH  42  56
ATOM     56  C   UNL     1      -1.396   9.475   6.117  1.00  0.00     0.058 A 
ATOM     57  C   UNL     1      -2.277   9.623   5.033  1.00  0.00     0.135 A 
ATOM     58  C   UNL     1      -0.681  10.605   6.542  1.00  0.00     0.135 A 
ATOM     59  F   UNL     1      -2.969   8.567   4.575  1.00  0.00    -0.206 F 
ATOM     60  C   UNL     1      -2.427  10.841   4.380  1.00  0.00     0.059 A 
ATOM     61  C   UNL     1      -0.833  11.839   5.918  1.00  0.00     0.059 A 
ATOM     62  F   UNL     1       0.177  10.515   7.570  1.00  0.00    -0.206 F 
ATOM     63  C   UNL     1      -1.698  11.944   4.829  1.00  0.00     0.060 A 
BRANCH  63  64
ATOM     64  S   UNL     1      -1.905  13.518   3.972  1.00  0.00     0.124 S 
ATOM     65  O   UNL     1      -1.176  13.272   2.731  1.00  0.00    -0.237 OA
ATOM     66  O   UNL     1      -3.356  13.618   3.845  1.00  0.00    -0.237 OA
ATOM     67  O   UNL     1      -1.291  14.482   4.879  1.00  0.00    -0.744 OA
ENDBRANCH  63  64
ENDBRANCH  42  56
BRANCH  43  68
ATOM     68  C   UNL     1      -0.182   0.523  10.333  1.00  0.00     0.058 A 
ATOM     69  C   UNL     1      -1.262  -0.328  10.610  1.00  0.00     0.135 A 
ATOM     70  C   UNL     1       1.098   0.105  10.729  1.00  0.00     0.135 A 
ATOM     71  F   UNL     1      -2.506   0.033  10.261  1.00  0.00    -0.206 F 
ATOM     72  C   UNL     1      -1.086  -1.534  11.281  1.00  0.00     0.059 A 
ATOM     73  C   UNL     1       1.303  -1.107  11.379  1.00  0.00     0.059 A 
ATOM     74  F   UNL     1       2.166   0.878  10.477  1.00  0.00    -0.206 F 
ATOM     75  C   UNL     1       0.202  -1.914  11.665  1.00  0.00     0.060 A 
BRANCH  75  76
ATOM     76  S   UNL     1       0.428  -3.493  12.512  1.00  0.00     0.124 S 
ATOM     77  O   UNL     1      -0.050  -3.176  13.853  1.00  0.00    -0.237 OA
ATOM     78  O   UNL     1      -0.416  -4.388  11.727  1.00  0.00    -0.237 OA
ATOM     79  O   UNL     1       1.863  -3.732  12.392  1.00  0.00    -0.744 OA
ENDBRANCH  75  76
ENDBRANCH  43  68
BRANCH  55  80
ATOM     80  C   UNL     1      -3.252   6.432  12.396  1.00  0.00     0.058 A 
ATOM     81  C   UNL     1      -2.591   6.630  13.619  1.00  0.00     0.135 A 
ATOM     82  C   UNL     1      -4.642   6.632  12.364  1.00  0.00     0.135 A 
ATOM     83  F   UNL     1      -1.264   6.451  13.706  1.00  0.00    -0.206 F 
ATOM     84  C   UNL     1      -3.286   6.981  14.773  1.00  0.00     0.059 A 
ATOM     85  C   UNL     1      -5.353   7.009  13.500  1.00  0.00     0.059 A 
ATOM     86  F   UNL     1      -5.322   6.470  11.218  1.00  0.00    -0.206 F 
ATOM     87  C   UNL     1      -4.668   7.165  14.704  1.00  0.00     0.060 A 
BRANCH  87  88
ATOM     88  S   UNL     1      -5.559   7.633  16.203  1.00  0.00     0.124 S 
ATOM     89  O   UNL     1      -5.612   6.364  16.922  1.00  0.00    -0.237 OA
ATOM     90  O   UNL     1      -4.689   8.652  16.782  1.00  0.00    -0.237 OA
ATOM     91  O   UNL     1      -6.838   8.124  15.699  1.00  0.00    -0.744 OA
ENDBRANCH  87  88
ENDBRANCH  55  80
ENDBRANCH  29  30
ENDBRANCH  22  24
ENDBRANCH  21  22
ENDBRANCH   1  21
TORSDOF 16
