REMARK SMILES CCn1nc(C)c(NS(=O)(=O)c2cc(C(=O)OCCOC(=O)c3ccc(-c4c5nc(c(-c6c(F)cc(S(=O)(=O)[O-])cc6F)c6ccc([nH]6)c(-c6c(F)cc(S(=O)(=O)[O-])cc6F)c6nc(c(-c7c(F)cc(S(=O)(=O)[O-])cc7F)c7ccc4[nH]7)C=C6)C=C5)cc3)cc(F)c2C)c1C
REMARK SMILES IDX 18 1 17 2 15 3 16 4 14 5 12 6 13 7 92 8 90 9 93 10 89 11
REMARK SMILES IDX 91 12 9 13 10 14 11 15 8 16 7 18 3 19 4 20 94 21 5 22 95 23
REMARK SMILES IDX 6 24 2 25 1 26 19 27 20 28 21 29 22 30 23 31 24 32 88 33
REMARK SMILES IDX 25 34 87 35 26 36 27 37 28 38 81 39 29 40 86 41 80 42 82 43
REMARK SMILES IDX 30 44 85 45 79 46 78 47 31 49 65 50 44 51 64 52 45 53 48 54
REMARK SMILES IDX 63 55 83 56 46 57 47 58 62 60 84 61 49 62 32 63 33 64 42 65
REMARK SMILES IDX 34 66 35 67 41 68 43 69 36 70 37 71 38 72 39 73 40 74 66 75
REMARK SMILES IDX 67 76 76 77 68 78 69 79 75 80 77 81 70 82 71 83 72 84 73 85
REMARK SMILES IDX 74 86 50 87 51 88 60 89 52 90 53 91 59 92 61 93 54 94 55 95
REMARK SMILES IDX 56 96 57 97 58 98
REMARK H PARENT 8 17 82 48 48 59
REMARK Flexibility Score: inf
ROOT
ATOM      1  C   UNL     1       5.568   7.939  -8.148  1.00  0.00     0.275 C 
ENDROOT
BRANCH   1   2
ATOM      2  O   UNL     1       4.755   6.897  -7.573  1.00  0.00    -0.458 OA
BRANCH   2   3
ATOM      3  C   UNL     1       4.228   7.126  -6.343  1.00  0.00     0.338 C 
ATOM      4  O   UNL     1       4.509   8.054  -5.593  1.00  0.00    -0.246 OA
BRANCH   3   5
ATOM      5  C   UNL     1       3.154   6.148  -6.047  1.00  0.00     0.064 A 
ATOM      6  C   UNL     1       2.248   3.900  -6.087  1.00  0.00     0.094 A 
ATOM      7  C   UNL     1       3.255   4.821  -6.440  1.00  0.00     0.038 A 
ATOM      8  C   UNL     1       1.045   4.327  -5.500  1.00  0.00     0.005 A 
ATOM      9  C   UNL     1       0.976   5.670  -5.114  1.00  0.00     0.128 A 
ATOM     10  C   UNL     1      -0.156   3.466  -5.253  1.00  0.00     0.049 C 
ATOM     11  C   UNL     1       2.040   6.549  -5.312  1.00  0.00     0.055 A 
ATOM     12  F   UNL     1      -0.106   6.117  -4.458  1.00  0.00    -0.207 F 
BRANCH   6  13
ATOM     13  S   UNL     1       2.723   2.210  -6.232  1.00  0.00     0.262 S 
ATOM     14  O   UNL     1       4.171   2.138  -6.271  1.00  0.00    -0.201 OA
ATOM     15  O   UNL     1       1.926   1.578  -7.261  1.00  0.00    -0.201 OA
BRANCH  13  16
ATOM     16  N   UNL     1       2.276   1.421  -4.836  1.00  0.00    -0.276 N 
ATOM     17  H   UNL     1       1.976   0.499  -5.007  1.00  0.00     0.180 HD
BRANCH  16  18
ATOM     18  C   UNL     1       2.225   1.754  -3.482  1.00  0.00     0.093 A 
ATOM     19  N   UNL     1       1.520   1.528  -1.411  1.00  0.00    -0.268 N 
ATOM     20  N   UNL     1       2.135   2.719  -1.416  1.00  0.00    -0.176 NA
ATOM     21  C   UNL     1       1.724   0.835  -2.571  1.00  0.00     0.060 A 
ATOM     22  C   UNL     1       2.578   2.873  -2.675  1.00  0.00     0.084 A 
ATOM     23  C   UNL     1       1.433  -0.605  -2.780  1.00  0.00     0.069 C 
ATOM     24  C   UNL     1       3.291   4.137  -2.959  1.00  0.00     0.071 C 
BRANCH  19  25
ATOM     25  C   UNL     1       0.625   1.236  -0.305  1.00  0.00     0.141 C 
ATOM     26  C   UNL     1       0.866  -0.077   0.414  1.00  0.00     0.029 C 
ENDBRANCH  19  25
ENDBRANCH  16  18
ENDBRANCH  13  16
ENDBRANCH   6  13
ENDBRANCH   3   5
ENDBRANCH   2   3
ENDBRANCH   1   2
BRANCH   1  27
ATOM     27  C   UNL     1       4.771   8.953  -8.975  1.00  0.00     0.275 C 
BRANCH  27  28
ATOM     28  O   UNL     1       4.034   9.865  -8.148  1.00  0.00    -0.458 OA
BRANCH  28  29
ATOM     29  C   UNL     1       2.829   9.357  -7.814  1.00  0.00     0.338 C 
ATOM     30  O   UNL     1       2.419   8.233  -8.045  1.00  0.00    -0.246 OA
BRANCH  29  31
ATOM     31  C   UNL     1       1.899  10.360  -7.309  1.00  0.00     0.060 A 
ATOM     32  C   UNL     1       0.846   9.834  -6.544  1.00  0.00     0.016 A 
ATOM     33  C   UNL     1       1.729  11.450  -8.155  1.00  0.00     0.016 A 
ATOM     34  C   UNL     1      -0.448  10.183  -6.852  1.00  0.00     0.010 A 
ATOM     35  C   UNL     1       0.438  11.808  -8.454  1.00  0.00     0.010 A 
ATOM     36  C   UNL     1      -0.630  11.111  -7.867  1.00  0.00    -0.014 A 
BRANCH  36  37
ATOM     37  C   UNL     1      -1.944  11.517  -8.289  1.00  0.00     0.031 A 
ATOM     38  C   UNL     1      -2.698  12.402  -7.387  1.00  0.00     0.074 A 
ATOM     39  C   UNL     1      -2.386  11.193  -9.520  1.00  0.00     0.049 A 
ATOM     40  N   UNL     1      -3.977  12.529  -7.404  1.00  0.00    -0.248 NA
ATOM     41  C   UNL     1      -2.048  13.169  -6.323  1.00  0.00     0.031 C 
ATOM     42  C   UNL     1      -3.410  11.908 -10.260  1.00  0.00     0.029 A 
ATOM     43  N   UNL     1      -2.108  10.065 -10.301  1.00  0.00    -0.354 N 
ATOM     44  C   UNL     1      -4.276  13.612  -6.611  1.00  0.00     0.074 A 
ATOM     45  C   UNL     1      -3.072  13.898  -5.868  1.00  0.00     0.031 C 
ATOM     46  C   UNL     1      -3.860  11.119 -11.245  1.00  0.00     0.029 A 
ATOM     47  C   UNL     1      -3.263   9.806 -11.056  1.00  0.00     0.049 A 
ATOM     48  H   UNL     1      -1.267   9.554 -10.318  1.00  0.00     0.167 HD
ATOM     49  C   UNL     1      -5.447  14.276  -6.810  1.00  0.00     0.037 A 
ATOM     50  C   UNL     1      -3.964   8.636 -11.079  1.00  0.00     0.037 A 
ATOM     51  C   UNL     1      -6.203  13.675  -7.900  1.00  0.00     0.049 A 
ATOM     52  C   UNL     1      -5.412   8.827 -10.705  1.00  0.00     0.074 A 
ATOM     53  C   UNL     1      -6.213  13.950  -9.258  1.00  0.00     0.029 A 
ATOM     54  N   UNL     1      -6.812  12.439  -7.738  1.00  0.00    -0.354 N 
ATOM     55  N   UNL     1      -5.836   9.836  -9.999  1.00  0.00    -0.248 NA
ATOM     56  C   UNL     1      -6.485   7.907 -11.067  1.00  0.00     0.031 C 
ATOM     57  C   UNL     1      -6.827  12.869  -9.921  1.00  0.00     0.029 A 
ATOM     58  C   UNL     1      -7.188  11.933  -8.967  1.00  0.00     0.049 A 
ATOM     59  H   UNL     1      -6.955  11.989  -6.874  1.00  0.00     0.167 HD
ATOM     60  C   UNL     1      -7.187   9.723  -9.803  1.00  0.00     0.074 A 
ATOM     61  C   UNL     1      -7.548   8.501 -10.494  1.00  0.00     0.031 C 
ATOM     62  C   UNL     1      -7.878  10.660  -9.088  1.00  0.00     0.037 A 
BRANCH  49  63
ATOM     63  C   UNL     1      -5.715  15.658  -6.274  1.00  0.00     0.058 A 
ATOM     64  C   UNL     1      -6.410  16.604  -7.057  1.00  0.00     0.135 A 
ATOM     65  C   UNL     1      -5.293  16.118  -5.011  1.00  0.00     0.135 A 
ATOM     66  F   UNL     1      -6.915  16.295  -8.258  1.00  0.00    -0.206 F 
ATOM     67  C   UNL     1      -6.608  17.921  -6.656  1.00  0.00     0.059 A 
ATOM     68  C   UNL     1      -5.442  17.449  -4.604  1.00  0.00     0.059 A 
ATOM     69  F   UNL     1      -4.742  15.280  -4.119  1.00  0.00    -0.206 F 
ATOM     70  C   UNL     1      -6.102  18.344  -5.437  1.00  0.00     0.060 A 
BRANCH  70  71
ATOM     71  S   UNL     1      -6.338  20.068  -4.976  1.00  0.00     0.124 S 
ATOM     72  O   UNL     1      -5.771  20.773  -6.122  1.00  0.00    -0.237 OA
ATOM     73  O   UNL     1      -7.788  20.148  -4.837  1.00  0.00    -0.237 OA
ATOM     74  O   UNL     1      -5.580  20.195  -3.735  1.00  0.00    -0.744 OA
ENDBRANCH  70  71
ENDBRANCH  49  63
BRANCH  50  75
ATOM     75  C   UNL     1      -3.189   7.411 -10.793  1.00  0.00     0.058 A 
ATOM     76  C   UNL     1      -2.390   6.880 -11.818  1.00  0.00     0.135 A 
ATOM     77  C   UNL     1      -2.917   7.026  -9.473  1.00  0.00     0.135 A 
ATOM     78  F   UNL     1      -2.641   7.195 -13.099  1.00  0.00    -0.206 F 
ATOM     79  C   UNL     1      -1.262   6.123 -11.534  1.00  0.00     0.059 A 
ATOM     80  C   UNL     1      -1.783   6.281  -9.164  1.00  0.00     0.059 A 
ATOM     81  F   UNL     1      -3.657   7.505  -8.463  1.00  0.00    -0.206 F 
ATOM     82  C   UNL     1      -0.934   5.886 -10.201  1.00  0.00     0.060 A 
BRANCH  82  83
ATOM     83  S   UNL     1       0.712   5.236  -9.846  1.00  0.00     0.124 S 
ATOM     84  O   UNL     1       0.603   3.865 -10.331  1.00  0.00    -0.237 OA
ATOM     85  O   UNL     1       1.567   6.118 -10.636  1.00  0.00    -0.237 OA
ATOM     86  O   UNL     1       0.807   5.381  -8.401  1.00  0.00    -0.744 OA
ENDBRANCH  82  83
ENDBRANCH  50  75
BRANCH  62  87
ATOM     87  C   UNL     1      -9.289  10.540  -8.564  1.00  0.00     0.058 A 
ATOM     88  C   UNL     1      -9.934   9.318  -8.315  1.00  0.00     0.135 A 
ATOM     89  C   UNL     1     -10.005  11.695  -8.156  1.00  0.00     0.135 A 
ATOM     90  F   UNL     1      -9.322   8.145  -8.534  1.00  0.00    -0.206 F 
ATOM     91  C   UNL     1     -11.222   9.246  -7.783  1.00  0.00     0.059 A 
ATOM     92  C   UNL     1     -11.264  11.644  -7.568  1.00  0.00     0.059 A 
ATOM     93  F   UNL     1      -9.496  12.928  -8.300  1.00  0.00    -0.206 F 
ATOM     94  C   UNL     1     -11.882  10.414  -7.416  1.00  0.00     0.060 A 
BRANCH  94  95
ATOM     95  S   UNL     1     -13.527  10.322  -6.693  1.00  0.00     0.124 S 
ATOM     96  O   UNL     1     -14.368  10.343  -7.886  1.00  0.00    -0.237 OA
ATOM     97  O   UNL     1     -13.491   9.055  -5.969  1.00  0.00    -0.237 OA
ATOM     98  O   UNL     1     -13.591  11.513  -5.852  1.00  0.00    -0.744 OA
ENDBRANCH  94  95
ENDBRANCH  62  87
ENDBRANCH  36  37
ENDBRANCH  29  31
ENDBRANCH  28  29
ENDBRANCH  27  28
ENDBRANCH   1  27
TORSDOF 18
