REMARK SMILES O=C(OCCOC(=O)c1cc(Cl)nc(I)c1C(F)(F)F)c1ccc(-c2c3nc(c(-c4c(F)cc(S(=O)(=O)[O-])cc4F)c4ccc([nH]4)c(-c4c(F)cc(S(=O)(=O)[O-])cc4F)c4nc(c(-c5c(F)cc(S(=O)(=O)[O-])cc5F)c5ccc2[nH]5)C=C4)C=C3)cc1
REMARK SMILES IDX 4 1 3 2 2 3 1 4 21 5 22 6 86 7 23 8 85 9 24 10 25 11 26 12
REMARK SMILES IDX 79 13 27 14 84 15 78 16 80 17 28 18 83 19 77 20 76 21 29 23
REMARK SMILES IDX 63 24 42 25 62 26 43 27 46 28 61 29 81 30 44 31 45 32 60 34
REMARK SMILES IDX 82 35 47 36 30 37 31 38 40 39 32 40 33 41 39 42 41 43 34 44
REMARK SMILES IDX 35 45 36 46 37 47 38 48 64 49 65 50 74 51 66 52 67 53 73 54
REMARK SMILES IDX 75 55 68 56 69 57 70 58 71 59 72 60 48 61 49 62 58 63 50 64
REMARK SMILES IDX 51 65 57 66 59 67 52 68 53 69 54 70 55 71 56 72 5 73 6 74
REMARK SMILES IDX 7 75 8 76 9 77 10 78 16 79 11 80 14 81 12 82 13 83 15 84
REMARK SMILES IDX 17 85 18 86 19 87 20 88
REMARK H PARENT 80 22 46 33
REMARK Flexibility Score: inf
ROOT
ATOM      1  C   UNL     1       4.114  -1.332   0.291  1.00  0.00     0.275 C 
ENDROOT
BRANCH   1   2
ATOM      2  O   UNL     1       2.964  -0.626   0.789  1.00  0.00    -0.458 OA
BRANCH   2   3
ATOM      3  C   UNL     1       2.812   0.707   0.981  1.00  0.00     0.338 C 
ATOM      4  O   UNL     1       1.956   1.093   1.775  1.00  0.00    -0.246 OA
BRANCH   3   5
ATOM      5  C   UNL     1       3.481   1.738   0.121  1.00  0.00     0.060 A 
ATOM      6  C   UNL     1       4.722   1.604  -0.504  1.00  0.00     0.016 A 
ATOM      7  C   UNL     1       2.776   2.945  -0.072  1.00  0.00     0.016 A 
ATOM      8  C   UNL     1       5.217   2.599  -1.346  1.00  0.00     0.010 A 
ATOM      9  C   UNL     1       3.280   3.962  -0.890  1.00  0.00     0.010 A 
ATOM     10  C   UNL     1       4.515   3.792  -1.517  1.00  0.00    -0.014 A 
BRANCH  10  11
ATOM     11  C   UNL     1       5.232   4.924  -2.135  1.00  0.00     0.031 A 
ATOM     12  C   UNL     1       6.151   5.711  -1.252  1.00  0.00     0.074 A 
ATOM     13  C   UNL     1       5.178   5.153  -3.458  1.00  0.00     0.049 A 
ATOM     14  N   UNL     1       7.005   6.640  -1.577  1.00  0.00    -0.248 NA
ATOM     15  C   UNL     1       6.141   5.367   0.181  1.00  0.00     0.031 C 
ATOM     16  C   UNL     1       4.400   4.367  -4.407  1.00  0.00     0.029 A 
ATOM     17  N   UNL     1       5.805   6.091  -4.235  1.00  0.00    -0.354 N 
ATOM     18  C   UNL     1       7.676   6.948  -0.403  1.00  0.00     0.074 A 
ATOM     19  C   UNL     1       7.104   6.142   0.651  1.00  0.00     0.031 C 
ATOM     20  C   UNL     1       4.586   4.861  -5.643  1.00  0.00     0.029 A 
ATOM     21  C   UNL     1       5.474   6.013  -5.568  1.00  0.00     0.049 A 
ATOM     22  H   UNL     1       6.432   6.759  -3.874  1.00  0.00     0.167 HD
ATOM     23  C   UNL     1       8.692   7.821  -0.228  1.00  0.00     0.037 A 
ATOM     24  C   UNL     1       5.840   6.790  -6.606  1.00  0.00     0.037 A 
ATOM     25  C   UNL     1       9.181   8.682  -1.266  1.00  0.00     0.049 A 
ATOM     26  C   UNL     1       6.821   7.899  -6.340  1.00  0.00     0.074 A 
ATOM     27  C   UNL     1      10.138   9.675  -1.182  1.00  0.00     0.029 A 
ATOM     28  N   UNL     1       8.720   8.673  -2.576  1.00  0.00    -0.354 N 
ATOM     29  N   UNL     1       7.451   8.185  -5.224  1.00  0.00    -0.248 NA
ATOM     30  C   UNL     1       7.145   8.788  -7.463  1.00  0.00     0.031 C 
ATOM     31  C   UNL     1      10.215  10.304  -2.430  1.00  0.00     0.029 A 
ATOM     32  C   UNL     1       9.344   9.669  -3.304  1.00  0.00     0.049 A 
ATOM     33  H   UNL     1       8.047   8.049  -2.933  1.00  0.00     0.167 HD
ATOM     34  C   UNL     1       8.259   9.277  -5.513  1.00  0.00     0.074 A 
ATOM     35  C   UNL     1       8.050   9.588  -6.914  1.00  0.00     0.031 C 
ATOM     36  C   UNL     1       9.099   9.960  -4.695  1.00  0.00     0.037 A 
BRANCH  23  37
ATOM     37  C   UNL     1       9.279   7.900   1.147  1.00  0.00     0.058 A 
ATOM     38  C   UNL     1      10.116   6.886   1.641  1.00  0.00     0.135 A 
ATOM     39  C   UNL     1       8.972   8.974   1.995  1.00  0.00     0.135 A 
ATOM     40  F   UNL     1      10.404   5.816   0.883  1.00  0.00    -0.206 F 
ATOM     41  C   UNL     1      10.618   6.929   2.937  1.00  0.00     0.059 A 
ATOM     42  C   UNL     1       9.477   9.046   3.289  1.00  0.00     0.059 A 
ATOM     43  F   UNL     1       8.153   9.952   1.577  1.00  0.00    -0.206 F 
ATOM     44  C   UNL     1      10.291   8.013   3.753  1.00  0.00     0.060 A 
BRANCH  44  45
ATOM     45  S   UNL     1      10.943   8.046   5.436  1.00  0.00     0.124 S 
ATOM     46  O   UNL     1      10.196   6.959   6.060  1.00  0.00    -0.237 OA
ATOM     47  O   UNL     1      12.365   7.796   5.221  1.00  0.00    -0.237 OA
ATOM     48  O   UNL     1      10.608   9.387   5.905  1.00  0.00    -0.744 OA
ENDBRANCH  44  45
ENDBRANCH  23  37
BRANCH  24  49
ATOM     49  C   UNL     1       5.268   6.564  -7.963  1.00  0.00     0.058 A 
ATOM     50  C   UNL     1       6.064   6.130  -9.032  1.00  0.00     0.135 A 
ATOM     51  C   UNL     1       3.903   6.786  -8.220  1.00  0.00     0.135 A 
ATOM     52  F   UNL     1       7.374   5.912  -8.847  1.00  0.00    -0.206 F 
ATOM     53  C   UNL     1       5.535   5.934 -10.306  1.00  0.00     0.059 A 
ATOM     54  C   UNL     1       3.346   6.574  -9.478  1.00  0.00     0.059 A 
ATOM     55  F   UNL     1       3.092   7.198  -7.233  1.00  0.00    -0.206 F 
ATOM     56  C   UNL     1       4.173   6.157 -10.519  1.00  0.00     0.060 A 
BRANCH  56  57
ATOM     57  S   UNL     1       3.495   5.869 -12.170  1.00  0.00     0.124 S 
ATOM     58  O   UNL     1       4.113   6.946 -12.935  1.00  0.00    -0.237 OA
ATOM     59  O   UNL     1       3.974   4.522 -12.463  1.00  0.00    -0.237 OA
ATOM     60  O   UNL     1       2.054   5.986 -11.969  1.00  0.00    -0.744 OA
ENDBRANCH  56  57
ENDBRANCH  24  49
BRANCH  36  61
ATOM     61  C   UNL     1       9.847  11.112  -5.298  1.00  0.00     0.058 A 
ATOM     62  C   UNL     1       9.204  12.323  -5.595  1.00  0.00     0.135 A 
ATOM     63  C   UNL     1      11.230  11.024  -5.520  1.00  0.00     0.135 A 
ATOM     64  F   UNL     1       7.882  12.452  -5.406  1.00  0.00    -0.206 F 
ATOM     65  C   UNL     1       9.907  13.406  -6.110  1.00  0.00     0.059 A 
ATOM     66  C   UNL     1      11.957  12.103  -6.008  1.00  0.00     0.059 A 
ATOM     67  F   UNL     1      11.889   9.889  -5.240  1.00  0.00    -0.206 F 
ATOM     68  C   UNL     1      11.284  13.287  -6.309  1.00  0.00     0.060 A 
BRANCH  68  69
ATOM     69  S   UNL     1      12.189  14.714  -6.941  1.00  0.00     0.124 S 
ATOM     70  O   UNL     1      11.762  14.738  -8.336  1.00  0.00    -0.237 OA
ATOM     71  O   UNL     1      11.684  15.798  -6.104  1.00  0.00    -0.237 OA
ATOM     72  O   UNL     1      13.586  14.356  -6.717  1.00  0.00    -0.744 OA
ENDBRANCH  68  69
ENDBRANCH  36  61
ENDBRANCH  10  11
ENDBRANCH   3   5
ENDBRANCH   2   3
ENDBRANCH   1   2
BRANCH   1  73
ATOM     73  C   UNL     1       4.039  -1.643  -1.207  1.00  0.00     0.275 C 
BRANCH  73  74
ATOM     74  O   UNL     1       3.526  -0.545  -1.983  1.00  0.00    -0.458 OA
BRANCH  74  75
ATOM     75  C   UNL     1       2.209  -0.626  -2.275  1.00  0.00     0.339 C 
ATOM     76  O   UNL     1       1.434  -1.515  -1.974  1.00  0.00    -0.246 OA
BRANCH  75  77
ATOM     77  C   UNL     1       1.749   0.606  -2.941  1.00  0.00     0.078 A 
ATOM     78  C   UNL     1       0.796   1.333  -2.225  1.00  0.00     0.057 A 
ATOM     79  C   UNL     1       2.136   0.971  -4.245  1.00  0.00     0.102 A 
ATOM     80  C   UNL     1       0.271   2.442  -2.830  1.00  0.00     0.131 A 
ATOM     81  C   UNL     1       1.447   2.053  -4.790  1.00  0.00     0.116 A 
ATOM     82  Cl  UNL     1      -0.816   3.476  -2.009  1.00  0.00    -0.062 Cl
ATOM     83  N   UNL     1       0.551   2.795  -4.091  1.00  0.00    -0.229 NA
ATOM     84  I   UNL     1       1.567   2.639  -6.813  1.00  0.00    -0.021 I 
BRANCH  79  85
ATOM     85  C   UNL     1       3.289   0.287  -4.916  1.00  0.00     0.419 C 
ATOM     86  F   UNL     1       3.245   0.245  -6.271  1.00  0.00    -0.166 F 
ATOM     87  F   UNL     1       4.470   0.885  -4.596  1.00  0.00    -0.166 F 
ATOM     88  F   UNL     1       3.433  -1.020  -4.553  1.00  0.00    -0.166 F 
ENDBRANCH  79  85
ENDBRANCH  75  77
ENDBRANCH  74  75
ENDBRANCH  73  74
ENDBRANCH   1  73
TORSDOF 15
