REMARK SMILES O=C(CCCc1nc(-c2ccc(Cl)c(Cl)c2)c(-c2ccccc2)o1)OCCOC(=O)c1ccc(-c2c3nc(c(-c4c(F)cc(S(=O)(=O)[O-])cc4F)c4ccc([nH]4)c(-c4c(F)cc(S(=O)(=O)[O-])cc4F)c4nc(c(-c5c(F)cc(S(=O)(=O)[O-])cc5F)c5ccc2[nH]5)C=C4)C=C3)cc1
REMARK SMILES IDX 26 1 25 2 2 3 1 4 3 5 4 6 5 7 6 8 7 9 24 10 8 11 17 12 9 13
REMARK SMILES IDX 10 14 16 15 11 16 14 17 12 18 15 19 13 20 18 21 19 22 23 23
REMARK SMILES IDX 20 24 22 25 21 26 27 27 28 28 29 29 30 30 31 31 32 32 96 33
REMARK SMILES IDX 33 34 95 35 34 36 35 37 36 38 89 39 37 40 94 41 88 42 90 43
REMARK SMILES IDX 38 44 93 45 87 46 86 47 39 49 73 50 52 51 72 52 53 53 56 54
REMARK SMILES IDX 71 55 91 56 54 57 55 58 70 60 92 61 57 62 40 63 41 64 50 65
REMARK SMILES IDX 42 66 43 67 49 68 51 69 44 70 45 71 46 72 47 73 48 74 74 75
REMARK SMILES IDX 75 76 84 77 76 78 77 79 83 80 85 81 78 82 79 83 80 84 81 85
REMARK SMILES IDX 82 86 58 87 59 88 68 89 60 90 61 91 67 92 69 93 62 94 63 95
REMARK SMILES IDX 64 96 65 97 66 98
REMARK H PARENT 90 48 56 59
REMARK Flexibility Score: inf
ROOT
ATOM      1  C   UNL     1       3.207   1.373  -0.528  1.00  0.00     0.274 C 
ENDROOT
BRANCH   1   2
ATOM      2  O   UNL     1       2.126   0.475  -0.825  1.00  0.00    -0.462 OA
BRANCH   2   3
ATOM      3  C   UNL     1       2.300  -0.860  -0.974  1.00  0.00     0.305 C 
ATOM      4  O   UNL     1       1.541  -1.501  -1.697  1.00  0.00    -0.252 OA
BRANCH   3   5
ATOM      5  C   UNL     1       3.382  -1.555  -0.173  1.00  0.00     0.123 C 
BRANCH   5   6
ATOM      6  C   UNL     1       4.540  -2.115  -0.996  1.00  0.00     0.021 C 
BRANCH   6   7
ATOM      7  C   UNL     1       5.755  -1.193  -1.157  1.00  0.00     0.098 C 
BRANCH   7   8
ATOM      8  C   UNL     1       6.339  -0.700   0.129  1.00  0.00     0.195 A 
ATOM      9  N   UNL     1       6.947  -1.381   1.081  1.00  0.00    -0.213 NA
ATOM     10  O   UNL     1       6.299   0.659   0.344  1.00  0.00    -0.440 OA
ATOM     11  C   UNL     1       7.313  -0.416   1.991  1.00  0.00     0.117 A 
ATOM     12  C   UNL     1       6.932   0.831   1.546  1.00  0.00     0.162 A 
BRANCH  11  13
ATOM     13  C   UNL     1       8.116  -0.654   3.168  1.00  0.00     0.006 A 
ATOM     14  C   UNL     1       9.369  -1.257   3.029  1.00  0.00     0.012 A 
ATOM     15  C   UNL     1       7.697  -0.204   4.427  1.00  0.00     0.032 A 
ATOM     16  C   UNL     1      10.217  -1.373   4.131  1.00  0.00     0.023 A 
ATOM     17  C   UNL     1       8.544  -0.326   5.534  1.00  0.00     0.060 A 
ATOM     18  C   UNL     1       9.811  -0.901   5.383  1.00  0.00     0.059 A 
ATOM     19  Cl  UNL     1       7.976   0.282   7.047  1.00  0.00    -0.083 Cl
ATOM     20  Cl  UNL     1      10.930  -1.037   6.692  1.00  0.00    -0.083 Cl
ENDBRANCH  11  13
BRANCH  12  21
ATOM     21  C   UNL     1       7.153   2.193   1.997  1.00  0.00     0.020 A 
ATOM     22  C   UNL     1       6.167   2.889   2.705  1.00  0.00     0.012 A 
ATOM     23  C   UNL     1       8.396   2.805   1.792  1.00  0.00     0.012 A 
ATOM     24  C   UNL     1       6.398   4.192   3.153  1.00  0.00     0.001 A 
ATOM     25  C   UNL     1       8.636   4.099   2.260  1.00  0.00     0.001 A 
ATOM     26  C   UNL     1       7.633   4.797   2.929  1.00  0.00     0.000 A 
ENDBRANCH  12  21
ENDBRANCH   7   8
ENDBRANCH   6   7
ENDBRANCH   5   6
ENDBRANCH   3   5
ENDBRANCH   2   3
ENDBRANCH   1   2
BRANCH   1  27
ATOM     27  C   UNL     1       3.138   1.928   0.891  1.00  0.00     0.275 C 
BRANCH  27  28
ATOM     28  O   UNL     1       3.124   0.861   1.858  1.00  0.00    -0.458 OA
BRANCH  28  29
ATOM     29  C   UNL     1       1.891   0.609   2.370  1.00  0.00     0.338 C 
ATOM     30  O   UNL     1       0.923   1.337   2.281  1.00  0.00    -0.246 OA
BRANCH  29  31
ATOM     31  C   UNL     1       1.796  -0.765   2.924  1.00  0.00     0.060 A 
ATOM     32  C   UNL     1       0.586  -1.430   2.697  1.00  0.00     0.016 A 
ATOM     33  C   UNL     1       2.789  -1.375   3.698  1.00  0.00     0.016 A 
ATOM     34  C   UNL     1       0.316  -2.641   3.330  1.00  0.00     0.010 A 
ATOM     35  C   UNL     1       2.519  -2.604   4.329  1.00  0.00     0.010 A 
ATOM     36  C   UNL     1       1.254  -3.210   4.200  1.00  0.00    -0.014 A 
BRANCH  36  37
ATOM     37  C   UNL     1       0.786  -4.303   5.100  1.00  0.00     0.031 A 
ATOM     38  C   UNL     1       0.399  -3.963   6.519  1.00  0.00     0.074 A 
ATOM     39  C   UNL     1       0.559  -5.546   4.633  1.00  0.00     0.049 A 
ATOM     40  N   UNL     1      -0.223  -4.694   7.409  1.00  0.00    -0.248 NA
ATOM     41  C   UNL     1       0.751  -2.615   6.995  1.00  0.00     0.031 C 
ATOM     42  C   UNL     1       0.858  -6.009   3.279  1.00  0.00     0.029 A 
ATOM     43  N   UNL     1      -0.009  -6.640   5.243  1.00  0.00    -0.354 N 
ATOM     44  C   UNL     1      -0.349  -3.894   8.540  1.00  0.00     0.074 A 
ATOM     45  C   UNL     1       0.306  -2.639   8.242  1.00  0.00     0.031 C 
ATOM     46  C   UNL     1       0.453  -7.286   3.154  1.00  0.00     0.029 A 
ATOM     47  C   UNL     1      -0.131  -7.734   4.418  1.00  0.00     0.049 A 
ATOM     48  H   UNL     1      -0.300  -6.640   6.183  1.00  0.00     0.167 HD
ATOM     49  C   UNL     1      -0.970  -4.164   9.714  1.00  0.00     0.037 A 
ATOM     50  C   UNL     1      -0.668  -8.950   4.647  1.00  0.00     0.037 A 
ATOM     51  C   UNL     1      -1.626  -5.408  10.020  1.00  0.00     0.049 A 
ATOM     52  C   UNL     1      -1.317  -9.244   5.977  1.00  0.00     0.074 A 
ATOM     53  C   UNL     1      -2.299  -5.764  11.176  1.00  0.00     0.029 A 
ATOM     54  N   UNL     1      -1.684  -6.503   9.172  1.00  0.00    -0.354 N 
ATOM     55  N   UNL     1      -1.476  -8.455   7.014  1.00  0.00    -0.248 NA
ATOM     56  C   UNL     1      -1.879 -10.591   6.160  1.00  0.00     0.031 C 
ATOM     57  C   UNL     1      -2.723  -7.091  11.046  1.00  0.00     0.029 A 
ATOM     58  C   UNL     1      -2.362  -7.543   9.787  1.00  0.00     0.049 A 
ATOM     59  H   UNL     1      -1.301  -6.536   8.265  1.00  0.00     0.167 HD
ATOM     60  C   UNL     1      -2.193  -9.195   7.951  1.00  0.00     0.074 A 
ATOM     61  C   UNL     1      -2.438 -10.493   7.358  1.00  0.00     0.031 C 
ATOM     62  C   UNL     1      -2.618  -8.828   9.186  1.00  0.00     0.037 A 
BRANCH  49  63
ATOM     63  C   UNL     1      -0.952  -3.091  10.768  1.00  0.00     0.058 A 
ATOM     64  C   UNL     1      -1.716  -1.919  10.645  1.00  0.00     0.135 A 
ATOM     65  C   UNL     1      -0.174  -3.245  11.926  1.00  0.00     0.135 A 
ATOM     66  F   UNL     1      -2.465  -1.713   9.550  1.00  0.00    -0.206 F 
ATOM     67  C   UNL     1      -1.684  -0.924  11.617  1.00  0.00     0.059 A 
ATOM     68  C   UNL     1      -0.147  -2.275  12.924  1.00  0.00     0.059 A 
ATOM     69  F   UNL     1       0.575  -4.346  12.095  1.00  0.00    -0.206 F 
ATOM     70  C   UNL     1      -0.892  -1.110  12.751  1.00  0.00     0.060 A 
BRANCH  70  71
ATOM     71  S   UNL     1      -0.850   0.194  13.999  1.00  0.00     0.124 S 
ATOM     72  O   UNL     1      -0.037   1.207  13.333  1.00  0.00    -0.237 OA
ATOM     73  O   UNL     1      -2.264   0.522  14.158  1.00  0.00    -0.237 OA
ATOM     74  O   UNL     1      -0.227  -0.454  15.148  1.00  0.00    -0.744 OA
ENDBRANCH  70  71
ENDBRANCH  49  63
BRANCH  50  75
ATOM     75  C   UNL     1      -0.645  -9.988   3.580  1.00  0.00     0.058 A 
ATOM     76  C   UNL     1      -1.824 -10.405   2.942  1.00  0.00     0.135 A 
ATOM     77  C   UNL     1       0.557 -10.602   3.194  1.00  0.00     0.135 A 
ATOM     78  F   UNL     1      -3.001  -9.860   3.285  1.00  0.00    -0.206 F 
ATOM     79  C   UNL     1      -1.815 -11.406   1.974  1.00  0.00     0.059 A 
ATOM     80  C   UNL     1       0.594 -11.587   2.212  1.00  0.00     0.059 A 
ATOM     81  F   UNL     1       1.713 -10.235   3.769  1.00  0.00    -0.206 F 
ATOM     82  C   UNL     1      -0.600 -11.991   1.616  1.00  0.00     0.060 A 
BRANCH  82  83
ATOM     83  S   UNL     1      -0.592 -13.263   0.334  1.00  0.00     0.124 S 
ATOM     84  O   UNL     1      -1.164 -14.401   1.044  1.00  0.00    -0.237 OA
ATOM     85  O   UNL     1      -1.433 -12.665  -0.698  1.00  0.00    -0.237 OA
ATOM     86  O   UNL     1       0.822 -13.381  -0.012  1.00  0.00    -0.744 OA
ENDBRANCH  82  83
ENDBRANCH  50  75
BRANCH  62  87
ATOM     87  C   UNL     1      -3.443  -9.818   9.966  1.00  0.00     0.058 A 
ATOM     88  C   UNL     1      -2.885 -10.979  10.524  1.00  0.00     0.135 A 
ATOM     89  C   UNL     1      -4.809  -9.579  10.190  1.00  0.00     0.135 A 
ATOM     90  F   UNL     1      -1.585 -11.258  10.342  1.00  0.00    -0.206 F 
ATOM     91  C   UNL     1      -3.659 -11.884  11.245  1.00  0.00     0.059 A 
ATOM     92  C   UNL     1      -5.596 -10.456  10.932  1.00  0.00     0.059 A 
ATOM     93  F   UNL     1      -5.393  -8.476   9.693  1.00  0.00    -0.206 F 
ATOM     94  C   UNL     1      -5.015 -11.616  11.441  1.00  0.00     0.060 A 
BRANCH  94  95
ATOM     95  S   UNL     1      -6.008 -12.791  12.387  1.00  0.00     0.124 S 
ATOM     96  O   UNL     1      -6.191 -13.867  11.419  1.00  0.00    -0.237 OA
ATOM     97  O   UNL     1      -5.138 -13.098  13.519  1.00  0.00    -0.237 OA
ATOM     98  O   UNL     1      -7.210 -12.031  12.717  1.00  0.00    -0.744 OA
ENDBRANCH  94  95
ENDBRANCH  62  87
ENDBRANCH  36  37
ENDBRANCH  29  31
ENDBRANCH  28  29
ENDBRANCH  27  28
ENDBRANCH   1  27
TORSDOF 19
