REMARK SMILES Cc1cc(C(=O)N[C@@H]2C(=O)N3C(C(=O)OCCOC(=O)c4ccc(-c5c6nc(c(-c7c(F)cc(S(=O)(=O)[O-])cc7F)c7ccc([nH]7)c(-c7c(F)cc(S(=O)(=O)[O-])cc7F)c7nc(c(-c8c(F)cc(S(=O)(=O)[O-])cc8F)c8ccc5[nH]8)C=C7)C=C6)cc4)=C(CSc4nnc(C)s4)CS[C@H]23)n(C)n1
REMARK SMILES IDX 16 1 15 2 13 3 14 4 12 5 8 6 9 7 98 8 10 9 11 10 97 11 96 12
REMARK SMILES IDX 87 13 7 14 5 15 6 16 4 18 1 19 2 20 3 21 101 22 99 23 100 24
REMARK SMILES IDX 88 25 89 26 90 27 91 28 95 29 92 30 93 31 94 32 17 33 18 34
REMARK SMILES IDX 19 35 20 36 21 37 22 38 86 39 23 40 85 41 24 42 25 43 26 44
REMARK SMILES IDX 79 45 27 46 84 47 78 48 80 49 28 50 83 51 77 52 76 53 29 55
REMARK SMILES IDX 63 56 42 57 62 58 43 59 46 60 61 61 81 62 44 63 45 64 60 66
REMARK SMILES IDX 82 67 47 68 30 69 31 70 40 71 32 72 33 73 39 74 41 75 34 76
REMARK SMILES IDX 35 77 36 78 37 79 38 80 64 81 65 82 74 83 66 84 67 85 73 86
REMARK SMILES IDX 75 87 68 88 69 89 70 90 71 91 72 92 48 93 49 94 58 95 50 96
REMARK SMILES IDX 51 97 57 98 59 99 52 100 53 101 54 102 55 103 56 104
REMARK H PARENT 7 17 80 54 46 65
REMARK Flexibility Score: inf
ROOT
ATOM      1  C   UNL     1      -3.866   0.678  -3.362  1.00  0.00     0.275 C 
ENDROOT
BRANCH   1   2
ATOM      2  O   UNL     1      -3.993  -0.684  -2.904  1.00  0.00    -0.457 OA
BRANCH   2   3
ATOM      3  C   UNL     1      -2.860  -1.417  -2.897  1.00  0.00     0.355 C 
ATOM      4  O   UNL     1      -1.751  -1.022  -3.237  1.00  0.00    -0.244 OA
BRANCH   3   5
ATOM      5  C   UNL     1      -3.076  -2.838  -2.474  1.00  0.00     0.132 C 
ATOM      6  C   UNL     1      -0.862  -4.289  -0.331  1.00  0.00     0.206 C 
ATOM      7  C   UNL     1      -1.972  -3.183  -0.270  1.00  0.00     0.253 C 
ATOM      8  C   UNL     1      -1.623  -4.671  -1.649  1.00  0.00     0.181 C 
ATOM      9  O   UNL     1      -2.541  -2.522   0.568  1.00  0.00    -0.272 OA
ATOM     10  N   UNL     1      -2.131  -3.312  -1.614  1.00  0.00    -0.289 N 
ATOM     11  S   UNL     1      -3.040  -5.797  -1.495  1.00  0.00    -0.129 SA
ATOM     12  C   UNL     1      -3.863  -5.190  -2.983  1.00  0.00     0.106 C 
ATOM     13  C   UNL     1      -3.887  -3.678  -3.161  1.00  0.00    -0.019 C 
BRANCH   6  14
ATOM     14  N   UNL     1      -0.757  -5.232   0.799  1.00  0.00    -0.336 N 
ATOM     15  C   UNL     1      -0.225  -6.503   0.831  1.00  0.00     0.270 C 
ATOM     16  O   UNL     1      -0.179  -7.072   1.918  1.00  0.00    -0.268 OA
ATOM     17  H   UNL     1      -1.119  -4.906   1.654  1.00  0.00     0.164 HD
BRANCH  15  18
ATOM     18  C   UNL     1       0.163  -7.129  -0.411  1.00  0.00     0.126 A 
ATOM     19  C   UNL     1       0.587  -7.398  -4.028  1.00  0.00     0.069 C 
ATOM     20  C   UNL     1       0.499  -7.571  -2.560  1.00  0.00     0.060 A 
ATOM     21  C   UNL     1       0.753  -6.615  -1.554  1.00  0.00     0.059 A 
ATOM     22  N   UNL     1       0.058  -8.717  -2.037  1.00  0.00    -0.178 NA
ATOM     23  N   UNL     1      -0.022  -8.460  -0.710  1.00  0.00    -0.263 N 
ATOM     24  C   UNL     1      -0.360  -9.557   0.166  1.00  0.00     0.174 C 
ENDBRANCH  15  18
ENDBRANCH   6  14
BRANCH  13  25
ATOM     25  C   UNL     1      -4.803  -3.252  -4.287  1.00  0.00     0.111 C 
BRANCH  25  26
ATOM     26  S   UNL     1      -6.334  -2.405  -3.836  1.00  0.00    -0.089 SA
BRANCH  26  27
ATOM     27  C   UNL     1      -6.726  -3.001  -2.247  1.00  0.00     0.174 A 
ATOM     28  N   UNL     1      -6.780  -4.281  -1.960  1.00  0.00    -0.132 NA
ATOM     29  S   UNL     1      -7.189  -1.966  -0.962  1.00  0.00    -0.091 S 
ATOM     30  N   UNL     1      -7.191  -4.503  -0.659  1.00  0.00    -0.143 NA
ATOM     31  C   UNL     1      -7.459  -3.380  -0.024  1.00  0.00     0.115 A 
ATOM     32  C   UNL     1      -7.992  -3.296   1.361  1.00  0.00     0.081 C 
ENDBRANCH  26  27
ENDBRANCH  25  26
ENDBRANCH  13  25
ENDBRANCH   3   5
ENDBRANCH   2   3
ENDBRANCH   1   2
BRANCH   1  33
ATOM     33  C   UNL     1      -3.979   1.641  -2.188  1.00  0.00     0.275 C 
BRANCH  33  34
ATOM     34  O   UNL     1      -2.845   1.463  -1.325  1.00  0.00    -0.458 OA
BRANCH  34  35
ATOM     35  C   UNL     1      -3.104   0.816  -0.164  1.00  0.00     0.338 C 
ATOM     36  O   UNL     1      -4.197   0.473   0.255  1.00  0.00    -0.246 OA
BRANCH  35  37
ATOM     37  C   UNL     1      -1.840   0.582   0.554  1.00  0.00     0.060 A 
ATOM     38  C   UNL     1      -0.845  -0.203  -0.025  1.00  0.00     0.016 A 
ATOM     39  C   UNL     1      -1.713   1.013   1.872  1.00  0.00     0.016 A 
ATOM     40  C   UNL     1       0.199  -0.684   0.762  1.00  0.00     0.010 A 
ATOM     41  C   UNL     1      -0.588   0.641   2.615  1.00  0.00     0.010 A 
ATOM     42  C   UNL     1       0.357  -0.258   2.090  1.00  0.00    -0.014 A 
BRANCH  42  43
ATOM     43  C   UNL     1       1.484  -0.766   2.930  1.00  0.00     0.031 A 
ATOM     44  C   UNL     1       1.218  -1.369   4.290  1.00  0.00     0.074 A 
ATOM     45  C   UNL     1       2.756  -0.691   2.482  1.00  0.00     0.049 A 
ATOM     46  N   UNL     1       2.064  -1.648   5.250  1.00  0.00    -0.248 NA
ATOM     47  C   UNL     1      -0.182  -1.678   4.623  1.00  0.00     0.031 C 
ATOM     48  C   UNL     1       3.168  -0.170   1.177  1.00  0.00     0.029 A 
ATOM     49  N   UNL     1       3.940  -1.056   3.075  1.00  0.00    -0.354 N 
ATOM     50  C   UNL     1       1.296  -2.091   6.323  1.00  0.00     0.074 A 
ATOM     51  C   UNL     1      -0.085  -2.049   5.893  1.00  0.00     0.031 C 
ATOM     52  C   UNL     1       4.495  -0.298   1.046  1.00  0.00     0.029 A 
ATOM     53  C   UNL     1       5.046  -0.794   2.300  1.00  0.00     0.049 A 
ATOM     54  H   UNL     1       3.993  -1.465   3.969  1.00  0.00     0.167 HD
ATOM     55  C   UNL     1       1.707  -2.486   7.554  1.00  0.00     0.037 A 
ATOM     56  C   UNL     1       6.362  -0.879   2.575  1.00  0.00     0.037 A 
ATOM     57  C   UNL     1       3.091  -2.594   7.948  1.00  0.00     0.049 A 
ATOM     58  C   UNL     1       6.796  -1.310   3.945  1.00  0.00     0.074 A 
ATOM     59  C   UNL     1       3.611  -3.013   9.161  1.00  0.00     0.029 A 
ATOM     60  N   UNL     1       4.174  -2.300   7.132  1.00  0.00    -0.354 N 
ATOM     61  N   UNL     1       6.055  -1.652   4.971  1.00  0.00    -0.248 NA
ATOM     62  C   UNL     1       8.241  -1.341   4.203  1.00  0.00     0.031 C 
ATOM     63  C   UNL     1       5.007  -2.936   9.091  1.00  0.00     0.029 A 
ATOM     64  C   UNL     1       5.359  -2.515   7.819  1.00  0.00     0.049 A 
ATOM     65  H   UNL     1       4.111  -1.985   6.201  1.00  0.00     0.167 HD
ATOM     66  C   UNL     1       6.944  -1.944   5.998  1.00  0.00     0.074 A 
ATOM     67  C   UNL     1       8.277  -1.761   5.460  1.00  0.00     0.031 C 
ATOM     68  C   UNL     1       6.679  -2.324   7.272  1.00  0.00     0.037 A 
BRANCH  55  69
ATOM     69  C   UNL     1       0.653  -2.794   8.587  1.00  0.00     0.058 A 
ATOM     70  C   UNL     1      -0.149  -3.944   8.526  1.00  0.00     0.135 A 
ATOM     71  C   UNL     1       0.474  -1.934   9.685  1.00  0.00     0.135 A 
ATOM     72  F   UNL     1      -0.032  -4.795   7.495  1.00  0.00    -0.206 F 
ATOM     73  C   UNL     1      -1.109  -4.216   9.499  1.00  0.00     0.059 A 
ATOM     74  C   UNL     1      -0.459  -2.200  10.684  1.00  0.00     0.059 A 
ATOM     75  F   UNL     1       1.216  -0.821   9.800  1.00  0.00    -0.206 F 
ATOM     76  C   UNL     1      -1.258  -3.336  10.573  1.00  0.00     0.060 A 
BRANCH  76  77
ATOM     77  S   UNL     1      -2.507  -3.699  11.827  1.00  0.00     0.124 S 
ATOM     78  O   UNL     1      -3.738  -3.366  11.118  1.00  0.00    -0.237 OA
ATOM     79  O   UNL     1      -2.289  -5.118  12.087  1.00  0.00    -0.237 OA
ATOM     80  O   UNL     1      -2.156  -2.804  12.926  1.00  0.00    -0.744 OA
ENDBRANCH  76  77
ENDBRANCH  55  69
BRANCH  56  81
ATOM     81  C   UNL     1       7.354  -0.491   1.537  1.00  0.00     0.058 A 
ATOM     82  C   UNL     1       8.158  -1.454   0.911  1.00  0.00     0.135 A 
ATOM     83  C   UNL     1       7.476   0.841   1.110  1.00  0.00     0.135 A 
ATOM     84  F   UNL     1       8.087  -2.738   1.292  1.00  0.00    -0.206 F 
ATOM     85  C   UNL     1       9.043  -1.112  -0.107  1.00  0.00     0.059 A 
ATOM     86  C   UNL     1       8.329   1.202   0.073  1.00  0.00     0.059 A 
ATOM     87  F   UNL     1       6.718   1.799   1.667  1.00  0.00    -0.206 F 
ATOM     88  C   UNL     1       9.113   0.218  -0.527  1.00  0.00     0.060 A 
BRANCH  88  89
ATOM     89  S   UNL     1      10.191   0.637  -1.913  1.00  0.00     0.124 S 
ATOM     90  O   UNL     1      11.505   0.603  -1.283  1.00  0.00    -0.237 OA
ATOM     91  O   UNL     1       9.907  -0.437  -2.859  1.00  0.00    -0.237 OA
ATOM     92  O   UNL     1       9.717   1.957  -2.318  1.00  0.00    -0.744 OA
ENDBRANCH  88  89
ENDBRANCH  56  81
BRANCH  68  93
ATOM     93  C   UNL     1       7.859  -2.592   8.164  1.00  0.00     0.058 A 
ATOM     94  C   UNL     1       8.645  -1.549   8.678  1.00  0.00     0.135 A 
ATOM     95  C   UNL     1       8.192  -3.906   8.527  1.00  0.00     0.135 A 
ATOM     96  F   UNL     1       8.374  -0.275   8.353  1.00  0.00    -0.206 F 
ATOM     97  C   UNL     1       9.738  -1.802   9.500  1.00  0.00     0.059 A 
ATOM     98  C   UNL     1       9.265  -4.181   9.368  1.00  0.00     0.059 A 
ATOM     99  F   UNL     1       7.467  -4.939   8.068  1.00  0.00    -0.206 F 
ATOM    100  C   UNL     1      10.042  -3.122   9.838  1.00  0.00     0.060 A 
BRANCH 100 101
ATOM    101  S   UNL     1      11.454  -3.437  10.918  1.00  0.00     0.124 S 
ATOM    102  O   UNL     1      12.573  -3.216  10.008  1.00  0.00    -0.237 OA
ATOM    103  O   UNL     1      11.280  -2.434  11.963  1.00  0.00    -0.237 OA
ATOM    104  O   UNL     1      11.254  -4.819  11.344  1.00  0.00    -0.744 OA
ENDBRANCH 100 101
ENDBRANCH  68  93
ENDBRANCH  42  43
ENDBRANCH  35  37
ENDBRANCH  34  35
ENDBRANCH  33  34
ENDBRANCH   1  33
TORSDOF 19
