REMARK SMILES CN(C)C(=O)C[NH+]1CCN(c2cc(C(=O)OCCOC(=O)c3ccc(-c4c5nc(c(-c6c(F)cc(S(=O)(=O)[O-])cc6F)c6ccc([nH]6)c(-c6c(F)cc(S(=O)(=O)[O-])cc6F)c6nc(c(-c7c(F)cc(S(=O)(=O)[O-])cc7F)c7ccc4[nH]7)C=C6)C=C5)cc3)c3cc(NC(=O)c4cccc(Cl)c4)ccc3n2)CC1
REMARK SMILES IDX 17 1 16 2 14 3 15 4 13 5 11 6 12 7 104 8 103 9 88 10 102 11
REMARK SMILES IDX 89 12 101 13 90 14 10 15 7 16 8 17 106 18 9 20 105 21 6 22
REMARK SMILES IDX 4 23 1 24 2 25 3 26 5 27 91 28 92 29 93 31 94 32 95 33
REMARK SMILES IDX 100 34 96 35 98 36 97 37 99 38 18 39 19 40 20 41 21 42 22 43
REMARK SMILES IDX 23 44 87 45 24 46 86 47 25 48 26 49 27 50 80 51 28 52 85 53
REMARK SMILES IDX 79 54 81 55 29 56 84 57 78 58 77 59 30 61 64 62 43 63 63 64
REMARK SMILES IDX 44 65 47 66 62 67 82 68 45 69 46 70 61 72 83 73 48 74 31 75
REMARK SMILES IDX 32 76 41 77 33 78 34 79 40 80 42 81 35 82 36 83 37 84 38 85
REMARK SMILES IDX 39 86 65 87 66 88 75 89 67 90 68 91 74 92 76 93 69 94 70 95
REMARK SMILES IDX 71 96 72 97 73 98 49 99 50 100 59 101 51 102 52 103 58 104
REMARK SMILES IDX 60 105 53 106 54 107 55 108 56 109 57 110
REMARK H PARENT 7 19 91 30 81 60 47 71
REMARK Flexibility Score: inf
ROOT
ATOM      1  C   UNL     1      -7.169  -0.125   5.695  1.00  0.00     0.275 C 
ENDROOT
BRANCH   1   2
ATOM      2  O   UNL     1      -6.038  -0.798   6.297  1.00  0.00    -0.458 OA
BRANCH   2   3
ATOM      3  C   UNL     1      -5.738  -1.994   5.737  1.00  0.00     0.339 C 
ATOM      4  O   UNL     1      -6.379  -2.540   4.851  1.00  0.00    -0.246 OA
BRANCH   3   5
ATOM      5  C   UNL     1      -4.429  -2.532   6.185  1.00  0.00     0.073 A 
ATOM      6  C   UNL     1      -2.379  -3.544   5.467  1.00  0.00     0.130 A 
ATOM      7  C   UNL     1      -3.583  -2.952   5.152  1.00  0.00     0.063 A 
ATOM      8  N   UNL     1      -2.065  -3.853   6.729  1.00  0.00    -0.231 NA
ATOM      9  C   UNL     1      -2.876  -3.484   7.719  1.00  0.00     0.074 A 
ATOM     10  C   UNL     1      -4.059  -2.746   7.532  1.00  0.00     0.017 A 
ATOM     11  C   UNL     1      -2.496  -3.863   8.989  1.00  0.00     0.031 A 
ATOM     12  C   UNL     1      -4.768  -2.318   8.687  1.00  0.00     0.037 A 
ATOM     13  C   UNL     1      -3.245  -3.507  10.105  1.00  0.00     0.028 A 
ATOM     14  C   UNL     1      -4.385  -2.715   9.970  1.00  0.00     0.042 A 
BRANCH   6  15
ATOM     15  N   UNL     1      -1.392  -3.726   4.543  1.00  0.00    -0.345 N 
ATOM     16  N   UNL     1       0.838  -4.028   2.694  1.00  0.00    -0.324 N 
ATOM     17  C   UNL     1       0.741  -2.906   3.651  1.00  0.00     0.284 C 
ATOM     18  C   UNL     1       0.134  -5.194   3.278  1.00  0.00     0.284 C 
ATOM     19  H   UNL     1       1.825  -4.238   2.547  1.00  0.00     0.348 HD
ATOM     20  C   UNL     1      -0.703  -2.539   4.059  1.00  0.00     0.179 C 
ATOM     21  C   UNL     1      -1.324  -4.940   3.742  1.00  0.00     0.179 C 
BRANCH  16  22
ATOM     22  C   UNL     1       0.307  -3.704   1.349  1.00  0.00     0.363 C 
BRANCH  22  23
ATOM     23  C   UNL     1       1.242  -2.756   0.582  1.00  0.00     0.277 C 
ATOM     24  C   UNL     1       1.841  -0.511  -0.148  1.00  0.00     0.146 C 
ATOM     25  N   UNL     1       0.975  -1.394   0.606  1.00  0.00    -0.344 N 
ATOM     26  C   UNL     1      -0.142  -0.756   1.258  1.00  0.00     0.146 C 
ATOM     27  O   UNL     1       2.210  -3.217  -0.030  1.00  0.00    -0.268 OA
ENDBRANCH  22  23
ENDBRANCH  16  22
ENDBRANCH   6  15
BRANCH  14  28
ATOM     28  N   UNL     1      -5.032  -2.381  11.171  1.00  0.00    -0.322 N 
ATOM     29  C   UNL     1      -6.152  -1.663  11.495  1.00  0.00     0.255 C 
ATOM     30  H   UNL     1      -4.575  -2.749  11.963  1.00  0.00     0.170 HD
ATOM     31  O   UNL     1      -6.409  -1.443  12.679  1.00  0.00    -0.269 OA
BRANCH  29  32
ATOM     32  C   UNL     1      -7.082  -1.141  10.492  1.00  0.00     0.041 A 
ATOM     33  C   UNL     1      -7.252   0.246  10.406  1.00  0.00     0.014 A 
ATOM     34  C   UNL     1      -7.843  -2.010   9.707  1.00  0.00     0.034 A 
ATOM     35  C   UNL     1      -8.176   0.773   9.507  1.00  0.00     0.002 A 
ATOM     36  C   UNL     1      -8.759  -1.472   8.809  1.00  0.00     0.041 A 
ATOM     37  C   UNL     1      -8.934  -0.088   8.713  1.00  0.00     0.020 A 
ATOM     38  Cl  UNL     1      -9.664  -2.519   7.788  1.00  0.00    -0.084 Cl
ENDBRANCH  29  32
ENDBRANCH  14  28
ENDBRANCH   3   5
ENDBRANCH   2   3
ENDBRANCH   1   2
BRANCH   1  39
ATOM     39  C   UNL     1      -7.072   1.389   5.926  1.00  0.00     0.275 C 
BRANCH  39  40
ATOM     40  O   UNL     1      -6.336   1.983   4.843  1.00  0.00    -0.458 OA
BRANCH  40  41
ATOM     41  C   UNL     1      -5.010   1.727   4.882  1.00  0.00     0.338 C 
ATOM     42  O   UNL     1      -4.335   1.436   5.857  1.00  0.00    -0.246 OA
BRANCH  41  43
ATOM     43  C   UNL     1      -4.581   1.505   3.496  1.00  0.00     0.060 A 
ATOM     44  C   UNL     1      -4.139   0.223   3.180  1.00  0.00     0.016 A 
ATOM     45  C   UNL     1      -4.636   2.499   2.524  1.00  0.00     0.016 A 
ATOM     46  C   UNL     1      -3.673  -0.059   1.905  1.00  0.00     0.010 A 
ATOM     47  C   UNL     1      -4.202   2.203   1.229  1.00  0.00     0.010 A 
ATOM     48  C   UNL     1      -3.669   0.938   0.920  1.00  0.00    -0.014 A 
BRANCH  48  49
ATOM     49  C   UNL     1      -2.994   0.685  -0.383  1.00  0.00     0.031 A 
ATOM     50  C   UNL     1      -1.773   1.505  -0.750  1.00  0.00     0.074 A 
ATOM     51  C   UNL     1      -3.397  -0.339  -1.165  1.00  0.00     0.049 A 
ATOM     52  N   UNL     1      -0.995   1.408  -1.796  1.00  0.00    -0.248 NA
ATOM     53  C   UNL     1      -1.318   2.517   0.226  1.00  0.00     0.031 C 
ATOM     54  C   UNL     1      -4.531  -1.227  -0.883  1.00  0.00     0.029 A 
ATOM     55  N   UNL     1      -2.907  -0.809  -2.358  1.00  0.00    -0.354 N 
ATOM     56  C   UNL     1       0.044   2.314  -1.591  1.00  0.00     0.074 A 
ATOM     57  C   UNL     1      -0.217   2.987  -0.342  1.00  0.00     0.031 C 
ATOM     58  C   UNL     1      -4.658  -2.116  -1.880  1.00  0.00     0.029 A 
ATOM     59  C   UNL     1      -3.662  -1.823  -2.903  1.00  0.00     0.049 A 
ATOM     60  H   UNL     1      -2.093  -0.454  -2.784  1.00  0.00     0.167 HD
ATOM     61  C   UNL     1       1.143   2.528  -2.354  1.00  0.00     0.037 A 
ATOM     62  C   UNL     1      -3.600  -2.407  -4.117  1.00  0.00     0.037 A 
ATOM     63  C   UNL     1       1.371   1.864  -3.609  1.00  0.00     0.049 A 
ATOM     64  C   UNL     1      -2.509  -1.974  -5.058  1.00  0.00     0.074 A 
ATOM     65  C   UNL     1       2.421   2.031  -4.492  1.00  0.00     0.029 A 
ATOM     66  N   UNL     1       0.516   0.926  -4.174  1.00  0.00    -0.354 N 
ATOM     67  N   UNL     1      -1.534  -1.120  -4.846  1.00  0.00    -0.248 NA
ATOM     68  C   UNL     1      -2.509  -2.570  -6.399  1.00  0.00     0.031 C 
ATOM     69  C   UNL     1       2.159   1.256  -5.626  1.00  0.00     0.029 A 
ATOM     70  C   UNL     1       0.981   0.552  -5.423  1.00  0.00     0.049 A 
ATOM     71  H   UNL     1      -0.301   0.578  -3.749  1.00  0.00     0.167 HD
ATOM     72  C   UNL     1      -0.787  -1.096  -6.018  1.00  0.00     0.074 A 
ATOM     73  C   UNL     1      -1.422  -2.028  -6.931  1.00  0.00     0.031 C 
ATOM     74  C   UNL     1       0.324  -0.375  -6.313  1.00  0.00     0.037 A 
BRANCH  61  75
ATOM     75  C   UNL     1       2.149   3.546  -1.878  1.00  0.00     0.058 A 
ATOM     76  C   UNL     1       3.056   3.280  -0.840  1.00  0.00     0.135 A 
ATOM     77  C   UNL     1       2.228   4.807  -2.489  1.00  0.00     0.135 A 
ATOM     78  F   UNL     1       3.050   2.098  -0.216  1.00  0.00    -0.206 F 
ATOM     79  C   UNL     1       3.974   4.226  -0.398  1.00  0.00     0.059 A 
ATOM     80  C   UNL     1       3.157   5.764  -2.083  1.00  0.00     0.059 A 
ATOM     81  F   UNL     1       1.391   5.122  -3.489  1.00  0.00    -0.206 F 
ATOM     82  C   UNL     1       4.016   5.469  -1.025  1.00  0.00     0.060 A 
BRANCH  82  83
ATOM     83  S   UNL     1       5.206   6.685  -0.427  1.00  0.00     0.124 S 
ATOM     84  O   UNL     1       4.646   7.021   0.879  1.00  0.00    -0.237 OA
ATOM     85  O   UNL     1       6.448   5.920  -0.404  1.00  0.00    -0.237 OA
ATOM     86  O   UNL     1       5.141   7.745  -1.428  1.00  0.00    -0.744 OA
ENDBRANCH  82  83
ENDBRANCH  61  75
BRANCH  62  87
ATOM     87  C   UNL     1      -4.648  -3.383  -4.534  1.00  0.00     0.058 A 
ATOM     88  C   UNL     1      -4.352  -4.728  -4.795  1.00  0.00     0.135 A 
ATOM     89  C   UNL     1      -5.988  -2.976  -4.674  1.00  0.00     0.135 A 
ATOM     90  F   UNL     1      -3.090  -5.169  -4.692  1.00  0.00    -0.206 F 
ATOM     91  C   UNL     1      -5.340  -5.632  -5.183  1.00  0.00     0.059 A 
ATOM     92  C   UNL     1      -6.996  -3.866  -5.029  1.00  0.00     0.059 A 
ATOM     93  F   UNL     1      -6.332  -1.701  -4.436  1.00  0.00    -0.206 F 
ATOM     94  C   UNL     1      -6.661  -5.192  -5.290  1.00  0.00     0.060 A 
BRANCH  94  95
ATOM     95  S   UNL     1      -7.945  -6.382  -5.739  1.00  0.00     0.124 S 
ATOM     96  O   UNL     1      -7.642  -6.626  -7.144  1.00  0.00    -0.237 OA
ATOM     97  O   UNL     1      -7.670  -7.485  -4.824  1.00  0.00    -0.237 OA
ATOM     98  O   UNL     1      -9.184  -5.654  -5.478  1.00  0.00    -0.744 OA
ENDBRANCH  94  95
ENDBRANCH  62  87
BRANCH  74  99
ATOM     99  C   UNL     1       0.938  -0.587  -7.668  1.00  0.00     0.058 A 
ATOM    100  C   UNL     1       0.328  -0.105  -8.837  1.00  0.00     0.135 A 
ATOM    101  C   UNL     1       2.179  -1.232  -7.792  1.00  0.00     0.135 A 
ATOM    102  F   UNL     1      -0.864   0.509  -8.774  1.00  0.00    -0.206 F 
ATOM    103  C   UNL     1       0.919  -0.275 -10.084  1.00  0.00     0.059 A 
ATOM    104  C   UNL     1       2.804  -1.382  -9.024  1.00  0.00     0.059 A 
ATOM    105  F   UNL     1       2.808  -1.703  -6.703  1.00  0.00    -0.206 F 
ATOM    106  C   UNL     1       2.160  -0.909 -10.167  1.00  0.00     0.060 A 
BRANCH 106 107
ATOM    107  S   UNL     1       2.934  -1.082 -11.787  1.00  0.00     0.124 S 
ATOM    108  O   UNL     1       2.101  -2.110 -12.402  1.00  0.00    -0.237 OA
ATOM    109  O   UNL     1       2.797   0.261 -12.341  1.00  0.00    -0.237 OA
ATOM    110  O   UNL     1       4.300  -1.487 -11.470  1.00  0.00    -0.744 OA
ENDBRANCH 106 107
ENDBRANCH  74  99
ENDBRANCH  48  49
ENDBRANCH  41  43
ENDBRANCH  40  41
ENDBRANCH  39  40
ENDBRANCH   1  39
TORSDOF 19
