REMARK SMILES COc1ccc(-c2noc(CC(=O)OCCOC(=O)c3ccc(-c4c5nc(c(-c6c(F)cc(S(=O)(=O)[O-])cc6F)c6ccc([nH]6)c(-c6c(F)cc(S(=O)(=O)[O-])cc6F)c6nc(c(-c7c(F)cc(S(=O)(=O)[O-])cc7F)c7ccc4[nH]7)C=C6)C=C5)cc3)c2-c2ccc(OC)cc2)cc1
REMARK SMILES IDX 15 1 14 2 12 3 13 4 11 5 10 6 7 7 8 8 86 9 9 10 6 11 3 12
REMARK SMILES IDX 4 13 96 14 5 15 95 16 2 17 1 18 87 19 88 20 94 21 89 22
REMARK SMILES IDX 93 23 90 24 91 25 92 26 16 27 17 28 18 29 19 30 20 31 21 32
REMARK SMILES IDX 85 33 22 34 84 35 23 36 24 37 25 38 78 39 26 40 83 41 77 42
REMARK SMILES IDX 79 43 27 44 82 45 76 46 75 47 28 49 62 50 41 51 61 52 42 53
REMARK SMILES IDX 45 54 60 55 80 56 43 57 44 58 59 60 81 61 46 62 29 63 30 64
REMARK SMILES IDX 39 65 31 66 32 67 38 68 40 69 33 70 34 71 35 72 36 73 37 74
REMARK SMILES IDX 63 75 64 76 73 77 65 78 66 79 72 80 74 81 67 82 68 83 69 84
REMARK SMILES IDX 70 85 71 86 47 87 48 88 57 89 49 90 50 91 56 92 58 93 51 94
REMARK SMILES IDX 52 95 53 96 54 97 55 98
REMARK H PARENT 79 48 45 59
REMARK Flexibility Score: inf
ROOT
ATOM      1  C   UNL     1       1.928   9.630   6.590  1.00  0.00     0.274 C 
ENDROOT
BRANCH   1   2
ATOM      2  O   UNL     1       2.538   8.415   6.117  1.00  0.00    -0.462 OA
BRANCH   2   3
ATOM      3  C   UNL     1       3.771   8.147   6.621  1.00  0.00     0.313 C 
ATOM      4  O   UNL     1       4.393   8.899   7.366  1.00  0.00    -0.252 OA
BRANCH   3   5
ATOM      5  C   UNL     1       4.383   6.869   6.115  1.00  0.00     0.201 C 
BRANCH   5   6
ATOM      6  C   UNL     1       3.426   5.866   5.589  1.00  0.00     0.156 A 
ATOM      7  C   UNL     1       2.205   4.335   4.545  1.00  0.00     0.122 A 
ATOM      8  N   UNL     1       1.597   4.575   5.717  1.00  0.00    -0.079 NA
ATOM      9  C   UNL     1       3.380   5.130   4.427  1.00  0.00     0.053 A 
ATOM     10  O   UNL     1       2.377   5.509   6.377  1.00  0.00    -0.359 OA
BRANCH   7  11
ATOM     11  C   UNL     1       1.668   3.393   3.567  1.00  0.00     0.005 A 
ATOM     12  C   UNL     1       0.696   1.718   1.523  1.00  0.00     0.118 A 
ATOM     13  C   UNL     1      -0.149   2.635   2.155  1.00  0.00     0.047 A 
ATOM     14  C   UNL     1       2.024   1.621   1.936  1.00  0.00     0.047 A 
ATOM     15  C   UNL     1       0.327   3.462   3.178  1.00  0.00     0.014 A 
ATOM     16  C   UNL     1       2.506   2.453   2.953  1.00  0.00     0.014 A 
BRANCH  12  17
ATOM     17  O   UNL     1       0.114   0.998   0.517  1.00  0.00    -0.497 OA
ATOM     18  C   UNL     1       0.895  -0.045  -0.055  1.00  0.00     0.278 C 
ENDBRANCH  12  17
ENDBRANCH   7  11
BRANCH   9  19
ATOM     19  C   UNL     1       4.338   5.278   3.357  1.00  0.00    -0.012 A 
ATOM     20  C   UNL     1       3.932   5.779   2.119  1.00  0.00     0.013 A 
ATOM     21  C   UNL     1       5.684   4.963   3.571  1.00  0.00     0.013 A 
ATOM     22  C   UNL     1       4.877   5.999   1.117  1.00  0.00     0.047 A 
ATOM     23  C   UNL     1       6.628   5.190   2.566  1.00  0.00     0.047 A 
ATOM     24  C   UNL     1       6.229   5.726   1.341  1.00  0.00     0.118 A 
BRANCH  24  25
ATOM     25  O   UNL     1       7.056   6.019   0.292  1.00  0.00    -0.497 OA
ATOM     26  C   UNL     1       8.452   5.991   0.564  1.00  0.00     0.278 C 
ENDBRANCH  24  25
ENDBRANCH   9  19
ENDBRANCH   5   6
ENDBRANCH   3   5
ENDBRANCH   2   3
ENDBRANCH   1   2
BRANCH   1  27
ATOM     27  C   UNL     1       1.036   9.366   7.803  1.00  0.00     0.275 C 
BRANCH  27  28
ATOM     28  O   UNL     1       1.812   8.822   8.885  1.00  0.00    -0.458 OA
BRANCH  28  29
ATOM     29  C   UNL     1       1.432   7.599   9.322  1.00  0.00     0.338 C 
ATOM     30  O   UNL     1       0.470   6.946   8.963  1.00  0.00    -0.246 OA
BRANCH  29  31
ATOM     31  C   UNL     1       2.393   7.131  10.331  1.00  0.00     0.060 A 
ATOM     32  C   UNL     1       3.533   6.438   9.919  1.00  0.00     0.016 A 
ATOM     33  C   UNL     1       2.108   7.287  11.688  1.00  0.00     0.016 A 
ATOM     34  C   UNL     1       4.394   5.889  10.868  1.00  0.00     0.010 A 
ATOM     35  C   UNL     1       2.979   6.747  12.639  1.00  0.00     0.010 A 
ATOM     36  C   UNL     1       4.118   6.028  12.236  1.00  0.00    -0.014 A 
BRANCH  36  37
ATOM     37  C   UNL     1       4.987   5.361  13.237  1.00  0.00     0.031 A 
ATOM     38  C   UNL     1       4.500   4.131  13.953  1.00  0.00     0.074 A 
ATOM     39  C   UNL     1       6.219   5.843  13.487  1.00  0.00     0.049 A 
ATOM     40  N   UNL     1       5.085   3.434  14.893  1.00  0.00    -0.248 NA
ATOM     41  C   UNL     1       3.177   3.621  13.560  1.00  0.00     0.031 C 
ATOM     42  C   UNL     1       6.814   7.014  12.842  1.00  0.00     0.029 A 
ATOM     43  N   UNL     1       7.192   5.405  14.349  1.00  0.00    -0.354 N 
ATOM     44  C   UNL     1       4.197   2.418  15.222  1.00  0.00     0.074 A 
ATOM     45  C   UNL     1       3.026   2.596  14.389  1.00  0.00     0.031 C 
ATOM     46  C   UNL     1       8.054   7.197  13.326  1.00  0.00     0.029 A 
ATOM     47  C   UNL     1       8.328   6.179  14.338  1.00  0.00     0.049 A 
ATOM     48  H   UNL     1       7.087   4.611  14.922  1.00  0.00     0.167 HD
ATOM     49  C   UNL     1       4.345   1.424  16.131  1.00  0.00     0.037 A 
ATOM     50  C   UNL     1       9.454   6.088  15.070  1.00  0.00     0.037 A 
ATOM     51  C   UNL     1       5.519   1.235  16.944  1.00  0.00     0.049 A 
ATOM     52  C   UNL     1       9.591   4.984  16.082  1.00  0.00     0.074 A 
ATOM     53  C   UNL     1       5.768   0.249  17.883  1.00  0.00     0.029 A 
ATOM     54  N   UNL     1       6.644   2.046  16.910  1.00  0.00    -0.354 N 
ATOM     55  N   UNL     1       8.737   4.035  16.386  1.00  0.00    -0.248 NA
ATOM     56  C   UNL     1      10.842   4.939  16.851  1.00  0.00     0.031 C 
ATOM     57  C   UNL     1       7.034   0.480  18.437  1.00  0.00     0.029 A 
ATOM     58  C   UNL     1       7.585   1.590  17.819  1.00  0.00     0.049 A 
ATOM     59  H   UNL     1       6.756   2.831  16.326  1.00  0.00     0.167 HD
ATOM     60  C   UNL     1       9.351   3.275  17.375  1.00  0.00     0.074 A 
ATOM     61  C   UNL     1      10.656   3.863  17.604  1.00  0.00     0.031 C 
ATOM     62  C   UNL     1       8.876   2.192  18.039  1.00  0.00     0.037 A 
BRANCH  49  63
ATOM     63  C   UNL     1       3.193   0.476  16.311  1.00  0.00     0.058 A 
ATOM     64  C   UNL     1       2.904  -0.522  15.367  1.00  0.00     0.135 A 
ATOM     65  C   UNL     1       2.380   0.555  17.453  1.00  0.00     0.135 A 
ATOM     66  F   UNL     1       3.641  -0.629  14.250  1.00  0.00    -0.206 F 
ATOM     67  C   UNL     1       1.833  -1.394  15.538  1.00  0.00     0.059 A 
ATOM     68  C   UNL     1       1.316  -0.319  17.654  1.00  0.00     0.059 A 
ATOM     69  F   UNL     1       2.613   1.493  18.384  1.00  0.00    -0.206 F 
ATOM     70  C   UNL     1       1.042  -1.282  16.682  1.00  0.00     0.060 A 
BRANCH  70  71
ATOM     71  S   UNL     1      -0.346  -2.418  16.895  1.00  0.00     0.124 S 
ATOM     72  O   UNL     1      -1.336  -1.840  15.992  1.00  0.00    -0.237 OA
ATOM     73  O   UNL     1       0.224  -3.695  16.477  1.00  0.00    -0.237 OA
ATOM     74  O   UNL     1      -0.655  -2.311  18.318  1.00  0.00    -0.744 OA
ENDBRANCH  70  71
ENDBRANCH  49  63
BRANCH  50  75
ATOM     75  C   UNL     1      10.542   7.081  14.877  1.00  0.00     0.058 A 
ATOM     76  C   UNL     1      11.738   6.727  14.236  1.00  0.00     0.135 A 
ATOM     77  C   UNL     1      10.399   8.407  15.313  1.00  0.00     0.135 A 
ATOM     78  F   UNL     1      11.924   5.468  13.811  1.00  0.00    -0.206 F 
ATOM     79  C   UNL     1      12.758   7.651  14.038  1.00  0.00     0.059 A 
ATOM     80  C   UNL     1      11.396   9.354  15.108  1.00  0.00     0.059 A 
ATOM     81  F   UNL     1       9.269   8.795  15.924  1.00  0.00    -0.206 F 
ATOM     82  C   UNL     1      12.576   8.964  14.475  1.00  0.00     0.060 A 
BRANCH  82  83
ATOM     83  S   UNL     1      13.875  10.178  14.155  1.00  0.00     0.124 S 
ATOM     84  O   UNL     1      14.835   9.865  15.207  1.00  0.00    -0.237 OA
ATOM     85  O   UNL     1      14.287   9.842  12.795  1.00  0.00    -0.237 OA
ATOM     86  O   UNL     1      13.179  11.454  14.291  1.00  0.00    -0.744 OA
ENDBRANCH  82  83
ENDBRANCH  50  75
BRANCH  62  87
ATOM     87  C   UNL     1       9.782   1.570  19.063  1.00  0.00     0.058 A 
ATOM     88  C   UNL     1       9.992   2.168  20.315  1.00  0.00     0.135 A 
ATOM     89  C   UNL     1      10.438   0.358  18.794  1.00  0.00     0.135 A 
ATOM     90  F   UNL     1       9.392   3.331  20.617  1.00  0.00    -0.206 F 
ATOM     91  C   UNL     1      10.847   1.603  21.255  1.00  0.00     0.059 A 
ATOM     92  C   UNL     1      11.281  -0.235  19.728  1.00  0.00     0.059 A 
ATOM     93  F   UNL     1      10.262  -0.259  17.615  1.00  0.00    -0.206 F 
ATOM     94  C   UNL     1      11.494   0.404  20.949  1.00  0.00     0.060 A 
BRANCH  94  95
ATOM     95  S   UNL     1      12.602  -0.326  22.173  1.00  0.00     0.124 S 
ATOM     96  O   UNL     1      13.812   0.466  21.981  1.00  0.00    -0.237 OA
ATOM     97  O   UNL     1      11.888  -0.098  23.426  1.00  0.00    -0.237 OA
ATOM     98  O   UNL     1      12.691  -1.722  21.756  1.00  0.00    -0.744 OA
ENDBRANCH  94  95
ENDBRANCH  62  87
ENDBRANCH  36  37
ENDBRANCH  29  31
ENDBRANCH  28  29
ENDBRANCH  27  28
ENDBRANCH   1  27
TORSDOF 19
