REMARK SMILES O=C(N[C@@H](Cc1ccccc1)C(=O)N[C@@H](CS)C(=O)N[C@@H](CO)C(=O)OCCOC(=O)c1ccc(-c2c3nc(c(-c4c(F)cc(S(=O)(=O)[O-])cc4F)c4ccc([nH]4)c(-c4c(F)cc(S(=O)(=O)[O-])cc4F)c4nc(c(-c5c(F)cc(S(=O)(=O)[O-])cc5F)c5ccc2[nH]5)C=C4)C=C3)cc1)c1ccc(F)cc1
REMARK SMILES IDX 26 1 24 2 25 3 21 4 20 5 18 6 19 7 15 9 14 10 12 11 13 12
REMARK SMILES IDX 4 14 3 15 1 16 2 17 98 19 99 20 104 21 100 22 103 23 101 24
REMARK SMILES IDX 102 25 5 26 6 27 7 28 11 29 8 30 10 31 9 32 16 33 17 34
REMARK SMILES IDX 22 36 23 37 27 39 28 40 29 41 30 42 31 43 32 44 33 45 97 46
REMARK SMILES IDX 34 47 96 48 35 49 36 50 37 51 90 52 38 53 95 54 89 55 91 56
REMARK SMILES IDX 39 57 94 58 88 59 87 60 40 62 74 63 53 64 73 65 54 66 57 67
REMARK SMILES IDX 72 68 92 69 55 70 56 71 71 73 93 74 58 75 41 76 42 77 51 78
REMARK SMILES IDX 43 79 44 80 50 81 52 82 45 83 46 84 47 85 48 86 49 87 75 88
REMARK SMILES IDX 76 89 85 90 77 91 78 92 84 93 86 94 79 95 80 96 81 97 82 98
REMARK SMILES IDX 83 99 59 100 60 101 69 102 61 103 62 104 68 105 70 106
REMARK SMILES IDX 63 107 64 108 65 109 66 110 67 111
REMARK H PARENT 20 8 14 13 3 18 17 35 23 38 91 61 57 72
REMARK Flexibility Score: inf
ROOT
ATOM      1  O   UNL     1       4.378  -7.965  -4.553  1.00  0.00    -0.460 OA
ENDROOT
BRANCH   1   2
ATOM      2  C   UNL     1       4.869  -6.915  -5.268  1.00  0.00     0.331 C 
ATOM      3  O   UNL     1       4.763  -6.782  -6.481  1.00  0.00    -0.250 OA
BRANCH   2   4
ATOM      4  C   UNL     1       5.628  -5.920  -4.385  1.00  0.00     0.218 C 
BRANCH   4   5
ATOM      5  N   UNL     1       5.476  -6.149  -2.938  1.00  0.00    -0.339 N 
ATOM      6  C   UNL     1       5.743  -5.205  -1.990  1.00  0.00     0.244 C 
ATOM      7  O   UNL     1       6.706  -5.426  -1.249  1.00  0.00    -0.273 OA
ATOM      8  H   UNL     1       5.165  -7.033  -2.638  1.00  0.00     0.164 HD
BRANCH   6   9
ATOM      9  C   UNL     1       4.851  -3.937  -1.823  1.00  0.00     0.181 C 
BRANCH   9  10
ATOM     10  N   UNL     1       5.707  -2.753  -1.748  1.00  0.00    -0.342 N 
ATOM     11  C   UNL     1       5.758  -1.689  -0.911  1.00  0.00     0.243 C 
ATOM     12  O   UNL     1       6.655  -0.869  -1.151  1.00  0.00    -0.273 OA
ATOM     13  H   UNL     1       6.390  -2.722  -2.456  1.00  0.00     0.164 HD
BRANCH  11  14
ATOM     14  C   UNL     1       4.790  -1.430   0.264  1.00  0.00     0.176 C 
BRANCH  14  15
ATOM     15  N   UNL     1       3.409  -1.251  -0.174  1.00  0.00    -0.340 N 
ATOM     16  O   UNL     1       1.429  -0.213  -0.354  1.00  0.00    -0.269 OA
ATOM     17  C   UNL     1       2.627  -0.122  -0.115  1.00  0.00     0.251 C 
ATOM     18  H   UNL     1       2.979  -2.046  -0.565  1.00  0.00     0.164 HD
BRANCH  17  19
ATOM     19  C   UNL     1       3.220   1.177   0.274  1.00  0.00     0.040 A 
ATOM     20  C   UNL     1       4.259   1.738  -0.482  1.00  0.00     0.017 A 
ATOM     21  C   UNL     1       2.729   1.841   1.405  1.00  0.00     0.017 A 
ATOM     22  C   UNL     1       4.848   2.934  -0.067  1.00  0.00     0.040 A 
ATOM     23  C   UNL     1       3.322   3.039   1.814  1.00  0.00     0.040 A 
ATOM     24  C   UNL     1       4.382   3.568   1.081  1.00  0.00     0.123 A 
ATOM     25  F   UNL     1       4.966   4.702   1.489  1.00  0.00    -0.207 F 
ENDBRANCH  17  19
ENDBRANCH  14  15
BRANCH  14  26
ATOM     26  C   UNL     1       4.960  -2.293   1.532  1.00  0.00     0.070 C 
BRANCH  26  27
ATOM     27  C   UNL     1       4.399  -3.694   1.548  1.00  0.00    -0.045 A 
ATOM     28  C   UNL     1       3.017  -3.932   1.500  1.00  0.00     0.004 A 
ATOM     29  C   UNL     1       5.269  -4.793   1.606  1.00  0.00     0.004 A 
ATOM     30  C   UNL     1       2.525  -5.237   1.423  1.00  0.00     0.000 A 
ATOM     31  C   UNL     1       4.774  -6.097   1.545  1.00  0.00     0.000 A 
ATOM     32  C   UNL     1       3.404  -6.319   1.435  1.00  0.00     0.000 A 
ENDBRANCH  26  27
ENDBRANCH  14  26
ENDBRANCH  11  14
ENDBRANCH   9  10
BRANCH   9  33
ATOM     33  C   UNL     1       3.633  -3.792  -2.740  1.00  0.00     0.101 C 
BRANCH  33  34
ATOM     34  S   UNL     1       3.882  -2.673  -4.162  1.00  0.00    -0.177 SA
ATOM     35  H   UNL     1       4.130  -1.415  -3.711  1.00  0.00     0.102 HD
ENDBRANCH  33  34
ENDBRANCH   9  33
ENDBRANCH   6   9
ENDBRANCH   4   5
BRANCH   4  36
ATOM     36  C   UNL     1       7.114  -5.973  -4.778  1.00  0.00     0.193 C 
BRANCH  36  37
ATOM     37  O   UNL     1       7.756  -7.110  -4.189  1.00  0.00    -0.394 OA
ATOM     38  H   UNL     1       7.699  -7.048  -3.222  1.00  0.00     0.210 HD
ENDBRANCH  36  37
ENDBRANCH   4  36
ENDBRANCH   2   4
ENDBRANCH   1   2
BRANCH   1  39
ATOM     39  C   UNL     1       3.635  -8.951  -5.298  1.00  0.00     0.274 C 
BRANCH  39  40
ATOM     40  C   UNL     1       2.260  -9.115  -4.662  1.00  0.00     0.275 C 
BRANCH  40  41
ATOM     41  O   UNL     1       1.557  -7.865  -4.778  1.00  0.00    -0.458 OA
BRANCH  41  42
ATOM     42  C   UNL     1       0.821  -7.502  -3.701  1.00  0.00     0.338 C 
ATOM     43  O   UNL     1       0.643  -8.157  -2.688  1.00  0.00    -0.246 OA
BRANCH  42  44
ATOM     44  C   UNL     1       0.252  -6.150  -3.906  1.00  0.00     0.060 A 
ATOM     45  C   UNL     1       0.955  -5.170  -4.605  1.00  0.00     0.016 A 
ATOM     46  C   UNL     1      -0.963  -5.822  -3.300  1.00  0.00     0.016 A 
ATOM     47  C   UNL     1       0.490  -3.850  -4.605  1.00  0.00     0.010 A 
ATOM     48  C   UNL     1      -1.466  -4.516  -3.389  1.00  0.00     0.010 A 
ATOM     49  C   UNL     1      -0.725  -3.489  -4.000  1.00  0.00    -0.014 A 
BRANCH  49  50
ATOM     50  C   UNL     1      -1.182  -2.058  -3.935  1.00  0.00     0.031 A 
ATOM     51  C   UNL     1      -1.648  -1.464  -2.621  1.00  0.00     0.074 A 
ATOM     52  C   UNL     1      -1.168  -1.246  -5.015  1.00  0.00     0.049 A 
ATOM     53  N   UNL     1      -2.363  -0.388  -2.404  1.00  0.00    -0.248 NA
ATOM     54  C   UNL     1      -1.287  -2.195  -1.397  1.00  0.00     0.031 C 
ATOM     55  C   UNL     1      -0.700  -1.606  -6.354  1.00  0.00     0.029 A 
ATOM     56  N   UNL     1      -1.549   0.071  -5.149  1.00  0.00    -0.354 N 
ATOM     57  C   UNL     1      -2.615  -0.366  -1.035  1.00  0.00     0.074 A 
ATOM     58  C   UNL     1      -1.962  -1.528  -0.470  1.00  0.00     0.031 C 
ATOM     59  C   UNL     1      -0.741  -0.523  -7.144  1.00  0.00     0.029 A 
ATOM     60  C   UNL     1      -1.367   0.575  -6.416  1.00  0.00     0.049 A 
ATOM     61  H   UNL     1      -1.917   0.602  -4.407  1.00  0.00     0.167 HD
ATOM     62  C   UNL     1      -3.336   0.531  -0.317  1.00  0.00     0.037 A 
ATOM     63  C   UNL     1      -1.715   1.756  -6.965  1.00  0.00     0.037 A 
ATOM     64  C   UNL     1      -3.876   1.756  -0.852  1.00  0.00     0.049 A 
ATOM     65  C   UNL     1      -2.492   2.755  -6.157  1.00  0.00     0.074 A 
ATOM     66  C   UNL     1      -4.622   2.726  -0.203  1.00  0.00     0.029 A 
ATOM     67  N   UNL     1      -3.683   2.205  -2.148  1.00  0.00    -0.354 N 
ATOM     68  N   UNL     1      -2.883   2.675  -4.909  1.00  0.00    -0.248 NA
ATOM     69  C   UNL     1      -2.916   3.982  -6.845  1.00  0.00     0.031 C 
ATOM     70  C   UNL     1      -4.894   3.755  -1.113  1.00  0.00     0.029 A 
ATOM     71  C   UNL     1      -4.292   3.439  -2.319  1.00  0.00     0.049 A 
ATOM     72  H   UNL     1      -3.187   1.719  -2.846  1.00  0.00     0.167 HD
ATOM     73  C   UNL     1      -3.614   3.832  -4.666  1.00  0.00     0.074 A 
ATOM     74  C   UNL     1      -3.584   4.611  -5.887  1.00  0.00     0.031 C 
ATOM     75  C   UNL     1      -4.266   4.205  -3.538  1.00  0.00     0.037 A 
BRANCH  62  76
ATOM     76  C   UNL     1      -3.639   0.201   1.120  1.00  0.00     0.058 A 
ATOM     77  C   UNL     1      -2.685   0.310   2.142  1.00  0.00     0.135 A 
ATOM     78  C   UNL     1      -4.941  -0.189   1.480  1.00  0.00     0.135 A 
ATOM     79  F   UNL     1      -1.423   0.668   1.859  1.00  0.00    -0.206 F 
ATOM     80  C   UNL     1      -3.005   0.020   3.467  1.00  0.00     0.059 A 
ATOM     81  C   UNL     1      -5.290  -0.458   2.800  1.00  0.00     0.059 A 
ATOM     82  F   UNL     1      -5.895  -0.304   0.542  1.00  0.00    -0.206 F 
ATOM     83  C   UNL     1      -4.309  -0.366   3.785  1.00  0.00     0.060 A 
BRANCH  83  84
ATOM     84  S   UNL     1      -4.717  -0.730   5.506  1.00  0.00     0.124 S 
ATOM     85  O   UNL     1      -4.157  -2.070   5.659  1.00  0.00    -0.237 OA
ATOM     86  O   UNL     1      -4.022   0.331   6.228  1.00  0.00    -0.237 OA
ATOM     87  O   UNL     1      -6.174  -0.651   5.534  1.00  0.00    -0.744 OA
ENDBRANCH  83  84
ENDBRANCH  62  76
BRANCH  63  88
ATOM     88  C   UNL     1      -1.396   2.018  -8.395  1.00  0.00     0.058 A 
ATOM     89  C   UNL     1      -0.404   2.939  -8.759  1.00  0.00     0.135 A 
ATOM     90  C   UNL     1      -2.036   1.304  -9.421  1.00  0.00     0.135 A 
ATOM     91  F   UNL     1       0.219   3.663  -7.816  1.00  0.00    -0.206 F 
ATOM     92  C   UNL     1      -0.039   3.127 -10.089  1.00  0.00     0.059 A 
ATOM     93  C   UNL     1      -1.669   1.453 -10.752  1.00  0.00     0.059 A 
ATOM     94  F   UNL     1      -2.990   0.408  -9.122  1.00  0.00    -0.206 F 
ATOM     95  C   UNL     1      -0.668   2.367 -11.077  1.00  0.00     0.060 A 
BRANCH  95  96
ATOM     96  S   UNL     1      -0.109   2.514 -12.789  1.00  0.00     0.124 S 
ATOM     97  O   UNL     1      -0.816   3.712 -13.226  1.00  0.00    -0.237 OA
ATOM     98  O   UNL     1       1.337   2.646 -12.636  1.00  0.00    -0.237 OA
ATOM     99  O   UNL     1      -0.552   1.260 -13.390  1.00  0.00    -0.744 OA
ENDBRANCH  95  96
ENDBRANCH  63  88
BRANCH  75 100
ATOM    100  C   UNL     1      -4.994   5.517  -3.567  1.00  0.00     0.058 A 
ATOM    101  C   UNL     1      -6.230   5.652  -4.217  1.00  0.00     0.135 A 
ATOM    102  C   UNL     1      -4.463   6.644  -2.920  1.00  0.00     0.135 A 
ATOM    103  F   UNL     1      -6.776   4.605  -4.855  1.00  0.00    -0.206 F 
ATOM    104  C   UNL     1      -6.906   6.868  -4.245  1.00  0.00     0.059 A 
ATOM    105  C   UNL     1      -5.131   7.865  -2.921  1.00  0.00     0.059 A 
ATOM    106  F   UNL     1      -3.288   6.564  -2.278  1.00  0.00    -0.206 F 
ATOM    107  C   UNL     1      -6.345   7.971  -3.598  1.00  0.00     0.060 A 
BRANCH 107 108
ATOM    108  S   UNL     1      -7.234   9.543  -3.633  1.00  0.00     0.124 S 
ATOM    109  O   UNL     1      -6.948  10.012  -4.985  1.00  0.00    -0.237 OA
ATOM    110  O   UNL     1      -8.612   9.133  -3.382  1.00  0.00    -0.237 OA
ATOM    111  O   UNL     1      -6.610  10.308  -2.558  1.00  0.00    -0.744 OA
ENDBRANCH 107 108
ENDBRANCH  75 100
ENDBRANCH  49  50
ENDBRANCH  42  44
ENDBRANCH  41  42
ENDBRANCH  40  41
ENDBRANCH  39  40
ENDBRANCH   1  39
TORSDOF 26
