REMARK SMILES CC[C@@](C)([NH3+])C(=O)N1CC[NH+]([C@H](C)C(=O)OCCOC(=O)c2ccc(-c3c4nc(c(-c5c(F)cc(S(=O)(=O)[O-])cc5F)c5ccc([nH]5)c(-c5c(F)cc(S(=O)(=O)[O-])cc5F)c5nc(c(-c6c(F)cc(S(=O)(=O)[O-])cc6F)c6ccc3[nH]6)C=C5)C=C4)cc2)CC1
REMARK SMILES IDX 17 1 16 2 14 3 15 4 12 5 13 6 11 7 6 8 7 9 8 10 9 11 89 12
REMARK SMILES IDX 10 13 88 14 3 16 4 17 2 18 1 19 5 20 18 24 19 25 20 26 21 27
REMARK SMILES IDX 22 28 23 29 87 30 24 31 86 32 25 33 26 34 27 35 80 36 28 37
REMARK SMILES IDX 85 38 79 39 81 40 29 41 84 42 78 43 77 44 30 46 64 47 43 48
REMARK SMILES IDX 63 49 44 50 47 51 62 52 82 53 45 54 46 55 61 57 83 58 48 59
REMARK SMILES IDX 31 60 32 61 41 62 33 63 34 64 40 65 42 66 35 67 36 68 37 69
REMARK SMILES IDX 38 70 39 71 65 72 66 73 75 74 67 75 68 76 74 77 76 78 69 79
REMARK SMILES IDX 70 80 71 81 72 82 73 83 49 84 50 85 59 86 51 87 52 88 58 89
REMARK SMILES IDX 60 90 53 91 54 92 55 93 56 94 57 95
REMARK H PARENT 11 15 5 21 5 22 5 23 81 45 47 56
REMARK Flexibility Score: inf
ROOT
ATOM      1  C   UNL     1       7.740   6.854  -1.940  1.00  0.00     0.274 C 
ENDROOT
BRANCH   1   2
ATOM      2  O   UNL     1       6.529   6.317  -1.375  1.00  0.00    -0.458 OA
BRANCH   2   3
ATOM      3  C   UNL     1       6.219   6.746  -0.119  1.00  0.00     0.364 C 
ATOM      4  O   UNL     1       6.923   7.500   0.545  1.00  0.00    -0.245 OA
BRANCH   3   5
ATOM      5  C   UNL     1       4.884   6.171   0.393  1.00  0.00     0.292 C 
ATOM      6  C   UNL     1       3.917   5.764  -0.725  1.00  0.00     0.088 C 
BRANCH   5   7
ATOM      7  N   UNL     1       5.142   5.146   1.432  1.00  0.00    -0.321 N 
ATOM      8  C   UNL     1       3.851   1.495   2.827  1.00  0.00     0.283 C 
ATOM      9  O   UNL     1       4.486   0.437   2.720  1.00  0.00    -0.268 OA
ATOM     10  N   UNL     1       4.547   2.690   2.802  1.00  0.00    -0.326 N 
ATOM     11  C   UNL     1       5.767   2.781   2.005  1.00  0.00     0.181 C 
ATOM     12  C   UNL     1       4.212   3.957   3.445  1.00  0.00     0.181 C 
ATOM     13  C   UNL     1       5.548   3.833   0.895  1.00  0.00     0.284 C 
ATOM     14  C   UNL     1       4.017   5.058   2.390  1.00  0.00     0.284 C 
ATOM     15  H   UNL     1       5.960   5.466   1.951  1.00  0.00     0.348 HD
BRANCH   8  16
ATOM     16  C   UNL     1       2.276   1.481   2.713  1.00  0.00     0.171 C 
ATOM     17  C   UNL     1       1.884   1.988   1.316  1.00  0.00     0.090 C 
BRANCH  16  18
ATOM     18  C   UNL     1       1.733   0.041   2.952  1.00  0.00     0.075 C 
ATOM     19  C   UNL     1       1.971  -0.968   1.830  1.00  0.00     0.011 C 
ENDBRANCH  16  18
BRANCH  16  20
ATOM     20  N   UNL     1       1.628   2.341   3.732  1.00  0.00    -0.345 N 
ATOM     21  H   UNL     1       0.615   2.299   3.618  1.00  0.00     0.345 HD
ATOM     22  H   UNL     1       1.943   3.304   3.615  1.00  0.00     0.345 HD
ATOM     23  H   UNL     1       1.879   2.012   4.665  1.00  0.00     0.345 HD
ENDBRANCH  16  20
ENDBRANCH   8  16
ENDBRANCH   5   7
ENDBRANCH   3   5
ENDBRANCH   2   3
ENDBRANCH   1   2
BRANCH   1  24
ATOM     24  C   UNL     1       7.452   8.006  -2.909  1.00  0.00     0.275 C 
BRANCH  24  25
ATOM     25  O   UNL     1       6.898   9.153  -2.236  1.00  0.00    -0.458 OA
BRANCH  25  26
ATOM     26  C   UNL     1       5.546   9.219  -2.242  1.00  0.00     0.338 C 
ATOM     27  O   UNL     1       4.777   8.445  -2.786  1.00  0.00    -0.246 OA
BRANCH  26  28
ATOM     28  C   UNL     1       5.085  10.292  -1.344  1.00  0.00     0.060 A 
ATOM     29  C   UNL     1       4.304   9.919  -0.249  1.00  0.00     0.016 A 
ATOM     30  C   UNL     1       5.331  11.640  -1.608  1.00  0.00     0.016 A 
ATOM     31  C   UNL     1       3.770  10.884   0.596  1.00  0.00     0.010 A 
ATOM     32  C   UNL     1       4.783  12.615  -0.763  1.00  0.00     0.010 A 
ATOM     33  C   UNL     1       3.993  12.242   0.339  1.00  0.00    -0.014 A 
BRANCH  33  34
ATOM     34  C   UNL     1       3.336  13.246   1.210  1.00  0.00     0.031 A 
ATOM     35  C   UNL     1       2.111  13.969   0.728  1.00  0.00     0.074 A 
ATOM     36  C   UNL     1       3.793  13.442   2.461  1.00  0.00     0.049 A 
ATOM     37  N   UNL     1       1.390  14.871   1.341  1.00  0.00    -0.248 NA
ATOM     38  C   UNL     1       1.630  13.626  -0.620  1.00  0.00     0.031 C 
ATOM     39  C   UNL     1       4.945  12.761   3.055  1.00  0.00     0.029 A 
ATOM     40  N   UNL     1       3.334  14.258   3.463  1.00  0.00    -0.354 N 
ATOM     41  C   UNL     1       0.380  15.218   0.452  1.00  0.00     0.074 A 
ATOM     42  C   UNL     1       0.589  14.437  -0.749  1.00  0.00     0.031 C 
ATOM     43  C   UNL     1       5.094  13.178   4.323  1.00  0.00     0.029 A 
ATOM     44  C   UNL     1       4.073  14.180   4.619  1.00  0.00     0.049 A 
ATOM     45  H   UNL     1       2.550  14.845   3.364  1.00  0.00     0.167 HD
ATOM     46  C   UNL     1      -0.630  16.105   0.624  1.00  0.00     0.037 A 
ATOM     47  C   UNL     1       3.950  14.851   5.780  1.00  0.00     0.037 A 
ATOM     48  C   UNL     1      -0.841  16.870   1.826  1.00  0.00     0.049 A 
ATOM     49  C   UNL     1       2.839  15.853   5.933  1.00  0.00     0.074 A 
ATOM     50  C   UNL     1      -1.833  17.798   2.096  1.00  0.00     0.029 A 
ATOM     51  N   UNL     1      -0.049  16.794   2.962  1.00  0.00    -0.354 N 
ATOM     52  N   UNL     1       1.905  16.187   5.074  1.00  0.00    -0.248 NA
ATOM     53  C   UNL     1       2.767  16.572   7.213  1.00  0.00     0.031 C 
ATOM     54  C   UNL     1      -1.622  18.304   3.385  1.00  0.00     0.029 A 
ATOM     55  C   UNL     1      -0.520  17.665   3.931  1.00  0.00     0.049 A 
ATOM     56  H   UNL     1       0.735  16.206   3.066  1.00  0.00     0.167 HD
ATOM     57  C   UNL     1       1.132  17.151   5.710  1.00  0.00     0.074 A 
ATOM     58  C   UNL     1       1.691  17.326   7.036  1.00  0.00     0.031 C 
ATOM     59  C   UNL     1       0.058  17.834   5.240  1.00  0.00     0.037 A 
BRANCH  46  60
ATOM     60  C   UNL     1      -1.568  16.316  -0.530  1.00  0.00     0.058 A 
ATOM     61  C   UNL     1      -2.547  15.369  -0.870  1.00  0.00     0.135 A 
ATOM     62  C   UNL     1      -1.500  17.492  -1.295  1.00  0.00     0.135 A 
ATOM     63  F   UNL     1      -2.642  14.219  -0.184  1.00  0.00    -0.206 F 
ATOM     64  C   UNL     1      -3.411  15.570  -1.942  1.00  0.00     0.059 A 
ATOM     65  C   UNL     1      -2.367  17.723  -2.358  1.00  0.00     0.059 A 
ATOM     66  F   UNL     1      -0.579  18.427  -1.014  1.00  0.00    -0.206 F 
ATOM     67  C   UNL     1      -3.310  16.749  -2.683  1.00  0.00     0.060 A 
BRANCH  67  68
ATOM     68  S   UNL     1      -4.434  16.998  -4.074  1.00  0.00     0.124 S 
ATOM     69  O   UNL     1      -3.849  16.117  -5.081  1.00  0.00    -0.237 OA
ATOM     70  O   UNL     1      -5.716  16.568  -3.525  1.00  0.00    -0.237 OA
ATOM     71  O   UNL     1      -4.322  18.427  -4.349  1.00  0.00    -0.744 OA
ENDBRANCH  67  68
ENDBRANCH  46  60
BRANCH  47  72
ATOM     72  C   UNL     1       4.916  14.610   6.883  1.00  0.00     0.058 A 
ATOM     73  C   UNL     1       4.530  13.944   8.055  1.00  0.00     0.135 A 
ATOM     74  C   UNL     1       6.248  15.040   6.781  1.00  0.00     0.135 A 
ATOM     75  F   UNL     1       3.264  13.524   8.201  1.00  0.00    -0.206 F 
ATOM     76  C   UNL     1       5.428  13.722   9.094  1.00  0.00     0.059 A 
ATOM     77  C   UNL     1       7.170  14.809   7.797  1.00  0.00     0.059 A 
ATOM     78  F   UNL     1       6.668  15.673   5.675  1.00  0.00    -0.206 F 
ATOM     79  C   UNL     1       6.747  14.158   8.955  1.00  0.00     0.060 A 
BRANCH  79  80
ATOM     80  S   UNL     1       7.923  13.822  10.284  1.00  0.00     0.124 S 
ATOM     81  O   UNL     1       7.577  14.858  11.249  1.00  0.00    -0.237 OA
ATOM     82  O   UNL     1       7.580  12.455  10.665  1.00  0.00    -0.237 OA
ATOM     83  O   UNL     1       9.218  13.974   9.628  1.00  0.00    -0.744 OA
ENDBRANCH  79  80
ENDBRANCH  47  72
BRANCH  59  84
ATOM     84  C   UNL     1      -0.577  18.823   6.175  1.00  0.00     0.058 A 
ATOM     85  C   UNL     1       0.033  20.055   6.462  1.00  0.00     0.135 A 
ATOM     86  C   UNL     1      -1.806  18.538   6.790  1.00  0.00     0.135 A 
ATOM     87  F   UNL     1       1.211  20.372   5.902  1.00  0.00    -0.206 F 
ATOM     88  C   UNL     1      -0.535  20.954   7.358  1.00  0.00     0.059 A 
ATOM     89  C   UNL     1      -2.403  19.432   7.673  1.00  0.00     0.059 A 
ATOM     90  F   UNL     1      -2.435  17.379   6.540  1.00  0.00    -0.206 F 
ATOM     91  C   UNL     1      -1.749  20.629   7.966  1.00  0.00     0.060 A 
BRANCH  91  92
ATOM     92  S   UNL     1      -2.478  21.796   9.136  1.00  0.00     0.124 S 
ATOM     93  O   UNL     1      -1.705  21.521  10.342  1.00  0.00    -0.237 OA
ATOM     94  O   UNL     1      -2.224  23.085   8.500  1.00  0.00    -0.237 OA
ATOM     95  O   UNL     1      -3.881  21.394   9.181  1.00  0.00    -0.744 OA
ENDBRANCH  91  92
ENDBRANCH  59  84
ENDBRANCH  33  34
ENDBRANCH  26  28
ENDBRANCH  25  26
ENDBRANCH  24  25
ENDBRANCH   1  24
TORSDOF 18
