REMARK SMILES O=C(OCCOC(=O)c1cccc(CS(=O)(=O)NCc2ccccc2)c1)c1ccc(-c2c3nc(c(-c4c(F)cc(S(=O)(=O)[O-])cc4F)c4ccc([nH]4)c(-c4c(F)cc(S(=O)(=O)[O-])cc4F)c4nc(c(-c5c(F)cc(S(=O)(=O)[O-])cc5F)c5ccc2[nH]5)C=C4)C=C3)cc1
REMARK SMILES IDX 5 1 4 2 3 3 2 4 1 5 27 6 28 7 92 8 29 9 91 10 30 11 31 12
REMARK SMILES IDX 32 13 85 14 33 15 90 16 84 17 86 18 34 19 89 20 83 21 82 22
REMARK SMILES IDX 35 24 69 25 48 26 68 27 49 28 52 29 67 30 87 31 50 32 51 33
REMARK SMILES IDX 66 35 88 36 53 37 36 38 37 39 46 40 38 41 39 42 45 43 47 44
REMARK SMILES IDX 40 45 41 46 42 47 43 48 44 49 70 50 71 51 80 52 72 53 73 54
REMARK SMILES IDX 79 55 81 56 74 57 75 58 76 59 77 60 78 61 54 62 55 63 64 64
REMARK SMILES IDX 56 65 57 66 63 67 65 68 58 69 59 70 60 71 61 72 62 73 6 74
REMARK SMILES IDX 7 75 8 76 9 77 10 78 26 79 11 80 13 81 12 82 14 83 15 84
REMARK SMILES IDX 16 85 17 86 18 87 19 89 20 90 21 91 25 92 22 93 24 94 23 95
REMARK H PARENT 86 23 52 34 18 88
REMARK Flexibility Score: inf
ROOT
ATOM      1  C   UNL     1       4.060   2.011   0.612  1.00  0.00     0.275 C 
ENDROOT
BRANCH   1   2
ATOM      2  C   UNL     1       4.056   1.362  -0.778  1.00  0.00     0.275 C 
BRANCH   2   3
ATOM      3  O   UNL     1       2.932   0.502  -1.040  1.00  0.00    -0.458 OA
BRANCH   3   4
ATOM      4  C   UNL     1       2.754  -0.820  -0.798  1.00  0.00     0.338 C 
ATOM      5  O   UNL     1       1.753  -1.364  -1.263  1.00  0.00    -0.246 OA
BRANCH   4   6
ATOM      6  C   UNL     1       3.626  -1.635   0.112  1.00  0.00     0.060 A 
ATOM      7  C   UNL     1       4.930  -1.327   0.496  1.00  0.00     0.016 A 
ATOM      8  C   UNL     1       3.045  -2.795   0.665  1.00  0.00     0.016 A 
ATOM      9  C   UNL     1       5.600  -2.079   1.459  1.00  0.00     0.010 A 
ATOM     10  C   UNL     1       3.699  -3.534   1.658  1.00  0.00     0.010 A 
ATOM     11  C   UNL     1       4.983  -3.169   2.069  1.00  0.00    -0.014 A 
BRANCH  11  12
ATOM     12  C   UNL     1       5.768  -3.980   3.025  1.00  0.00     0.031 A 
ATOM     13  C   UNL     1       6.274  -5.313   2.569  1.00  0.00     0.074 A 
ATOM     14  C   UNL     1       6.148  -3.473   4.215  1.00  0.00     0.049 A 
ATOM     15  N   UNL     1       7.081  -6.132   3.184  1.00  0.00    -0.248 NA
ATOM     16  C   UNL     1       5.878  -5.750   1.218  1.00  0.00     0.031 C 
ATOM     17  C   UNL     1       5.858  -2.118   4.683  1.00  0.00     0.029 A 
ATOM     18  N   UNL     1       6.867  -4.019   5.247  1.00  0.00    -0.354 N 
ATOM     19  C   UNL     1       7.355  -7.135   2.266  1.00  0.00     0.074 A 
ATOM     20  C   UNL     1       6.549  -6.884   1.094  1.00  0.00     0.031 C 
ATOM     21  C   UNL     1       6.324  -1.966   5.934  1.00  0.00     0.029 A 
ATOM     22  C   UNL     1       6.939  -3.209   6.359  1.00  0.00     0.049 A 
ATOM     23  H   UNL     1       7.291  -4.906   5.198  1.00  0.00     0.167 HD
ATOM     24  C   UNL     1       8.253  -8.137   2.374  1.00  0.00     0.037 A 
ATOM     25  C   UNL     1       7.438  -3.445   7.586  1.00  0.00     0.037 A 
ATOM     26  C   UNL     1       9.022  -8.388   3.561  1.00  0.00     0.049 A 
ATOM     27  C   UNL     1       8.247  -4.696   7.769  1.00  0.00     0.074 A 
ATOM     28  C   UNL     1       9.922  -9.408   3.805  1.00  0.00     0.029 A 
ATOM     29  N   UNL     1       8.968  -7.614   4.714  1.00  0.00    -0.354 N 
ATOM     30  N   UNL     1       8.510  -5.630   6.884  1.00  0.00    -0.248 NA
ATOM     31  C   UNL     1       8.888  -4.895   9.072  1.00  0.00     0.031 C 
ATOM     32  C   UNL     1      10.368  -9.284   5.125  1.00  0.00     0.029 A 
ATOM     33  C   UNL     1       9.793  -8.153   5.685  1.00  0.00     0.049 A 
ATOM     34  H   UNL     1       8.423  -6.802   4.823  1.00  0.00     0.167 HD
ATOM     35  C   UNL     1       9.398  -6.497   7.503  1.00  0.00     0.074 A 
ATOM     36  C   UNL     1       9.623  -5.973   8.837  1.00  0.00     0.031 C 
ATOM     37  C   UNL     1       9.990  -7.612   7.008  1.00  0.00     0.037 A 
BRANCH  24  38
ATOM     38  C   UNL     1       8.430  -9.022   1.175  1.00  0.00     0.058 A 
ATOM     39  C   UNL     1       9.068  -8.560   0.011  1.00  0.00     0.135 A 
ATOM     40  C   UNL     1       7.951 -10.339   1.183  1.00  0.00     0.135 A 
ATOM     41  F   UNL     1       9.510  -7.293  -0.062  1.00  0.00    -0.206 F 
ATOM     42  C   UNL     1       9.213  -9.371  -1.108  1.00  0.00     0.059 A 
ATOM     43  C   UNL     1       8.107 -11.177   0.084  1.00  0.00     0.059 A 
ATOM     44  F   UNL     1       7.314 -10.820   2.263  1.00  0.00    -0.206 F 
ATOM     45  C   UNL     1       8.733 -10.681  -1.060  1.00  0.00     0.060 A 
BRANCH  45  46
ATOM     46  S   UNL     1       8.949 -11.728  -2.514  1.00  0.00     0.124 S 
ATOM     47  O   UNL     1       8.022 -11.111  -3.458  1.00  0.00    -0.237 OA
ATOM     48  O   UNL     1      10.367 -11.553  -2.812  1.00  0.00    -0.237 OA
ATOM     49  O   UNL     1       8.569 -13.054  -2.037  1.00  0.00    -0.744 OA
ENDBRANCH  45  46
ENDBRANCH  24  38
BRANCH  25  50
ATOM     50  C   UNL     1       7.200  -2.494   8.710  1.00  0.00     0.058 A 
ATOM     51  C   UNL     1       8.235  -1.748   9.289  1.00  0.00     0.135 A 
ATOM     52  C   UNL     1       5.912  -2.350   9.260  1.00  0.00     0.135 A 
ATOM     53  F   UNL     1       9.480  -1.837   8.797  1.00  0.00    -0.206 F 
ATOM     54  C   UNL     1       8.018  -0.934  10.398  1.00  0.00     0.059 A 
ATOM     55  C   UNL     1       5.665  -1.525  10.356  1.00  0.00     0.059 A 
ATOM     56  F   UNL     1       4.878  -3.018   8.724  1.00  0.00    -0.206 F 
ATOM     57  C   UNL     1       6.730  -0.836  10.932  1.00  0.00     0.060 A 
BRANCH  57  58
ATOM     58  S   UNL     1       6.486   0.206  12.390  1.00  0.00     0.124 S 
ATOM     59  O   UNL     1       7.250  -0.518  13.400  1.00  0.00    -0.237 OA
ATOM     60  O   UNL     1       7.056   1.476  11.952  1.00  0.00    -0.237 OA
ATOM     61  O   UNL     1       5.039   0.205  12.580  1.00  0.00    -0.744 OA
ENDBRANCH  57  58
ENDBRANCH  25  50
BRANCH  37  62
ATOM     62  C   UNL     1      10.961  -8.315   7.910  1.00  0.00     0.058 A 
ATOM     63  C   UNL     1      10.534  -9.008   9.053  1.00  0.00     0.135 A 
ATOM     64  C   UNL     1      12.334  -8.308   7.615  1.00  0.00     0.135 A 
ATOM     65  F   UNL     1       9.233  -9.036   9.381  1.00  0.00    -0.206 F 
ATOM     66  C   UNL     1      11.441  -9.636   9.897  1.00  0.00     0.059 A 
ATOM     67  C   UNL     1      13.254  -8.962   8.424  1.00  0.00     0.059 A 
ATOM     68  F   UNL     1      12.790  -7.668   6.526  1.00  0.00    -0.206 F 
ATOM     69  C   UNL     1      12.799  -9.606   9.573  1.00  0.00     0.060 A 
BRANCH  69  70
ATOM     70  S   UNL     1      13.963 -10.438  10.671  1.00  0.00     0.124 S 
ATOM     71  O   UNL     1      13.996  -9.524  11.807  1.00  0.00    -0.237 OA
ATOM     72  O   UNL     1      13.307 -11.720  10.906  1.00  0.00    -0.237 OA
ATOM     73  O   UNL     1      15.188 -10.502   9.880  1.00  0.00    -0.744 OA
ENDBRANCH  69  70
ENDBRANCH  37  62
ENDBRANCH  11  12
ENDBRANCH   4   6
ENDBRANCH   3   4
ENDBRANCH   2   3
ENDBRANCH   1   2
BRANCH   1  74
ATOM     74  O   UNL     1       3.699   1.109   1.666  1.00  0.00    -0.458 OA
BRANCH  74  75
ATOM     75  C   UNL     1       2.379   1.088   1.983  1.00  0.00     0.338 C 
ATOM     76  O   UNL     1       1.500   1.802   1.526  1.00  0.00    -0.246 OA
BRANCH  75  77
ATOM     77  C   UNL     1       2.126  -0.055   2.877  1.00  0.00     0.060 A 
ATOM     78  C   UNL     1       1.160  -0.992   2.502  1.00  0.00     0.016 A 
ATOM     79  C   UNL     1       2.812  -0.193   4.087  1.00  0.00     0.020 A 
ATOM     80  C   UNL     1       0.982  -2.140   3.272  1.00  0.00     0.001 A 
ATOM     81  C   UNL     1       2.539  -1.286   4.929  1.00  0.00    -0.031 A 
ATOM     82  C   UNL     1       1.700  -2.304   4.459  1.00  0.00     0.005 A 
BRANCH  81  83
ATOM     83  C   UNL     1       3.136  -1.349   6.311  1.00  0.00     0.189 C 
BRANCH  83  84
ATOM     84  S   UNL     1       2.013  -0.852   7.629  1.00  0.00     0.216 S 
ATOM     85  O   UNL     1       1.050  -1.899   7.875  1.00  0.00    -0.212 OA
ATOM     86  O   UNL     1       2.846  -0.391   8.722  1.00  0.00    -0.212 OA
BRANCH  84  87
ATOM     87  N   UNL     1       1.228   0.533   7.159  1.00  0.00    -0.211 NA
ATOM     88  H   UNL     1       1.977   1.177   6.904  1.00  0.00     0.141 HD
BRANCH  87  89
ATOM     89  C   UNL     1       0.230   0.700   6.111  1.00  0.00     0.134 C 
BRANCH  89  90
ATOM     90  C   UNL     1      -1.075  -0.051   6.167  1.00  0.00    -0.033 A 
ATOM     91  C   UNL     1      -2.291   0.641   6.192  1.00  0.00     0.005 A 
ATOM     92  C   UNL     1      -1.132  -1.444   6.049  1.00  0.00     0.005 A 
ATOM     93  C   UNL     1      -3.507  -0.048   6.130  1.00  0.00     0.000 A 
ATOM     94  C   UNL     1      -2.336  -2.139   5.996  1.00  0.00     0.000 A 
ATOM     95  C   UNL     1      -3.529  -1.438   6.038  1.00  0.00     0.000 A 
ENDBRANCH  89  90
ENDBRANCH  87  89
ENDBRANCH  84  87
ENDBRANCH  83  84
ENDBRANCH  81  83
ENDBRANCH  75  77
ENDBRANCH  74  75
ENDBRANCH   1  74
TORSDOF 19
