REMARK SMILES CC[N@@H+](C[C@@H]1CCCO1)[C@@H](C)c1ccc(C(=O)OCCOC(=O)c2ccc(-c3c4nc(c(-c5c(F)cc(S(=O)(=O)[O-])cc5F)c5ccc([nH]5)c(-c5c(F)cc(S(=O)(=O)[O-])cc5F)c5nc(c(-c6c(F)cc(S(=O)(=O)[O-])cc6F)c6ccc3[nH]6)C=C5)C=C4)cc2)o1
REMARK SMILES IDX 19 1 18 2 16 3 17 4 15 5 12 6 13 7 90 8 14 9 10 10 11 11
REMARK SMILES IDX 3 12 2 14 1 15 4 16 5 17 6 18 9 19 7 20 8 21 20 22 21 23
REMARK SMILES IDX 22 24 23 25 24 26 25 27 89 28 26 29 88 30 27 31 28 32 29 33
REMARK SMILES IDX 82 34 30 35 87 36 81 37 83 38 31 39 86 40 80 41 79 42 32 44
REMARK SMILES IDX 66 45 45 46 65 47 46 48 49 49 64 50 84 51 47 52 48 53 63 55
REMARK SMILES IDX 85 56 50 57 33 58 34 59 43 60 35 61 36 62 42 63 44 64 37 65
REMARK SMILES IDX 38 66 39 67 40 68 41 69 67 70 68 71 77 72 69 73 70 74 76 75
REMARK SMILES IDX 78 76 71 77 72 78 73 79 74 80 75 81 51 82 52 83 61 84 53 85
REMARK SMILES IDX 54 86 60 87 62 88 55 89 56 90 57 91 58 92 59 93
REMARK H PARENT 3 13 83 43 49 54
REMARK Flexibility Score: inf
ROOT
ATOM      1  C   UNL     1       6.676   3.658   2.314  1.00  0.00     0.275 C 
ENDROOT
BRANCH   1   2
ATOM      2  O   UNL     1       5.413   3.125   1.881  1.00  0.00    -0.456 OA
BRANCH   2   3
ATOM      3  C   UNL     1       5.454   1.971   1.154  1.00  0.00     0.374 C 
ATOM      4  O   UNL     1       6.464   1.527   0.615  1.00  0.00    -0.242 OA
BRANCH   3   5
ATOM      5  C   UNL     1       4.175   1.306   1.243  1.00  0.00     0.212 A 
ATOM      6  C   UNL     1       2.850  -0.464   1.135  1.00  0.00     0.162 A 
ATOM      7  C   UNL     1       2.198   0.479   1.905  1.00  0.00     0.053 A 
ATOM      8  O   UNL     1       4.042   0.052   0.706  1.00  0.00    -0.448 OA
ATOM      9  C   UNL     1       3.011   1.635   1.913  1.00  0.00     0.059 A 
BRANCH   6  10
ATOM     10  C   UNL     1       2.527  -1.897   0.779  1.00  0.00     0.248 C 
ATOM     11  C   UNL     1       3.523  -2.492  -0.226  1.00  0.00     0.084 C 
BRANCH  10  12
ATOM     12  N   UNL     1       1.086  -2.103   0.456  1.00  0.00    -0.324 N 
ATOM     13  H   UNL     1       0.621  -1.622   1.226  1.00  0.00     0.348 HD
BRANCH  12  14
ATOM     14  C   UNL     1       0.553  -1.417  -0.725  1.00  0.00     0.259 C 
ATOM     15  C   UNL     1       0.455   0.102  -0.701  1.00  0.00     0.071 C 
ENDBRANCH  12  14
BRANCH  12  16
ATOM     16  C   UNL     1       0.712  -3.546   0.469  1.00  0.00     0.295 C 
BRANCH  16  17
ATOM     17  C   UNL     1       0.819  -4.380  -0.835  1.00  0.00     0.173 C 
ATOM     18  C   UNL     1      -0.282  -4.194  -1.869  1.00  0.00     0.040 C 
ATOM     19  O   UNL     1       0.765  -5.791  -0.533  1.00  0.00    -0.372 OA
ATOM     20  C   UNL     1      -0.087  -5.422  -2.721  1.00  0.00     0.031 C 
ATOM     21  C   UNL     1       0.263  -6.478  -1.692  1.00  0.00     0.161 C 
ENDBRANCH  16  17
ENDBRANCH  12  16
ENDBRANCH  10  12
ENDBRANCH   6  10
ENDBRANCH   3   5
ENDBRANCH   2   3
ENDBRANCH   1   2
BRANCH   1  22
ATOM     22  C   UNL     1       6.906   3.306   3.787  1.00  0.00     0.275 C 
BRANCH  22  23
ATOM     23  O   UNL     1       7.219   1.908   3.947  1.00  0.00    -0.458 OA
BRANCH  23  24
ATOM     24  C   UNL     1       6.176   1.109   4.278  1.00  0.00     0.338 C 
ATOM     25  O   UNL     1       5.023   1.452   4.474  1.00  0.00    -0.246 OA
BRANCH  24  26
ATOM     26  C   UNL     1       6.611  -0.297   4.274  1.00  0.00     0.060 A 
ATOM     27  C   UNL     1       6.110  -1.147   3.287  1.00  0.00     0.016 A 
ATOM     28  C   UNL     1       7.439  -0.796   5.279  1.00  0.00     0.016 A 
ATOM     29  C   UNL     1       6.414  -2.505   3.309  1.00  0.00     0.010 A 
ATOM     30  C   UNL     1       7.768  -2.158   5.284  1.00  0.00     0.010 A 
ATOM     31  C   UNL     1       7.248  -3.026   4.306  1.00  0.00    -0.014 A 
BRANCH  31  32
ATOM     32  C   UNL     1       7.554  -4.479   4.328  1.00  0.00     0.031 A 
ATOM     33  C   UNL     1       7.024  -5.348   5.436  1.00  0.00     0.074 A 
ATOM     34  C   UNL     1       8.297  -5.019   3.342  1.00  0.00     0.049 A 
ATOM     35  N   UNL     1       7.242  -6.617   5.667  1.00  0.00    -0.248 NA
ATOM     36  C   UNL     1       6.137  -4.702   6.416  1.00  0.00     0.031 C 
ATOM     37  C   UNL     1       8.839  -4.284   2.197  1.00  0.00     0.029 A 
ATOM     38  N   UNL     1       8.727  -6.307   3.142  1.00  0.00    -0.354 N 
ATOM     39  C   UNL     1       6.537  -6.919   6.827  1.00  0.00     0.074 A 
ATOM     40  C   UNL     1       5.908  -5.692   7.267  1.00  0.00     0.031 C 
ATOM     41  C   UNL     1       9.519  -5.134   1.411  1.00  0.00     0.029 A 
ATOM     42  C   UNL     1       9.513  -6.458   2.024  1.00  0.00     0.049 A 
ATOM     43  H   UNL     1       8.495  -7.052   3.743  1.00  0.00     0.167 HD
ATOM     44  C   UNL     1       6.423  -8.112   7.461  1.00  0.00     0.037 A 
ATOM     45  C   UNL     1      10.179  -7.534   1.560  1.00  0.00     0.037 A 
ATOM     46  C   UNL     1       7.045  -9.330   7.003  1.00  0.00     0.049 A 
ATOM     47  C   UNL     1      10.085  -8.833   2.314  1.00  0.00     0.074 A 
ATOM     48  C   UNL     1       6.974 -10.594   7.562  1.00  0.00     0.029 A 
ATOM     49  N   UNL     1       7.855  -9.437   5.881  1.00  0.00    -0.354 N 
ATOM     50  N   UNL     1       9.410  -9.105   3.405  1.00  0.00    -0.248 NA
ATOM     51  C   UNL     1      10.842  -9.971   1.776  1.00  0.00     0.031 C 
ATOM     52  C   UNL     1       7.787 -11.451   6.813  1.00  0.00     0.029 A 
ATOM     53  C   UNL     1       8.313 -10.738   5.747  1.00  0.00     0.049 A 
ATOM     54  H   UNL     1       8.072  -8.696   5.269  1.00  0.00     0.167 HD
ATOM     55  C   UNL     1       9.638 -10.452   3.668  1.00  0.00     0.074 A 
ATOM     56  C   UNL     1      10.504 -10.940   2.615  1.00  0.00     0.031 C 
ATOM     57  C   UNL     1       9.170 -11.214   4.688  1.00  0.00     0.037 A 
BRANCH  44  58
ATOM     58  C   UNL     1       5.622  -8.156   8.736  1.00  0.00     0.058 A 
ATOM     59  C   UNL     1       4.225  -8.011   8.745  1.00  0.00     0.135 A 
ATOM     60  C   UNL     1       6.260  -8.388   9.966  1.00  0.00     0.135 A 
ATOM     61  F   UNL     1       3.562  -7.774   7.601  1.00  0.00    -0.206 F 
ATOM     62  C   UNL     1       3.494  -8.061   9.929  1.00  0.00     0.059 A 
ATOM     63  C   UNL     1       5.546  -8.473  11.158  1.00  0.00     0.059 A 
ATOM     64  F   UNL     1       7.593  -8.536  10.019  1.00  0.00    -0.206 F 
ATOM     65  C   UNL     1       4.165  -8.293  11.131  1.00  0.00     0.060 A 
BRANCH  65  66
ATOM     66  S   UNL     1       3.202  -8.357  12.658  1.00  0.00     0.124 S 
ATOM     67  O   UNL     1       2.827  -6.956  12.824  1.00  0.00    -0.237 OA
ATOM     68  O   UNL     1       2.116  -9.265  12.305  1.00  0.00    -0.237 OA
ATOM     69  O   UNL     1       4.152  -8.871  13.639  1.00  0.00    -0.744 OA
ENDBRANCH  65  66
ENDBRANCH  44  58
BRANCH  45  70
ATOM     70  C   UNL     1      11.009  -7.419   0.329  1.00  0.00     0.058 A 
ATOM     71  C   UNL     1      10.652  -8.083  -0.853  1.00  0.00     0.135 A 
ATOM     72  C   UNL     1      12.171  -6.630   0.308  1.00  0.00     0.135 A 
ATOM     73  F   UNL     1       9.556  -8.857  -0.883  1.00  0.00    -0.206 F 
ATOM     74  C   UNL     1      11.422  -7.981  -2.008  1.00  0.00     0.059 A 
ATOM     75  C   UNL     1      12.940  -6.488  -0.842  1.00  0.00     0.059 A 
ATOM     76  F   UNL     1      12.553  -5.965   1.409  1.00  0.00    -0.206 F 
ATOM     77  C   UNL     1      12.563  -7.177  -1.993  1.00  0.00     0.060 A 
BRANCH  77  78
ATOM     78  S   UNL     1      13.529  -7.016  -3.511  1.00  0.00     0.124 S 
ATOM     79  O   UNL     1      14.147  -8.333  -3.607  1.00  0.00    -0.237 OA
ATOM     80  O   UNL     1      12.497  -6.722  -4.500  1.00  0.00    -0.237 OA
ATOM     81  O   UNL     1      14.437  -5.912  -3.216  1.00  0.00    -0.744 OA
ENDBRANCH  77  78
ENDBRANCH  45  70
BRANCH  57  82
ATOM     82  C   UNL     1       9.546 -12.672   4.696  1.00  0.00     0.058 A 
ATOM     83  C   UNL     1      10.849 -13.101   4.992  1.00  0.00     0.135 A 
ATOM     84  C   UNL     1       8.572 -13.655   4.456  1.00  0.00     0.135 A 
ATOM     85  F   UNL     1      11.822 -12.204   5.220  1.00  0.00    -0.206 F 
ATOM     86  C   UNL     1      11.179 -14.453   5.028  1.00  0.00     0.059 A 
ATOM     87  C   UNL     1       8.871 -15.012   4.519  1.00  0.00     0.059 A 
ATOM     88  F   UNL     1       7.307 -13.301   4.177  1.00  0.00    -0.206 F 
ATOM     89  C   UNL     1      10.181 -15.401   4.795  1.00  0.00     0.060 A 
BRANCH  89  90
ATOM     90  S   UNL     1      10.614 -17.152   4.885  1.00  0.00     0.124 S 
ATOM     91  O   UNL     1      11.401 -17.324   3.668  1.00  0.00    -0.237 OA
ATOM     92  O   UNL     1      11.359 -17.224   6.137  1.00  0.00    -0.237 OA
ATOM     93  O   UNL     1       9.318 -17.824   4.894  1.00  0.00    -0.744 OA
ENDBRANCH  89  90
ENDBRANCH  57  82
ENDBRANCH  31  32
ENDBRANCH  24  26
ENDBRANCH  23  24
ENDBRANCH  22  23
ENDBRANCH   1  22
TORSDOF 19
