REMARK SMILES CC[NH2+][C@@]1(C(=O)OCCOC(=O)c2ccc(-c3c4nc(c(-c5c(F)cc(S(=O)(=O)[O-])cc5F)c5ccc([nH]5)c(-c5c(F)cc(S(=O)(=O)[O-])cc5F)c5nc(c(-c6c(F)cc(S(=O)(=O)[O-])cc6F)c6ccc3[nH]6)C=C5)C=C4)cc2)CC[C@H](Sc2nccc(=O)[nH]2)C1
REMARK SMILES IDX 9 1 8 2 7 3 5 4 6 5 4 6 79 7 90 8 80 9 81 10 3 11 2 14 1 15
REMARK SMILES IDX 82 16 83 17 84 18 89 19 85 20 87 21 86 23 88 24 10 25 11 26
REMARK SMILES IDX 12 27 13 28 14 29 78 30 15 31 77 32 16 33 17 34 18 35 71 36
REMARK SMILES IDX 19 37 76 38 70 39 72 40 20 41 75 42 69 43 68 44 21 46 55 47
REMARK SMILES IDX 34 48 54 49 35 50 38 51 53 52 73 53 36 54 37 55 52 57 74 58
REMARK SMILES IDX 39 59 22 60 23 61 32 62 24 63 25 64 31 65 33 66 26 67 27 68
REMARK SMILES IDX 28 69 29 70 30 71 56 72 57 73 66 74 58 75 59 76 65 77 67 78
REMARK SMILES IDX 60 79 61 80 62 81 63 82 64 83 40 84 41 85 50 86 42 87 43 88
REMARK SMILES IDX 49 89 51 90 44 91 45 92 46 93 47 94 48 95
REMARK H PARENT 3 12 3 13 89 22 72 45 38 56
REMARK Flexibility Score: inf
ROOT
ATOM      1  C   UNL     1      -3.053   3.004   1.835  1.00  0.00     0.275 C 
ENDROOT
BRANCH   1   2
ATOM      2  C   UNL     1      -2.032   4.122   2.023  1.00  0.00     0.274 C 
BRANCH   2   3
ATOM      3  O   UNL     1      -1.296   4.229   0.804  1.00  0.00    -0.457 OA
BRANCH   3   4
ATOM      4  C   UNL     1       0.000   4.595   0.914  1.00  0.00     0.368 C 
ATOM      5  O   UNL     1       0.496   5.082   1.926  1.00  0.00    -0.245 OA
BRANCH   4   6
ATOM      6  C   UNL     1       0.808   4.203  -0.358  1.00  0.00     0.195 C 
ATOM      7  C   UNL     1       1.759   5.358  -0.688  1.00  0.00     0.082 C 
ATOM      8  C   UNL     1      -0.028   4.191  -1.657  1.00  0.00     0.096 C 
ATOM      9  C   UNL     1       0.793   6.435  -1.205  1.00  0.00     0.022 C 
ATOM     10  C   UNL     1      -0.270   5.672  -2.017  1.00  0.00     0.062 C 
BRANCH   6  11
ATOM     11  N   UNL     1       1.453   2.875  -0.210  1.00  0.00    -0.332 N 
ATOM     12  H   UNL     1       0.864   2.186  -0.678  1.00  0.00     0.347 HD
ATOM     13  H   UNL     1       2.383   2.971  -0.619  1.00  0.00     0.347 HD
BRANCH  11  14
ATOM     14  C   UNL     1       1.668   2.423   1.166  1.00  0.00     0.257 C 
ATOM     15  C   UNL     1       2.185   1.000   1.187  1.00  0.00     0.071 C 
ENDBRANCH  11  14
ENDBRANCH   6  11
BRANCH  10  16
ATOM     16  S   UNL     1      -2.022   6.045  -1.689  1.00  0.00    -0.084 SA
BRANCH  16  17
ATOM     17  C   UNL     1      -2.144   7.761  -1.701  1.00  0.00     0.168 A 
ATOM     18  N   UNL     1      -1.190   8.566  -2.022  1.00  0.00    -0.233 NA
ATOM     19  N   UNL     1      -3.387   8.155  -1.312  1.00  0.00    -0.301 N 
ATOM     20  C   UNL     1      -1.478   9.904  -1.928  1.00  0.00     0.120 A 
ATOM     21  C   UNL     1      -3.729   9.466  -1.210  1.00  0.00     0.251 A 
ATOM     22  H   UNL     1      -4.059   7.469  -1.098  1.00  0.00     0.172 HD
ATOM     23  C   UNL     1      -2.655  10.412  -1.548  1.00  0.00     0.091 A 
ATOM     24  O   UNL     1      -4.837   9.854  -0.860  1.00  0.00    -0.269 OA
ENDBRANCH  16  17
ENDBRANCH  10  16
ENDBRANCH   4   6
ENDBRANCH   3   4
ENDBRANCH   2   3
ENDBRANCH   1   2
BRANCH   1  25
ATOM     25  O   UNL     1      -2.393   1.786   1.435  1.00  0.00    -0.458 OA
BRANCH  25  26
ATOM     26  C   UNL     1      -2.358   1.534   0.098  1.00  0.00     0.338 C 
ATOM     27  O   UNL     1      -2.881   2.193  -0.788  1.00  0.00    -0.246 OA
BRANCH  26  28
ATOM     28  C   UNL     1      -1.529   0.334  -0.146  1.00  0.00     0.060 A 
ATOM     29  C   UNL     1      -0.593   0.330  -1.187  1.00  0.00     0.016 A 
ATOM     30  C   UNL     1      -1.685  -0.798   0.659  1.00  0.00     0.016 A 
ATOM     31  C   UNL     1       0.228  -0.786  -1.385  1.00  0.00     0.010 A 
ATOM     32  C   UNL     1      -0.882  -1.921   0.446  1.00  0.00     0.010 A 
ATOM     33  C   UNL     1       0.090  -1.918  -0.566  1.00  0.00    -0.014 A 
BRANCH  33  34
ATOM     34  C   UNL     1       0.885  -3.143  -0.826  1.00  0.00     0.031 A 
ATOM     35  C   UNL     1       0.377  -4.120  -1.840  1.00  0.00     0.074 A 
ATOM     36  C   UNL     1       2.021  -3.397  -0.147  1.00  0.00     0.049 A 
ATOM     37  N   UNL     1       0.890  -5.261  -2.216  1.00  0.00    -0.248 NA
ATOM     38  C   UNL     1      -0.891  -3.775  -2.505  1.00  0.00     0.031 C 
ATOM     39  C   UNL     1       2.590  -2.537   0.884  1.00  0.00     0.029 A 
ATOM     40  N   UNL     1       2.900  -4.452  -0.211  1.00  0.00    -0.354 N 
ATOM     41  C   UNL     1       0.013  -5.770  -3.164  1.00  0.00     0.074 A 
ATOM     42  C   UNL     1      -1.076  -4.826  -3.289  1.00  0.00     0.031 C 
ATOM     43  C   UNL     1       3.735  -3.072   1.335  1.00  0.00     0.029 A 
ATOM     44  C   UNL     1       3.954  -4.352   0.670  1.00  0.00     0.049 A 
ATOM     45  H   UNL     1       2.786  -5.209  -0.830  1.00  0.00     0.167 HD
ATOM     46  C   UNL     1       0.108  -6.926  -3.859  1.00  0.00     0.037 A 
ATOM     47  C   UNL     1       4.963  -5.208   0.933  1.00  0.00     0.037 A 
ATOM     48  C   UNL     1       1.167  -7.885  -3.684  1.00  0.00     0.049 A 
ATOM     49  C   UNL     1       5.012  -6.515   0.182  1.00  0.00     0.074 A 
ATOM     50  C   UNL     1       1.349  -9.092  -4.334  1.00  0.00     0.029 A 
ATOM     51  N   UNL     1       2.209  -7.758  -2.775  1.00  0.00    -0.354 N 
ATOM     52  N   UNL     1       4.204  -6.959  -0.752  1.00  0.00    -0.248 NA
ATOM     53  C   UNL     1       6.097  -7.444   0.528  1.00  0.00     0.031 C 
ATOM     54  C   UNL     1       2.467  -9.722  -3.778  1.00  0.00     0.029 A 
ATOM     55  C   UNL     1       3.022  -8.878  -2.828  1.00  0.00     0.049 A 
ATOM     56  H   UNL     1       2.349  -6.986  -2.181  1.00  0.00     0.167 HD
ATOM     57  C   UNL     1       4.694  -8.207  -1.119  1.00  0.00     0.074 A 
ATOM     58  C   UNL     1       5.881  -8.439  -0.321  1.00  0.00     0.031 C 
ATOM     59  C   UNL     1       4.205  -9.086  -2.029  1.00  0.00     0.037 A 
BRANCH  46  60
ATOM     60  C   UNL     1      -0.990  -7.228  -4.838  1.00  0.00     0.058 A 
ATOM     61  C   UNL     1      -1.132  -6.502  -6.032  1.00  0.00     0.135 A 
ATOM     62  C   UNL     1      -1.907  -8.260  -4.585  1.00  0.00     0.135 A 
ATOM     63  F   UNL     1      -0.297  -5.488  -6.310  1.00  0.00    -0.206 F 
ATOM     64  C   UNL     1      -2.160  -6.772  -6.928  1.00  0.00     0.059 A 
ATOM     65  C   UNL     1      -2.926  -8.566  -5.481  1.00  0.00     0.059 A 
ATOM     66  F   UNL     1      -1.823  -8.978  -3.454  1.00  0.00    -0.206 F 
ATOM     67  C   UNL     1      -3.051  -7.808  -6.644  1.00  0.00     0.060 A 
BRANCH  67  68
ATOM     68  S   UNL     1      -4.376  -8.148  -7.821  1.00  0.00     0.124 S 
ATOM     69  O   UNL     1      -5.237  -6.984  -7.637  1.00  0.00    -0.237 OA
ATOM     70  O   UNL     1      -3.655  -8.210  -9.089  1.00  0.00    -0.237 OA
ATOM     71  O   UNL     1      -4.929  -9.416  -7.355  1.00  0.00    -0.744 OA
ENDBRANCH  67  68
ENDBRANCH  46  60
BRANCH  47  72
ATOM     72  C   UNL     1       5.991  -4.885   1.966  1.00  0.00     0.058 A 
ATOM     73  C   UNL     1       7.338  -4.692   1.618  1.00  0.00     0.135 A 
ATOM     74  C   UNL     1       5.656  -4.790   3.327  1.00  0.00     0.135 A 
ATOM     75  F   UNL     1       7.718  -4.785   0.335  1.00  0.00    -0.206 F 
ATOM     76  C   UNL     1       8.315  -4.441   2.579  1.00  0.00     0.059 A 
ATOM     77  C   UNL     1       6.609  -4.507   4.302  1.00  0.00     0.059 A 
ATOM     78  F   UNL     1       4.384  -4.957   3.720  1.00  0.00    -0.206 F 
ATOM     79  C   UNL     1       7.940  -4.348   3.919  1.00  0.00     0.060 A 
BRANCH  79  80
ATOM     80  S   UNL     1       9.209  -3.990   5.154  1.00  0.00     0.124 S 
ATOM     81  O   UNL     1       9.950  -5.246   5.188  1.00  0.00    -0.237 OA
ATOM     82  O   UNL     1       9.903  -2.853   4.559  1.00  0.00    -0.237 OA
ATOM     83  O   UNL     1       8.434  -3.683   6.353  1.00  0.00    -0.744 OA
ENDBRANCH  79  80
ENDBRANCH  47  72
BRANCH  59  84
ATOM     84  C   UNL     1       4.970 -10.364  -2.241  1.00  0.00     0.058 A 
ATOM     85  C   UNL     1       4.985 -11.388  -1.282  1.00  0.00     0.135 A 
ATOM     86  C   UNL     1       5.647 -10.589  -3.451  1.00  0.00     0.135 A 
ATOM     87  F   UNL     1       4.361 -11.222  -0.105  1.00  0.00    -0.206 F 
ATOM     88  C   UNL     1       5.661 -12.583  -1.506  1.00  0.00     0.059 A 
ATOM     89  C   UNL     1       6.302 -11.788  -3.710  1.00  0.00     0.059 A 
ATOM     90  F   UNL     1       5.656  -9.646  -4.407  1.00  0.00    -0.206 F 
ATOM     91  C   UNL     1       6.312 -12.776  -2.727  1.00  0.00     0.060 A 
BRANCH  91  92
ATOM     92  S   UNL     1       7.149 -14.348  -3.022  1.00  0.00     0.124 S 
ATOM     93  O   UNL     1       8.311 -14.231  -2.148  1.00  0.00    -0.237 OA
ATOM     94  O   UNL     1       6.141 -15.319  -2.610  1.00  0.00    -0.237 OA
ATOM     95  O   UNL     1       7.434 -14.318  -4.453  1.00  0.00    -0.744 OA
ENDBRANCH  91  92
ENDBRANCH  59  84
ENDBRANCH  33  34
ENDBRANCH  26  28
ENDBRANCH  25  26
ENDBRANCH   1  25
TORSDOF 18
