REMARK SMILES COc1ccc(/C=C2/SC(=S)N(c3ccc(C(=O)OCCOC(=O)c4ccc(-c5c6nc(c(-c7c(F)cc(S(=O)(=O)[O-])cc7F)c7ccc([nH]7)c(-c7c(F)cc(S(=O)(=O)[O-])cc7F)c7nc(c(-c8c(F)cc(S(=O)(=O)[O-])cc8F)c8ccc5[nH]8)C=C7)C=C6)cc4)c(O)c3)C2=O)cc1OC
REMARK SMILES IDX 20 1 19 2 17 3 18 4 16 5 13 6 14 7 93 8 15 9 91 10 12 11
REMARK SMILES IDX 7 12 8 13 9 14 94 15 10 16 95 17 11 18 6 19 3 20 4 21 97 22
REMARK SMILES IDX 5 23 96 24 2 25 1 26 98 27 99 28 92 29 21 31 22 32 23 33
REMARK SMILES IDX 24 34 25 35 26 36 90 37 27 38 89 39 28 40 29 41 30 42 83 43
REMARK SMILES IDX 31 44 88 45 82 46 84 47 32 48 87 49 81 50 80 51 33 53 67 54
REMARK SMILES IDX 46 55 66 56 47 57 50 58 65 59 85 60 48 61 49 62 64 64 86 65
REMARK SMILES IDX 51 66 34 67 35 68 44 69 36 70 37 71 43 72 45 73 38 74 39 75
REMARK SMILES IDX 40 76 41 77 42 78 68 79 69 80 78 81 70 82 71 83 77 84 79 85
REMARK SMILES IDX 72 86 73 87 74 88 75 89 76 90 52 91 53 92 62 93 54 94 55 95
REMARK SMILES IDX 61 96 63 97 56 98 57 99 58 100 59 101 60 102
REMARK H PARENT 92 30 84 52 50 63
REMARK Flexibility Score: inf
ROOT
ATOM      1  C   UNL     1      10.689  -2.081  -8.365  1.00  0.00     0.275 C 
ENDROOT
BRANCH   1   2
ATOM      2  O   UNL     1       9.821  -1.029  -7.896  1.00  0.00    -0.458 OA
BRANCH   2   3
ATOM      3  C   UNL     1       8.770  -0.738  -8.701  1.00  0.00     0.342 C 
ATOM      4  O   UNL     1       8.470  -1.321  -9.734  1.00  0.00    -0.246 OA
BRANCH   3   5
ATOM      5  C   UNL     1       7.902   0.316  -8.130  1.00  0.00     0.101 A 
ATOM      6  C   UNL     1       6.074   2.270  -7.222  1.00  0.00     0.054 A 
ATOM      7  C   UNL     1       5.621   1.035  -7.693  1.00  0.00     0.028 A 
ATOM      8  C   UNL     1       7.458   2.513  -7.194  1.00  0.00     0.073 A 
ATOM      9  C   UNL     1       6.522   0.092  -8.176  1.00  0.00     0.022 A 
ATOM     10  C   UNL     1       8.367   1.534  -7.632  1.00  0.00     0.132 A 
BRANCH   6  11
ATOM     11  N   UNL     1       5.112   3.236  -6.794  1.00  0.00    -0.261 N 
ATOM     12  C   UNL     1       2.173   4.016  -4.740  1.00  0.00     0.029 C 
ATOM     13  C   UNL     1       3.191   3.984  -5.617  1.00  0.00     0.081 C 
ATOM     14  S   UNL     1       3.665   5.364  -6.534  1.00  0.00    -0.054 SA
ATOM     15  C   UNL     1       4.089   2.835  -5.934  1.00  0.00     0.270 C 
ATOM     16  C   UNL     1       5.055   4.543  -7.251  1.00  0.00     0.152 C 
ATOM     17  O   UNL     1       3.934   1.711  -5.476  1.00  0.00    -0.268 OA
ATOM     18  S   UNL     1       6.013   5.330  -8.376  1.00  0.00    -0.051 S 
BRANCH  12  19
ATOM     19  C   UNL     1       1.781   2.930  -3.832  1.00  0.00    -0.020 A 
ATOM     20  C   UNL     1       1.059   0.840  -2.100  1.00  0.00     0.160 A 
ATOM     21  C   UNL     1       0.131   1.365  -3.010  1.00  0.00     0.051 A 
ATOM     22  C   UNL     1       2.360   1.347  -2.054  1.00  0.00     0.161 A 
ATOM     23  C   UNL     1       0.486   2.412  -3.867  1.00  0.00     0.012 A 
ATOM     24  C   UNL     1       2.693   2.414  -2.899  1.00  0.00     0.058 A 
BRANCH  20  25
ATOM     25  O   UNL     1       0.661  -0.226  -1.342  1.00  0.00    -0.493 OA
ATOM     26  C   UNL     1      -0.063   0.185  -0.184  1.00  0.00     0.278 C 
ENDBRANCH  20  25
BRANCH  22  27
ATOM     27  O   UNL     1       3.400   0.949  -1.258  1.00  0.00    -0.493 OA
ATOM     28  C   UNL     1       3.356  -0.368  -0.724  1.00  0.00     0.278 C 
ENDBRANCH  22  27
ENDBRANCH  12  19
ENDBRANCH   6  11
BRANCH  10  29
ATOM     29  O   UNL     1       9.707   1.803  -7.612  1.00  0.00    -0.507 OA
ATOM     30  H   UNL     1      10.319   1.156  -7.903  1.00  0.00     0.293 HD
ENDBRANCH  10  29
ENDBRANCH   3   5
ENDBRANCH   2   3
ENDBRANCH   1   2
BRANCH   1  31
ATOM     31  C   UNL     1      10.491  -3.368  -7.566  1.00  0.00     0.275 C 
BRANCH  31  32
ATOM     32  O   UNL     1       9.173  -3.900  -7.789  1.00  0.00    -0.458 OA
BRANCH  32  33
ATOM     33  C   UNL     1       8.349  -3.867  -6.716  1.00  0.00     0.338 C 
ATOM     34  O   UNL     1       8.614  -3.486  -5.590  1.00  0.00    -0.246 OA
BRANCH  33  35
ATOM     35  C   UNL     1       7.008  -4.338  -7.095  1.00  0.00     0.060 A 
ATOM     36  C   UNL     1       6.237  -3.546  -7.937  1.00  0.00     0.016 A 
ATOM     37  C   UNL     1       6.446  -5.452  -6.478  1.00  0.00     0.016 A 
ATOM     38  C   UNL     1       4.867  -3.775  -8.051  1.00  0.00     0.010 A 
ATOM     39  C   UNL     1       5.098  -5.760  -6.706  1.00  0.00     0.010 A 
ATOM     40  C   UNL     1       4.273  -4.897  -7.452  1.00  0.00    -0.014 A 
BRANCH  40  41
ATOM     41  C   UNL     1       2.803  -5.152  -7.579  1.00  0.00     0.031 A 
ATOM     42  C   UNL     1       1.953  -5.368  -6.347  1.00  0.00     0.074 A 
ATOM     43  C   UNL     1       2.213  -5.192  -8.793  1.00  0.00     0.049 A 
ATOM     44  N   UNL     1       0.722  -5.808  -6.254  1.00  0.00    -0.248 NA
ATOM     45  C   UNL     1       2.576  -5.070  -5.047  1.00  0.00     0.031 C 
ATOM     46  C   UNL     1       2.887  -4.969 -10.074  1.00  0.00     0.029 A 
ATOM     47  N   UNL     1       0.907  -5.433  -9.151  1.00  0.00    -0.354 N 
ATOM     48  C   UNL     1       0.450  -5.904  -4.892  1.00  0.00     0.074 A 
ATOM     49  C   UNL     1       1.646  -5.480  -4.196  1.00  0.00     0.031 C 
ATOM     50  C   UNL     1       1.988  -5.032 -11.067  1.00  0.00     0.029 A 
ATOM     51  C   UNL     1       0.694  -5.408 -10.511  1.00  0.00     0.049 A 
ATOM     52  H   UNL     1       0.192  -5.606  -8.497  1.00  0.00     0.167 HD
ATOM     53  C   UNL     1      -0.691  -6.308  -4.279  1.00  0.00     0.037 A 
ATOM     54  C   UNL     1      -0.398  -5.704 -11.243  1.00  0.00     0.037 A 
ATOM     55  C   UNL     1      -1.904  -6.659  -4.975  1.00  0.00     0.049 A 
ATOM     56  C   UNL     1      -1.647  -6.162 -10.547  1.00  0.00     0.074 A 
ATOM     57  C   UNL     1      -3.119  -7.058  -4.444  1.00  0.00     0.029 A 
ATOM     58  N   UNL     1      -2.063  -6.633  -6.353  1.00  0.00    -0.354 N 
ATOM     59  N   UNL     1      -1.865  -6.312  -9.263  1.00  0.00    -0.248 NA
ATOM     60  C   UNL     1      -2.791  -6.513 -11.399  1.00  0.00     0.031 C 
ATOM     61  C   UNL     1      -4.002  -7.305  -5.501  1.00  0.00     0.029 A 
ATOM     62  C   UNL     1      -3.352  -7.018  -6.690  1.00  0.00     0.049 A 
ATOM     63  H   UNL     1      -1.364  -6.378  -6.998  1.00  0.00     0.167 HD
ATOM     64  C   UNL     1      -3.173  -6.766  -9.151  1.00  0.00     0.074 A 
ATOM     65  C   UNL     1      -3.704  -6.848 -10.496  1.00  0.00     0.031 C 
ATOM     66  C   UNL     1      -3.869  -7.092  -8.034  1.00  0.00     0.037 A 
BRANCH  53  67
ATOM     67  C   UNL     1      -0.678  -6.425  -2.776  1.00  0.00     0.058 A 
ATOM     68  C   UNL     1      -0.660  -5.301  -1.937  1.00  0.00     0.135 A 
ATOM     69  C   UNL     1      -0.715  -7.691  -2.167  1.00  0.00     0.135 A 
ATOM     70  F   UNL     1      -0.617  -4.066  -2.461  1.00  0.00    -0.206 F 
ATOM     71  C   UNL     1      -0.641  -5.427  -0.550  1.00  0.00     0.059 A 
ATOM     72  C   UNL     1      -0.726  -7.841  -0.782  1.00  0.00     0.059 A 
ATOM     73  F   UNL     1      -0.741  -8.803  -2.919  1.00  0.00    -0.206 F 
ATOM     74  C   UNL     1      -0.670  -6.702   0.019  1.00  0.00     0.060 A 
BRANCH  74  75
ATOM     75  S   UNL     1      -0.639  -6.850   1.818  1.00  0.00     0.124 S 
ATOM     76  O   UNL     1       0.757  -6.541   2.112  1.00  0.00    -0.237 OA
ATOM     77  O   UNL     1      -1.610  -5.843   2.234  1.00  0.00    -0.237 OA
ATOM     78  O   UNL     1      -1.038  -8.235   2.053  1.00  0.00    -0.744 OA
ENDBRANCH  74  75
ENDBRANCH  53  67
BRANCH  54  79
ATOM     79  C   UNL     1      -0.333  -5.618 -12.727  1.00  0.00     0.058 A 
ATOM     80  C   UNL     1      -1.028  -4.620 -13.425  1.00  0.00     0.135 A 
ATOM     81  C   UNL     1       0.458  -6.507 -13.474  1.00  0.00     0.135 A 
ATOM     82  F   UNL     1      -1.808  -3.755 -12.759  1.00  0.00    -0.206 F 
ATOM     83  C   UNL     1      -0.939  -4.502 -14.809  1.00  0.00     0.059 A 
ATOM     84  C   UNL     1       0.587  -6.391 -14.854  1.00  0.00     0.059 A 
ATOM     85  F   UNL     1       1.152  -7.474 -12.853  1.00  0.00    -0.206 F 
ATOM     86  C   UNL     1      -0.121  -5.388 -15.514  1.00  0.00     0.060 A 
BRANCH  86  87
ATOM     87  S   UNL     1       0.049  -5.181 -17.299  1.00  0.00     0.124 S 
ATOM     88  O   UNL     1      -1.223  -5.708 -17.779  1.00  0.00    -0.237 OA
ATOM     89  O   UNL     1       0.231  -3.738 -17.427  1.00  0.00    -0.237 OA
ATOM     90  O   UNL     1       1.227  -5.983 -17.619  1.00  0.00    -0.744 OA
ENDBRANCH  86  87
ENDBRANCH  54  79
BRANCH  66  91
ATOM     91  C   UNL     1      -5.292  -7.537  -8.217  1.00  0.00     0.058 A 
ATOM     92  C   UNL     1      -5.608  -8.807  -8.723  1.00  0.00     0.135 A 
ATOM     93  C   UNL     1      -6.353  -6.695  -7.848  1.00  0.00     0.135 A 
ATOM     94  F   UNL     1      -4.630  -9.647  -9.100  1.00  0.00    -0.206 F 
ATOM     95  C   UNL     1      -6.928  -9.220  -8.877  1.00  0.00     0.059 A 
ATOM     96  C   UNL     1      -7.680  -7.096  -7.971  1.00  0.00     0.059 A 
ATOM     97  F   UNL     1      -6.105  -5.472  -7.352  1.00  0.00    -0.206 F 
ATOM     98  C   UNL     1      -7.957  -8.356  -8.498  1.00  0.00     0.060 A 
BRANCH  98  99
ATOM     99  S   UNL     1      -9.665  -8.912  -8.677  1.00  0.00     0.124 S 
ATOM    100  O   UNL     1      -9.862  -8.802 -10.118  1.00  0.00    -0.237 OA
ATOM    101  O   UNL     1      -9.610 -10.271  -8.146  1.00  0.00    -0.237 OA
ATOM    102  O   UNL     1     -10.418  -7.960  -7.865  1.00  0.00    -0.744 OA
ENDBRANCH  98  99
ENDBRANCH  66  91
ENDBRANCH  40  41
ENDBRANCH  33  35
ENDBRANCH  32  33
ENDBRANCH  31  32
ENDBRANCH   1  31
TORSDOF 19
