REMARK SMILES C[C@H](O)[C@H](NC(=O)N1CC[N@H+]2CCC[C@@H]2C1)C(=O)OCCOC(=O)c1ccc(-c2c3nc(c(-c4c(F)cc(S(=O)(=O)[O-])cc4F)c4ccc([nH]4)c(-c4c(F)cc(S(=O)(=O)[O-])cc4F)c4nc(c(-c5c(F)cc(S(=O)(=O)[O-])cc5F)c5ccc2[nH]5)C=C4)C=C3)cc1
REMARK SMILES IDX 21 1 20 2 19 3 17 4 18 5 4 6 2 7 1 8 3 9 5 11 6 12 7 14 8 15
REMARK SMILES IDX 9 16 16 17 10 18 15 19 11 20 14 21 12 22 13 24 22 25 23 26
REMARK SMILES IDX 24 27 25 28 26 29 90 30 27 31 89 32 28 33 29 34 30 35 83 36
REMARK SMILES IDX 31 37 88 38 82 39 84 40 32 41 87 42 81 43 80 44 33 46 67 47
REMARK SMILES IDX 46 48 66 49 47 50 50 51 65 52 85 53 48 54 49 55 64 57 86 58
REMARK SMILES IDX 51 59 34 60 35 61 44 62 36 63 37 64 43 65 45 66 38 67 39 68
REMARK SMILES IDX 40 69 41 70 42 71 68 72 69 73 78 74 70 75 71 76 77 77 79 78
REMARK SMILES IDX 72 79 73 80 74 81 75 82 76 83 52 84 53 85 62 86 54 87 55 88
REMARK SMILES IDX 61 89 63 90 56 91 57 92 58 93 59 94 60 95
REMARK H PARENT 3 10 5 13 11 23 84 45 50 56
REMARK Flexibility Score: inf
ROOT
ATOM      1  C   UNL     1      -3.329   2.644  -4.616  1.00  0.00     0.275 C 
ENDROOT
BRANCH   1   2
ATOM      2  C   UNL     1      -2.993   3.368  -3.304  1.00  0.00     0.274 C 
BRANCH   2   3
ATOM      3  O   UNL     1      -1.802   2.872  -2.658  1.00  0.00    -0.460 OA
BRANCH   3   4
ATOM      4  C   UNL     1      -2.014   1.900  -1.724  1.00  0.00     0.331 C 
ATOM      5  O   UNL     1      -3.133   1.553  -1.353  1.00  0.00    -0.250 OA
BRANCH   4   6
ATOM      6  C   UNL     1      -0.726   1.356  -1.080  1.00  0.00     0.222 C 
BRANCH   6   7
ATOM      7  C   UNL     1      -0.488   1.916   0.345  1.00  0.00     0.145 C 
ATOM      8  C   UNL     1      -1.718   2.487   1.050  1.00  0.00     0.041 C 
BRANCH   7   9
ATOM      9  O   UNL     1       0.531   2.932   0.351  1.00  0.00    -0.391 OA
ATOM     10  H   UNL     1       0.224   3.701  -0.154  1.00  0.00     0.211 HD
ENDBRANCH   7   9
ENDBRANCH   6   7
BRANCH   6  11
ATOM     11  N   UNL     1       0.443   1.522  -1.948  1.00  0.00    -0.322 N 
ATOM     12  C   UNL     1       0.924   0.481  -2.688  1.00  0.00     0.318 C 
ATOM     13  H   UNL     1       0.888   2.398  -1.998  1.00  0.00     0.166 HD
ATOM     14  O   UNL     1       0.795  -0.678  -2.296  1.00  0.00    -0.249 OA
BRANCH  12  15
ATOM     15  N   UNL     1       1.502   0.808  -3.901  1.00  0.00    -0.313 N 
ATOM     16  C   UNL     1       1.447   2.136  -4.547  1.00  0.00     0.183 C 
ATOM     17  C   UNL     1       1.933  -0.321  -4.746  1.00  0.00     0.186 C 
ATOM     18  C   UNL     1       0.903   2.145  -6.013  1.00  0.00     0.284 C 
ATOM     19  C   UNL     1       2.080   0.043  -6.231  1.00  0.00     0.204 C 
ATOM     20  N   UNL     1       0.940   0.843  -6.660  1.00  0.00    -0.330 N 
ATOM     21  C   UNL     1       1.995  -1.129  -7.192  1.00  0.00     0.073 C 
ATOM     22  C   UNL     1       0.791   0.778  -8.098  1.00  0.00     0.262 C 
ATOM     23  H   UNL     1       0.066   0.441  -6.321  1.00  0.00     0.348 HD
ATOM     24  C   UNL     1       1.589  -0.461  -8.504  1.00  0.00     0.068 C 
ENDBRANCH  12  15
ENDBRANCH   6  11
ENDBRANCH   4   6
ENDBRANCH   3   4
ENDBRANCH   2   3
ENDBRANCH   1   2
BRANCH   1  25
ATOM     25  O   UNL     1      -3.564   1.232  -4.453  1.00  0.00    -0.458 OA
BRANCH  25  26
ATOM     26  C   UNL     1      -2.428   0.503  -4.518  1.00  0.00     0.338 C 
ATOM     27  O   UNL     1      -1.305   0.961  -4.634  1.00  0.00    -0.246 OA
BRANCH  26  28
ATOM     28  C   UNL     1      -2.648  -0.931  -4.396  1.00  0.00     0.060 A 
ATOM     29  C   UNL     1      -2.601  -1.520  -3.132  1.00  0.00     0.016 A 
ATOM     30  C   UNL     1      -2.737  -1.708  -5.553  1.00  0.00     0.016 A 
ATOM     31  C   UNL     1      -2.685  -2.902  -3.018  1.00  0.00     0.010 A 
ATOM     32  C   UNL     1      -2.865  -3.091  -5.435  1.00  0.00     0.010 A 
ATOM     33  C   UNL     1      -2.864  -3.691  -4.165  1.00  0.00    -0.014 A 
BRANCH  33  34
ATOM     34  C   UNL     1      -3.254  -5.109  -4.020  1.00  0.00     0.031 A 
ATOM     35  C   UNL     1      -2.317  -6.227  -4.351  1.00  0.00     0.074 A 
ATOM     36  C   UNL     1      -4.516  -5.352  -3.616  1.00  0.00     0.049 A 
ATOM     37  N   UNL     1      -2.554  -7.514  -4.363  1.00  0.00    -0.248 NA
ATOM     38  C   UNL     1      -0.944  -5.861  -4.724  1.00  0.00     0.031 C 
ATOM     39  C   UNL     1      -5.500  -4.318  -3.277  1.00  0.00     0.029 A 
ATOM     40  N   UNL     1      -5.192  -6.527  -3.429  1.00  0.00    -0.354 N 
ATOM     41  C   UNL     1      -1.366  -8.116  -4.755  1.00  0.00     0.074 A 
ATOM     42  C   UNL     1      -0.410  -7.050  -4.982  1.00  0.00     0.031 C 
ATOM     43  C   UNL     1      -6.648  -4.905  -2.914  1.00  0.00     0.029 A 
ATOM     44  C   UNL     1      -6.498  -6.348  -3.044  1.00  0.00     0.049 A 
ATOM     45  H   UNL     1      -4.782  -7.413  -3.557  1.00  0.00     0.167 HD
ATOM     46  C   UNL     1      -1.110  -9.438  -4.909  1.00  0.00     0.037 A 
ATOM     47  C   UNL     1      -7.479  -7.245  -2.845  1.00  0.00     0.037 A 
ATOM     48  C   UNL     1      -2.081 -10.479  -4.675  1.00  0.00     0.049 A 
ATOM     49  C   UNL     1      -7.172  -8.698  -3.040  1.00  0.00     0.074 A 
ATOM     50  C   UNL     1      -1.922 -11.850  -4.783  1.00  0.00     0.029 A 
ATOM     51  N   UNL     1      -3.398 -10.263  -4.287  1.00  0.00    -0.354 N 
ATOM     52  N   UNL     1      -6.041  -9.253  -3.407  1.00  0.00    -0.248 NA
ATOM     53  C   UNL     1      -8.267  -9.644  -2.803  1.00  0.00     0.031 C 
ATOM     54  C   UNL     1      -3.149 -12.460  -4.493  1.00  0.00     0.029 A 
ATOM     55  C   UNL     1      -4.065 -11.472  -4.169  1.00  0.00     0.049 A 
ATOM     56  H   UNL     1      -3.798  -9.379  -4.119  1.00  0.00     0.167 HD
ATOM     57  C   UNL     1      -6.286 -10.618  -3.442  1.00  0.00     0.074 A 
ATOM     58  C   UNL     1      -7.668 -10.803  -3.040  1.00  0.00     0.031 C 
ATOM     59  C   UNL     1      -5.446 -11.626  -3.782  1.00  0.00     0.037 A 
BRANCH  46  60
ATOM     60  C   UNL     1       0.264  -9.838  -5.374  1.00  0.00     0.058 A 
ATOM     61  C   UNL     1       1.374  -9.798  -4.516  1.00  0.00     0.135 A 
ATOM     62  C   UNL     1       0.464 -10.315  -6.680  1.00  0.00     0.135 A 
ATOM     63  F   UNL     1       1.242  -9.343  -3.261  1.00  0.00    -0.206 F 
ATOM     64  C   UNL     1       2.638 -10.200  -4.941  1.00  0.00     0.059 A 
ATOM     65  C   UNL     1       1.715 -10.739  -7.121  1.00  0.00     0.059 A 
ATOM     66  F   UNL     1      -0.563 -10.375  -7.542  1.00  0.00    -0.206 F 
ATOM     67  C   UNL     1       2.799 -10.666  -6.248  1.00  0.00     0.060 A 
BRANCH  67  68
ATOM     68  S   UNL     1       4.441 -11.192  -6.788  1.00  0.00     0.124 S 
ATOM     69  O   UNL     1       5.104  -9.908  -6.997  1.00  0.00    -0.237 OA
ATOM     70  O   UNL     1       4.915 -11.970  -5.648  1.00  0.00    -0.237 OA
ATOM     71  O   UNL     1       4.171 -11.962  -7.998  1.00  0.00    -0.744 OA
ENDBRANCH  67  68
ENDBRANCH  46  60
BRANCH  47  72
ATOM     72  C   UNL     1      -8.829  -6.772  -2.452  1.00  0.00     0.058 A 
ATOM     73  C   UNL     1      -9.293  -6.933  -1.140  1.00  0.00     0.135 A 
ATOM     74  C   UNL     1      -9.646  -6.080  -3.360  1.00  0.00     0.135 A 
ATOM     75  F   UNL     1      -8.545  -7.587  -0.239  1.00  0.00    -0.206 F 
ATOM     76  C   UNL     1     -10.524  -6.423  -0.739  1.00  0.00     0.059 A 
ATOM     77  C   UNL     1     -10.870  -5.543  -2.977  1.00  0.00     0.059 A 
ATOM     78  F   UNL     1      -9.233  -5.882  -4.622  1.00  0.00    -0.206 F 
ATOM     79  C   UNL     1     -11.302  -5.724  -1.664  1.00  0.00     0.060 A 
BRANCH  79  80
ATOM     80  S   UNL     1     -12.861  -4.993  -1.117  1.00  0.00     0.124 S 
ATOM     81  O   UNL     1     -13.744  -6.153  -1.120  1.00  0.00    -0.237 OA
ATOM     82  O   UNL     1     -12.512  -4.460   0.196  1.00  0.00    -0.237 OA
ATOM     83  O   UNL     1     -13.134  -3.987  -2.139  1.00  0.00    -0.744 OA
ENDBRANCH  79  80
ENDBRANCH  47  72
BRANCH  59  84
ATOM     84  C   UNL     1      -6.011 -13.014  -3.726  1.00  0.00     0.058 A 
ATOM     85  C   UNL     1      -6.873 -13.490  -4.726  1.00  0.00     0.135 A 
ATOM     86  C   UNL     1      -5.682 -13.877  -2.670  1.00  0.00     0.135 A 
ATOM     87  F   UNL     1      -7.225 -12.696  -5.749  1.00  0.00    -0.206 F 
ATOM     88  C   UNL     1      -7.411 -14.771  -4.668  1.00  0.00     0.059 A 
ATOM     89  C   UNL     1      -6.194 -15.169  -2.602  1.00  0.00     0.059 A 
ATOM     90  F   UNL     1      -4.859 -13.467  -1.692  1.00  0.00    -0.206 F 
ATOM     91  C   UNL     1      -7.068 -15.601  -3.599  1.00  0.00     0.060 A 
BRANCH  91  92
ATOM     92  S   UNL     1      -7.760 -17.267  -3.538  1.00  0.00     0.124 S 
ATOM     93  O   UNL     1      -9.108 -17.007  -3.043  1.00  0.00    -0.237 OA
ATOM     94  O   UNL     1      -7.669 -17.700  -4.929  1.00  0.00    -0.237 OA
ATOM     95  O   UNL     1      -6.874 -17.967  -2.612  1.00  0.00    -0.744 OA
ENDBRANCH  91  92
ENDBRANCH  59  84
ENDBRANCH  33  34
ENDBRANCH  26  28
ENDBRANCH  25  26
ENDBRANCH   1  25
TORSDOF 18
