REMARK SMILES CC(=O)Nc1cc(NC(C)=O)cc(C(=O)Nc2ccc(Br)cc2C(=O)OCCOC(=O)c2ccc(-c3c4nc(c(-c5c(F)cc(S(=O)(=O)[O-])cc5F)c5ccc([nH]5)c(-c5c(F)cc(S(=O)(=O)[O-])cc5F)c5nc(c(-c6c(F)cc(S(=O)(=O)[O-])cc6F)c6ccc3[nH]6)C=C5)C=C4)cc2)c1
REMARK SMILES IDX 27 1 26 2 24 3 25 4 23 5 17 6 18 7 19 8 22 9 20 10 21 11
REMARK SMILES IDX 16 12 14 13 15 14 13 16 5 17 6 18 98 19 7 20 12 21 4 22 1 23
REMARK SMILES IDX 2 24 3 25 8 27 9 28 10 30 11 31 28 32 29 33 30 34 31 35
REMARK SMILES IDX 32 36 33 37 97 38 34 39 96 40 35 41 36 42 37 43 90 44 38 45
REMARK SMILES IDX 95 46 89 47 91 48 39 49 94 50 88 51 87 52 40 54 74 55 53 56
REMARK SMILES IDX 73 57 54 58 57 59 72 60 92 61 55 62 56 63 71 65 93 66 58 67
REMARK SMILES IDX 41 68 42 69 51 70 43 71 44 72 50 73 52 74 45 75 46 76 47 77
REMARK SMILES IDX 48 78 49 79 75 80 76 81 85 82 77 83 78 84 84 85 86 86 79 87
REMARK SMILES IDX 80 88 81 89 82 90 83 91 59 92 60 93 69 94 61 95 62 96 68 97
REMARK SMILES IDX 70 98 63 99 64 100 65 101 66 102 67 103
REMARK H PARENT 16 15 4 26 8 29 91 53 57 64
REMARK Flexibility Score: inf
ROOT
ATOM      1  C   UNL     1       5.320  -4.082   1.946  1.00  0.00     0.275 C 
ENDROOT
BRANCH   1   2
ATOM      2  O   UNL     1       5.478  -2.747   1.414  1.00  0.00    -0.458 OA
BRANCH   2   3
ATOM      3  C   UNL     1       4.370  -1.977   1.526  1.00  0.00     0.340 C 
ATOM      4  O   UNL     1       3.355  -2.298   2.119  1.00  0.00    -0.246 OA
BRANCH   3   5
ATOM      5  C   UNL     1       4.470  -0.684   0.815  1.00  0.00     0.084 A 
ATOM      6  C   UNL     1       4.795  -0.558  -0.544  1.00  0.00     0.056 A 
ATOM      7  C   UNL     1       4.916   0.737  -1.089  1.00  0.00     0.028 A 
ATOM      8  C   UNL     1       4.572   1.873  -0.350  1.00  0.00     0.018 A 
ATOM      9  C   UNL     1       4.129   0.469   1.546  1.00  0.00     0.033 A 
ATOM     10  C   UNL     1       4.152   1.730   0.961  1.00  0.00     0.018 A 
ATOM     11  Br  UNL     1       3.565   3.233   1.944  1.00  0.00    -0.051 Br
BRANCH   6  12
ATOM     12  N   UNL     1       4.957  -1.605  -1.475  1.00  0.00    -0.321 N 
ATOM     13  C   UNL     1       4.355  -2.839  -1.621  1.00  0.00     0.255 C 
ATOM     14  O   UNL     1       4.872  -3.658  -2.383  1.00  0.00    -0.269 OA
ATOM     15  H   UNL     1       5.639  -1.418  -2.161  1.00  0.00     0.170 HD
BRANCH  13  16
ATOM     16  C   UNL     1       3.069  -3.205  -0.961  1.00  0.00     0.044 A 
ATOM     17  C   UNL     1       1.077  -2.607   0.267  1.00  0.00     0.044 A 
ATOM     18  C   UNL     1       0.921  -3.956   0.629  1.00  0.00     0.052 A 
ATOM     19  C   UNL     1       2.102  -2.254  -0.610  1.00  0.00     0.040 A 
ATOM     20  C   UNL     1       1.797  -4.942   0.170  1.00  0.00     0.044 A 
ATOM     21  C   UNL     1       2.878  -4.555  -0.626  1.00  0.00     0.040 A 
BRANCH  17  22
ATOM     22  N   UNL     1       0.314  -1.683   1.008  1.00  0.00    -0.326 N 
ATOM     23  C   UNL     1       0.501   0.446  -0.267  1.00  0.00     0.114 C 
ATOM     24  C   UNL     1       0.209  -0.326   0.984  1.00  0.00     0.221 C 
ATOM     25  O   UNL     1      -0.166   0.257   2.003  1.00  0.00    -0.275 OA
ATOM     26  H   UNL     1      -0.264  -2.107   1.684  1.00  0.00     0.169 HD
ENDBRANCH  17  22
BRANCH  20  27
ATOM     27  N   UNL     1       1.697  -6.308   0.519  1.00  0.00    -0.326 N 
ATOM     28  C   UNL     1       0.767  -6.887   1.365  1.00  0.00     0.221 C 
ATOM     29  H   UNL     1       2.361  -6.913   0.117  1.00  0.00     0.169 HD
ATOM     30  C   UNL     1       0.924  -8.382   1.494  1.00  0.00     0.114 C 
ATOM     31  O   UNL     1      -0.130  -6.315   1.975  1.00  0.00    -0.275 OA
ENDBRANCH  20  27
ENDBRANCH  13  16
ENDBRANCH   6  12
ENDBRANCH   3   5
ENDBRANCH   2   3
ENDBRANCH   1   2
BRANCH   1  32
ATOM     32  C   UNL     1       5.778  -4.238   3.399  1.00  0.00     0.275 C 
BRANCH  32  33
ATOM     33  O   UNL     1       4.900  -3.567   4.322  1.00  0.00    -0.458 OA
BRANCH  33  34
ATOM     34  C   UNL     1       5.327  -2.343   4.702  1.00  0.00     0.338 C 
ATOM     35  O   UNL     1       6.368  -1.797   4.368  1.00  0.00    -0.246 OA
BRANCH  34  36
ATOM     36  C   UNL     1       4.324  -1.643   5.518  1.00  0.00     0.060 A 
ATOM     37  C   UNL     1       3.387  -0.875   4.843  1.00  0.00     0.016 A 
ATOM     38  C   UNL     1       4.482  -1.483   6.890  1.00  0.00     0.016 A 
ATOM     39  C   UNL     1       2.756   0.184   5.467  1.00  0.00     0.010 A 
ATOM     40  C   UNL     1       3.717  -0.515   7.559  1.00  0.00     0.010 A 
ATOM     41  C   UNL     1       2.896   0.376   6.841  1.00  0.00    -0.014 A 
BRANCH  41  42
ATOM     42  C   UNL     1       2.232   1.551   7.470  1.00  0.00     0.031 A 
ATOM     43  C   UNL     1       3.050   2.558   8.236  1.00  0.00     0.074 A 
ATOM     44  C   UNL     1       0.912   1.761   7.279  1.00  0.00     0.049 A 
ATOM     45  N   UNL     1       2.648   3.569   8.963  1.00  0.00    -0.248 NA
ATOM     46  C   UNL     1       4.513   2.401   8.195  1.00  0.00     0.031 C 
ATOM     47  C   UNL     1       0.019   0.902   6.492  1.00  0.00     0.029 A 
ATOM     48  N   UNL     1       0.092   2.776   7.702  1.00  0.00    -0.354 N 
ATOM     49  C   UNL     1       3.797   4.122   9.517  1.00  0.00     0.074 A 
ATOM     50  C   UNL     1       4.914   3.331   9.050  1.00  0.00     0.031 C 
ATOM     51  C   UNL     1      -1.198   1.458   6.434  1.00  0.00     0.029 A 
ATOM     52  C   UNL     1      -1.210   2.644   7.277  1.00  0.00     0.049 A 
ATOM     53  H   UNL     1       0.405   3.527   8.257  1.00  0.00     0.167 HD
ATOM     54  C   UNL     1       3.905   5.192  10.342  1.00  0.00     0.037 A 
ATOM     55  C   UNL     1      -2.309   3.364   7.572  1.00  0.00     0.037 A 
ATOM     56  C   UNL     1       2.785   6.006  10.744  1.00  0.00     0.049 A 
ATOM     57  C   UNL     1      -2.169   4.526   8.512  1.00  0.00     0.074 A 
ATOM     58  C   UNL     1       2.777   7.117  11.569  1.00  0.00     0.029 A 
ATOM     59  N   UNL     1       1.472   5.806  10.334  1.00  0.00    -0.354 N 
ATOM     60  N   UNL     1      -1.087   4.990   9.092  1.00  0.00    -0.248 NA
ATOM     61  C   UNL     1      -3.398   5.250   8.853  1.00  0.00     0.031 C 
ATOM     62  C   UNL     1       1.456   7.559  11.696  1.00  0.00     0.029 A 
ATOM     63  C   UNL     1       0.645   6.760  10.905  1.00  0.00     0.049 A 
ATOM     64  H   UNL     1       1.174   5.091   9.726  1.00  0.00     0.167 HD
ATOM     65  C   UNL     1      -1.504   6.067   9.864  1.00  0.00     0.074 A 
ATOM     66  C   UNL     1      -2.932   6.203   9.647  1.00  0.00     0.031 C 
ATOM     67  C   UNL     1      -0.777   6.867  10.684  1.00  0.00     0.037 A 
BRANCH  54  68
ATOM     68  C   UNL     1       5.267   5.512  10.902  1.00  0.00     0.058 A 
ATOM     69  C   UNL     1       6.308   6.026  10.113  1.00  0.00     0.135 A 
ATOM     70  C   UNL     1       5.526   5.312  12.270  1.00  0.00     0.135 A 
ATOM     71  F   UNL     1       6.127   6.218   8.797  1.00  0.00    -0.206 F 
ATOM     72  C   UNL     1       7.564   6.300  10.651  1.00  0.00     0.059 A 
ATOM     73  C   UNL     1       6.763   5.609  12.835  1.00  0.00     0.059 A 
ATOM     74  F   UNL     1       4.571   4.821  13.074  1.00  0.00    -0.206 F 
ATOM     75  C   UNL     1       7.782   6.088  12.013  1.00  0.00     0.060 A 
BRANCH  75  76
ATOM     76  S   UNL     1       9.414   6.450  12.697  1.00  0.00     0.124 S 
ATOM     77  O   UNL     1      10.210   5.358  12.146  1.00  0.00    -0.237 OA
ATOM     78  O   UNL     1       9.693   7.774  12.152  1.00  0.00    -0.237 OA
ATOM     79  O   UNL     1       9.198   6.402  14.139  1.00  0.00    -0.744 OA
ENDBRANCH  75  76
ENDBRANCH  54  68
BRANCH  55  80
ATOM     80  C   UNL     1      -3.632   2.964   7.018  1.00  0.00     0.058 A 
ATOM     81  C   UNL     1      -4.315   3.775   6.100  1.00  0.00     0.135 A 
ATOM     82  C   UNL     1      -4.232   1.745   7.379  1.00  0.00     0.135 A 
ATOM     83  F   UNL     1      -3.794   4.956   5.731  1.00  0.00    -0.206 F 
ATOM     84  C   UNL     1      -5.545   3.400   5.568  1.00  0.00     0.059 A 
ATOM     85  C   UNL     1      -5.443   1.332   6.835  1.00  0.00     0.059 A 
ATOM     86  F   UNL     1      -3.619   0.925   8.248  1.00  0.00    -0.206 F 
ATOM     87  C   UNL     1      -6.099   2.172   5.938  1.00  0.00     0.060 A 
BRANCH  87  88
ATOM     88  S   UNL     1      -7.674   1.673   5.210  1.00  0.00     0.124 S 
ATOM     89  O   UNL     1      -8.609   2.554   5.899  1.00  0.00    -0.237 OA
ATOM     90  O   UNL     1      -7.462   1.952   3.793  1.00  0.00    -0.237 OA
ATOM     91  O   UNL     1      -7.771   0.257   5.554  1.00  0.00    -0.744 OA
ENDBRANCH  87  88
ENDBRANCH  55  80
BRANCH  67  92
ATOM     92  C   UNL     1      -1.523   7.969  11.383  1.00  0.00     0.058 A 
ATOM     93  C   UNL     1      -2.442   7.702  12.410  1.00  0.00     0.135 A 
ATOM     94  C   UNL     1      -1.322   9.308  11.013  1.00  0.00     0.135 A 
ATOM     95  F   UNL     1      -2.675   6.438  12.797  1.00  0.00    -0.206 F 
ATOM     96  C   UNL     1      -3.175   8.720  13.010  1.00  0.00     0.059 A 
ATOM     97  C   UNL     1      -2.019  10.345  11.623  1.00  0.00     0.059 A 
ATOM     98  F   UNL     1      -0.444   9.620  10.046  1.00  0.00    -0.206 F 
ATOM     99  C   UNL     1      -2.961  10.038  12.604  1.00  0.00     0.060 A 
BRANCH  99 100
ATOM    100  S   UNL     1      -3.929  11.350  13.377  1.00  0.00     0.124 S 
ATOM    101  O   UNL     1      -5.233  11.160  12.750  1.00  0.00    -0.237 OA
ATOM    102  O   UNL     1      -3.851  11.005  14.793  1.00  0.00    -0.237 OA
ATOM    103  O   UNL     1      -3.220  12.567  12.995  1.00  0.00    -0.744 OA
ENDBRANCH  99 100
ENDBRANCH  67  92
ENDBRANCH  41  42
ENDBRANCH  34  36
ENDBRANCH  33  34
ENDBRANCH  32  33
ENDBRANCH   1  32
TORSDOF 18
