REMARK SMILES O=C(OCCOC(=O)[C@H]1CCCN1C(=O)Cc1csc(-c2cccs2)n1)c1ccc(-c2c3nc(c(-c4c(F)cc(S(=O)(=O)[O-])cc4F)c4ccc([nH]4)c(-c4c(F)cc(S(=O)(=O)[O-])cc4F)c4nc(c(-c5c(F)cc(S(=O)(=O)[O-])cc5F)c5ccc2[nH]5)C=C4)C=C3)cc1
REMARK SMILES IDX 5 1 4 2 3 3 2 4 1 5 27 6 28 7 92 8 29 9 91 10 30 11 31 12
REMARK SMILES IDX 32 13 85 14 33 15 90 16 84 17 86 18 34 19 89 20 83 21 82 22
REMARK SMILES IDX 35 24 69 25 48 26 68 27 49 28 52 29 67 30 87 31 50 32 51 33
REMARK SMILES IDX 66 35 88 36 53 37 36 38 37 39 46 40 38 41 39 42 45 43 47 44
REMARK SMILES IDX 40 45 41 46 42 47 43 48 44 49 70 50 71 51 80 52 72 53 73 54
REMARK SMILES IDX 79 55 81 56 74 57 75 58 76 59 77 60 78 61 54 62 55 63 64 64
REMARK SMILES IDX 56 65 57 66 63 67 65 68 58 69 59 70 60 71 61 72 62 73 6 74
REMARK SMILES IDX 7 75 8 76 9 77 10 78 13 79 11 80 12 81 14 82 15 83 16 84
REMARK SMILES IDX 17 85 18 86 26 87 19 88 20 89 21 90 22 91 25 92 23 93 24 94
REMARK H PARENT 86 23 52 34
REMARK Flexibility Score: inf
ROOT
ATOM      1  C   UNL     1      -0.554   2.641  -2.810  1.00  0.00     0.274 C 
ENDROOT
BRANCH   1   2
ATOM      2  C   UNL     1      -1.736   1.886  -2.171  1.00  0.00     0.275 C 
BRANCH   2   3
ATOM      3  O   UNL     1      -2.017   2.239  -0.827  1.00  0.00    -0.458 OA
BRANCH   3   4
ATOM      4  C   UNL     1      -1.202   1.929   0.198  1.00  0.00     0.338 C 
ATOM      5  O   UNL     1      -1.352   2.541   1.255  1.00  0.00    -0.246 OA
BRANCH   4   6
ATOM      6  C   UNL     1      -0.009   1.013   0.034  1.00  0.00     0.060 A 
ATOM      7  C   UNL     1       0.195  -0.216  -0.561  1.00  0.00     0.016 A 
ATOM      8  C   UNL     1       1.131   1.538   0.579  1.00  0.00     0.016 A 
ATOM      9  C   UNL     1       1.406  -0.971  -0.296  1.00  0.00     0.010 A 
ATOM     10  C   UNL     1       2.373   0.867   0.701  1.00  0.00     0.010 A 
ATOM     11  C   UNL     1       2.459  -0.481   0.501  1.00  0.00    -0.014 A 
BRANCH  11  12
ATOM     12  C   UNL     1       3.714  -1.168   0.981  1.00  0.00     0.031 A 
ATOM     13  C   UNL     1       4.107  -1.569   2.435  1.00  0.00     0.074 A 
ATOM     14  C   UNL     1       4.731  -1.193   0.105  1.00  0.00     0.049 A 
ATOM     15  N   UNL     1       4.998  -2.453   2.860  1.00  0.00    -0.248 NA
ATOM     16  C   UNL     1       3.522  -0.856   3.565  1.00  0.00     0.031 C 
ATOM     17  C   UNL     1       4.714  -0.598  -1.231  1.00  0.00     0.029 A 
ATOM     18  N   UNL     1       5.978  -1.740   0.228  1.00  0.00    -0.354 N 
ATOM     19  C   UNL     1       4.941  -2.452   4.268  1.00  0.00     0.074 A 
ATOM     20  C   UNL     1       4.037  -1.418   4.650  1.00  0.00     0.031 C 
ATOM     21  C   UNL     1       5.870  -0.891  -1.841  1.00  0.00     0.029 A 
ATOM     22  C   UNL     1       6.686  -1.706  -0.942  1.00  0.00     0.049 A 
ATOM     23  H   UNL     1       6.328  -2.118   1.067  1.00  0.00     0.167 HD
ATOM     24  C   UNL     1       5.582  -3.200   5.206  1.00  0.00     0.037 A 
ATOM     25  C   UNL     1       7.825  -2.332  -1.280  1.00  0.00     0.037 A 
ATOM     26  C   UNL     1       6.686  -4.050   4.891  1.00  0.00     0.049 A 
ATOM     27  C   UNL     1       8.502  -3.260  -0.311  1.00  0.00     0.074 A 
ATOM     28  C   UNL     1       7.402  -4.907   5.706  1.00  0.00     0.029 A 
ATOM     29  N   UNL     1       7.293  -4.058   3.651  1.00  0.00    -0.354 N 
ATOM     30  N   UNL     1       8.200  -3.538   0.934  1.00  0.00    -0.248 NA
ATOM     31  C   UNL     1       9.668  -3.992  -0.824  1.00  0.00     0.031 C 
ATOM     32  C   UNL     1       8.488  -5.389   4.964  1.00  0.00     0.029 A 
ATOM     33  C   UNL     1       8.396  -4.880   3.677  1.00  0.00     0.049 A 
ATOM     34  H   UNL     1       6.983  -3.551   2.865  1.00  0.00     0.167 HD
ATOM     35  C   UNL     1       9.119  -4.505   1.341  1.00  0.00     0.074 A 
ATOM     36  C   UNL     1       9.980  -4.763   0.208  1.00  0.00     0.031 C 
ATOM     37  C   UNL     1       9.236  -5.130   2.538  1.00  0.00     0.037 A 
BRANCH  24  38
ATOM     38  C   UNL     1       5.097  -3.118   6.644  1.00  0.00     0.058 A 
ATOM     39  C   UNL     1       3.803  -3.559   6.981  1.00  0.00     0.135 A 
ATOM     40  C   UNL     1       5.891  -2.614   7.689  1.00  0.00     0.135 A 
ATOM     41  F   UNL     1       2.995  -4.064   6.034  1.00  0.00    -0.206 F 
ATOM     42  C   UNL     1       3.296  -3.447   8.273  1.00  0.00     0.059 A 
ATOM     43  C   UNL     1       5.412  -2.515   8.999  1.00  0.00     0.059 A 
ATOM     44  F   UNL     1       7.142  -2.190   7.448  1.00  0.00    -0.206 F 
ATOM     45  C   UNL     1       4.102  -2.909   9.275  1.00  0.00     0.060 A 
BRANCH  45  46
ATOM     46  S   UNL     1       3.399  -2.714  10.930  1.00  0.00     0.124 S 
ATOM     47  O   UNL     1       2.480  -1.599  10.727  1.00  0.00    -0.237 OA
ATOM     48  O   UNL     1       2.775  -4.012  11.162  1.00  0.00    -0.237 OA
ATOM     49  O   UNL     1       4.563  -2.424  11.764  1.00  0.00    -0.744 OA
ENDBRANCH  45  46
ENDBRANCH  24  38
BRANCH  25  50
ATOM     50  C   UNL     1       8.284  -2.218  -2.682  1.00  0.00     0.058 A 
ATOM     51  C   UNL     1       8.070  -3.274  -3.579  1.00  0.00     0.135 A 
ATOM     52  C   UNL     1       8.861  -1.037  -3.166  1.00  0.00     0.135 A 
ATOM     53  F   UNL     1       7.499  -4.412  -3.155  1.00  0.00    -0.206 F 
ATOM     54  C   UNL     1       8.439  -3.173  -4.912  1.00  0.00     0.059 A 
ATOM     55  C   UNL     1       9.215  -0.904  -4.502  1.00  0.00     0.059 A 
ATOM     56  F   UNL     1       9.033   0.013  -2.348  1.00  0.00    -0.206 F 
ATOM     57  C   UNL     1       9.008  -1.981  -5.364  1.00  0.00     0.060 A 
BRANCH  57  58
ATOM     58  S   UNL     1       9.422  -1.842  -7.113  1.00  0.00     0.124 S 
ATOM     59  O   UNL     1      10.582  -2.720  -7.209  1.00  0.00    -0.237 OA
ATOM     60  O   UNL     1       8.201  -2.320  -7.754  1.00  0.00    -0.237 OA
ATOM     61  O   UNL     1       9.692  -0.417  -7.280  1.00  0.00    -0.744 OA
ENDBRANCH  57  58
ENDBRANCH  25  50
BRANCH  37  62
ATOM     62  C   UNL     1      10.293  -6.178   2.701  1.00  0.00     0.058 A 
ATOM     63  C   UNL     1      11.653  -5.850   2.795  1.00  0.00     0.135 A 
ATOM     64  C   UNL     1       9.921  -7.520   2.885  1.00  0.00     0.135 A 
ATOM     65  F   UNL     1      12.056  -4.580   2.632  1.00  0.00    -0.206 F 
ATOM     66  C   UNL     1      12.612  -6.822   3.051  1.00  0.00     0.059 A 
ATOM     67  C   UNL     1      10.859  -8.502   3.172  1.00  0.00     0.059 A 
ATOM     68  F   UNL     1       8.628  -7.879   2.823  1.00  0.00    -0.206 F 
ATOM     69  C   UNL     1      12.204  -8.144   3.245  1.00  0.00     0.060 A 
BRANCH  69  70
ATOM     70  S   UNL     1      13.453  -9.387   3.632  1.00  0.00     0.124 S 
ATOM     71  O   UNL     1      14.098  -9.566   2.336  1.00  0.00    -0.237 OA
ATOM     72  O   UNL     1      14.253  -8.718   4.653  1.00  0.00    -0.237 OA
ATOM     73  O   UNL     1      12.666 -10.523   4.105  1.00  0.00    -0.744 OA
ENDBRANCH  69  70
ENDBRANCH  37  62
ENDBRANCH  11  12
ENDBRANCH   4   6
ENDBRANCH   3   4
ENDBRANCH   2   3
ENDBRANCH   1   2
BRANCH   1  74
ATOM     74  O   UNL     1       0.701   2.647  -2.072  1.00  0.00    -0.461 OA
BRANCH  74  75
ATOM     75  C   UNL     1       1.017   3.752  -1.306  1.00  0.00     0.328 C 
ATOM     76  O   UNL     1       0.305   4.745  -1.241  1.00  0.00    -0.250 OA
BRANCH  75  77
ATOM     77  C   UNL     1       2.444   3.612  -0.604  1.00  0.00     0.195 C 
ATOM     78  C   UNL     1       3.362   4.512  -1.455  1.00  0.00     0.039 C 
ATOM     79  N   UNL     1       2.676   4.120   0.883  1.00  0.00    -0.329 N 
ATOM     80  C   UNL     1       3.251   5.837  -0.743  1.00  0.00     0.024 C 
ATOM     81  C   UNL     1       3.317   5.440   0.723  1.00  0.00     0.120 C 
BRANCH  79  82
ATOM     82  C   UNL     1       2.580   3.733   2.273  1.00  0.00     0.229 C 
ATOM     83  O   UNL     1       3.040   4.606   3.058  1.00  0.00    -0.274 OA
BRANCH  82  84
ATOM     84  C   UNL     1       2.269   2.370   3.126  1.00  0.00     0.157 C 
BRANCH  84  85
ATOM     85  C   UNL     1       0.976   1.410   3.283  1.00  0.00     0.061 A 
ATOM     86  C   UNL     1      -0.208   1.618   3.959  1.00  0.00     0.091 A 
ATOM     87  N   UNL     1       1.025   0.026   2.865  1.00  0.00    -0.240 NA
ATOM     88  S   UNL     1      -1.262   0.224   3.883  1.00  0.00    -0.121 S 
ATOM     89  C   UNL     1      -0.080  -0.682   3.035  1.00  0.00     0.133 A 
BRANCH  89  90
ATOM     90  C   UNL     1      -0.295  -2.035   2.482  1.00  0.00     0.063 A 
ATOM     91  C   UNL     1       0.268  -3.260   2.836  1.00  0.00     0.023 A 
ATOM     92  S   UNL     1      -1.415  -2.321   1.182  1.00  0.00    -0.141 S 
ATOM     93  C   UNL     1      -0.046  -4.332   1.922  1.00  0.00     0.012 A 
ATOM     94  C   UNL     1      -0.817  -3.897   0.870  1.00  0.00     0.065 A 
ENDBRANCH  89  90
ENDBRANCH  84  85
ENDBRANCH  82  84
ENDBRANCH  79  82
ENDBRANCH  75  77
ENDBRANCH  74  75
ENDBRANCH   1  74
TORSDOF 18
