REMARK SMILES Cc1n[nH]c2c1[C@@]1(C(=O)N([C@@H](C)C(=O)OCCOC(=O)c3ccc(-c4c5nc(c(-c6c(F)cc(S(=O)(=O)[O-])cc6F)c6ccc([nH]6)c(-c6c(F)cc(S(=O)(=O)[O-])cc6F)c6nc(c(-c7c(F)cc(S(=O)(=O)[O-])cc7F)c7ccc4[nH]7)C=C6)C=C5)cc3)c3ccccc31)C(C#N)=C(N)O2
REMARK SMILES IDX 17 1 16 2 15 3 13 4 14 5 11 6 12 7 10 8 1 9 2 10 3 11 6 12
REMARK SMILES IDX 4 13 5 14 7 15 98 17 8 18 92 19 93 20 96 21 9 22 87 23 91 24
REMARK SMILES IDX 88 25 90 26 89 27 94 28 95 29 97 30 18 33 19 34 20 35 21 36
REMARK SMILES IDX 22 37 86 38 23 39 85 40 24 41 25 42 26 43 79 44 27 45 84 46
REMARK SMILES IDX 78 47 80 48 28 49 83 50 77 51 76 52 29 54 63 55 42 56 62 57
REMARK SMILES IDX 43 58 46 59 61 60 81 61 44 62 45 63 60 65 82 66 47 67 30 68
REMARK SMILES IDX 31 69 40 70 32 71 33 72 39 73 41 74 34 75 35 76 36 77 37 78
REMARK SMILES IDX 38 79 64 80 65 81 74 82 66 83 67 84 73 85 75 86 68 87 69 88
REMARK SMILES IDX 70 89 71 90 72 91 48 92 49 93 58 94 50 95 51 96 57 97 59 98
REMARK SMILES IDX 52 99 53 100 54 101 55 102 56 103
REMARK H PARENT 4 16 97 31 97 32 80 53 46 64
REMARK Flexibility Score: inf
ROOT
ATOM      1  C   UNL     1       6.654   3.450   4.184  1.00  0.00     0.275 C 
ENDROOT
BRANCH   1   2
ATOM      2  C   UNL     1       6.589   2.786   2.806  1.00  0.00     0.274 C 
BRANCH   2   3
ATOM      3  O   UNL     1       5.342   2.066   2.650  1.00  0.00    -0.461 OA
BRANCH   3   4
ATOM      4  C   UNL     1       5.426   0.739   2.345  1.00  0.00     0.329 C 
ATOM      5  O   UNL     1       6.479   0.111   2.326  1.00  0.00    -0.250 OA
BRANCH   4   6
ATOM      6  C   UNL     1       4.060   0.090   1.983  1.00  0.00     0.197 C 
ATOM      7  C   UNL     1       4.177  -0.554   0.601  1.00  0.00     0.044 C 
BRANCH   6   8
ATOM      8  N   UNL     1       2.898   0.960   2.081  1.00  0.00    -0.297 N 
ATOM      9  C   UNL     1       0.601  -0.017  -0.317  1.00  0.00     0.069 C 
ATOM     10  C   UNL     1       0.179   1.405  -0.408  1.00  0.00     0.068 A 
ATOM     11  N   UNL     1      -0.645   1.791  -1.396  1.00  0.00    -0.177 NA
ATOM     12  C   UNL     1       0.552   2.508   0.406  1.00  0.00     0.063 A 
ATOM     13  N   UNL     1      -0.768   3.121  -1.230  1.00  0.00    -0.246 N 
ATOM     14  C   UNL     1      -0.072   3.583  -0.162  1.00  0.00     0.222 A 
ATOM     15  C   UNL     1       1.454   2.727   1.577  1.00  0.00     0.149 C 
ATOM     16  H   UNL     1      -1.306   3.697  -1.821  1.00  0.00     0.193 HD
ATOM     17  O   UNL     1       0.011   4.851   0.212  1.00  0.00    -0.422 OA
ATOM     18  C   UNL     1       2.810   2.107   1.281  1.00  0.00     0.248 C 
ATOM     19  C   UNL     1       0.890   1.897   2.679  1.00  0.00     0.002 A 
ATOM     20  C   UNL     1       1.581   4.164   1.953  1.00  0.00     0.114 C 
ATOM     21  C   UNL     1       0.886   5.136   1.279  1.00  0.00     0.208 C 
ATOM     22  O   UNL     1       3.630   2.519   0.473  1.00  0.00    -0.273 OA
ATOM     23  C   UNL     1       1.736   0.811   2.883  1.00  0.00     0.050 A 
ATOM     24  C   UNL     1      -0.278   2.108   3.411  1.00  0.00     0.008 A 
ATOM     25  C   UNL     1       1.315  -0.175   3.745  1.00  0.00     0.027 A 
ATOM     26  C   UNL     1      -0.612   1.184   4.386  1.00  0.00     0.001 A 
ATOM     27  C   UNL     1       0.172   0.037   4.540  1.00  0.00     0.002 A 
BRANCH  20  28
ATOM     28  C   UNL     1       2.546   4.656   3.019  1.00  0.00     0.102 C 
ATOM     29  N   UNL     1       3.346   5.064   3.904  1.00  0.00    -0.193 NA
ENDBRANCH  20  28
BRANCH  21  30
ATOM     30  N   UNL     1       0.952   6.477   1.529  1.00  0.00    -0.369 N 
ATOM     31  H   UNL     1       1.528   6.815   2.252  1.00  0.00     0.159 HD
ATOM     32  H   UNL     1       0.423   7.106   0.987  1.00  0.00     0.159 HD
ENDBRANCH  21  30
ENDBRANCH   6   8
ENDBRANCH   4   6
ENDBRANCH   3   4
ENDBRANCH   2   3
ENDBRANCH   1   2
BRANCH   1  33
ATOM     33  O   UNL     1       6.769   2.424   5.181  1.00  0.00    -0.458 OA
BRANCH  33  34
ATOM     34  C   UNL     1       5.616   2.100   5.808  1.00  0.00     0.338 C 
ATOM     35  O   UNL     1       4.667   2.836   6.044  1.00  0.00    -0.246 OA
BRANCH  34  36
ATOM     36  C   UNL     1       5.533   0.628   5.809  1.00  0.00     0.060 A 
ATOM     37  C   UNL     1       6.649  -0.204   5.950  1.00  0.00     0.016 A 
ATOM     38  C   UNL     1       4.309   0.093   5.436  1.00  0.00     0.016 A 
ATOM     39  C   UNL     1       6.573  -1.543   5.546  1.00  0.00     0.010 A 
ATOM     40  C   UNL     1       4.258  -1.232   5.039  1.00  0.00     0.010 A 
ATOM     41  C   UNL     1       5.395  -2.031   4.982  1.00  0.00    -0.014 A 
BRANCH  41  42
ATOM     42  C   UNL     1       5.191  -3.440   4.624  1.00  0.00     0.031 A 
ATOM     43  C   UNL     1       4.730  -4.209   5.801  1.00  0.00     0.074 A 
ATOM     44  C   UNL     1       5.186  -4.044   3.412  1.00  0.00     0.049 A 
ATOM     45  N   UNL     1       5.495  -4.875   6.595  1.00  0.00    -0.248 NA
ATOM     46  C   UNL     1       3.352  -4.042   6.290  1.00  0.00     0.031 C 
ATOM     47  C   UNL     1       5.330  -3.471   2.080  1.00  0.00     0.029 A 
ATOM     48  N   UNL     1       4.998  -5.372   3.131  1.00  0.00    -0.354 N 
ATOM     49  C   UNL     1       4.653  -5.412   7.551  1.00  0.00     0.074 A 
ATOM     50  C   UNL     1       3.426  -4.666   7.468  1.00  0.00     0.031 C 
ATOM     51  C   UNL     1       5.016  -4.394   1.132  1.00  0.00     0.029 A 
ATOM     52  C   UNL     1       4.827  -5.684   1.779  1.00  0.00     0.049 A 
ATOM     53  H   UNL     1       4.985  -6.061   3.834  1.00  0.00     0.167 HD
ATOM     54  C   UNL     1       4.943  -6.600   8.143  1.00  0.00     0.037 A 
ATOM     55  C   UNL     1       4.617  -6.919   1.235  1.00  0.00     0.037 A 
ATOM     56  C   UNL     1       6.295  -7.013   7.841  1.00  0.00     0.049 A 
ATOM     57  C   UNL     1       5.150  -7.904   2.212  1.00  0.00     0.074 A 
ATOM     58  C   UNL     1       7.544  -6.454   8.036  1.00  0.00     0.029 A 
ATOM     59  N   UNL     1       6.461  -7.968   6.866  1.00  0.00    -0.354 N 
ATOM     60  N   UNL     1       6.417  -8.027   2.498  1.00  0.00    -0.248 NA
ATOM     61  C   UNL     1       4.230  -8.432   3.204  1.00  0.00     0.031 C 
ATOM     62  C   UNL     1       8.278  -6.760   6.852  1.00  0.00     0.029 A 
ATOM     63  C   UNL     1       7.467  -7.546   6.032  1.00  0.00     0.049 A 
ATOM     64  H   UNL     1       5.950  -8.806   6.781  1.00  0.00     0.167 HD
ATOM     65  C   UNL     1       6.448  -8.224   3.869  1.00  0.00     0.074 A 
ATOM     66  C   UNL     1       5.069  -8.543   4.237  1.00  0.00     0.031 C 
ATOM     67  C   UNL     1       7.524  -7.837   4.615  1.00  0.00     0.037 A 
BRANCH  54  68
ATOM     68  C   UNL     1       3.909  -7.551   8.679  1.00  0.00     0.058 A 
ATOM     69  C   UNL     1       4.332  -8.630   9.477  1.00  0.00     0.135 A 
ATOM     70  C   UNL     1       2.565  -7.596   8.246  1.00  0.00     0.135 A 
ATOM     71  F   UNL     1       5.595  -8.691   9.930  1.00  0.00    -0.206 F 
ATOM     72  C   UNL     1       3.499  -9.706   9.773  1.00  0.00     0.059 A 
ATOM     73  C   UNL     1       1.699  -8.628   8.582  1.00  0.00     0.059 A 
ATOM     74  F   UNL     1       2.051  -6.699   7.396  1.00  0.00    -0.206 F 
ATOM     75  C   UNL     1       2.186  -9.698   9.311  1.00  0.00     0.060 A 
BRANCH  75  76
ATOM     76  S   UNL     1       1.140 -11.129   9.614  1.00  0.00     0.124 S 
ATOM     77  O   UNL     1       1.801 -12.147   8.805  1.00  0.00    -0.237 OA
ATOM     78  O   UNL     1       1.255 -11.283  11.060  1.00  0.00    -0.237 OA
ATOM     79  O   UNL     1      -0.170 -10.694   9.137  1.00  0.00    -0.744 OA
ENDBRANCH  75  76
ENDBRANCH  54  68
BRANCH  55  80
ATOM     80  C   UNL     1       3.736  -7.359   0.107  1.00  0.00     0.058 A 
ATOM     81  C   UNL     1       3.772  -8.684  -0.385  1.00  0.00     0.135 A 
ATOM     82  C   UNL     1       2.618  -6.598  -0.279  1.00  0.00     0.135 A 
ATOM     83  F   UNL     1       4.792  -9.496  -0.066  1.00  0.00    -0.206 F 
ATOM     84  C   UNL     1       2.731  -9.239  -1.145  1.00  0.00     0.059 A 
ATOM     85  C   UNL     1       1.568  -7.129  -1.038  1.00  0.00     0.059 A 
ATOM     86  F   UNL     1       2.466  -5.339   0.158  1.00  0.00    -0.206 F 
ATOM     87  C   UNL     1       1.615  -8.460  -1.442  1.00  0.00     0.060 A 
BRANCH  87  88
ATOM     88  S   UNL     1       0.180  -9.226  -2.245  1.00  0.00     0.124 S 
ATOM     89  O   UNL     1       0.698  -9.526  -3.575  1.00  0.00    -0.237 OA
ATOM     90  O   UNL     1      -0.077 -10.377  -1.387  1.00  0.00    -0.237 OA
ATOM     91  O   UNL     1      -0.835  -8.177  -2.193  1.00  0.00    -0.744 OA
ENDBRANCH  87  88
ENDBRANCH  55  80
BRANCH  67  92
ATOM     92  C   UNL     1       8.807  -7.483   3.901  1.00  0.00     0.058 A 
ATOM     93  C   UNL     1       8.963  -6.403   3.011  1.00  0.00     0.135 A 
ATOM     94  C   UNL     1       9.969  -8.180   4.265  1.00  0.00     0.135 A 
ATOM     95  F   UNL     1       7.923  -5.628   2.676  1.00  0.00    -0.206 F 
ATOM     96  C   UNL     1      10.214  -6.052   2.492  1.00  0.00     0.059 A 
ATOM     97  C   UNL     1      11.228  -7.829   3.785  1.00  0.00     0.059 A 
ATOM     98  F   UNL     1       9.897  -9.191   5.147  1.00  0.00    -0.206 F 
ATOM     99  C   UNL     1      11.343  -6.767   2.892  1.00  0.00     0.060 A 
BRANCH  99 100
ATOM    100  S   UNL     1      12.970  -6.262   2.289  1.00  0.00     0.124 S 
ATOM    101  O   UNL     1      12.891  -6.595   0.871  1.00  0.00    -0.237 OA
ATOM    102  O   UNL     1      12.995  -4.836   2.606  1.00  0.00    -0.237 OA
ATOM    103  O   UNL     1      13.894  -7.080   3.071  1.00  0.00    -0.744 OA
ENDBRANCH  99 100
ENDBRANCH  67  92
ENDBRANCH  41  42
ENDBRANCH  34  36
ENDBRANCH  33  34
ENDBRANCH   1  33
TORSDOF 17
