REMARK SMILES CCC(CC)(C[C@H](O)COC)C(=O)OCCOC(=O)c1ccc(-c2c3nc(c(-c4c(F)cc(S(=O)(=O)[O-])cc4F)c4ccc([nH]4)c(-c4c(F)cc(S(=O)(=O)[O-])cc4F)c4nc(c(-c5c(F)cc(S(=O)(=O)[O-])cc5F)c5ccc2[nH]5)C=C4)C=C3)cc1
REMARK SMILES IDX 15 1 14 2 12 3 13 4 3 5 2 6 1 7 4 8 5 9 6 10 7 11 9 12 10 13
REMARK SMILES IDX 11 14 8 15 16 17 17 18 18 19 19 20 20 21 21 22 85 23 22 24
REMARK SMILES IDX 84 25 23 26 24 27 25 28 78 29 26 30 83 31 77 32 79 33 27 34
REMARK SMILES IDX 82 35 76 36 75 37 28 39 62 40 41 41 61 42 42 43 45 44 60 45
REMARK SMILES IDX 80 46 43 47 44 48 59 50 81 51 46 52 29 53 30 54 39 55 31 56
REMARK SMILES IDX 32 57 38 58 40 59 33 60 34 61 35 62 36 63 37 64 63 65 64 66
REMARK SMILES IDX 73 67 65 68 66 69 72 70 74 71 67 72 68 73 69 74 70 75 71 76
REMARK SMILES IDX 47 77 48 78 57 79 49 80 50 81 56 82 58 83 51 84 52 85 53 86
REMARK SMILES IDX 54 87 55 88
REMARK H PARENT 8 16 79 38 45 49
REMARK Flexibility Score: inf
ROOT
ATOM      1  C   UNL     1       2.463   8.200  -2.013  1.00  0.00     0.274 C 
ENDROOT
BRANCH   1   2
ATOM      2  O   UNL     1       2.709   6.777  -2.015  1.00  0.00    -0.462 OA
BRANCH   2   3
ATOM      3  C   UNL     1       3.195   6.254  -0.855  1.00  0.00     0.312 C 
ATOM      4  O   UNL     1       3.414   6.919   0.149  1.00  0.00    -0.252 OA
BRANCH   3   5
ATOM      5  C   UNL     1       3.556   4.756  -0.980  1.00  0.00     0.070 C 
BRANCH   5   6
ATOM      6  C   UNL     1       3.060   3.965   0.268  1.00  0.00     0.015 C 
ATOM      7  C   UNL     1       3.709   4.293   1.612  1.00  0.00     0.005 C 
ENDBRANCH   5   6
BRANCH   5   8
ATOM      8  C   UNL     1       5.110   4.753  -1.103  1.00  0.00     0.015 C 
ATOM      9  C   UNL     1       5.785   3.388  -1.092  1.00  0.00     0.005 C 
ENDBRANCH   5   8
BRANCH   5  10
ATOM     10  C   UNL     1       2.941   4.120  -2.274  1.00  0.00     0.053 C 
BRANCH  10  11
ATOM     11  C   UNL     1       1.399   4.023  -2.311  1.00  0.00     0.141 C 
BRANCH  11  12
ATOM     12  C   UNL     1       0.833   4.507  -3.662  1.00  0.00     0.191 C 
BRANCH  12  13
ATOM     13  O   UNL     1      -0.568   4.796  -3.614  1.00  0.00    -0.382 OA
ATOM     14  C   UNL     1      -1.395   3.643  -3.556  1.00  0.00     0.195 C 
ENDBRANCH  12  13
ENDBRANCH  11  12
BRANCH  11  15
ATOM     15  O   UNL     1       1.060   2.637  -2.149  1.00  0.00    -0.391 OA
ATOM     16  H   UNL     1       1.455   2.122  -2.870  1.00  0.00     0.211 HD
ENDBRANCH  11  15
ENDBRANCH  10  11
ENDBRANCH   5  10
ENDBRANCH   3   5
ENDBRANCH   2   3
ENDBRANCH   1   2
BRANCH   1  17
ATOM     17  C   UNL     1       0.992   8.496  -1.745  1.00  0.00     0.275 C 
BRANCH  17  18
ATOM     18  O   UNL     1       0.636   7.975  -0.456  1.00  0.00    -0.458 OA
BRANCH  18  19
ATOM     19  C   UNL     1      -0.565   7.355  -0.393  1.00  0.00     0.338 C 
ATOM     20  O   UNL     1      -1.395   7.277  -1.280  1.00  0.00    -0.246 OA
BRANCH  19  21
ATOM     21  C   UNL     1      -0.766   6.776   0.950  1.00  0.00     0.060 A 
ATOM     22  C   UNL     1       0.268   6.123   1.622  1.00  0.00     0.016 A 
ATOM     23  C   UNL     1      -2.045   6.813   1.506  1.00  0.00     0.016 A 
ATOM     24  C   UNL     1       0.007   5.437   2.808  1.00  0.00     0.010 A 
ATOM     25  C   UNL     1      -2.286   6.198   2.736  1.00  0.00     0.010 A 
ATOM     26  C   UNL     1      -1.272   5.475   3.384  1.00  0.00    -0.014 A 
BRANCH  26  27
ATOM     27  C   UNL     1      -1.562   4.749   4.648  1.00  0.00     0.031 A 
ATOM     28  C   UNL     1      -2.601   3.659   4.673  1.00  0.00     0.074 A 
ATOM     29  C   UNL     1      -0.904   5.071   5.779  1.00  0.00     0.049 A 
ATOM     30  N   UNL     1      -3.129   3.044   5.700  1.00  0.00    -0.248 NA
ATOM     31  C   UNL     1      -3.123   3.208   3.373  1.00  0.00     0.031 C 
ATOM     32  C   UNL     1       0.146   6.085   5.889  1.00  0.00     0.029 A 
ATOM     33  N   UNL     1      -1.019   4.574   7.053  1.00  0.00    -0.354 N 
ATOM     34  C   UNL     1      -4.083   2.179   5.178  1.00  0.00     0.074 A 
ATOM     35  C   UNL     1      -4.052   2.335   3.739  1.00  0.00     0.031 C 
ATOM     36  C   UNL     1       0.604   6.111   7.150  1.00  0.00     0.029 A 
ATOM     37  C   UNL     1      -0.172   5.173   7.954  1.00  0.00     0.049 A 
ATOM     38  H   UNL     1      -1.649   3.858   7.298  1.00  0.00     0.167 HD
ATOM     39  C   UNL     1      -4.915   1.340   5.840  1.00  0.00     0.037 A 
ATOM     40  C   UNL     1      -0.055   5.016   9.287  1.00  0.00     0.037 A 
ATOM     41  C   UNL     1      -4.911   1.156   7.269  1.00  0.00     0.049 A 
ATOM     42  C   UNL     1      -0.977   4.072   9.999  1.00  0.00     0.074 A 
ATOM     43  C   UNL     1      -5.724   0.340   8.037  1.00  0.00     0.029 A 
ATOM     44  N   UNL     1      -4.037   1.784   8.143  1.00  0.00    -0.354 N 
ATOM     45  N   UNL     1      -1.930   3.322   9.498  1.00  0.00    -0.248 NA
ATOM     46  C   UNL     1      -0.830   3.972  11.457  1.00  0.00     0.031 C 
ATOM     47  C   UNL     1      -5.350   0.485   9.378  1.00  0.00     0.029 A 
ATOM     48  C   UNL     1      -4.289   1.374   9.441  1.00  0.00     0.049 A 
ATOM     49  H   UNL     1      -3.340   2.426   7.879  1.00  0.00     0.167 HD
ATOM     50  C   UNL     1      -2.507   2.672  10.582  1.00  0.00     0.074 A 
ATOM     51  C   UNL     1      -1.776   3.094  11.761  1.00  0.00     0.031 C 
ATOM     52  C   UNL     1      -3.557   1.816  10.600  1.00  0.00     0.037 A 
BRANCH  39  53
ATOM     53  C   UNL     1      -5.927   0.583   5.029  1.00  0.00     0.058 A 
ATOM     54  C   UNL     1      -5.580  -0.557   4.290  1.00  0.00     0.135 A 
ATOM     55  C   UNL     1      -7.270   0.991   5.018  1.00  0.00     0.135 A 
ATOM     56  F   UNL     1      -4.306  -0.977   4.253  1.00  0.00    -0.206 F 
ATOM     57  C   UNL     1      -6.530  -1.260   3.553  1.00  0.00     0.059 A 
ATOM     58  C   UNL     1      -8.239   0.296   4.300  1.00  0.00     0.059 A 
ATOM     59  F   UNL     1      -7.651   2.079   5.705  1.00  0.00    -0.206 F 
ATOM     60  C   UNL     1      -7.856  -0.822   3.560  1.00  0.00     0.060 A 
BRANCH  60  61
ATOM     61  S   UNL     1      -9.084  -1.740   2.605  1.00  0.00     0.124 S 
ATOM     62  O   UNL     1      -8.832  -1.243   1.256  1.00  0.00    -0.237 OA
ATOM     63  O   UNL     1      -8.704  -3.128   2.849  1.00  0.00    -0.237 OA
ATOM     64  O   UNL     1     -10.351  -1.329   3.201  1.00  0.00    -0.744 OA
ENDBRANCH  60  61
ENDBRANCH  39  53
BRANCH  40  65
ATOM     65  C   UNL     1       0.956   5.812  10.028  1.00  0.00     0.058 A 
ATOM     66  C   UNL     1       2.136   5.219  10.495  1.00  0.00     0.135 A 
ATOM     67  C   UNL     1       0.789   7.192  10.223  1.00  0.00     0.135 A 
ATOM     68  F   UNL     1       2.333   3.901  10.338  1.00  0.00    -0.206 F 
ATOM     69  C   UNL     1       3.126   5.969  11.122  1.00  0.00     0.059 A 
ATOM     70  C   UNL     1       1.773   7.965  10.828  1.00  0.00     0.059 A 
ATOM     71  F   UNL     1      -0.320   7.804   9.780  1.00  0.00    -0.206 F 
ATOM     72  C   UNL     1       2.938   7.344  11.277  1.00  0.00     0.060 A 
BRANCH  72  73
ATOM     73  S   UNL     1       4.264   8.339  11.995  1.00  0.00     0.124 S 
ATOM     74  O   UNL     1       4.007   8.182  13.422  1.00  0.00    -0.237 OA
ATOM     75  O   UNL     1       5.464   7.681  11.486  1.00  0.00    -0.237 OA
ATOM     76  O   UNL     1       4.011   9.668  11.447  1.00  0.00    -0.744 OA
ENDBRANCH  72  73
ENDBRANCH  40  65
BRANCH  52  77
ATOM     77  C   UNL     1      -3.976   1.289  11.940  1.00  0.00     0.058 A 
ATOM     78  C   UNL     1      -4.754   2.065  12.812  1.00  0.00     0.135 A 
ATOM     79  C   UNL     1      -3.614  -0.003  12.347  1.00  0.00     0.135 A 
ATOM     80  F   UNL     1      -5.117   3.310  12.467  1.00  0.00    -0.206 F 
ATOM     81  C   UNL     1      -5.144   1.583  14.057  1.00  0.00     0.059 A 
ATOM     82  C   UNL     1      -4.005  -0.510  13.582  1.00  0.00     0.059 A 
ATOM     83  F   UNL     1      -2.874  -0.783  11.543  1.00  0.00    -0.206 F 
ATOM     84  C   UNL     1      -4.758   0.296  14.435  1.00  0.00     0.060 A 
BRANCH  84  85
ATOM     85  S   UNL     1      -5.276  -0.332  16.047  1.00  0.00     0.124 S 
ATOM     86  O   UNL     1      -4.283   0.274  16.929  1.00  0.00    -0.237 OA
ATOM     87  O   UNL     1      -6.634   0.188  16.171  1.00  0.00    -0.237 OA
ATOM     88  O   UNL     1      -5.179  -1.780  15.890  1.00  0.00    -0.744 OA
ENDBRANCH  84  85
ENDBRANCH  52  77
ENDBRANCH  26  27
ENDBRANCH  19  21
ENDBRANCH  18  19
ENDBRANCH  17  18
ENDBRANCH   1  17
TORSDOF 21
