REMARK SMILES C[C@H]1[C@H](C(=O)OCCOC(=O)c2ccc(-c3c4nc(c(-c5c(F)cc(S(=O)(=O)[O-])cc5F)c5ccc([nH]5)c(-c5c(F)cc(S(=O)(=O)[O-])cc5F)c5nc(c(-c6c(F)cc(S(=O)(=O)[O-])cc6F)c6ccc3[nH]6)C=C5)C=C4)cc2)CCN1C(=O)NCc1ccncc1
REMARK SMILES IDX 7 1 6 2 4 3 5 4 3 5 1 6 2 7 80 8 78 9 79 10 81 11 82 12
REMARK SMILES IDX 83 13 84 15 85 16 86 17 90 18 87 19 89 20 88 21 8 22 9 23
REMARK SMILES IDX 10 24 11 25 12 26 13 27 77 28 14 29 76 30 15 31 16 32 17 33
REMARK SMILES IDX 70 34 18 35 75 36 69 37 71 38 19 39 74 40 68 41 67 42 20 44
REMARK SMILES IDX 54 45 33 46 53 47 34 48 37 49 52 50 72 51 35 52 36 53 51 55
REMARK SMILES IDX 73 56 38 57 21 58 22 59 31 60 23 61 24 62 30 63 32 64 25 65
REMARK SMILES IDX 26 66 27 67 28 68 29 69 55 70 56 71 65 72 57 73 58 74 64 75
REMARK SMILES IDX 66 76 59 77 60 78 61 79 62 80 63 81 39 82 40 83 49 84 41 85
REMARK SMILES IDX 42 86 48 87 50 88 43 89 44 90 45 91 46 92 47 93
REMARK H PARENT 83 14 71 43 37 54
REMARK Flexibility Score: inf
ROOT
ATOM      1  C   UNL     1      -0.443   2.839   3.332  1.00  0.00     0.274 C 
ENDROOT
BRANCH   1   2
ATOM      2  O   UNL     1      -0.391   1.779   2.356  1.00  0.00    -0.462 OA
BRANCH   2   3
ATOM      3  C   UNL     1      -0.779   2.104   1.097  1.00  0.00     0.311 C 
ATOM      4  O   UNL     1      -1.220   3.200   0.768  1.00  0.00    -0.252 OA
BRANCH   3   5
ATOM      5  C   UNL     1      -0.674   0.960   0.115  1.00  0.00     0.123 C 
ATOM      6  C   UNL     1       1.515   0.091  -0.798  1.00  0.00     0.032 C 
ATOM      7  C   UNL     1       0.495  -0.026   0.345  1.00  0.00     0.098 C 
ATOM      8  N   UNL     1      -0.122  -1.354   0.337  1.00  0.00    -0.321 N 
ATOM      9  C   UNL     1      -1.939   0.107   0.154  1.00  0.00     0.039 C 
ATOM     10  C   UNL     1      -1.448  -1.266  -0.250  1.00  0.00     0.122 C 
BRANCH   8  11
ATOM     11  C   UNL     1       0.321  -2.554   0.788  1.00  0.00     0.317 C 
ATOM     12  O   UNL     1      -0.369  -3.574   0.674  1.00  0.00    -0.249 OA
ATOM     13  N   UNL     1       1.504  -2.738   1.390  1.00  0.00    -0.334 N 
ATOM     14  H   UNL     1       1.613  -3.673   1.679  1.00  0.00     0.165 HD
BRANCH  13  15
ATOM     15  C   UNL     1       2.668  -1.947   1.733  1.00  0.00     0.153 C 
BRANCH  15  16
ATOM     16  C   UNL     1       2.840  -1.806   3.223  1.00  0.00    -0.026 A 
ATOM     17  C   UNL     1       3.028  -2.923   4.043  1.00  0.00     0.025 A 
ATOM     18  C   UNL     1       2.860  -0.542   3.820  1.00  0.00     0.025 A 
ATOM     19  C   UNL     1       3.216  -2.729   5.403  1.00  0.00     0.111 A 
ATOM     20  C   UNL     1       3.061  -0.450   5.188  1.00  0.00     0.111 A 
ATOM     21  N   UNL     1       3.236  -1.517   5.996  1.00  0.00    -0.265 NA
ENDBRANCH  15  16
ENDBRANCH  13  15
ENDBRANCH   8  11
ENDBRANCH   3   5
ENDBRANCH   2   3
ENDBRANCH   1   2
BRANCH   1  22
ATOM     22  C   UNL     1       0.934   3.467   3.560  1.00  0.00     0.275 C 
BRANCH  22  23
ATOM     23  O   UNL     1       1.397   4.184   2.402  1.00  0.00    -0.458 OA
BRANCH  23  24
ATOM     24  C   UNL     1       2.137   3.457   1.534  1.00  0.00     0.338 C 
ATOM     25  O   UNL     1       2.466   2.288   1.643  1.00  0.00    -0.246 OA
BRANCH  24  26
ATOM     26  C   UNL     1       2.417   4.251   0.333  1.00  0.00     0.060 A 
ATOM     27  C   UNL     1       1.778   3.902  -0.860  1.00  0.00     0.016 A 
ATOM     28  C   UNL     1       3.377   5.261   0.359  1.00  0.00     0.016 A 
ATOM     29  C   UNL     1       2.117   4.541  -2.047  1.00  0.00     0.010 A 
ATOM     30  C   UNL     1       3.701   5.918  -0.830  1.00  0.00     0.010 A 
ATOM     31  C   UNL     1       3.084   5.551  -2.040  1.00  0.00    -0.014 A 
BRANCH  31  32
ATOM     32  C   UNL     1       3.481   6.216  -3.300  1.00  0.00     0.031 A 
ATOM     33  C   UNL     1       4.832   5.937  -3.890  1.00  0.00     0.074 A 
ATOM     34  C   UNL     1       2.641   7.085  -3.890  1.00  0.00     0.049 A 
ATOM     35  N   UNL     1       5.453   6.556  -4.857  1.00  0.00    -0.248 NA
ATOM     36  C   UNL     1       5.584   4.814  -3.307  1.00  0.00     0.031 C 
ATOM     37  C   UNL     1       1.281   7.385  -3.438  1.00  0.00     0.029 A 
ATOM     38  N   UNL     1       2.816   7.893  -4.984  1.00  0.00    -0.354 N 
ATOM     39  C   UNL     1       6.685   5.924  -4.979  1.00  0.00     0.074 A 
ATOM     40  C   UNL     1       6.721   4.870  -3.988  1.00  0.00     0.031 C 
ATOM     41  C   UNL     1       0.751   8.325  -4.238  1.00  0.00     0.029 A 
ATOM     42  C   UNL     1       1.754   8.734  -5.216  1.00  0.00     0.049 A 
ATOM     43  H   UNL     1       3.622   7.872  -5.548  1.00  0.00     0.167 HD
ATOM     44  C   UNL     1       7.692   6.210  -5.837  1.00  0.00     0.037 A 
ATOM     45  C   UNL     1       1.625   9.754  -6.087  1.00  0.00     0.037 A 
ATOM     46  C   UNL     1       7.631   7.252  -6.827  1.00  0.00     0.049 A 
ATOM     47  C   UNL     1       2.777  10.090  -6.993  1.00  0.00     0.074 A 
ATOM     48  C   UNL     1       8.597   7.630  -7.743  1.00  0.00     0.029 A 
ATOM     49  N   UNL     1       6.537   8.081  -7.033  1.00  0.00    -0.354 N 
ATOM     50  N   UNL     1       3.952   9.512  -7.076  1.00  0.00    -0.248 NA
ATOM     51  C   UNL     1       2.595  11.221  -7.913  1.00  0.00     0.031 C 
ATOM     52  C   UNL     1       8.098   8.707  -8.483  1.00  0.00     0.029 A 
ATOM     53  C   UNL     1       6.807   8.976  -8.053  1.00  0.00     0.049 A 
ATOM     54  H   UNL     1       5.694   8.040  -6.527  1.00  0.00     0.167 HD
ATOM     55  C   UNL     1       4.641  10.193  -8.072  1.00  0.00     0.074 A 
ATOM     56  C   UNL     1       3.752  11.227  -8.563  1.00  0.00     0.031 C 
ATOM     57  C   UNL     1       5.895   9.981  -8.539  1.00  0.00     0.037 A 
BRANCH  44  58
ATOM     58  C   UNL     1       8.957   5.411  -5.715  1.00  0.00     0.058 A 
ATOM     59  C   UNL     1       9.043   4.086  -6.169  1.00  0.00     0.135 A 
ATOM     60  C   UNL     1      10.108   5.990  -5.155  1.00  0.00     0.135 A 
ATOM     61  F   UNL     1       7.967   3.481  -6.694  1.00  0.00    -0.206 F 
ATOM     62  C   UNL     1      10.220   3.354  -6.051  1.00  0.00     0.059 A 
ATOM     63  C   UNL     1      11.302   5.283  -5.045  1.00  0.00     0.059 A 
ATOM     64  F   UNL     1      10.077   7.253  -4.702  1.00  0.00    -0.206 F 
ATOM     65  C   UNL     1      11.343   3.960  -5.483  1.00  0.00     0.060 A 
BRANCH  65  66
ATOM     66  S   UNL     1      12.862   2.997  -5.325  1.00  0.00     0.124 S 
ATOM     67  O   UNL     1      12.545   2.142  -4.185  1.00  0.00    -0.237 OA
ATOM     68  O   UNL     1      12.945   2.324  -6.617  1.00  0.00    -0.237 OA
ATOM     69  O   UNL     1      13.883   4.011  -5.084  1.00  0.00    -0.744 OA
ENDBRANCH  65  66
ENDBRANCH  44  58
BRANCH  45  70
ATOM     70  C   UNL     1       0.372  10.550  -6.107  1.00  0.00     0.058 A 
ATOM     71  C   UNL     1      -0.536  10.440  -7.169  1.00  0.00     0.135 A 
ATOM     72  C   UNL     1       0.042  11.412  -5.049  1.00  0.00     0.135 A 
ATOM     73  F   UNL     1      -0.260   9.635  -8.207  1.00  0.00    -0.206 F 
ATOM     74  C   UNL     1      -1.727  11.159  -7.186  1.00  0.00     0.059 A 
ATOM     75  C   UNL     1      -1.153  12.124  -5.032  1.00  0.00     0.059 A 
ATOM     76  F   UNL     1       0.872  11.541  -4.002  1.00  0.00    -0.206 F 
ATOM     77  C   UNL     1      -2.028  11.997  -6.109  1.00  0.00     0.060 A 
BRANCH  77  78
ATOM     78  S   UNL     1      -3.603  12.880  -6.108  1.00  0.00     0.124 S 
ATOM     79  O   UNL     1      -3.332  13.963  -7.045  1.00  0.00    -0.237 OA
ATOM     80  O   UNL     1      -4.534  11.854  -6.569  1.00  0.00    -0.237 OA
ATOM     81  O   UNL     1      -3.762  13.275  -4.711  1.00  0.00    -0.744 OA
ENDBRANCH  77  78
ENDBRANCH  45  70
BRANCH  57  82
ATOM     82  C   UNL     1       6.372  10.848  -9.667  1.00  0.00     0.058 A 
ATOM     83  C   UNL     1       6.834  12.153  -9.445  1.00  0.00     0.135 A 
ATOM     84  C   UNL     1       6.459  10.326 -10.968  1.00  0.00     0.135 A 
ATOM     85  F   UNL     1       6.762  12.696  -8.220  1.00  0.00    -0.206 F 
ATOM     86  C   UNL     1       7.371  12.914 -10.477  1.00  0.00     0.059 A 
ATOM     87  C   UNL     1       7.009  11.063 -12.011  1.00  0.00     0.059 A 
ATOM     88  F   UNL     1       6.035   9.079 -11.226  1.00  0.00    -0.206 F 
ATOM     89  C   UNL     1       7.462  12.357 -11.756  1.00  0.00     0.060 A 
BRANCH  89  90
ATOM     90  S   UNL     1       8.235  13.324 -13.071  1.00  0.00     0.124 S 
ATOM     91  O   UNL     1       7.171  14.263 -13.409  1.00  0.00    -0.237 OA
ATOM     92  O   UNL     1       9.397  13.897 -12.399  1.00  0.00    -0.237 OA
ATOM     93  O   UNL     1       8.539  12.325 -14.091  1.00  0.00    -0.744 OA
ENDBRANCH  89  90
ENDBRANCH  57  82
ENDBRANCH  31  32
ENDBRANCH  24  26
ENDBRANCH  23  24
ENDBRANCH  22  23
ENDBRANCH   1  22
TORSDOF 17
