REMARK SMILES CC[C@@](C)(Nc1ccccc1Br)C(=O)OCCOC(=O)c1ccc(-c2c3nc(c(-c4c(F)cc(S(=O)(=O)[O-])cc4F)c4ccc([nH]4)c(-c4c(F)cc(S(=O)(=O)[O-])cc4F)c4nc(c(-c5c(F)cc(S(=O)(=O)[O-])cc5F)c5ccc2[nH]5)C=C4)C=C3)cc1
REMARK SMILES IDX 17 1 16 2 15 3 13 4 14 5 3 6 4 7 2 8 1 9 5 10 6 12 7 13
REMARK SMILES IDX 11 14 8 15 10 16 12 17 9 18 18 19 19 20 20 21 21 22 22 23
REMARK SMILES IDX 86 24 23 25 85 26 24 27 25 28 26 29 79 30 27 31 84 32 78 33
REMARK SMILES IDX 80 34 28 35 83 36 77 37 76 38 29 40 63 41 42 42 62 43 43 44
REMARK SMILES IDX 46 45 61 46 81 47 44 48 45 49 60 51 82 52 47 53 30 54 31 55
REMARK SMILES IDX 40 56 32 57 33 58 39 59 41 60 34 61 35 62 36 63 37 64 38 65
REMARK SMILES IDX 64 66 65 67 74 68 66 69 67 70 73 71 75 72 68 73 69 74 70 75
REMARK SMILES IDX 71 76 72 77 48 78 49 79 58 80 50 81 51 82 57 83 59 84 52 85
REMARK SMILES IDX 53 86 54 87 55 88 56 89
REMARK H PARENT 5 11 80 39 46 50
REMARK Flexibility Score: inf
ROOT
ATOM      1  C   UNL     1       5.112  -1.272  -2.900  1.00  0.00     0.275 C 
ENDROOT
BRANCH   1   2
ATOM      2  C   UNL     1       4.533  -2.355  -1.998  1.00  0.00     0.274 C 
BRANCH   2   3
ATOM      3  O   UNL     1       3.118  -2.462  -2.249  1.00  0.00    -0.460 OA
BRANCH   3   4
ATOM      4  C   UNL     1       2.254  -2.175  -1.247  1.00  0.00     0.331 C 
ATOM      5  O   UNL     1       2.630  -1.827  -0.130  1.00  0.00    -0.249 OA
BRANCH   4   6
ATOM      6  C   UNL     1       0.745  -2.381  -1.600  1.00  0.00     0.133 C 
ATOM      7  C   UNL     1       0.246  -3.510  -0.675  1.00  0.00     0.047 C 
BRANCH   6   8
ATOM      8  C   UNL     1      -0.077  -1.083  -1.331  1.00  0.00     0.037 C 
ATOM      9  C   UNL     1      -0.023  -0.495   0.077  1.00  0.00     0.007 C 
ENDBRANCH   6   8
BRANCH   6  10
ATOM     10  N   UNL     1       0.384  -2.813  -2.988  1.00  0.00    -0.369 N 
ATOM     11  H   UNL     1      -0.534  -3.143  -3.119  1.00  0.00     0.161 HD
BRANCH  10  12
ATOM     12  C   UNL     1       1.200  -2.799  -4.106  1.00  0.00     0.049 A 
ATOM     13  C   UNL     1       1.202  -1.675  -4.944  1.00  0.00     0.027 A 
ATOM     14  C   UNL     1       1.997  -3.898  -4.486  1.00  0.00     0.041 A 
ATOM     15  C   UNL     1       2.002  -1.627  -6.091  1.00  0.00     0.002 A 
ATOM     16  C   UNL     1       2.811  -3.845  -5.623  1.00  0.00     0.018 A 
ATOM     17  Br  UNL     1       2.019  -5.517  -3.486  1.00  0.00    -0.049 Br
ATOM     18  C   UNL     1       2.815  -2.707  -6.424  1.00  0.00     0.001 A 
ENDBRANCH  10  12
ENDBRANCH   6  10
ENDBRANCH   4   6
ENDBRANCH   3   4
ENDBRANCH   2   3
ENDBRANCH   1   2
BRANCH   1  19
ATOM     19  O   UNL     1       4.546  -0.023  -2.481  1.00  0.00    -0.458 OA
BRANCH  19  20
ATOM     20  C   UNL     1       4.301   0.881  -3.450  1.00  0.00     0.338 C 
ATOM     21  O   UNL     1       4.643   0.832  -4.624  1.00  0.00    -0.246 OA
BRANCH  20  22
ATOM     22  C   UNL     1       3.533   1.984  -2.847  1.00  0.00     0.060 A 
ATOM     23  C   UNL     1       2.415   1.695  -2.059  1.00  0.00     0.016 A 
ATOM     24  C   UNL     1       3.901   3.306  -3.083  1.00  0.00     0.016 A 
ATOM     25  C   UNL     1       1.639   2.725  -1.532  1.00  0.00     0.010 A 
ATOM     26  C   UNL     1       3.163   4.338  -2.497  1.00  0.00     0.010 A 
ATOM     27  C   UNL     1       2.014   4.061  -1.732  1.00  0.00    -0.014 A 
BRANCH  27  28
ATOM     28  C   UNL     1       1.192   5.172  -1.182  1.00  0.00     0.031 A 
ATOM     29  C   UNL     1       0.528   6.143  -2.122  1.00  0.00     0.074 A 
ATOM     30  C   UNL     1       1.041   5.321   0.149  1.00  0.00     0.049 A 
ATOM     31  N   UNL     1      -0.062   7.280  -1.858  1.00  0.00    -0.248 NA
ATOM     32  C   UNL     1       0.540   5.790  -3.552  1.00  0.00     0.031 C 
ATOM     33  C   UNL     1       1.590   4.429   1.173  1.00  0.00     0.029 A 
ATOM     34  N   UNL     1       0.385   6.287   0.872  1.00  0.00    -0.354 N 
ATOM     35  C   UNL     1      -0.455   7.798  -3.087  1.00  0.00     0.074 A 
ATOM     36  C   UNL     1      -0.033   6.853  -4.099  1.00  0.00     0.031 C 
ATOM     37  C   UNL     1       1.240   4.883   2.387  1.00  0.00     0.029 A 
ATOM     38  C   UNL     1       0.501   6.133   2.233  1.00  0.00     0.049 A 
ATOM     39  H   UNL     1      -0.121   7.022   0.454  1.00  0.00     0.167 HD
ATOM     40  C   UNL     1      -1.108   8.956  -3.346  1.00  0.00     0.037 A 
ATOM     41  C   UNL     1       0.099   6.928   3.244  1.00  0.00     0.037 A 
ATOM     42  C   UNL     1      -1.557   9.877  -2.335  1.00  0.00     0.049 A 
ATOM     43  C   UNL     1      -0.596   8.224   2.929  1.00  0.00     0.074 A 
ATOM     44  C   UNL     1      -2.214  11.085  -2.499  1.00  0.00     0.029 A 
ATOM     45  N   UNL     1      -1.411   9.685  -0.970  1.00  0.00    -0.354 N 
ATOM     46  N   UNL     1      -0.903   8.732   1.759  1.00  0.00    -0.248 NA
ATOM     47  C   UNL     1      -0.984   9.065   4.071  1.00  0.00     0.031 C 
ATOM     48  C   UNL     1      -2.446  11.633  -1.232  1.00  0.00     0.029 A 
ATOM     49  C   UNL     1      -1.964  10.751  -0.279  1.00  0.00     0.049 A 
ATOM     50  H   UNL     1      -0.979   8.905  -0.552  1.00  0.00     0.167 HD
ATOM     51  C   UNL     1      -1.523   9.947   2.025  1.00  0.00     0.074 A 
ATOM     52  C   UNL     1      -1.571  10.088   3.466  1.00  0.00     0.031 C 
ATOM     53  C   UNL     1      -2.002  10.871   1.155  1.00  0.00     0.037 A 
BRANCH  40  54
ATOM     54  C   UNL     1      -1.359   9.305  -4.785  1.00  0.00     0.058 A 
ATOM     55  C   UNL     1      -2.360   8.669  -5.535  1.00  0.00     0.135 A 
ATOM     56  C   UNL     1      -0.615  10.320  -5.409  1.00  0.00     0.135 A 
ATOM     57  F   UNL     1      -3.084   7.678  -4.993  1.00  0.00    -0.206 F 
ATOM     58  C   UNL     1      -2.605   9.017  -6.860  1.00  0.00     0.059 A 
ATOM     59  C   UNL     1      -0.857  10.698  -6.726  1.00  0.00     0.059 A 
ATOM     60  F   UNL     1       0.357  10.956  -4.736  1.00  0.00    -0.206 F 
ATOM     61  C   UNL     1      -1.847  10.033  -7.447  1.00  0.00     0.060 A 
BRANCH  61  62
ATOM     62  S   UNL     1      -2.186  10.485  -9.162  1.00  0.00     0.124 S 
ATOM     63  O   UNL     1      -1.579   9.369  -9.882  1.00  0.00    -0.237 OA
ATOM     64  O   UNL     1      -3.644  10.538  -9.191  1.00  0.00    -0.237 OA
ATOM     65  O   UNL     1      -1.513  11.771  -9.314  1.00  0.00    -0.744 OA
ENDBRANCH  61  62
ENDBRANCH  40  54
BRANCH  41  66
ATOM     66  C   UNL     1       0.387   6.550   4.654  1.00  0.00     0.058 A 
ATOM     67  C   UNL     1      -0.643   6.171   5.527  1.00  0.00     0.135 A 
ATOM     68  C   UNL     1       1.697   6.575   5.158  1.00  0.00     0.135 A 
ATOM     69  F   UNL     1      -1.913   6.144   5.094  1.00  0.00    -0.206 F 
ATOM     70  C   UNL     1      -0.389   5.848   6.856  1.00  0.00     0.059 A 
ATOM     71  C   UNL     1       1.979   6.231   6.476  1.00  0.00     0.059 A 
ATOM     72  F   UNL     1       2.719   6.920   4.359  1.00  0.00    -0.206 F 
ATOM     73  C   UNL     1       0.927   5.883   7.322  1.00  0.00     0.060 A 
BRANCH  73  74
ATOM     74  S   UNL     1       1.261   5.428   9.037  1.00  0.00     0.124 S 
ATOM     75  O   UNL     1       0.901   6.655   9.740  1.00  0.00    -0.237 OA
ATOM     76  O   UNL     1       0.367   4.292   9.239  1.00  0.00    -0.237 OA
ATOM     77  O   UNL     1       2.683   5.100   9.023  1.00  0.00    -0.744 OA
ENDBRANCH  73  74
ENDBRANCH  41  66
BRANCH  53  78
ATOM     78  C   UNL     1      -2.635  12.099   1.744  1.00  0.00     0.058 A 
ATOM     79  C   UNL     1      -1.859  13.125   2.305  1.00  0.00     0.135 A 
ATOM     80  C   UNL     1      -4.029  12.259   1.731  1.00  0.00     0.135 A 
ATOM     81  F   UNL     1      -0.521  13.015   2.346  1.00  0.00    -0.206 F 
ATOM     82  C   UNL     1      -2.446  14.256   2.861  1.00  0.00     0.059 A 
ATOM     83  C   UNL     1      -4.636  13.392   2.263  1.00  0.00     0.059 A 
ATOM     84  F   UNL     1      -4.814  11.309   1.197  1.00  0.00    -0.206 F 
ATOM     85  C   UNL     1      -3.837  14.378   2.840  1.00  0.00     0.060 A 
BRANCH  85  86
ATOM     86  S   UNL     1      -4.592  15.853   3.556  1.00  0.00     0.124 S 
ATOM     87  O   UNL     1      -4.539  15.547   4.981  1.00  0.00    -0.237 OA
ATOM     88  O   UNL     1      -3.702  16.917   3.102  1.00  0.00    -0.237 OA
ATOM     89  O   UNL     1      -5.927  15.869   2.965  1.00  0.00    -0.744 OA
ENDBRANCH  85  86
ENDBRANCH  53  78
ENDBRANCH  27  28
ENDBRANCH  20  22
ENDBRANCH  19  20
ENDBRANCH   1  19
TORSDOF 17
