REMARK SMILES Cn1ccc(-c2n[nH]c(=O)n2-c2ccc(C(=O)OCCOC(=O)c3ccc(-c4c5nc(c(-c6c(F)cc(S(=O)(=O)[O-])cc6F)c6ccc([nH]6)c(-c6c(F)cc(S(=O)(=O)[O-])cc6F)c6nc(c(-c7c(F)cc(S(=O)(=O)[O-])cc7F)c7ccc4[nH]7)C=C6)C=C5)cc3)cc2)n1
REMARK SMILES IDX 20 1 19 2 18 3 16 4 17 5 15 6 12 7 13 8 91 9 14 10 90 11
REMARK SMILES IDX 11 12 6 13 7 14 8 15 9 16 10 18 5 19 1 20 2 21 3 22 92 23
REMARK SMILES IDX 4 24 21 25 22 26 23 27 24 28 25 29 89 30 26 31 88 32 27 33
REMARK SMILES IDX 28 34 29 35 82 36 30 37 87 38 81 39 83 40 31 41 86 42 80 43
REMARK SMILES IDX 79 44 32 46 66 47 45 48 65 49 46 50 49 51 64 52 84 53 47 54
REMARK SMILES IDX 48 55 63 57 85 58 50 59 33 60 34 61 43 62 35 63 36 64 42 65
REMARK SMILES IDX 44 66 37 67 38 68 39 69 40 70 41 71 67 72 68 73 77 74 69 75
REMARK SMILES IDX 70 76 76 77 78 78 71 79 72 80 73 81 74 82 75 83 51 84 52 85
REMARK SMILES IDX 61 86 53 87 54 88 60 89 62 90 55 91 56 92 57 93 58 94 59 95
REMARK H PARENT 8 17 83 45 49 56
REMARK Flexibility Score: inf
ROOT
ATOM      1  C   UNL     1      -0.349   3.034   8.412  1.00  0.00     0.275 C 
ENDROOT
BRANCH   1   2
ATOM      2  C   UNL     1      -1.235   2.252   7.454  1.00  0.00     0.275 C 
BRANCH   2   3
ATOM      3  O   UNL     1      -0.577   2.037   6.196  1.00  0.00    -0.458 OA
BRANCH   3   4
ATOM      4  C   UNL     1      -0.748   3.024   5.269  1.00  0.00     0.338 C 
ATOM      5  O   UNL     1      -1.536   3.935   5.325  1.00  0.00    -0.246 OA
BRANCH   4   6
ATOM      6  C   UNL     1       0.258   2.874   4.182  1.00  0.00     0.060 A 
ATOM      7  C   UNL     1       1.998   2.637   1.998  1.00  0.00     0.052 A 
ATOM      8  C   UNL     1       1.527   3.897   2.377  1.00  0.00     0.028 A 
ATOM      9  C   UNL     1       1.685   1.522   2.794  1.00  0.00     0.028 A 
ATOM     10  C   UNL     1       0.633   4.009   3.449  1.00  0.00     0.018 A 
ATOM     11  C   UNL     1       0.829   1.637   3.885  1.00  0.00     0.018 A 
BRANCH   7  12
ATOM     12  N   UNL     1       2.734   2.463   0.815  1.00  0.00    -0.242 N 
ATOM     13  C   UNL     1       2.620   1.462  -0.106  1.00  0.00     0.189 A 
ATOM     14  N   UNL     1       3.531   1.461  -1.042  1.00  0.00    -0.150 NA
ATOM     15  N   UNL     1       4.267   2.584  -0.763  1.00  0.00    -0.226 N 
ATOM     16  C   UNL     1       3.764   3.249   0.359  1.00  0.00     0.348 A 
ATOM     17  H   UNL     1       5.046   2.882  -1.285  1.00  0.00     0.195 HD
ATOM     18  O   UNL     1       4.214   4.290   0.809  1.00  0.00    -0.246 OA
BRANCH  13  19
ATOM     19  C   UNL     1       1.505   0.530  -0.124  1.00  0.00     0.130 A 
ATOM     20  C   UNL     1      -1.948  -0.024   0.000  1.00  0.00     0.173 C 
ATOM     21  N   UNL     1      -0.511  -0.142  -0.058  1.00  0.00    -0.275 N 
ATOM     22  C   UNL     1       0.223  -1.284  -0.172  1.00  0.00     0.109 A 
ATOM     23  N   UNL     1       0.236   0.969  -0.020  1.00  0.00    -0.170 NA
ATOM     24  C   UNL     1       1.537  -0.881  -0.251  1.00  0.00     0.054 A 
ENDBRANCH  13  19
ENDBRANCH   7  12
ENDBRANCH   4   6
ENDBRANCH   3   4
ENDBRANCH   2   3
ENDBRANCH   1   2
BRANCH   1  25
ATOM     25  O   UNL     1      -0.151   4.373   7.965  1.00  0.00    -0.458 OA
BRANCH  25  26
ATOM     26  C   UNL     1       0.989   4.571   7.265  1.00  0.00     0.338 C 
ATOM     27  O   UNL     1       1.673   3.727   6.708  1.00  0.00    -0.246 OA
BRANCH  26  28
ATOM     28  C   UNL     1       1.437   5.948   7.466  1.00  0.00     0.060 A 
ATOM     29  C   UNL     1       2.477   6.426   6.661  1.00  0.00     0.016 A 
ATOM     30  C   UNL     1       1.028   6.612   8.630  1.00  0.00     0.016 A 
ATOM     31  C   UNL     1       3.211   7.507   7.104  1.00  0.00     0.010 A 
ATOM     32  C   UNL     1       1.774   7.669   9.081  1.00  0.00     0.010 A 
ATOM     33  C   UNL     1       2.893   8.063   8.345  1.00  0.00    -0.014 A 
BRANCH  33  34
ATOM     34  C   UNL     1       3.697   9.154   8.860  1.00  0.00     0.031 A 
ATOM     35  C   UNL     1       3.393  10.464   8.225  1.00  0.00     0.074 A 
ATOM     36  C   UNL     1       4.434   8.976   9.975  1.00  0.00     0.049 A 
ATOM     37  N   UNL     1       4.200  11.302   7.665  1.00  0.00    -0.248 NA
ATOM     38  C   UNL     1       1.968  10.823   8.074  1.00  0.00     0.031 C 
ATOM     39  C   UNL     1       4.485   7.772  10.816  1.00  0.00     0.029 A 
ATOM     40  N   UNL     1       5.160   9.873  10.691  1.00  0.00    -0.354 N 
ATOM     41  C   UNL     1       3.410  12.393   7.303  1.00  0.00     0.074 A 
ATOM     42  C   UNL     1       2.046  11.956   7.380  1.00  0.00     0.031 C 
ATOM     43  C   UNL     1       4.980   8.101  12.029  1.00  0.00     0.029 A 
ATOM     44  C   UNL     1       5.373   9.499  12.014  1.00  0.00     0.049 A 
ATOM     45  H   UNL     1       5.505  10.712  10.309  1.00  0.00     0.167 HD
ATOM     46  C   UNL     1       3.922  13.652   7.252  1.00  0.00     0.037 A 
ATOM     47  C   UNL     1       5.731  10.316  13.038  1.00  0.00     0.037 A 
ATOM     48  C   UNL     1       5.354  13.622   7.106  1.00  0.00     0.049 A 
ATOM     49  C   UNL     1       6.254  11.572  12.435  1.00  0.00     0.074 A 
ATOM     50  C   UNL     1       6.218  13.068   6.181  1.00  0.00     0.029 A 
ATOM     51  N   UNL     1       6.122  13.916   8.207  1.00  0.00    -0.354 N 
ATOM     52  N   UNL     1       7.351  11.650  11.731  1.00  0.00    -0.248 NA
ATOM     53  C   UNL     1       5.317  12.670  12.242  1.00  0.00     0.031 C 
ATOM     54  C   UNL     1       7.342  12.628   6.938  1.00  0.00     0.029 A 
ATOM     55  C   UNL     1       7.127  12.986   8.270  1.00  0.00     0.049 A 
ATOM     56  H   UNL     1       5.976  14.659   8.837  1.00  0.00     0.167 HD
ATOM     57  C   UNL     1       7.065  12.557  10.719  1.00  0.00     0.074 A 
ATOM     58  C   UNL     1       5.837  13.223  11.142  1.00  0.00     0.031 C 
ATOM     59  C   UNL     1       7.686  12.481   9.505  1.00  0.00     0.037 A 
BRANCH  46  60
ATOM     60  C   UNL     1       3.175  14.874   7.748  1.00  0.00     0.058 A 
ATOM     61  C   UNL     1       3.767  16.143   7.585  1.00  0.00     0.135 A 
ATOM     62  C   UNL     1       2.072  14.832   8.635  1.00  0.00     0.135 A 
ATOM     63  F   UNL     1       4.811  16.309   6.757  1.00  0.00    -0.206 F 
ATOM     64  C   UNL     1       3.372  17.253   8.332  1.00  0.00     0.059 A 
ATOM     65  C   UNL     1       1.627  15.939   9.345  1.00  0.00     0.059 A 
ATOM     66  F   UNL     1       1.427  13.701   8.941  1.00  0.00    -0.206 F 
ATOM     67  C   UNL     1       2.318  17.131   9.232  1.00  0.00     0.060 A 
BRANCH  67  68
ATOM     68  S   UNL     1       1.906  18.508  10.314  1.00  0.00     0.124 S 
ATOM     69  O   UNL     1       3.058  18.521  11.208  1.00  0.00    -0.237 OA
ATOM     70  O   UNL     1       1.812  19.616   9.370  1.00  0.00    -0.237 OA
ATOM     71  O   UNL     1       0.642  18.094  10.915  1.00  0.00    -0.744 OA
ENDBRANCH  67  68
ENDBRANCH  46  60
BRANCH  47  72
ATOM     72  C   UNL     1       5.315  10.220  14.466  1.00  0.00     0.058 A 
ATOM     73  C   UNL     1       5.960  10.971  15.465  1.00  0.00     0.135 A 
ATOM     74  C   UNL     1       4.116   9.585  14.853  1.00  0.00     0.135 A 
ATOM     75  F   UNL     1       7.092  11.635  15.184  1.00  0.00    -0.206 F 
ATOM     76  C   UNL     1       5.431  11.112  16.755  1.00  0.00     0.059 A 
ATOM     77  C   UNL     1       3.581   9.694  16.135  1.00  0.00     0.059 A 
ATOM     78  F   UNL     1       3.371   8.905  13.969  1.00  0.00    -0.206 F 
ATOM     79  C   UNL     1       4.231  10.479  17.076  1.00  0.00     0.060 A 
BRANCH  79  80
ATOM     80  S   UNL     1       3.459  10.781  18.684  1.00  0.00     0.124 S 
ATOM     81  O   UNL     1       4.373  10.095  19.591  1.00  0.00    -0.237 OA
ATOM     82  O   UNL     1       3.460  12.238  18.759  1.00  0.00    -0.237 OA
ATOM     83  O   UNL     1       2.140  10.168  18.548  1.00  0.00    -0.744 OA
ENDBRANCH  79  80
ENDBRANCH  47  72
BRANCH  59  84
ATOM     84  C   UNL     1       8.910  11.612   9.379  1.00  0.00     0.058 A 
ATOM     85  C   UNL     1       8.910  10.214   9.531  1.00  0.00     0.135 A 
ATOM     86  C   UNL     1      10.096  12.205   8.921  1.00  0.00     0.135 A 
ATOM     87  F   UNL     1       7.791   9.556   9.861  1.00  0.00    -0.206 F 
ATOM     88  C   UNL     1      10.048   9.447   9.279  1.00  0.00     0.059 A 
ATOM     89  C   UNL     1      11.233  11.456   8.631  1.00  0.00     0.059 A 
ATOM     90  F   UNL     1      10.142  13.528   8.692  1.00  0.00    -0.206 F 
ATOM     91  C   UNL     1      11.206  10.077   8.825  1.00  0.00     0.060 A 
BRANCH  91  92
ATOM     92  S   UNL     1      12.650   9.074   8.415  1.00  0.00     0.124 S 
ATOM     93  O   UNL     1      13.127   8.669   9.733  1.00  0.00    -0.237 OA
ATOM     94  O   UNL     1      12.078   8.011   7.593  1.00  0.00    -0.237 OA
ATOM     95  O   UNL     1      13.519  10.004   7.696  1.00  0.00    -0.744 OA
ENDBRANCH  91  92
ENDBRANCH  59  84
ENDBRANCH  33  34
ENDBRANCH  26  28
ENDBRANCH  25  26
ENDBRANCH   1  25
TORSDOF 16
