REMARK SMILES Cc1ccc2nc(Cl)c([C@@H]3CC(c4cccs4)=NN3C(=O)CCCC(=O)OCCOC(=O)c3ccc(-c4c5nc(c(-c6c(F)cc(S(=O)(=O)[O-])cc6F)c6ccc([nH]6)c(-c6c(F)cc(S(=O)(=O)[O-])cc6F)c6nc(c(-c7c(F)cc(S(=O)(=O)[O-])cc7F)c7ccc4[nH]7)C=C6)C=C5)cc3)cc2c1
REMARK SMILES IDX 28 1 27 2 25 3 26 4 24 5 23 6 22 7 20 8 21 9 19 10 10 11
REMARK SMILES IDX 11 12 12 13 18 14 9 15 1 16 2 17 3 18 101 19 4 20 100 21
REMARK SMILES IDX 5 22 99 23 6 24 7 25 8 26 13 27 14 28 17 29 15 30 16 31
REMARK SMILES IDX 29 32 30 33 31 34 32 35 33 36 34 37 98 38 35 39 97 40 36 41
REMARK SMILES IDX 37 42 38 43 91 44 39 45 96 46 90 47 92 48 40 49 95 50 89 51
REMARK SMILES IDX 88 52 41 54 75 55 54 56 74 57 55 58 58 59 73 60 93 61 56 62
REMARK SMILES IDX 57 63 72 65 94 66 59 67 42 68 43 69 52 70 44 71 45 72 51 73
REMARK SMILES IDX 53 74 46 75 47 76 48 77 49 78 50 79 76 80 77 81 86 82 78 83
REMARK SMILES IDX 79 84 85 85 87 86 80 87 81 88 82 89 83 90 84 91 60 92 61 93
REMARK SMILES IDX 70 94 62 95 63 96 69 97 71 98 64 99 65 100 66 101 67 102
REMARK SMILES IDX 68 103
REMARK H PARENT 92 53 58 64
REMARK Flexibility Score: inf
ROOT
ATOM      1  C   UNL     1      -4.890   0.300   0.304  1.00  0.00     0.274 C 
ENDROOT
BRANCH   1   2
ATOM      2  O   UNL     1      -4.337   0.929  -1.558  1.00  0.00    -0.462 OA
BRANCH   2   3
ATOM      3  C   UNL     1      -3.739   0.727  -2.891  1.00  0.00     0.305 C 
ATOM      4  O   UNL     1      -3.995  -0.181  -3.681  1.00  0.00    -0.252 OA
BRANCH   3   5
ATOM      5  C   UNL     1      -2.561   1.646  -3.200  1.00  0.00     0.123 C 
BRANCH   5   6
ATOM      6  C   UNL     1      -3.034   2.817  -4.013  1.00  0.00     0.022 C 
BRANCH   6   7
ATOM      7  C   UNL     1      -3.790   3.774  -3.128  1.00  0.00     0.103 C 
BRANCH   7   8
ATOM      8  C   UNL     1      -2.878   4.596  -2.244  1.00  0.00     0.243 C 
ATOM      9  O   UNL     1      -2.453   5.651  -2.741  1.00  0.00    -0.273 OA
BRANCH   8  10
ATOM     10  N   UNL     1      -2.662   4.280  -0.907  1.00  0.00    -0.225 N 
ATOM     11  C   UNL     1      -2.353   3.036  -0.072  1.00  0.00     0.150 C 
ATOM     12  C   UNL     1      -2.278   3.604   1.365  1.00  0.00     0.092 C 
ATOM     13  C   UNL     1      -2.363   5.077   1.097  1.00  0.00     0.081 C 
ATOM     14  N   UNL     1      -2.539   5.407  -0.136  1.00  0.00    -0.173 NA
BRANCH  11  15
ATOM     15  C   UNL     1      -3.332   1.888  -0.220  1.00  0.00     0.015 A 
ATOM     16  C   UNL     1      -5.548  -4.466  -2.454  1.00  0.00     0.044 C 
ATOM     17  C   UNL     1      -5.502  -2.979  -2.199  1.00  0.00    -0.050 A 
ATOM     18  C   UNL     1      -6.686  -2.265  -2.513  1.00  0.00     0.005 A 
ATOM     19  C   UNL     1      -4.317  -2.370  -1.665  1.00  0.00     0.013 A 
ATOM     20  C   UNL     1      -6.865  -0.930  -2.211  1.00  0.00     0.029 A 
ATOM     21  C   UNL     1      -4.271  -0.997  -1.286  1.00  0.00     0.001 A 
ATOM     22  C   UNL     1      -5.874  -0.230  -1.589  1.00  0.00     0.072 A 
ATOM     23  C   UNL     1      -2.946   0.142  -0.594  1.00  0.00     0.019 A 
ATOM     24  N   UNL     1      -6.191   1.404  -1.164  1.00  0.00    -0.236 NA
ATOM     25  C   UNL     1      -4.993   2.404  -0.490  1.00  0.00     0.135 A 
ATOM     26  Cl  UNL     1      -5.624   3.892   0.098  1.00  0.00    -0.062 Cl
ENDBRANCH  11  15
BRANCH  13  27
ATOM     27  C   UNL     1      -2.296   6.124   2.080  1.00  0.00     0.050 A 
ATOM     28  C   UNL     1      -1.253   6.508   2.894  1.00  0.00     0.022 A 
ATOM     29  S   UNL     1      -3.623   7.211   2.196  1.00  0.00    -0.142 S 
ATOM     30  C   UNL     1      -1.520   7.749   3.556  1.00  0.00     0.012 A 
ATOM     31  C   UNL     1      -2.772   8.241   3.259  1.00  0.00     0.065 A 
ENDBRANCH  13  27
ENDBRANCH   8  10
ENDBRANCH   7   8
ENDBRANCH   6   7
ENDBRANCH   5   6
ENDBRANCH   3   5
ENDBRANCH   2   3
ENDBRANCH   1   2
BRANCH   1  32
ATOM     32  C   UNL     1      -4.433  -1.100   1.204  1.00  0.00     0.275 C 
BRANCH  32  33
ATOM     33  O   UNL     1      -3.015  -1.421   1.330  1.00  0.00    -0.458 OA
BRANCH  33  34
ATOM     34  C   UNL     1      -2.667  -2.736   1.194  1.00  0.00     0.338 C 
ATOM     35  O   UNL     1      -3.455  -3.670   1.215  1.00  0.00    -0.246 OA
BRANCH  34  36
ATOM     36  C   UNL     1      -1.206  -2.938   0.891  1.00  0.00     0.060 A 
ATOM     37  C   UNL     1      -0.296  -1.889   0.711  1.00  0.00     0.016 A 
ATOM     38  C   UNL     1      -0.729  -4.252   0.749  1.00  0.00     0.016 A 
ATOM     39  C   UNL     1       1.049  -2.143   0.387  1.00  0.00     0.010 A 
ATOM     40  C   UNL     1       0.632  -4.509   0.510  1.00  0.00     0.010 A 
ATOM     41  C   UNL     1       1.544  -3.457   0.357  1.00  0.00    -0.014 A 
BRANCH  41  42
ATOM     42  C   UNL     1       3.011  -3.740   0.444  1.00  0.00     0.031 A 
ATOM     43  C   UNL     1       3.751  -4.511  -0.617  1.00  0.00     0.074 A 
ATOM     44  C   UNL     1       3.638  -3.401   1.592  1.00  0.00     0.049 A 
ATOM     45  N   UNL     1       4.940  -5.060  -0.562  1.00  0.00    -0.248 NA
ATOM     46  C   UNL     1       3.070  -4.694  -1.907  1.00  0.00     0.031 C 
ATOM     47  C   UNL     1       3.020  -2.660   2.697  1.00  0.00     0.029 A 
ATOM     48  N   UNL     1       4.907  -3.663   2.047  1.00  0.00    -0.354 N 
ATOM     49  C   UNL     1       5.146  -5.673  -1.795  1.00  0.00     0.074 A 
ATOM     50  C   UNL     1       3.953  -5.425  -2.581  1.00  0.00     0.031 C 
ATOM     51  C   UNL     1       3.896  -2.542   3.702  1.00  0.00     0.029 A 
ATOM     52  C   UNL     1       5.111  -3.262   3.349  1.00  0.00     0.049 A 
ATOM     53  H   UNL     1       5.601  -4.095   1.499  1.00  0.00     0.167 HD
ATOM     54  C   UNL     1       6.223  -6.384  -2.219  1.00  0.00     0.037 A 
ATOM     55  C   UNL     1       6.128  -3.495   4.200  1.00  0.00     0.037 A 
ATOM     56  C   UNL     1       7.395  -6.630  -1.408  1.00  0.00     0.049 A 
ATOM     57  C   UNL     1       7.291  -4.310   3.724  1.00  0.00     0.074 A 
ATOM     58  C   UNL     1       8.538  -7.344  -1.730  1.00  0.00     0.029 A 
ATOM     59  N   UNL     1       7.571  -6.170  -0.109  1.00  0.00    -0.354 N 
ATOM     60  N   UNL     1       7.455  -4.899   2.563  1.00  0.00    -0.248 NA
ATOM     61  C   UNL     1       8.401  -4.497   4.664  1.00  0.00     0.031 C 
ATOM     62  C   UNL     1       9.389  -7.341  -0.617  1.00  0.00     0.029 A 
ATOM     63  C   UNL     1       8.796  -6.589   0.385  1.00  0.00     0.049 A 
ATOM     64  H   UNL     1       6.920  -5.624   0.388  1.00  0.00     0.167 HD
ATOM     65  C   UNL     1       8.692  -5.523   2.630  1.00  0.00     0.074 A 
ATOM     66  C   UNL     1       9.241  -5.221   3.938  1.00  0.00     0.031 C 
ATOM     67  C   UNL     1       9.317  -6.280   1.694  1.00  0.00     0.037 A 
BRANCH  54  68
ATOM     68  C   UNL     1       6.188  -6.974  -3.609  1.00  0.00     0.058 A 
ATOM     69  C   UNL     1       6.328  -6.177  -4.756  1.00  0.00     0.135 A 
ATOM     70  C   UNL     1       6.071  -8.363  -3.798  1.00  0.00     0.135 A 
ATOM     71  F   UNL     1       6.442  -4.844  -4.641  1.00  0.00    -0.206 F 
ATOM     72  C   UNL     1       6.324  -6.728  -6.037  1.00  0.00     0.059 A 
ATOM     73  C   UNL     1       6.085  -8.938  -5.068  1.00  0.00     0.059 A 
ATOM     74  F   UNL     1       5.947  -9.180  -2.740  1.00  0.00    -0.206 F 
ATOM     75  C   UNL     1       6.195  -8.110  -6.184  1.00  0.00     0.060 A 
BRANCH  75  76
ATOM     76  S   UNL     1       6.177  -8.809  -7.851  1.00  0.00     0.124 S 
ATOM     77  O   UNL     1       4.846  -8.427  -8.311  1.00  0.00    -0.237 OA
ATOM     78  O   UNL     1       7.291  -8.120  -8.494  1.00  0.00    -0.237 OA
ATOM     79  O   UNL     1       6.376 -10.238  -7.623  1.00  0.00    -0.744 OA
ENDBRANCH  75  76
ENDBRANCH  54  68
BRANCH  55  80
ATOM     80  C   UNL     1       6.053  -2.974   5.591  1.00  0.00     0.058 A 
ATOM     81  C   UNL     1       6.841  -1.891   6.001  1.00  0.00     0.135 A 
ATOM     82  C   UNL     1       5.133  -3.500   6.514  1.00  0.00     0.135 A 
ATOM     83  F   UNL     1       7.735  -1.355   5.157  1.00  0.00    -0.206 F 
ATOM     84  C   UNL     1       6.719  -1.342   7.274  1.00  0.00     0.059 A 
ATOM     85  C   UNL     1       4.974  -2.952   7.783  1.00  0.00     0.059 A 
ATOM     86  F   UNL     1       4.337  -4.523   6.163  1.00  0.00    -0.206 F 
ATOM     87  C   UNL     1       5.776  -1.875   8.155  1.00  0.00     0.060 A 
BRANCH  87  88
ATOM     88  S   UNL     1       5.558  -1.097   9.772  1.00  0.00     0.124 S 
ATOM     89  O   UNL     1       6.720  -1.597  10.496  1.00  0.00    -0.237 OA
ATOM     90  O   UNL     1       5.576   0.323   9.435  1.00  0.00    -0.237 OA
ATOM     91  O   UNL     1       4.265  -1.609  10.216  1.00  0.00    -0.744 OA
ENDBRANCH  87  88
ENDBRANCH  55  80
BRANCH  67  92
ATOM     92  C   UNL     1      10.674  -6.807   2.057  1.00  0.00     0.058 A 
ATOM     93  C   UNL     1      10.830  -7.884   2.942  1.00  0.00     0.135 A 
ATOM     94  C   UNL     1      11.829  -6.234   1.503  1.00  0.00     0.135 A 
ATOM     95  F   UNL     1       9.755  -8.455   3.508  1.00  0.00    -0.206 F 
ATOM     96  C   UNL     1      12.090  -8.361   3.287  1.00  0.00     0.059 A 
ATOM     97  C   UNL     1      13.098  -6.708   1.816  1.00  0.00     0.059 A 
ATOM     98  F   UNL     1      11.729  -5.202   0.650  1.00  0.00    -0.206 F 
ATOM     99  C   UNL     1      13.218  -7.764   2.720  1.00  0.00     0.060 A 
BRANCH  99 100
ATOM    100  S   UNL     1      14.849  -8.402   3.158  1.00  0.00     0.124 S 
ATOM    101  O   UNL     1      15.041  -7.828   4.485  1.00  0.00    -0.237 OA
ATOM    102  O   UNL     1      14.644  -9.846   3.115  1.00  0.00    -0.237 OA
ATOM    103  O   UNL     1      15.713  -7.867   2.110  1.00  0.00    -0.744 OA
ENDBRANCH  99 100
ENDBRANCH  67  92
ENDBRANCH  41  42
ENDBRANCH  34  36
ENDBRANCH  33  34
ENDBRANCH  32  33
ENDBRANCH   1  32
TORSDOF 20
