REMARK SMILES C[C@H](SC1CCOCC1)c1ccc(C(=O)OCCOC(=O)c2ccc(-c3c4nc(c(-c5c(F)cc(S(=O)(=O)[O-])cc5F)c5ccc([nH]5)c(-c5c(F)cc(S(=O)(=O)[O-])cc5F)c5nc(c(-c6c(F)cc(S(=O)(=O)[O-])cc6F)c6ccc3[nH]6)C=C5)C=C4)cc2)o1
REMARK SMILES IDX 17 1 16 2 14 3 15 4 13 5 10 6 11 7 88 8 12 9 2 10 1 11 3 12
REMARK SMILES IDX 4 13 5 14 9 15 6 16 8 17 7 18 18 19 19 20 20 21 21 22 22 23
REMARK SMILES IDX 23 24 87 25 24 26 86 27 25 28 26 29 27 30 80 31 28 32 85 33
REMARK SMILES IDX 79 34 81 35 29 36 84 37 78 38 77 39 30 41 64 42 43 43 63 44
REMARK SMILES IDX 44 45 47 46 62 47 82 48 45 49 46 50 61 52 83 53 48 54 31 55
REMARK SMILES IDX 32 56 41 57 33 58 34 59 40 60 42 61 35 62 36 63 37 64 38 65
REMARK SMILES IDX 39 66 65 67 66 68 75 69 67 70 68 71 74 72 76 73 69 74 70 75
REMARK SMILES IDX 71 76 72 77 73 78 49 79 50 80 59 81 51 82 52 83 58 84 60 85
REMARK SMILES IDX 53 86 54 87 55 88 56 89 57 90
REMARK H PARENT 81 40 47 51
REMARK Flexibility Score: inf
ROOT
ATOM      1  C   UNL     1      -6.357   0.769  -0.714  1.00  0.00     0.275 C 
ENDROOT
BRANCH   1   2
ATOM      2  O   UNL     1      -5.328  -0.237  -0.684  1.00  0.00    -0.456 OA
BRANCH   2   3
ATOM      3  C   UNL     1      -4.111   0.131  -1.192  1.00  0.00     0.374 C 
ATOM      4  O   UNL     1      -3.892   1.197  -1.750  1.00  0.00    -0.242 OA
BRANCH   3   5
ATOM      5  C   UNL     1      -3.137  -0.901  -0.918  1.00  0.00     0.211 A 
ATOM      6  C   UNL     1      -1.074  -1.683  -0.692  1.00  0.00     0.117 A 
ATOM      7  C   UNL     1      -1.933  -2.692  -0.296  1.00  0.00     0.048 A 
ATOM      8  O   UNL     1      -1.811  -0.614  -1.118  1.00  0.00    -0.453 OA
ATOM      9  C   UNL     1      -3.248  -2.189  -0.430  1.00  0.00     0.058 A 
BRANCH   6  10
ATOM     10  C   UNL     1       0.423  -1.581  -0.774  1.00  0.00     0.110 C 
ATOM     11  C   UNL     1       1.093  -2.591   0.170  1.00  0.00     0.028 C 
BRANCH  10  12
ATOM     12  S   UNL     1       1.073   0.046  -0.243  1.00  0.00    -0.147 SA
BRANCH  12  13
ATOM     13  C   UNL     1       1.450   0.931  -1.812  1.00  0.00     0.052 C 
ATOM     14  C   UNL     1       0.212   1.492  -2.511  1.00  0.00     0.043 C 
ATOM     15  C   UNL     1       2.327   0.154  -2.795  1.00  0.00     0.043 C 
ATOM     16  C   UNL     1       0.643   2.285  -3.741  1.00  0.00     0.161 C 
ATOM     17  C   UNL     1       2.627   1.022  -4.012  1.00  0.00     0.161 C 
ATOM     18  O   UNL     1       1.409   1.456  -4.618  1.00  0.00    -0.381 OA
ENDBRANCH  12  13
ENDBRANCH  10  12
ENDBRANCH   6  10
ENDBRANCH   3   5
ENDBRANCH   2   3
ENDBRANCH   1   2
BRANCH   1  19
ATOM     19  C   UNL     1      -6.462   1.508   0.625  1.00  0.00     0.275 C 
BRANCH  19  20
ATOM     20  O   UNL     1      -5.353   2.401   0.828  1.00  0.00    -0.458 OA
BRANCH  20  21
ATOM     21  C   UNL     1      -4.304   1.875   1.508  1.00  0.00     0.338 C 
ATOM     22  O   UNL     1      -4.252   0.762   2.006  1.00  0.00    -0.246 OA
BRANCH  21  23
ATOM     23  C   UNL     1      -3.145   2.786   1.424  1.00  0.00     0.060 A 
ATOM     24  C   UNL     1      -1.911   2.222   1.097  1.00  0.00     0.016 A 
ATOM     25  C   UNL     1      -3.245   4.160   1.674  1.00  0.00     0.016 A 
ATOM     26  C   UNL     1      -0.783   3.030   0.998  1.00  0.00     0.010 A 
ATOM     27  C   UNL     1      -2.103   4.968   1.585  1.00  0.00     0.010 A 
ATOM     28  C   UNL     1      -0.866   4.404   1.239  1.00  0.00    -0.014 A 
BRANCH  28  29
ATOM     29  C   UNL     1       0.380   5.200   1.161  1.00  0.00     0.031 A 
ATOM     30  C   UNL     1       1.237   5.355   2.382  1.00  0.00     0.074 A 
ATOM     31  C   UNL     1       0.799   5.674  -0.027  1.00  0.00     0.049 A 
ATOM     32  N   UNL     1       2.389   5.961   2.512  1.00  0.00    -0.248 NA
ATOM     33  C   UNL     1       0.737   4.731   3.616  1.00  0.00     0.031 C 
ATOM     34  C   UNL     1       0.094   5.504  -1.298  1.00  0.00     0.029 A 
ATOM     35  N   UNL     1       1.931   6.373  -0.361  1.00  0.00    -0.354 N 
ATOM     36  C   UNL     1       2.754   5.793   3.841  1.00  0.00     0.074 A 
ATOM     37  C   UNL     1       1.697   5.036   4.478  1.00  0.00     0.031 C 
ATOM     38  C   UNL     1       0.815   6.079  -2.276  1.00  0.00     0.029 A 
ATOM     39  C   UNL     1       2.015   6.680  -1.698  1.00  0.00     0.049 A 
ATOM     40  H   UNL     1       2.618   6.632   0.295  1.00  0.00     0.167 HD
ATOM     41  C   UNL     1       3.867   6.236   4.473  1.00  0.00     0.037 A 
ATOM     42  C   UNL     1       2.949   7.378  -2.374  1.00  0.00     0.037 A 
ATOM     43  C   UNL     1       4.906   7.007   3.842  1.00  0.00     0.049 A 
ATOM     44  C   UNL     1       4.132   7.939  -1.630  1.00  0.00     0.074 A 
ATOM     45  C   UNL     1       6.054   7.534   4.408  1.00  0.00     0.029 A 
ATOM     46  N   UNL     1       4.919   7.369   2.503  1.00  0.00    -0.354 N 
ATOM     47  N   UNL     1       4.455   7.795  -0.366  1.00  0.00    -0.248 NA
ATOM     48  C   UNL     1       5.071   8.768  -2.400  1.00  0.00     0.031 C 
ATOM     49  C   UNL     1       6.740   8.250   3.419  1.00  0.00     0.029 A 
ATOM     50  C   UNL     1       6.041   8.134   2.228  1.00  0.00     0.049 A 
ATOM     51  H   UNL     1       4.232   7.118   1.844  1.00  0.00     0.167 HD
ATOM     52  C   UNL     1       5.637   8.508  -0.192  1.00  0.00     0.074 A 
ATOM     53  C   UNL     1       5.983   9.066  -1.483  1.00  0.00     0.031 C 
ATOM     54  C   UNL     1       6.368   8.687   0.937  1.00  0.00     0.037 A 
BRANCH  41  55
ATOM     55  C   UNL     1       3.977   5.943   5.941  1.00  0.00     0.058 A 
ATOM     56  C   UNL     1       4.309   4.666   6.418  1.00  0.00     0.135 A 
ATOM     57  C   UNL     1       3.731   6.954   6.883  1.00  0.00     0.135 A 
ATOM     58  F   UNL     1       4.536   3.661   5.557  1.00  0.00    -0.206 F 
ATOM     59  C   UNL     1       4.359   4.391   7.781  1.00  0.00     0.059 A 
ATOM     60  C   UNL     1       3.794   6.707   8.251  1.00  0.00     0.059 A 
ATOM     61  F   UNL     1       3.406   8.191   6.477  1.00  0.00    -0.206 F 
ATOM     62  C   UNL     1       4.089   5.417   8.690  1.00  0.00     0.060 A 
BRANCH  62  63
ATOM     63  S   UNL     1       4.119   5.044  10.456  1.00  0.00     0.124 S 
ATOM     64  O   UNL     1       2.850   4.344  10.627  1.00  0.00    -0.237 OA
ATOM     65  O   UNL     1       5.318   4.222  10.585  1.00  0.00    -0.237 OA
ATOM     66  O   UNL     1       4.198   6.362  11.079  1.00  0.00    -0.744 OA
ENDBRANCH  62  63
ENDBRANCH  41  55
BRANCH  42  67
ATOM     67  C   UNL     1       2.793   7.608  -3.834  1.00  0.00     0.058 A 
ATOM     68  C   UNL     1       3.640   6.985  -4.762  1.00  0.00     0.135 A 
ATOM     69  C   UNL     1       1.793   8.459  -4.330  1.00  0.00     0.135 A 
ATOM     70  F   UNL     1       4.619   6.173  -4.335  1.00  0.00    -0.206 F 
ATOM     71  C   UNL     1       3.509   7.205  -6.130  1.00  0.00     0.059 A 
ATOM     72  C   UNL     1       1.627   8.677  -5.694  1.00  0.00     0.059 A 
ATOM     73  F   UNL     1       0.953   9.074  -3.483  1.00  0.00    -0.206 F 
ATOM     74  C   UNL     1       2.498   8.053  -6.586  1.00  0.00     0.060 A 
BRANCH  74  75
ATOM     75  S   UNL     1       2.302   8.303  -8.365  1.00  0.00     0.124 S 
ATOM     76  O   UNL     1       3.378   9.245  -8.648  1.00  0.00    -0.237 OA
ATOM     77  O   UNL     1       2.481   6.953  -8.890  1.00  0.00    -0.237 OA
ATOM     78  O   UNL     1       0.948   8.836  -8.479  1.00  0.00    -0.744 OA
ENDBRANCH  74  75
ENDBRANCH  42  67
BRANCH  54  79
ATOM     79  C   UNL     1       7.618   9.514   0.828  1.00  0.00     0.058 A 
ATOM     80  C   UNL     1       7.563  10.913   0.728  1.00  0.00     0.135 A 
ATOM     81  C   UNL     1       8.883   8.909   0.884  1.00  0.00     0.135 A 
ATOM     82  F   UNL     1       6.377  11.540   0.665  1.00  0.00    -0.206 F 
ATOM     83  C   UNL     1       8.720  11.684   0.673  1.00  0.00     0.059 A 
ATOM     84  C   UNL     1      10.054   9.662   0.852  1.00  0.00     0.059 A 
ATOM     85  F   UNL     1       8.991   7.575   0.989  1.00  0.00    -0.206 F 
ATOM     86  C   UNL     1       9.962  11.049   0.737  1.00  0.00     0.060 A 
BRANCH  86  87
ATOM     87  S   UNL     1      11.458  12.060   0.709  1.00  0.00     0.124 S 
ATOM     88  O   UNL     1      11.558  12.397  -0.707  1.00  0.00    -0.237 OA
ATOM     89  O   UNL     1      11.111  13.162   1.600  1.00  0.00    -0.237 OA
ATOM     90  O   UNL     1      12.487  11.156   1.214  1.00  0.00    -0.744 OA
ENDBRANCH  86  87
ENDBRANCH  54  79
ENDBRANCH  28  29
ENDBRANCH  21  23
ENDBRANCH  20  21
ENDBRANCH  19  20
ENDBRANCH   1  19
TORSDOF 17
