REMARK SMILES COC(=O)c1cncc(N2CC[C@H](C(=O)OCCOC(=O)c3ccc(-c4c5nc(c(-c6c(F)cc(S(=O)(=O)[O-])cc6F)c6ccc([nH]6)c(-c6c(F)cc(S(=O)(=O)[O-])cc6F)c6nc(c(-c7c(F)cc(S(=O)(=O)[O-])cc7F)c7ccc4[nH]7)C=C6)C=C5)cc3)C2)n1
REMARK SMILES IDX 17 1 16 2 14 3 15 4 13 5 10 6 11 7 88 8 12 9 9 10 5 11 6 12
REMARK SMILES IDX 89 13 7 14 8 15 3 16 4 17 2 18 1 19 18 20 19 21 20 22 21 23
REMARK SMILES IDX 22 24 23 25 87 26 24 27 86 28 25 29 26 30 27 31 80 32 28 33
REMARK SMILES IDX 85 34 79 35 81 36 29 37 84 38 78 39 77 40 30 42 64 43 43 44
REMARK SMILES IDX 63 45 44 46 47 47 62 48 82 49 45 50 46 51 61 53 83 54 48 55
REMARK SMILES IDX 31 56 32 57 41 58 33 59 34 60 40 61 42 62 35 63 36 64 37 65
REMARK SMILES IDX 38 66 39 67 65 68 66 69 75 70 67 71 68 72 74 73 76 74 69 75
REMARK SMILES IDX 70 76 71 77 72 78 73 79 49 80 50 81 59 82 51 83 52 84 58 85
REMARK SMILES IDX 60 86 53 87 54 88 55 89 56 90 57 91
REMARK H PARENT 81 41 47 52
REMARK Flexibility Score: inf
ROOT
ATOM      1  C   UNL     1       3.992  -5.246  -8.498  1.00  0.00     0.274 C 
ENDROOT
BRANCH   1   2
ATOM      2  O   UNL     1       3.638  -5.467  -7.120  1.00  0.00    -0.462 OA
BRANCH   2   3
ATOM      3  C   UNL     1       2.655  -6.367  -6.871  1.00  0.00     0.310 C 
ATOM      4  O   UNL     1       1.972  -6.914  -7.729  1.00  0.00    -0.252 OA
BRANCH   3   5
ATOM      5  C   UNL     1       2.475  -6.649  -5.403  1.00  0.00     0.120 C 
ATOM      6  N   UNL     1       1.316  -5.973  -3.474  1.00  0.00    -0.354 N 
ATOM      7  C   UNL     1       2.731  -6.075  -3.111  1.00  0.00     0.119 C 
ATOM      8  C   UNL     1       1.133  -6.116  -4.922  1.00  0.00     0.133 C 
ATOM      9  C   UNL     1       3.466  -6.003  -4.442  1.00  0.00     0.038 C 
BRANCH   6  10
ATOM     10  C   UNL     1       0.524  -5.023  -2.861  1.00  0.00     0.148 A 
ATOM     11  C   UNL     1       0.268  -2.953  -1.881  1.00  0.00     0.169 A 
ATOM     12  C   UNL     1      -1.095  -3.165  -1.745  1.00  0.00     0.147 A 
ATOM     13  N   UNL     1       1.092  -3.877  -2.437  1.00  0.00    -0.221 NA
ATOM     14  N   UNL     1      -1.696  -4.302  -2.164  1.00  0.00    -0.258 NA
ATOM     15  C   UNL     1      -0.856  -5.212  -2.724  1.00  0.00     0.157 A 
BRANCH  11  16
ATOM     16  C   UNL     1       0.898  -1.669  -1.485  1.00  0.00     0.358 C 
ATOM     17  O   UNL     1       1.900  -1.196  -1.997  1.00  0.00    -0.244 OA
BRANCH  16  18
ATOM     18  O   UNL     1       0.204  -1.115  -0.454  1.00  0.00    -0.464 OA
ATOM     19  C   UNL     1       0.792   0.084   0.052  1.00  0.00     0.282 C 
ENDBRANCH  16  18
ENDBRANCH  11  16
ENDBRANCH   6  10
ENDBRANCH   3   5
ENDBRANCH   2   3
ENDBRANCH   1   2
BRANCH   1  20
ATOM     20  C   UNL     1       5.378  -5.825  -8.792  1.00  0.00     0.275 C 
BRANCH  20  21
ATOM     21  O   UNL     1       5.374  -7.264  -8.721  1.00  0.00    -0.458 OA
BRANCH  21  22
ATOM     22  C   UNL     1       5.671  -7.777  -7.503  1.00  0.00     0.338 C 
ATOM     23  O   UNL     1       5.965  -7.161  -6.493  1.00  0.00    -0.246 OA
BRANCH  22  24
ATOM     24  C   UNL     1       5.452  -9.231  -7.512  1.00  0.00     0.060 A 
ATOM     25  C   UNL     1       4.458  -9.744  -6.676  1.00  0.00     0.016 A 
ATOM     26  C   UNL     1       6.264 -10.086  -8.257  1.00  0.00     0.016 A 
ATOM     27  C   UNL     1       4.272 -11.118  -6.571  1.00  0.00     0.010 A 
ATOM     28  C   UNL     1       6.076 -11.469  -8.151  1.00  0.00     0.010 A 
ATOM     29  C   UNL     1       5.087 -11.991  -7.299  1.00  0.00    -0.014 A 
BRANCH  29  30
ATOM     30  C   UNL     1       4.929 -13.453  -7.117  1.00  0.00     0.031 A 
ATOM     31  C   UNL     1       5.942 -14.218  -6.315  1.00  0.00     0.074 A 
ATOM     32  C   UNL     1       3.858 -14.079  -7.639  1.00  0.00     0.049 A 
ATOM     33  N   UNL     1       6.020 -15.505  -6.096  1.00  0.00    -0.248 NA
ATOM     34  C   UNL     1       7.007 -13.431  -5.674  1.00  0.00     0.031 C 
ATOM     35  C   UNL     1       2.785 -13.428  -8.393  1.00  0.00     0.029 A 
ATOM     36  N   UNL     1       3.495 -15.401  -7.613  1.00  0.00    -0.354 N 
ATOM     37  C   UNL     1       7.153 -15.688  -5.314  1.00  0.00     0.074 A 
ATOM     38  C   UNL     1       7.737 -14.380  -5.103  1.00  0.00     0.031 C 
ATOM     39  C   UNL     1       1.883 -14.354  -8.757  1.00  0.00     0.029 A 
ATOM     40  C   UNL     1       2.335 -15.666  -8.300  1.00  0.00     0.049 A 
ATOM     41  H   UNL     1       4.016 -16.094  -7.146  1.00  0.00     0.167 HD
ATOM     42  C   UNL     1       7.657 -16.842  -4.817  1.00  0.00     0.037 A 
ATOM     43  C   UNL     1       1.721 -16.837  -8.555  1.00  0.00     0.037 A 
ATOM     44  C   UNL     1       7.060 -18.137  -5.016  1.00  0.00     0.049 A 
ATOM     45  C   UNL     1       2.323 -18.110  -8.027  1.00  0.00     0.074 A 
ATOM     46  C   UNL     1       7.492 -19.366  -4.551  1.00  0.00     0.029 A 
ATOM     47  N   UNL     1       5.897 -18.368  -5.738  1.00  0.00    -0.354 N 
ATOM     48  N   UNL     1       3.406 -18.271  -7.305  1.00  0.00    -0.248 NA
ATOM     49  C   UNL     1       1.625 -19.361  -8.353  1.00  0.00     0.031 C 
ATOM     50  C   UNL     1       6.606 -20.346  -5.018  1.00  0.00     0.029 A 
ATOM     51  C   UNL     1       5.604 -19.721  -5.743  1.00  0.00     0.049 A 
ATOM     52  H   UNL     1       5.360 -17.672  -6.181  1.00  0.00     0.167 HD
ATOM     53  C   UNL     1       3.513 -19.638  -7.078  1.00  0.00     0.074 A 
ATOM     54  C   UNL     1       2.377 -20.259  -7.729  1.00  0.00     0.031 C 
ATOM     55  C   UNL     1       4.465 -20.318  -6.394  1.00  0.00     0.037 A 
BRANCH  42  56
ATOM     56  C   UNL     1       8.937 -16.758  -4.035  1.00  0.00     0.058 A 
ATOM     57  C   UNL     1       8.971 -16.258  -2.724  1.00  0.00     0.135 A 
ATOM     58  C   UNL     1      10.143 -17.202  -4.600  1.00  0.00     0.135 A 
ATOM     59  F   UNL     1       7.848 -15.803  -2.145  1.00  0.00    -0.206 F 
ATOM     60  C   UNL     1      10.162 -16.178  -2.008  1.00  0.00     0.059 A 
ATOM     61  C   UNL     1      11.342 -17.150  -3.895  1.00  0.00     0.059 A 
ATOM     62  F   UNL     1      10.165 -17.686  -5.852  1.00  0.00    -0.206 F 
ATOM     63  C   UNL     1      11.343 -16.622  -2.605  1.00  0.00     0.060 A 
BRANCH  63  64
ATOM     64  S   UNL     1      12.884 -16.506  -1.670  1.00  0.00     0.124 S 
ATOM     65  O   UNL     1      13.181 -15.081  -1.778  1.00  0.00    -0.237 OA
ATOM     66  O   UNL     1      12.486 -16.972  -0.346  1.00  0.00    -0.237 OA
ATOM     67  O   UNL     1      13.788 -17.393  -2.397  1.00  0.00    -0.744 OA
ENDBRANCH  63  64
ENDBRANCH  42  56
BRANCH  43  68
ATOM     68  C   UNL     1       0.478 -16.857  -9.368  1.00  0.00     0.058 A 
ATOM     69  C   UNL     1      -0.765 -17.131  -8.783  1.00  0.00     0.135 A 
ATOM     70  C   UNL     1       0.510 -16.582 -10.744  1.00  0.00     0.135 A 
ATOM     71  F   UNL     1      -0.844 -17.409  -7.473  1.00  0.00    -0.206 F 
ATOM     72  C   UNL     1      -1.937 -17.137  -9.534  1.00  0.00     0.059 A 
ATOM     73  C   UNL     1      -0.649 -16.561 -11.512  1.00  0.00     0.059 A 
ATOM     74  F   UNL     1       1.676 -16.303 -11.348  1.00  0.00    -0.206 F 
ATOM     75  C   UNL     1      -1.868 -16.849 -10.899  1.00  0.00     0.060 A 
BRANCH  75  76
ATOM     76  S   UNL     1      -3.398 -16.799 -11.857  1.00  0.00     0.124 S 
ATOM     77  O   UNL     1      -3.667 -18.219 -12.052  1.00  0.00    -0.237 OA
ATOM     78  O   UNL     1      -4.306 -16.095 -10.957  1.00  0.00    -0.237 OA
ATOM     79  O   UNL     1      -3.017 -16.057 -13.055  1.00  0.00    -0.744 OA
ENDBRANCH  75  76
ENDBRANCH  43  68
BRANCH  55  80
ATOM     80  C   UNL     1       4.308 -21.808  -6.295  1.00  0.00     0.058 A 
ATOM     81  C   UNL     1       4.609 -22.650  -7.376  1.00  0.00     0.135 A 
ATOM     82  C   UNL     1       3.899 -22.401  -5.091  1.00  0.00     0.135 A 
ATOM     83  F   UNL     1       4.997 -22.129  -8.551  1.00  0.00    -0.206 F 
ATOM     84  C   UNL     1       4.495 -24.032  -7.272  1.00  0.00     0.059 A 
ATOM     85  C   UNL     1       3.797 -23.782  -4.958  1.00  0.00     0.059 A 
ATOM     86  F   UNL     1       3.607 -21.638  -4.026  1.00  0.00    -0.206 F 
ATOM     87  C   UNL     1       4.088 -24.589  -6.058  1.00  0.00     0.060 A 
BRANCH  87  88
ATOM     88  S   UNL     1       3.979 -26.386  -5.918  1.00  0.00     0.124 S 
ATOM     89  O   UNL     1       2.718 -26.657  -6.600  1.00  0.00    -0.237 OA
ATOM     90  O   UNL     1       5.183 -26.831  -6.613  1.00  0.00    -0.237 OA
ATOM     91  O   UNL     1       3.976 -26.614  -4.476  1.00  0.00    -0.744 OA
ENDBRANCH  87  88
ENDBRANCH  55  80
ENDBRANCH  29  30
ENDBRANCH  22  24
ENDBRANCH  21  22
ENDBRANCH  20  21
ENDBRANCH   1  20
TORSDOF 17
