REMARK SMILES [NH3+]C1CC[NH+](CC(=O)Nc2cc(Cl)ccc2C(=O)OCCOC(=O)c2ccc(-c3c4nc(c(-c5c(F)cc(S(=O)(=O)[O-])cc5F)c5ccc([nH]5)c(-c5c(F)cc(S(=O)(=O)[O-])cc5F)c5nc(c(-c6c(F)cc(S(=O)(=O)[O-])cc6F)c6ccc3[nH]6)C=C5)C=C4)cc2)CC1
REMARK SMILES IDX 20 1 19 2 17 3 18 4 16 5 10 6 11 7 12 8 15 9 13 10 14 11
REMARK SMILES IDX 9 12 7 13 8 14 6 16 5 17 2 18 3 19 92 20 4 21 91 22 1 24
REMARK SMILES IDX 21 28 22 29 23 30 24 31 25 32 26 33 90 34 27 35 89 36 28 37
REMARK SMILES IDX 29 38 30 39 83 40 31 41 88 42 82 43 84 44 32 45 87 46 81 47
REMARK SMILES IDX 80 48 33 50 67 51 46 52 66 53 47 54 50 55 65 56 85 57 48 58
REMARK SMILES IDX 49 59 64 61 86 62 51 63 34 64 35 65 44 66 36 67 37 68 43 69
REMARK SMILES IDX 45 70 38 71 39 72 40 73 41 74 42 75 68 76 69 77 78 78 70 79
REMARK SMILES IDX 71 80 77 81 79 82 72 83 73 84 74 85 75 86 76 87 52 88 53 89
REMARK SMILES IDX 62 90 54 91 55 92 61 93 63 94 56 95 57 96 58 97 59 98 60 99
REMARK H PARENT 9 15 5 23 1 25 1 26 1 27 84 49 50 60
REMARK Flexibility Score: inf
ROOT
ATOM      1  C   UNL     1      -0.494  -7.040   1.610  1.00  0.00     0.275 C 
ENDROOT
BRANCH   1   2
ATOM      2  O   UNL     1      -0.158  -6.044   0.621  1.00  0.00    -0.458 OA
BRANCH   2   3
ATOM      3  C   UNL     1       1.159  -5.752   0.461  1.00  0.00     0.340 C 
ATOM      4  O   UNL     1       2.070  -6.163   1.145  1.00  0.00    -0.246 OA
BRANCH   3   5
ATOM      5  C   UNL     1       1.362  -4.960  -0.795  1.00  0.00     0.083 A 
ATOM      6  C   UNL     1       0.381  -4.124  -1.386  1.00  0.00     0.057 A 
ATOM      7  C   UNL     1       0.691  -3.543  -2.618  1.00  0.00     0.047 A 
ATOM      8  C   UNL     1       1.956  -3.700  -3.203  1.00  0.00     0.043 A 
ATOM      9  C   UNL     1       2.636  -5.096  -1.387  1.00  0.00     0.019 A 
ATOM     10  Cl  UNL     1       2.320  -2.884  -4.674  1.00  0.00    -0.084 Cl
ATOM     11  C   UNL     1       2.933  -4.470  -2.593  1.00  0.00     0.021 A 
BRANCH   6  12
ATOM     12  N   UNL     1      -0.806  -3.867  -0.661  1.00  0.00    -0.320 N 
ATOM     13  C   UNL     1      -1.817  -2.954  -0.666  1.00  0.00     0.279 C 
ATOM     14  O   UNL     1      -2.599  -3.025   0.297  1.00  0.00    -0.268 OA
ATOM     15  H   UNL     1      -0.939  -4.537   0.048  1.00  0.00     0.170 HD
BRANCH  13  16
ATOM     16  C   UNL     1      -2.041  -1.890  -1.729  1.00  0.00     0.363 C 
BRANCH  16  17
ATOM     17  N   UNL     1      -1.459  -0.562  -1.484  1.00  0.00    -0.327 N 
ATOM     18  C   UNL     1       0.201   0.123   0.894  1.00  0.00     0.192 C 
ATOM     19  C   UNL     1      -1.334   0.134   0.957  1.00  0.00     0.126 C 
ATOM     20  C   UNL     1       0.684  -0.773  -0.242  1.00  0.00     0.126 C 
ATOM     21  C   UNL     1      -2.032   0.244  -0.406  1.00  0.00     0.268 C 
ATOM     22  C   UNL     1      -0.013  -0.427  -1.554  1.00  0.00     0.268 C 
ATOM     23  H   UNL     1      -1.802  -0.134  -2.344  1.00  0.00     0.348 HD
BRANCH  18  24
ATOM     24  N   UNL     1       0.763   1.469   0.731  1.00  0.00    -0.355 N 
ATOM     25  H   UNL     1       0.439   2.067   1.491  1.00  0.00     0.344 HD
ATOM     26  H   UNL     1       0.459   1.858  -0.162  1.00  0.00     0.344 HD
ATOM     27  H   UNL     1       1.781   1.416   0.749  1.00  0.00     0.344 HD
ENDBRANCH  18  24
ENDBRANCH  16  17
ENDBRANCH  13  16
ENDBRANCH   6  12
ENDBRANCH   3   5
ENDBRANCH   2   3
ENDBRANCH   1   2
BRANCH   1  28
ATOM     28  C   UNL     1      -1.125  -8.246   0.915  1.00  0.00     0.275 C 
BRANCH  28  29
ATOM     29  O   UNL     1      -0.138  -8.872   0.074  1.00  0.00    -0.458 OA
BRANCH  29  30
ATOM     30  C   UNL     1      -0.342  -8.761  -1.260  1.00  0.00     0.338 C 
ATOM     31  O   UNL     1      -1.315  -8.295  -1.827  1.00  0.00    -0.246 OA
BRANCH  30  32
ATOM     32  C   UNL     1       0.873  -9.187  -1.974  1.00  0.00     0.060 A 
ATOM     33  C   UNL     1       2.023  -8.426  -1.811  1.00  0.00     0.016 A 
ATOM     34  C   UNL     1       0.848 -10.212  -2.914  1.00  0.00     0.016 A 
ATOM     35  C   UNL     1       3.105  -8.591  -2.668  1.00  0.00     0.010 A 
ATOM     36  C   UNL     1       2.000 -10.476  -3.673  1.00  0.00     0.010 A 
ATOM     37  C   UNL     1       3.135  -9.645  -3.589  1.00  0.00    -0.014 A 
BRANCH  37  38
ATOM     38  C   UNL     1       4.331  -9.852  -4.465  1.00  0.00     0.031 A 
ATOM     39  C   UNL     1       4.163  -9.997  -5.959  1.00  0.00     0.074 A 
ATOM     40  C   UNL     1       5.577  -9.897  -3.942  1.00  0.00     0.049 A 
ATOM     41  N   UNL     1       5.018 -10.428  -6.852  1.00  0.00    -0.248 NA
ATOM     42  C   UNL     1       2.854  -9.625  -6.521  1.00  0.00     0.031 C 
ATOM     43  C   UNL     1       5.918  -9.711  -2.528  1.00  0.00     0.029 A 
ATOM     44  N   UNL     1       6.799 -10.107  -4.540  1.00  0.00    -0.354 N 
ATOM     45  C   UNL     1       4.329 -10.454  -8.061  1.00  0.00     0.074 A 
ATOM     46  C   UNL     1       2.987  -9.989  -7.789  1.00  0.00     0.031 C 
ATOM     47  C   UNL     1       7.249  -9.755  -2.378  1.00  0.00     0.029 A 
ATOM     48  C   UNL     1       7.853 -10.113  -3.654  1.00  0.00     0.049 A 
ATOM     49  H   UNL     1       6.909 -10.239  -5.509  1.00  0.00     0.167 HD
ATOM     50  C   UNL     1       4.777 -10.838  -9.282  1.00  0.00     0.037 A 
ATOM     51  C   UNL     1       9.150 -10.441  -3.817  1.00  0.00     0.037 A 
ATOM     52  C   UNL     1       6.137 -11.230  -9.553  1.00  0.00     0.049 A 
ATOM     53  C   UNL     1       9.615 -10.912  -5.166  1.00  0.00     0.074 A 
ATOM     54  C   UNL     1       6.696 -11.624 -10.757  1.00  0.00     0.029 A 
ATOM     55  N   UNL     1       7.157 -11.259  -8.612  1.00  0.00    -0.354 N 
ATOM     56  N   UNL     1       8.932 -11.017  -6.280  1.00  0.00    -0.248 NA
ATOM     57  C   UNL     1      11.016 -11.340  -5.273  1.00  0.00     0.031 C 
ATOM     58  C   UNL     1       8.043 -11.933 -10.535  1.00  0.00     0.029 A 
ATOM     59  C   UNL     1       8.337 -11.681  -9.204  1.00  0.00     0.049 A 
ATOM     60  H   UNL     1       7.058 -11.016  -7.664  1.00  0.00     0.167 HD
ATOM     61  C   UNL     1       9.822 -11.514  -7.224  1.00  0.00     0.074 A 
ATOM     62  C   UNL     1      11.098 -11.668  -6.555  1.00  0.00     0.031 C 
ATOM     63  C   UNL     1       9.601 -11.822  -8.525  1.00  0.00     0.037 A 
BRANCH  50  64
ATOM     64  C   UNL     1       3.782 -10.901 -10.411  1.00  0.00     0.058 A 
ATOM     65  C   UNL     1       3.244  -9.750 -11.007  1.00  0.00     0.135 A 
ATOM     66  C   UNL     1       3.389 -12.147 -10.930  1.00  0.00     0.135 A 
ATOM     67  F   UNL     1       3.571  -8.533 -10.544  1.00  0.00    -0.206 F 
ATOM     68  C   UNL     1       2.330  -9.832 -12.055  1.00  0.00     0.059 A 
ATOM     69  C   UNL     1       2.500 -12.252 -11.996  1.00  0.00     0.059 A 
ATOM     70  F   UNL     1       3.872 -13.282 -10.400  1.00  0.00    -0.206 F 
ATOM     71  C   UNL     1       1.964 -11.089 -12.542  1.00  0.00     0.060 A 
BRANCH  71  72
ATOM     72  S   UNL     1       0.777 -11.179 -13.900  1.00  0.00     0.124 S 
ATOM     73  O   UNL     1      -0.465 -10.812 -13.227  1.00  0.00    -0.237 OA
ATOM     74  O   UNL     1       1.303 -10.195 -14.841  1.00  0.00    -0.237 OA
ATOM     75  O   UNL     1       0.865 -12.569 -14.338  1.00  0.00    -0.744 OA
ENDBRANCH  71  72
ENDBRANCH  50  64
BRANCH  51  76
ATOM     76  C   UNL     1      10.079 -10.414  -2.652  1.00  0.00     0.058 A 
ATOM     77  C   UNL     1      11.134  -9.493  -2.585  1.00  0.00     0.135 A 
ATOM     78  C   UNL     1       9.916 -11.297  -1.571  1.00  0.00     0.135 A 
ATOM     79  F   UNL     1      11.344  -8.639  -3.598  1.00  0.00    -0.206 F 
ATOM     80  C   UNL     1      11.995  -9.449  -1.492  1.00  0.00     0.059 A 
ATOM     81  C   UNL     1      10.741 -11.248  -0.452  1.00  0.00     0.059 A 
ATOM     82  F   UNL     1       8.917 -12.194  -1.578  1.00  0.00    -0.206 F 
ATOM     83  C   UNL     1      11.785 -10.326  -0.426  1.00  0.00     0.060 A 
BRANCH  83  84
ATOM     84  S   UNL     1      12.867 -10.219   1.016  1.00  0.00     0.124 S 
ATOM     85  O   UNL     1      14.095 -10.815   0.505  1.00  0.00    -0.237 OA
ATOM     86  O   UNL     1      12.908  -8.781   1.262  1.00  0.00    -0.237 OA
ATOM     87  O   UNL     1      12.157 -10.999   2.025  1.00  0.00    -0.744 OA
ENDBRANCH  83  84
ENDBRANCH  51  76
BRANCH  63  88
ATOM     88  C   UNL     1      10.772 -12.323  -9.322  1.00  0.00     0.058 A 
ATOM     89  C   UNL     1      11.284 -13.617  -9.147  1.00  0.00     0.135 A 
ATOM     90  C   UNL     1      11.358 -11.511 -10.307  1.00  0.00     0.135 A 
ATOM     91  F   UNL     1      10.767 -14.428  -8.210  1.00  0.00    -0.206 F 
ATOM     92  C   UNL     1      12.349 -14.085  -9.909  1.00  0.00     0.059 A 
ATOM     93  C   UNL     1      12.405 -11.968 -11.100  1.00  0.00     0.059 A 
ATOM     94  F   UNL     1      10.900 -10.267 -10.518  1.00  0.00    -0.206 F 
ATOM     95  C   UNL     1      12.901 -13.253 -10.886  1.00  0.00     0.060 A 
BRANCH  95  96
ATOM     96  S   UNL     1      14.256 -13.887 -11.896  1.00  0.00     0.124 S 
ATOM     97  O   UNL     1      15.364 -13.869 -10.946  1.00  0.00    -0.237 OA
ATOM     98  O   UNL     1      13.769 -15.209 -12.277  1.00  0.00    -0.237 OA
ATOM     99  O   UNL     1      14.348 -12.921 -12.986  1.00  0.00    -0.744 OA
ENDBRANCH  95  96
ENDBRANCH  63  88
ENDBRANCH  37  38
ENDBRANCH  30  32
ENDBRANCH  29  30
ENDBRANCH  28  29
ENDBRANCH   1  28
TORSDOF 18
