REMARK SMILES CCc1cc(=O)oc2c3c(cc(OCC(=O)NCC(=O)OCCOC(=O)c4ccc(-c5c6nc(c(-c7c(F)cc(S(=O)(=O)[O-])cc7F)c7ccc([nH]7)c(-c7c(F)cc(S(=O)(=O)[O-])cc7F)c7nc(c(-c8c(F)cc(S(=O)(=O)[O-])cc8F)c8ccc5[nH]8)C=C7)C=C6)cc4)c12)OC(C)(C)CC3
REMARK SMILES IDX 22 1 21 2 19 3 20 4 18 5 17 6 15 7 16 8 14 10 13 11 12 12
REMARK SMILES IDX 3 13 4 14 93 15 5 16 8 17 6 18 7 19 9 20 11 21 10 22 99 23
REMARK SMILES IDX 94 24 98 25 95 26 96 27 97 28 2 29 1 30 23 31 24 32 25 33
REMARK SMILES IDX 26 34 27 35 28 36 92 37 29 38 91 39 30 40 31 41 32 42 85 43
REMARK SMILES IDX 33 44 90 45 84 46 86 47 34 48 89 49 83 50 82 51 35 53 69 54
REMARK SMILES IDX 48 55 68 56 49 57 52 58 67 59 87 60 50 61 51 62 66 64 88 65
REMARK SMILES IDX 53 66 36 67 37 68 46 69 38 70 39 71 45 72 47 73 40 74 41 75
REMARK SMILES IDX 42 76 43 77 44 78 70 79 71 80 80 81 72 82 73 83 79 84 81 85
REMARK SMILES IDX 74 86 75 87 76 88 77 89 78 90 54 91 55 92 64 93 56 94 57 95
REMARK SMILES IDX 63 96 65 97 58 98 59 99 60 100 61 101 62 102
REMARK H PARENT 17 9 86 52 52 63
REMARK Flexibility Score: inf
ROOT
ATOM      1  C   UNL     1       4.726   0.400  -1.659  1.00  0.00     0.274 C 
ENDROOT
BRANCH   1   2
ATOM      2  O   UNL     1       4.088   1.682  -1.512  1.00  0.00    -0.461 OA
BRANCH   2   3
ATOM      3  C   UNL     1       3.553   1.960  -0.294  1.00  0.00     0.325 C 
ATOM      4  O   UNL     1       3.453   1.156   0.625  1.00  0.00    -0.250 OA
BRANCH   3   5
ATOM      5  C   UNL     1       3.021   3.388  -0.190  1.00  0.00     0.238 C 
BRANCH   5   6
ATOM      6  N   UNL     1       3.470   4.306  -1.222  1.00  0.00    -0.342 N 
ATOM      7  C   UNL     1       2.710   4.998  -2.117  1.00  0.00     0.258 C 
ATOM      8  O   UNL     1       3.242   5.840  -2.843  1.00  0.00    -0.271 OA
ATOM      9  H   UNL     1       4.442   4.446  -1.283  1.00  0.00     0.164 HD
BRANCH   7  10
ATOM     10  C   UNL     1       1.199   4.725  -2.190  1.00  0.00     0.329 C 
BRANCH  10  11
ATOM     11  O   UNL     1       0.800   3.380  -2.455  1.00  0.00    -0.483 OA
BRANCH  11  12
ATOM     12  C   UNL     1       1.273   2.765  -3.589  1.00  0.00     0.135 A 
ATOM     13  C   UNL     1       0.724   0.406  -2.625  1.00  0.00    -0.026 A 
ATOM     14  C   UNL     1       0.700  -0.907  -2.913  1.00  0.00     0.098 A 
ATOM     15  C   UNL     1       1.219   1.351  -3.674  1.00  0.00     0.063 A 
ATOM     16  C   UNL     1       1.146  -1.492  -4.176  1.00  0.00     0.336 A 
ATOM     17  C   UNL     1       1.697   0.782  -4.875  1.00  0.00     0.149 A 
ATOM     18  O   UNL     1       1.073  -2.697  -4.380  1.00  0.00    -0.246 OA
ATOM     19  O   UNL     1       1.669  -0.616  -5.095  1.00  0.00    -0.422 OA
ATOM     20  C   UNL     1       2.229   1.529  -5.942  1.00  0.00     0.038 A 
ATOM     21  C   UNL     1       1.788   3.515  -4.662  1.00  0.00     0.094 A 
ATOM     22  C   UNL     1       2.301   2.905  -5.801  1.00  0.00     0.130 A 
ATOM     23  C   UNL     1       2.736   0.865  -7.190  1.00  0.00     0.047 C 
ATOM     24  O   UNL     1       2.840   3.751  -6.730  1.00  0.00    -0.487 OA
ATOM     25  C   UNL     1       2.945   1.884  -8.303  1.00  0.00     0.053 C 
ATOM     26  C   UNL     1       3.629   3.150  -7.770  1.00  0.00     0.104 C 
ATOM     27  C   UNL     1       3.701   4.196  -8.892  1.00  0.00     0.056 C 
ATOM     28  C   UNL     1       5.056   2.890  -7.259  1.00  0.00     0.056 C 
BRANCH  13  29
ATOM     29  C   UNL     1       0.279   0.881  -1.255  1.00  0.00     0.033 C 
ATOM     30  C   UNL     1       0.441  -0.109  -0.098  1.00  0.00     0.009 C 
ENDBRANCH  13  29
ENDBRANCH  11  12
ENDBRANCH  10  11
ENDBRANCH   7  10
ENDBRANCH   5   6
ENDBRANCH   3   5
ENDBRANCH   2   3
ENDBRANCH   1   2
BRANCH   1  31
ATOM     31  C   UNL     1       6.252   0.548  -1.693  1.00  0.00     0.275 C 
BRANCH  31  32
ATOM     32  O   UNL     1       6.779   1.018  -0.436  1.00  0.00    -0.458 OA
BRANCH  32  33
ATOM     33  C   UNL     1       6.792   2.365  -0.298  1.00  0.00     0.338 C 
ATOM     34  O   UNL     1       6.431   3.191  -1.122  1.00  0.00    -0.246 OA
BRANCH  33  35
ATOM     35  C   UNL     1       7.129   2.743   1.084  1.00  0.00     0.060 A 
ATOM     36  C   UNL     1       6.272   3.652   1.709  1.00  0.00     0.016 A 
ATOM     37  C   UNL     1       8.291   2.314   1.728  1.00  0.00     0.016 A 
ATOM     38  C   UNL     1       6.567   4.150   2.968  1.00  0.00     0.010 A 
ATOM     39  C   UNL     1       8.601   2.830   2.994  1.00  0.00     0.010 A 
ATOM     40  C   UNL     1       7.750   3.766   3.608  1.00  0.00    -0.014 A 
BRANCH  40  41
ATOM     41  C   UNL     1       8.113   4.461   4.864  1.00  0.00     0.031 A 
ATOM     42  C   UNL     1       9.133   5.564   4.827  1.00  0.00     0.074 A 
ATOM     43  C   UNL     1       7.450   4.180   6.001  1.00  0.00     0.049 A 
ATOM     44  N   UNL     1       9.572   6.317   5.801  1.00  0.00    -0.248 NA
ATOM     45  C   UNL     1       9.738   5.862   3.518  1.00  0.00     0.031 C 
ATOM     46  C   UNL     1       6.404   3.165   6.139  1.00  0.00     0.029 A 
ATOM     47  N   UNL     1       7.547   4.734   7.251  1.00  0.00    -0.354 N 
ATOM     48  C   UNL     1      10.519   7.159   5.232  1.00  0.00     0.074 A 
ATOM     49  C   UNL     1      10.599   6.820   3.828  1.00  0.00     0.031 C 
ATOM     50  C   UNL     1       5.951   3.173   7.404  1.00  0.00     0.029 A 
ATOM     51  C   UNL     1       6.694   4.170   8.170  1.00  0.00     0.049 A 
ATOM     52  H   UNL     1       8.168   5.466   7.470  1.00  0.00     0.167 HD
ATOM     53  C   UNL     1      11.253   8.128   5.829  1.00  0.00     0.037 A 
ATOM     54  C   UNL     1       6.542   4.422   9.484  1.00  0.00     0.037 A 
ATOM     55  C   UNL     1      11.146   8.480   7.221  1.00  0.00     0.049 A 
ATOM     56  C   UNL     1       7.371   5.504  10.122  1.00  0.00     0.074 A 
ATOM     57  C   UNL     1      11.843   9.449   7.922  1.00  0.00     0.029 A 
ATOM     58  N   UNL     1      10.278   7.881   8.123  1.00  0.00    -0.354 N 
ATOM     59  N   UNL     1       8.274   6.281   9.573  1.00  0.00    -0.248 NA
ATOM     60  C   UNL     1       7.156   5.748  11.554  1.00  0.00     0.031 C 
ATOM     61  C   UNL     1      11.416   9.416   9.255  1.00  0.00     0.029 A 
ATOM     62  C   UNL     1      10.427   8.454   9.374  1.00  0.00     0.049 A 
ATOM     63  H   UNL     1       9.650   7.155   7.905  1.00  0.00     0.167 HD
ATOM     64  C   UNL     1       8.723   7.117  10.589  1.00  0.00     0.074 A 
ATOM     65  C   UNL     1       7.978   6.763  11.780  1.00  0.00     0.031 C 
ATOM     66  C   UNL     1       9.669   8.089  10.544  1.00  0.00     0.037 A 
BRANCH  53  67
ATOM     67  C   UNL     1      12.261   8.855   4.985  1.00  0.00     0.058 A 
ATOM     68  C   UNL     1      11.881   9.826   4.046  1.00  0.00     0.135 A 
ATOM     69  C   UNL     1      13.632   8.596   5.144  1.00  0.00     0.135 A 
ATOM     70  F   UNL     1      10.582  10.095   3.839  1.00  0.00    -0.206 F 
ATOM     71  C   UNL     1      12.825  10.505   3.282  1.00  0.00     0.059 A 
ATOM     72  C   UNL     1      14.594   9.278   4.406  1.00  0.00     0.059 A 
ATOM     73  F   UNL     1      14.047   7.672   6.025  1.00  0.00    -0.206 F 
ATOM     74  C   UNL     1      14.180  10.223   3.469  1.00  0.00     0.060 A 
BRANCH  74  75
ATOM     75  S   UNL     1      15.398  11.119   2.482  1.00  0.00     0.124 S 
ATOM     76  O   UNL     1      15.264  10.459   1.187  1.00  0.00    -0.237 OA
ATOM     77  O   UNL     1      14.908  12.492   2.547  1.00  0.00    -0.237 OA
ATOM     78  O   UNL     1      16.653  10.872   3.185  1.00  0.00    -0.744 OA
ENDBRANCH  74  75
ENDBRANCH  53  67
BRANCH  54  79
ATOM     79  C   UNL     1       5.581   3.623  10.288  1.00  0.00     0.058 A 
ATOM     80  C   UNL     1       4.401   4.189  10.791  1.00  0.00     0.135 A 
ATOM     81  C   UNL     1       5.830   2.271  10.570  1.00  0.00     0.135 A 
ATOM     82  F   UNL     1       4.122   5.480  10.554  1.00  0.00    -0.206 F 
ATOM     83  C   UNL     1       3.510   3.449  11.563  1.00  0.00     0.059 A 
ATOM     84  C   UNL     1       4.944   1.504  11.318  1.00  0.00     0.059 A 
ATOM     85  F   UNL     1       6.939   1.679  10.099  1.00  0.00    -0.206 F 
ATOM     86  C   UNL     1       3.792   2.106  11.822  1.00  0.00     0.060 A 
BRANCH  86  87
ATOM     87  S   UNL     1       2.614   1.137  12.788  1.00  0.00     0.124 S 
ATOM     88  O   UNL     1       2.920   1.574  14.145  1.00  0.00    -0.237 OA
ATOM     89  O   UNL     1       1.332   1.577  12.248  1.00  0.00    -0.237 OA
ATOM     90  O   UNL     1       2.978  -0.241  12.470  1.00  0.00    -0.744 OA
ENDBRANCH  86  87
ENDBRANCH  54  79
BRANCH  66  91
ATOM     91  C   UNL     1       9.920   8.854  11.812  1.00  0.00     0.058 A 
ATOM     92  C   UNL     1      10.617   8.284  12.889  1.00  0.00     0.135 A 
ATOM     93  C   UNL     1       9.470  10.176  11.945  1.00  0.00     0.135 A 
ATOM     94  F   UNL     1      11.066   7.021  12.812  1.00  0.00    -0.206 F 
ATOM     95  C   UNL     1      10.826   8.988  14.071  1.00  0.00     0.059 A 
ATOM     96  C   UNL     1       9.688  10.906  13.108  1.00  0.00     0.059 A 
ATOM     97  F   UNL     1       8.810  10.770  10.938  1.00  0.00    -0.206 F 
ATOM     98  C   UNL     1      10.350  10.296  14.173  1.00  0.00     0.060 A 
BRANCH  98  99
ATOM     99  S   UNL     1      10.619  11.204  15.711  1.00  0.00     0.124 S 
ATOM    100  O   UNL     1       9.567  10.656  16.561  1.00  0.00    -0.237 OA
ATOM    101  O   UNL     1      11.983  10.826  16.067  1.00  0.00    -0.237 OA
ATOM    102  O   UNL     1      10.445  12.598  15.314  1.00  0.00    -0.744 OA
ENDBRANCH  98  99
ENDBRANCH  66  91
ENDBRANCH  40  41
ENDBRANCH  33  35
ENDBRANCH  32  33
ENDBRANCH  31  32
ENDBRANCH   1  31
TORSDOF 19
