REMARK SMILES O=C(OCCOC(=O)c1nnn(-c2ccc(C(F)(F)F)cc2)c1-c1cccc(Cl)c1)c1ccc(-c2c3nc(c(-c4c(F)cc(S(=O)(=O)[O-])cc4F)c4ccc([nH]4)c(-c4c(F)cc(S(=O)(=O)[O-])cc4F)c4nc(c(-c5c(F)cc(S(=O)(=O)[O-])cc5F)c5ccc2[nH]5)C=C4)C=C3)cc1
REMARK SMILES IDX 4 1 3 2 2 3 1 4 31 5 32 6 96 7 33 8 95 9 34 10 35 11 36 12
REMARK SMILES IDX 89 13 37 14 94 15 88 16 90 17 38 18 93 19 87 20 86 21 39 23
REMARK SMILES IDX 73 24 52 25 72 26 53 27 56 28 71 29 91 30 54 31 55 32 70 34
REMARK SMILES IDX 92 35 57 36 40 37 41 38 50 39 42 40 43 41 49 42 51 43 44 44
REMARK SMILES IDX 45 45 46 46 47 47 48 48 74 49 75 50 84 51 76 52 77 53 83 54
REMARK SMILES IDX 85 55 78 56 79 57 80 58 81 59 82 60 58 61 59 62 68 63 60 64
REMARK SMILES IDX 61 65 67 66 69 67 62 68 63 69 64 70 65 71 66 72 5 73 6 74
REMARK SMILES IDX 7 75 8 76 9 77 10 78 23 79 11 80 12 81 24 82 25 83 30 84
REMARK SMILES IDX 26 85 28 86 27 87 29 88 13 89 14 90 22 91 15 92 21 93 16 94
REMARK SMILES IDX 17 95 18 96 19 97 20 98
REMARK H PARENT 90 22 56 33
REMARK Flexibility Score: inf
ROOT
ATOM      1  C   UNL     1       4.586  -0.753  -0.987  1.00  0.00     0.275 C 
ENDROOT
BRANCH   1   2
ATOM      2  O   UNL     1       3.407  -1.538  -0.715  1.00  0.00    -0.458 OA
BRANCH   2   3
ATOM      3  C   UNL     1       2.272  -0.904  -0.343  1.00  0.00     0.338 C 
ATOM      4  O   UNL     1       1.413  -0.543  -1.131  1.00  0.00    -0.246 OA
BRANCH   3   5
ATOM      5  C   UNL     1       2.118  -0.823   1.131  1.00  0.00     0.060 A 
ATOM      6  C   UNL     1       3.175  -1.111   2.004  1.00  0.00     0.016 A 
ATOM      7  C   UNL     1       0.863  -0.462   1.640  1.00  0.00     0.016 A 
ATOM      8  C   UNL     1       2.952  -1.145   3.369  1.00  0.00     0.010 A 
ATOM      9  C   UNL     1       0.639  -0.494   3.009  1.00  0.00     0.010 A 
ATOM     10  C   UNL     1       1.669  -0.897   3.860  1.00  0.00    -0.014 A 
BRANCH  10  11
ATOM     11  C   UNL     1       1.446  -1.101   5.285  1.00  0.00     0.031 A 
ATOM     12  C   UNL     1       2.139  -0.149   6.195  1.00  0.00     0.074 A 
ATOM     13  C   UNL     1       0.603  -2.051   5.736  1.00  0.00     0.049 A 
ATOM     14  N   UNL     1       3.052  -0.401   7.077  1.00  0.00    -0.248 NA
ATOM     15  C   UNL     1       1.852   1.283   6.029  1.00  0.00     0.031 C 
ATOM     16  C   UNL     1      -0.334  -2.866   4.955  1.00  0.00     0.029 A 
ATOM     17  N   UNL     1       0.330  -2.421   7.017  1.00  0.00    -0.354 N 
ATOM     18  C   UNL     1       3.297   0.806   7.734  1.00  0.00     0.074 A 
ATOM     19  C   UNL     1       2.654   1.825   6.946  1.00  0.00     0.031 C 
ATOM     20  C   UNL     1      -1.225  -3.445   5.790  1.00  0.00     0.029 A 
ATOM     21  C   UNL     1      -0.838  -3.160   7.160  1.00  0.00     0.049 A 
ATOM     22  H   UNL     1       0.909  -2.185   7.777  1.00  0.00     0.167 HD
ATOM     23  C   UNL     1       3.822   0.841   8.993  1.00  0.00     0.037 A 
ATOM     24  C   UNL     1      -1.477  -3.451   8.321  1.00  0.00     0.037 A 
ATOM     25  C   UNL     1       4.474  -0.403   9.320  1.00  0.00     0.049 A 
ATOM     26  C   UNL     1      -0.485  -3.307   9.418  1.00  0.00     0.074 A 
ATOM     27  C   UNL     1       5.523  -1.126   8.783  1.00  0.00     0.029 A 
ATOM     28  N   UNL     1       3.827  -1.270  10.167  1.00  0.00    -0.354 N 
ATOM     29  N   UNL     1       0.554  -4.084   9.567  1.00  0.00    -0.248 NA
ATOM     30  C   UNL     1      -0.398  -2.019  10.089  1.00  0.00     0.031 C 
ATOM     31  C   UNL     1       5.149  -2.492   8.944  1.00  0.00     0.029 A 
ATOM     32  C   UNL     1       3.927  -2.520   9.617  1.00  0.00     0.049 A 
ATOM     33  H   UNL     1       3.376  -1.036  11.011  1.00  0.00     0.167 HD
ATOM     34  C   UNL     1       1.576  -3.238   9.974  1.00  0.00     0.074 A 
ATOM     35  C   UNL     1       0.908  -1.999  10.367  1.00  0.00     0.031 C 
ATOM     36  C   UNL     1       2.884  -3.518   9.695  1.00  0.00     0.037 A 
BRANCH  23  37
ATOM     37  C   UNL     1       3.416   1.836  10.065  1.00  0.00     0.058 A 
ATOM     38  C   UNL     1       4.056   1.784  11.325  1.00  0.00     0.135 A 
ATOM     39  C   UNL     1       2.232   2.605  10.025  1.00  0.00     0.135 A 
ATOM     40  F   UNL     1       5.207   1.110  11.482  1.00  0.00    -0.206 F 
ATOM     41  C   UNL     1       3.493   2.335  12.476  1.00  0.00     0.059 A 
ATOM     42  C   UNL     1       1.679   3.205  11.151  1.00  0.00     0.059 A 
ATOM     43  F   UNL     1       1.498   2.740   8.916  1.00  0.00    -0.206 F 
ATOM     44  C   UNL     1       2.285   3.017  12.382  1.00  0.00     0.060 A 
BRANCH  44  45
ATOM     45  S   UNL     1       1.471   3.590  13.883  1.00  0.00     0.124 S 
ATOM     46  O   UNL     1       1.074   2.327  14.494  1.00  0.00    -0.237 OA
ATOM     47  O   UNL     1       2.547   4.315  14.551  1.00  0.00    -0.237 OA
ATOM     48  O   UNL     1       0.382   4.420  13.377  1.00  0.00    -0.744 OA
ENDBRANCH  44  45
ENDBRANCH  23  37
BRANCH  24  49
ATOM     49  C   UNL     1      -2.947  -3.472   8.556  1.00  0.00     0.058 A 
ATOM     50  C   UNL     1      -3.496  -4.021   9.728  1.00  0.00     0.135 A 
ATOM     51  C   UNL     1      -3.826  -2.709   7.759  1.00  0.00     0.135 A 
ATOM     52  F   UNL     1      -2.728  -4.740  10.560  1.00  0.00    -0.206 F 
ATOM     53  C   UNL     1      -4.825  -3.792  10.108  1.00  0.00     0.059 A 
ATOM     54  C   UNL     1      -5.155  -2.478   8.110  1.00  0.00     0.059 A 
ATOM     55  F   UNL     1      -3.395  -2.083   6.654  1.00  0.00    -0.206 F 
ATOM     56  C   UNL     1      -5.643  -3.003   9.300  1.00  0.00     0.060 A 
BRANCH  56  57
ATOM     57  S   UNL     1      -7.306  -2.566   9.863  1.00  0.00     0.124 S 
ATOM     58  O   UNL     1      -8.002  -3.844   9.767  1.00  0.00    -0.237 OA
ATOM     59  O   UNL     1      -7.056  -2.075  11.214  1.00  0.00    -0.237 OA
ATOM     60  O   UNL     1      -7.734  -1.550   8.904  1.00  0.00    -0.744 OA
ENDBRANCH  56  57
ENDBRANCH  24  49
BRANCH  36  61
ATOM     61  C   UNL     1       3.232  -4.897   9.199  1.00  0.00     0.058 A 
ATOM     62  C   UNL     1       2.796  -5.432   7.974  1.00  0.00     0.135 A 
ATOM     63  C   UNL     1       4.180  -5.639   9.920  1.00  0.00     0.135 A 
ATOM     64  F   UNL     1       1.976  -4.740   7.172  1.00  0.00    -0.206 F 
ATOM     65  C   UNL     1       3.252  -6.667   7.507  1.00  0.00     0.059 A 
ATOM     66  C   UNL     1       4.672  -6.857   9.458  1.00  0.00     0.059 A 
ATOM     67  F   UNL     1       4.687  -5.153  11.065  1.00  0.00    -0.206 F 
ATOM     68  C   UNL     1       4.194  -7.371   8.255  1.00  0.00     0.060 A 
BRANCH  68  69
ATOM     69  S   UNL     1       4.848  -8.925   7.607  1.00  0.00     0.124 S 
ATOM     70  O   UNL     1       3.711  -9.825   7.759  1.00  0.00    -0.237 OA
ATOM     71  O   UNL     1       5.201  -8.573   6.234  1.00  0.00    -0.237 OA
ATOM     72  O   UNL     1       5.987  -9.206   8.478  1.00  0.00    -0.744 OA
ENDBRANCH  68  69
ENDBRANCH  36  61
ENDBRANCH  10  11
ENDBRANCH   3   5
ENDBRANCH   2   3
ENDBRANCH   1   2
BRANCH   1  73
ATOM     73  C   UNL     1       4.371   0.715  -1.339  1.00  0.00     0.275 C 
BRANCH  73  74
ATOM     74  O   UNL     1       3.916   1.423  -0.175  1.00  0.00    -0.457 OA
BRANCH  74  75
ATOM     75  C   UNL     1       2.826   2.224  -0.341  1.00  0.00     0.361 C 
ATOM     76  O   UNL     1       2.218   2.384  -1.395  1.00  0.00    -0.244 OA
BRANCH  75  77
ATOM     77  C   UNL     1       2.612   3.062   0.812  1.00  0.00     0.198 A 
ATOM     78  N   UNL     1       2.002   2.698   1.982  1.00  0.00    -0.122 NA
ATOM     79  C   UNL     1       3.138   4.331   0.938  1.00  0.00     0.109 A 
ATOM     80  N   UNL     1       2.114   3.713   2.836  1.00  0.00    -0.061 NA
ATOM     81  N   UNL     1       2.687   4.745   2.177  1.00  0.00    -0.212 N 
BRANCH  79  82
ATOM     82  C   UNL     1       4.106   5.012   0.086  1.00  0.00     0.004 A 
ATOM     83  C   UNL     1       5.381   5.323   0.581  1.00  0.00     0.010 A 
ATOM     84  C   UNL     1       3.797   5.292  -1.249  1.00  0.00     0.031 A 
ATOM     85  C   UNL     1       6.330   5.926  -0.243  1.00  0.00     0.002 A 
ATOM     86  C   UNL     1       4.750   5.893  -2.067  1.00  0.00     0.041 A 
ATOM     87  C   UNL     1       6.013   6.214  -1.570  1.00  0.00     0.020 A 
ATOM     88  Cl  UNL     1       4.367   6.236  -3.708  1.00  0.00    -0.084 Cl
ENDBRANCH  79  82
BRANCH  81  89
ATOM     89  C   UNL     1       2.813   6.037   2.725  1.00  0.00     0.067 A 
ATOM     90  C   UNL     1       3.197   6.206   4.055  1.00  0.00     0.029 A 
ATOM     91  C   UNL     1       2.652   7.143   1.879  1.00  0.00     0.029 A 
ATOM     92  C   UNL     1       3.533   7.489   4.499  1.00  0.00     0.015 A 
ATOM     93  C   UNL     1       2.955   8.418   2.337  1.00  0.00     0.015 A 
ATOM     94  C   UNL     1       3.435   8.601   3.640  1.00  0.00     0.056 A 
BRANCH  94  95
ATOM     95  C   UNL     1       3.879   9.969   4.097  1.00  0.00     0.416 C 
ATOM     96  F   UNL     1       3.238  10.392   5.218  1.00  0.00    -0.166 F 
ATOM     97  F   UNL     1       5.211  10.011   4.380  1.00  0.00    -0.166 F 
ATOM     98  F   UNL     1       3.675  10.942   3.161  1.00  0.00    -0.166 F 
ENDBRANCH  94  95
ENDBRANCH  81  89
ENDBRANCH  75  77
ENDBRANCH  74  75
ENDBRANCH  73  74
ENDBRANCH   1  73
TORSDOF 17
