REMARK SMILES C[C@]1(C(=O)OCCOC(=O)c2ccc(-c3c4nc(c(-c5c(F)cc(S(=O)(=O)[O-])cc5F)c5ccc([nH]5)c(-c5c(F)cc(S(=O)(=O)[O-])cc5F)c5nc(c(-c6c(F)cc(S(=O)(=O)[O-])cc6F)c6ccc3[nH]6)C=C5)C=C4)cc2)CCN(c2ccc([N+](=O)[O-])c(N)n2)C1
REMARK SMILES IDX 7 1 6 2 5 3 3 4 4 5 2 6 1 7 77 8 90 9 78 10 79 11 80 12
REMARK SMILES IDX 81 13 89 14 82 15 87 16 83 17 88 18 84 21 85 22 86 23 8 24
REMARK SMILES IDX 9 25 10 26 11 27 12 28 76 29 13 30 75 31 14 32 15 33 16 34
REMARK SMILES IDX 69 35 17 36 74 37 68 38 70 39 18 40 73 41 67 42 66 43 19 45
REMARK SMILES IDX 53 46 32 47 52 48 33 49 36 50 51 51 71 52 34 53 35 54 50 56
REMARK SMILES IDX 72 57 37 58 20 59 21 60 30 61 22 62 23 63 29 64 31 65 24 66
REMARK SMILES IDX 25 67 26 68 27 69 28 70 54 71 55 72 64 73 56 74 57 75 63 76
REMARK SMILES IDX 65 77 58 78 59 79 60 80 61 81 62 82 38 83 39 84 48 85 40 86
REMARK SMILES IDX 41 87 47 88 49 89 42 90 43 91 44 92 45 93 46 94
REMARK H PARENT 88 19 88 20 70 44 36 55
REMARK Flexibility Score: inf
ROOT
ATOM      1  C   UNL     1       1.578   0.046   2.548  1.00  0.00     0.275 C 
ENDROOT
BRANCH   1   2
ATOM      2  C   UNL     1       2.601   0.083   1.415  1.00  0.00     0.274 C 
BRANCH   2   3
ATOM      3  O   UNL     1       2.110   0.858   0.300  1.00  0.00    -0.462 OA
BRANCH   3   4
ATOM      4  C   UNL     1       1.546   0.145  -0.710  1.00  0.00     0.313 C 
ATOM      5  O   UNL     1       1.462  -1.078  -0.721  1.00  0.00    -0.252 OA
BRANCH   4   6
ATOM      6  C   UNL     1       1.016   1.005  -1.847  1.00  0.00     0.084 C 
ATOM      7  C   UNL     1       1.589   0.452  -3.161  1.00  0.00     0.026 C 
ATOM      8  C   UNL     1      -0.519   0.984  -1.844  1.00  0.00     0.042 C 
ATOM      9  C   UNL     1       1.292   2.509  -1.723  1.00  0.00     0.136 C 
ATOM     10  C   UNL     1      -0.941   2.229  -2.616  1.00  0.00     0.119 C 
ATOM     11  N   UNL     1       0.210   3.115  -2.495  1.00  0.00    -0.355 N 
BRANCH  11  12
ATOM     12  C   UNL     1       0.046   4.473  -2.588  1.00  0.00     0.131 A 
ATOM     13  C   UNL     1       1.103   5.287  -2.982  1.00  0.00     0.054 A 
ATOM     14  N   UNL     1      -1.169   5.001  -2.314  1.00  0.00    -0.207 NA
ATOM     15  C   UNL     1       0.906   6.658  -3.102  1.00  0.00     0.093 A 
ATOM     16  C   UNL     1      -1.366   6.334  -2.376  1.00  0.00     0.204 A 
ATOM     17  C   UNL     1      -0.349   7.183  -2.787  1.00  0.00     0.311 A 
BRANCH  16  18
ATOM     18  N   UNL     1      -2.655   6.729  -2.084  1.00  0.00    -0.378 N 
ATOM     19  H   UNL     1      -2.894   7.684  -2.104  1.00  0.00     0.158 HD
ATOM     20  H   UNL     1      -3.337   6.056  -1.856  1.00  0.00     0.158 HD
ENDBRANCH  16  18
BRANCH  17  21
ATOM     21  N   UNL     1      -0.556   8.615  -2.888  1.00  0.00     0.066 N 
ATOM     22  O   UNL     1       0.089   9.222  -3.757  1.00  0.00    -0.258 OA
ATOM     23  O   UNL     1      -1.314   9.158  -2.069  1.00  0.00    -0.258 OA
ENDBRANCH  17  21
ENDBRANCH  11  12
ENDBRANCH   4   6
ENDBRANCH   3   4
ENDBRANCH   2   3
ENDBRANCH   1   2
BRANCH   1  24
ATOM     24  O   UNL     1       0.380  -0.607   2.096  1.00  0.00    -0.458 OA
BRANCH  24  25
ATOM     25  C   UNL     1      -0.780  -0.003   2.441  1.00  0.00     0.338 C 
ATOM     26  O   UNL     1      -0.906   0.991   3.136  1.00  0.00    -0.246 OA
BRANCH  25  27
ATOM     27  C   UNL     1      -1.930  -0.712   1.840  1.00  0.00     0.060 A 
ATOM     28  C   UNL     1      -1.903  -1.110   0.505  1.00  0.00     0.016 A 
ATOM     29  C   UNL     1      -3.102  -0.856   2.582  1.00  0.00     0.016 A 
ATOM     30  C   UNL     1      -3.080  -1.511  -0.127  1.00  0.00     0.010 A 
ATOM     31  C   UNL     1      -4.250  -1.378   1.976  1.00  0.00     0.010 A 
ATOM     32  C   UNL     1      -4.272  -1.657   0.598  1.00  0.00    -0.014 A 
BRANCH  32  33
ATOM     33  C   UNL     1      -5.543  -2.039  -0.088  1.00  0.00     0.031 A 
ATOM     34  C   UNL     1      -6.762  -1.153   0.017  1.00  0.00     0.074 A 
ATOM     35  C   UNL     1      -5.612  -3.163  -0.832  1.00  0.00     0.049 A 
ATOM     36  N   UNL     1      -7.994  -1.391  -0.360  1.00  0.00    -0.248 NA
ATOM     37  C   UNL     1      -6.578   0.166   0.645  1.00  0.00     0.031 C 
ATOM     38  C   UNL     1      -4.514  -4.106  -1.053  1.00  0.00     0.029 A 
ATOM     39  N   UNL     1      -6.651  -3.695  -1.556  1.00  0.00    -0.354 N 
ATOM     40  C   UNL     1      -8.740  -0.291   0.050  1.00  0.00     0.074 A 
ATOM     41  C   UNL     1      -7.822   0.621   0.698  1.00  0.00     0.031 C 
ATOM     42  C   UNL     1      -4.915  -5.061  -1.905  1.00  0.00     0.029 A 
ATOM     43  C   UNL     1      -6.324  -4.852  -2.223  1.00  0.00     0.049 A 
ATOM     44  H   UNL     1      -7.546  -3.287  -1.594  1.00  0.00     0.167 HD
ATOM     45  C   UNL     1     -10.068  -0.062  -0.095  1.00  0.00     0.037 A 
ATOM     46  C   UNL     1      -7.074  -5.675  -2.981  1.00  0.00     0.037 A 
ATOM     47  C   UNL     1     -10.968  -0.929  -0.810  1.00  0.00     0.049 A 
ATOM     48  C   UNL     1      -8.534  -5.381  -3.166  1.00  0.00     0.074 A 
ATOM     49  C   UNL     1     -12.331  -0.782  -1.013  1.00  0.00     0.029 A 
ATOM     50  N   UNL     1     -10.591  -2.089  -1.469  1.00  0.00    -0.354 N 
ATOM     51  N   UNL     1      -9.239  -4.383  -2.690  1.00  0.00    -0.248 NA
ATOM     52  C   UNL     1      -9.307  -6.338  -3.969  1.00  0.00     0.031 C 
ATOM     53  C   UNL     1     -12.779  -1.861  -1.786  1.00  0.00     0.029 A 
ATOM     54  C   UNL     1     -11.691  -2.664  -2.085  1.00  0.00     0.049 A 
ATOM     55  H   UNL     1      -9.676  -2.451  -1.495  1.00  0.00     0.167 HD
ATOM     56  C   UNL     1     -10.540  -4.595  -3.130  1.00  0.00     0.074 A 
ATOM     57  C   UNL     1     -10.519  -5.800  -3.934  1.00  0.00     0.031 C 
ATOM     58  C   UNL     1     -11.653  -3.865  -2.878  1.00  0.00     0.037 A 
BRANCH  45  59
ATOM     59  C   UNL     1     -10.637   1.166   0.560  1.00  0.00     0.058 A 
ATOM     60  C   UNL     1     -10.450   2.450   0.028  1.00  0.00     0.135 A 
ATOM     61  C   UNL     1     -11.405   1.046   1.731  1.00  0.00     0.135 A 
ATOM     62  F   UNL     1      -9.710   2.621  -1.079  1.00  0.00    -0.206 F 
ATOM     63  C   UNL     1     -10.983   3.577   0.647  1.00  0.00     0.059 A 
ATOM     64  C   UNL     1     -11.964   2.157   2.355  1.00  0.00     0.059 A 
ATOM     65  F   UNL     1     -11.614  -0.160   2.282  1.00  0.00    -0.206 F 
ATOM     66  C   UNL     1     -11.734   3.421   1.814  1.00  0.00     0.060 A 
BRANCH  66  67
ATOM     67  S   UNL     1     -12.418   4.888   2.615  1.00  0.00     0.124 S 
ATOM     68  O   UNL     1     -11.248   5.408   3.315  1.00  0.00    -0.237 OA
ATOM     69  O   UNL     1     -12.881   5.682   1.481  1.00  0.00    -0.237 OA
ATOM     70  O   UNL     1     -13.472   4.347   3.467  1.00  0.00    -0.744 OA
ENDBRANCH  66  67
ENDBRANCH  45  59
BRANCH  46  71
ATOM     71  C   UNL     1      -6.454  -6.875  -3.600  1.00  0.00     0.058 A 
ATOM     72  C   UNL     1      -6.214  -6.929  -4.981  1.00  0.00     0.135 A 
ATOM     73  C   UNL     1      -6.058  -7.973  -2.821  1.00  0.00     0.135 A 
ATOM     74  F   UNL     1      -6.586  -5.907  -5.767  1.00  0.00    -0.206 F 
ATOM     75  C   UNL     1      -5.601  -8.030  -5.569  1.00  0.00     0.059 A 
ATOM     76  C   UNL     1      -5.422  -9.074  -3.383  1.00  0.00     0.059 A 
ATOM     77  F   UNL     1      -6.256  -7.961  -1.494  1.00  0.00    -0.206 F 
ATOM     78  C   UNL     1      -5.203  -9.096  -4.760  1.00  0.00     0.060 A 
BRANCH  78  79
ATOM     79  S   UNL     1      -4.332 -10.489  -5.510  1.00  0.00     0.124 S 
ATOM     80  O   UNL     1      -5.439 -11.276  -6.040  1.00  0.00    -0.237 OA
ATOM     81  O   UNL     1      -3.484  -9.833  -6.501  1.00  0.00    -0.237 OA
ATOM     82  O   UNL     1      -3.618 -11.078  -4.381  1.00  0.00    -0.744 OA
ENDBRANCH  78  79
ENDBRANCH  46  71
BRANCH  58  83
ATOM     83  C   UNL     1     -12.934  -4.349  -3.491  1.00  0.00     0.058 A 
ATOM     84  C   UNL     1     -13.635  -5.438  -2.949  1.00  0.00     0.135 A 
ATOM     85  C   UNL     1     -13.473  -3.713  -4.619  1.00  0.00     0.135 A 
ATOM     86  F   UNL     1     -13.156  -6.082  -1.874  1.00  0.00    -0.206 F 
ATOM     87  C   UNL     1     -14.815  -5.898  -3.524  1.00  0.00     0.059 A 
ATOM     88  C   UNL     1     -14.660  -4.146  -5.201  1.00  0.00     0.059 A 
ATOM     89  F   UNL     1     -12.842  -2.663  -5.168  1.00  0.00    -0.206 F 
ATOM     90  C   UNL     1     -15.315  -5.250  -4.655  1.00  0.00     0.060 A 
BRANCH  90  91
ATOM     91  S   UNL     1     -16.850  -5.848  -5.395  1.00  0.00     0.124 S 
ATOM     92  O   UNL     1     -16.374  -6.986  -6.174  1.00  0.00    -0.237 OA
ATOM     93  O   UNL     1     -17.661  -6.175  -4.227  1.00  0.00    -0.237 OA
ATOM     94  O   UNL     1     -17.316  -4.704  -6.173  1.00  0.00    -0.744 OA
ENDBRANCH  90  91
ENDBRANCH  58  83
ENDBRANCH  32  33
ENDBRANCH  25  27
ENDBRANCH  24  25
ENDBRANCH   1  24
TORSDOF 17
