REMARK SMILES Cc1ccc(C)c(N2C(=O)S[C@H](CC(=O)Nc3ccc(C(=O)OCCOC(=O)c4ccc(-c5c6nc(c(-c7c(F)cc(S(=O)(=O)[O-])cc7F)c7ccc([nH]7)c(-c7c(F)cc(S(=O)(=O)[O-])cc7F)c7nc(c(-c8c(F)cc(S(=O)(=O)[O-])cc8F)c8ccc5[nH]8)C=C7)C=C6)cc4)c(O)c3)C2=O)c1
REMARK SMILES IDX 24 1 23 2 21 3 22 4 20 5 17 6 18 7 97 8 19 9 95 10 16 11
REMARK SMILES IDX 14 12 15 13 13 15 12 16 8 17 9 18 98 19 10 20 11 21 99 22
REMARK SMILES IDX 7 23 1 24 2 25 3 26 100 27 4 28 5 29 6 30 96 31 25 33 26 34
REMARK SMILES IDX 27 35 28 36 29 37 30 38 94 39 31 40 93 41 32 42 33 43 34 44
REMARK SMILES IDX 87 45 35 46 92 47 86 48 88 49 36 50 91 51 85 52 84 53 37 55
REMARK SMILES IDX 71 56 50 57 70 58 51 59 54 60 69 61 89 62 52 63 53 64 68 66
REMARK SMILES IDX 90 67 55 68 38 69 39 70 48 71 40 72 41 73 47 74 49 75 42 76
REMARK SMILES IDX 43 77 44 78 45 79 46 80 72 81 73 82 82 83 74 84 75 85 81 86
REMARK SMILES IDX 83 87 76 88 77 89 78 90 79 91 80 92 56 93 57 94 66 95 58 96
REMARK SMILES IDX 59 97 65 98 67 99 60 100 61 101 62 102 63 103 64 104
REMARK H PARENT 16 14 96 32 88 54 54 65
REMARK Flexibility Score: inf
ROOT
ATOM      1  C   UNL     1       3.524   5.556  -3.037  1.00  0.00     0.275 C 
ENDROOT
BRANCH   1   2
ATOM      2  O   UNL     1       2.316   5.784  -2.311  1.00  0.00    -0.458 OA
BRANCH   2   3
ATOM      3  C   UNL     1       1.643   6.884  -2.723  1.00  0.00     0.342 C 
ATOM      4  O   UNL     1       2.001   7.714  -3.539  1.00  0.00    -0.246 OA
BRANCH   3   5
ATOM      5  C   UNL     1       0.482   7.074  -1.860  1.00  0.00     0.101 A 
ATOM      6  C   UNL     1      -1.601   7.333  -0.037  1.00  0.00     0.044 A 
ATOM      7  C   UNL     1      -1.638   6.354  -1.030  1.00  0.00     0.027 A 
ATOM      8  C   UNL     1      -0.589   8.290  -0.060  1.00  0.00     0.073 A 
ATOM      9  C   UNL     1      -0.581   6.183  -1.911  1.00  0.00     0.022 A 
ATOM     10  C   UNL     1       0.446   8.164  -0.988  1.00  0.00     0.132 A 
BRANCH   6  11
ATOM     11  N   UNL     1      -2.596   7.375   0.952  1.00  0.00    -0.326 N 
ATOM     12  C   UNL     1      -3.211   6.301   1.560  1.00  0.00     0.226 C 
ATOM     13  O   UNL     1      -4.276   6.452   2.158  1.00  0.00    -0.275 OA
ATOM     14  H   UNL     1      -2.886   8.269   1.244  1.00  0.00     0.169 HD
BRANCH  12  15
ATOM     15  C   UNL     1      -2.432   4.997   1.670  1.00  0.00     0.125 C 
BRANCH  15  16
ATOM     16  C   UNL     1      -3.215   3.729   1.353  1.00  0.00     0.156 C 
ATOM     17  N   UNL     1      -1.792   2.091   0.325  1.00  0.00    -0.240 N 
ATOM     18  C   UNL     1      -2.399   2.566  -0.820  1.00  0.00     0.293 C 
ATOM     19  C   UNL     1      -2.283   2.543   1.536  1.00  0.00     0.248 C 
ATOM     20  O   UNL     1      -2.161   2.324  -1.976  1.00  0.00    -0.261 OA
ATOM     21  S   UNL     1      -3.758   3.593  -0.369  1.00  0.00    -0.050 SA
ATOM     22  O   UNL     1      -2.015   2.093   2.648  1.00  0.00    -0.273 OA
BRANCH  17  23
ATOM     23  C   UNL     1      -0.958   0.951   0.258  1.00  0.00     0.056 A 
ATOM     24  C   UNL     1       2.775   0.137   0.088  1.00  0.00     0.044 C 
ATOM     25  C   UNL     1       1.283  -0.008   0.153  1.00  0.00    -0.049 A 
ATOM     26  C   UNL     1       0.716  -1.284   0.076  1.00  0.00     0.004 A 
ATOM     27  C   UNL     1       0.438   1.108   0.264  1.00  0.00     0.030 A 
ATOM     28  C   UNL     1      -0.670  -1.444   0.083  1.00  0.00     0.006 A 
ATOM     29  C   UNL     1      -1.523  -0.334   0.162  1.00  0.00    -0.027 A 
ATOM     30  C   UNL     1      -3.005  -0.587   0.141  1.00  0.00     0.046 C 
ENDBRANCH  17  23
ENDBRANCH  15  16
ENDBRANCH  12  15
ENDBRANCH   6  11
BRANCH  10  31
ATOM     31  O   UNL     1       1.415   9.129  -0.988  1.00  0.00    -0.507 OA
ATOM     32  H   UNL     1       2.126   9.078  -1.597  1.00  0.00     0.293 HD
ENDBRANCH  10  31
ENDBRANCH   3   5
ENDBRANCH   2   3
ENDBRANCH   1   2
BRANCH   1  33
ATOM     33  C   UNL     1       4.067   4.148  -2.772  1.00  0.00     0.275 C 
BRANCH  33  34
ATOM     34  O   UNL     1       3.123   3.045  -2.612  1.00  0.00    -0.458 OA
BRANCH  34  35
ATOM     35  C   UNL     1       1.833   3.041  -3.047  1.00  0.00     0.338 C 
ATOM     36  O   UNL     1       0.909   2.747  -2.305  1.00  0.00    -0.246 OA
BRANCH  35  37
ATOM     37  C   UNL     1       1.609   3.462  -4.448  1.00  0.00     0.060 A 
ATOM     38  C   UNL     1       0.378   4.020  -4.817  1.00  0.00     0.016 A 
ATOM     39  C   UNL     1       2.684   3.509  -5.320  1.00  0.00     0.016 A 
ATOM     40  C   UNL     1       0.298   4.829  -5.951  1.00  0.00     0.010 A 
ATOM     41  C   UNL     1       2.639   4.418  -6.354  1.00  0.00     0.010 A 
ATOM     42  C   UNL     1       1.455   5.086  -6.691  1.00  0.00    -0.014 A 
BRANCH  42  43
ATOM     43  C   UNL     1       1.459   6.059  -7.790  1.00  0.00     0.031 A 
ATOM     44  C   UNL     1       0.850   7.418  -7.583  1.00  0.00     0.074 A 
ATOM     45  C   UNL     1       2.163   5.848  -8.923  1.00  0.00     0.049 A 
ATOM     46  N   UNL     1      -0.208   7.917  -8.145  1.00  0.00    -0.248 NA
ATOM     47  C   UNL     1       1.486   8.340  -6.634  1.00  0.00     0.031 C 
ATOM     48  C   UNL     1       3.039   4.724  -9.289  1.00  0.00     0.029 A 
ATOM     49  N   UNL     1       2.288   6.681  -9.988  1.00  0.00    -0.354 N 
ATOM     50  C   UNL     1      -0.291   9.260  -7.756  1.00  0.00     0.074 A 
ATOM     51  C   UNL     1       0.713   9.427  -6.736  1.00  0.00     0.031 C 
ATOM     52  C   UNL     1       3.777   5.052 -10.368  1.00  0.00     0.029 A 
ATOM     53  C   UNL     1       3.257   6.295 -10.895  1.00  0.00     0.049 A 
ATOM     54  H   UNL     1       1.738   7.489 -10.104  1.00  0.00     0.167 HD
ATOM     55  C   UNL     1      -1.081  10.170  -8.406  1.00  0.00     0.037 A 
ATOM     56  C   UNL     1       3.586   6.902 -12.054  1.00  0.00     0.037 A 
ATOM     57  C   UNL     1      -2.001   9.514  -9.300  1.00  0.00     0.049 A 
ATOM     58  C   UNL     1       2.392   7.667 -12.484  1.00  0.00     0.074 A 
ATOM     59  C   UNL     1      -3.042   8.620  -9.147  1.00  0.00     0.029 A 
ATOM     60  N   UNL     1      -1.694   9.483 -10.639  1.00  0.00    -0.354 N 
ATOM     61  N   UNL     1       1.255   7.106 -12.807  1.00  0.00    -0.248 NA
ATOM     62  C   UNL     1       2.311   9.073 -12.125  1.00  0.00     0.031 C 
ATOM     63  C   UNL     1      -2.921   7.732 -10.259  1.00  0.00     0.029 A 
ATOM     64  C   UNL     1      -1.854   8.181 -11.041  1.00  0.00     0.049 A 
ATOM     65  H   UNL     1      -1.415  10.244 -11.198  1.00  0.00     0.167 HD
ATOM     66  C   UNL     1       0.277   7.953 -12.306  1.00  0.00     0.074 A 
ATOM     67  C   UNL     1       0.987   9.191 -11.984  1.00  0.00     0.031 C 
ATOM     68  C   UNL     1      -0.966   7.499 -11.961  1.00  0.00     0.037 A 
BRANCH  55  69
ATOM     69  C   UNL     1      -0.886  11.676  -8.468  1.00  0.00     0.058 A 
ATOM     70  C   UNL     1      -1.899  12.494  -9.027  1.00  0.00     0.135 A 
ATOM     71  C   UNL     1       0.350  12.320  -8.254  1.00  0.00     0.135 A 
ATOM     72  F   UNL     1      -3.124  12.000  -9.269  1.00  0.00    -0.206 F 
ATOM     73  C   UNL     1      -1.674  13.816  -9.422  1.00  0.00     0.059 A 
ATOM     74  C   UNL     1       0.582  13.654  -8.596  1.00  0.00     0.059 A 
ATOM     75  F   UNL     1       1.419  11.659  -7.794  1.00  0.00    -0.206 F 
ATOM     76  C   UNL     1      -0.420  14.380  -9.223  1.00  0.00     0.060 A 
BRANCH  76  77
ATOM     77  S   UNL     1      -0.085  16.036  -9.859  1.00  0.00     0.124 S 
ATOM     78  O   UNL     1      -0.087  15.801 -11.299  1.00  0.00    -0.237 OA
ATOM     79  O   UNL     1      -1.213  16.801  -9.336  1.00  0.00    -0.237 OA
ATOM     80  O   UNL     1       1.212  16.364  -9.275  1.00  0.00    -0.744 OA
ENDBRANCH  76  77
ENDBRANCH  55  69
BRANCH  56  81
ATOM     81  C   UNL     1       4.964   7.111 -12.544  1.00  0.00     0.058 A 
ATOM     82  C   UNL     1       5.225   7.426 -13.883  1.00  0.00     0.135 A 
ATOM     83  C   UNL     1       6.042   7.241 -11.639  1.00  0.00     0.135 A 
ATOM     84  F   UNL     1       4.247   7.339 -14.797  1.00  0.00    -0.206 F 
ATOM     85  C   UNL     1       6.476   7.886 -14.300  1.00  0.00     0.059 A 
ATOM     86  C   UNL     1       7.297   7.693 -12.032  1.00  0.00     0.059 A 
ATOM     87  F   UNL     1       5.876   7.008 -10.327  1.00  0.00    -0.206 F 
ATOM     88  C   UNL     1       7.500   8.037 -13.363  1.00  0.00     0.060 A 
BRANCH  88  89
ATOM     89  S   UNL     1       9.058   8.800 -13.869  1.00  0.00     0.124 S 
ATOM     90  O   UNL     1       9.637   7.764 -14.718  1.00  0.00    -0.237 OA
ATOM     91  O   UNL     1       8.601  10.005 -14.553  1.00  0.00    -0.237 OA
ATOM     92  O   UNL     1       9.751   9.030 -12.604  1.00  0.00    -0.744 OA
ENDBRANCH  88  89
ENDBRANCH  56  81
BRANCH  68  93
ATOM     93  C   UNL     1      -1.359   6.088 -12.337  1.00  0.00     0.058 A 
ATOM     94  C   UNL     1      -0.757   4.937 -11.799  1.00  0.00     0.135 A 
ATOM     95  C   UNL     1      -2.515   5.893 -13.106  1.00  0.00     0.135 A 
ATOM     96  F   UNL     1       0.287   5.032 -10.969  1.00  0.00    -0.206 F 
ATOM     97  C   UNL     1      -1.258   3.655 -12.034  1.00  0.00     0.059 A 
ATOM     98  C   UNL     1      -3.051   4.625 -13.333  1.00  0.00     0.059 A 
ATOM     99  F   UNL     1      -3.182   6.952 -13.596  1.00  0.00    -0.206 F 
ATOM    100  C   UNL     1      -2.411   3.508 -12.800  1.00  0.00     0.060 A 
BRANCH 100 101
ATOM    101  S   UNL     1      -3.110   1.857 -13.022  1.00  0.00     0.124 S 
ATOM    102  O   UNL     1      -2.162   1.245 -13.946  1.00  0.00    -0.237 OA
ATOM    103  O   UNL     1      -3.105   1.322 -11.663  1.00  0.00    -0.237 OA
ATOM    104  O   UNL     1      -4.438   2.120 -13.572  1.00  0.00    -0.744 OA
ENDBRANCH 100 101
ENDBRANCH  68  93
ENDBRANCH  42  43
ENDBRANCH  35  37
ENDBRANCH  34  35
ENDBRANCH  33  34
ENDBRANCH   1  33
TORSDOF 19
