REMARK SMILES CN(C)S(=O)(=O)c1ccc(N(CC(=O)OCCOC(=O)c2ccc(-c3c4nc(c(-c5c(F)cc(S(=O)(=O)[O-])cc5F)c5ccc([nH]5)c(-c5c(F)cc(S(=O)(=O)[O-])cc5F)c5nc(c(-c6c(F)cc(S(=O)(=O)[O-])cc6F)c6ccc3[nH]6)C=C5)C=C4)cc2)C(C)(C)C)cc1
REMARK SMILES IDX 16 1 15 2 13 3 14 4 12 5 11 6 10 7 7 8 8 9 92 10 9 11 91 12
REMARK SMILES IDX 4 13 5 14 6 15 2 16 1 17 3 18 87 19 88 20 89 21 90 22 17 23
REMARK SMILES IDX 18 24 19 25 20 26 21 27 22 28 86 29 23 30 85 31 24 32 25 33
REMARK SMILES IDX 26 34 79 35 27 36 84 37 78 38 80 39 28 40 83 41 77 42 76 43
REMARK SMILES IDX 29 45 63 46 42 47 62 48 43 49 46 50 61 51 81 52 44 53 45 54
REMARK SMILES IDX 60 56 82 57 47 58 30 59 31 60 40 61 32 62 33 63 39 64 41 65
REMARK SMILES IDX 34 66 35 67 36 68 37 69 38 70 64 71 65 72 74 73 66 74 67 75
REMARK SMILES IDX 73 76 75 77 68 78 69 79 70 80 71 81 72 82 48 83 49 84 58 85
REMARK SMILES IDX 50 86 51 87 57 88 59 89 52 90 53 91 54 92 55 93 56 94
REMARK H PARENT 80 44 46 55
REMARK Flexibility Score: inf
ROOT
ATOM      1  C   UNL     1      -3.707   3.684   7.901  1.00  0.00     0.274 C 
ENDROOT
BRANCH   1   2
ATOM      2  O   UNL     1      -2.577   2.789   7.935  1.00  0.00    -0.461 OA
BRANCH   2   3
ATOM      3  C   UNL     1      -1.355   3.372   7.786  1.00  0.00     0.325 C 
ATOM      4  O   UNL     1      -1.183   4.558   7.511  1.00  0.00    -0.250 OA
BRANCH   3   5
ATOM      5  C   UNL     1      -0.193   2.458   8.165  1.00  0.00     0.239 C 
BRANCH   5   6
ATOM      6  N   UNL     1      -0.328   1.026   7.789  1.00  0.00    -0.356 N 
BRANCH   6   7
ATOM      7  C   UNL     1      -0.117   0.700   6.435  1.00  0.00     0.038 A 
ATOM      8  C   UNL     1       0.632  -0.045   3.780  1.00  0.00     0.082 A 
ATOM      9  C   UNL     1       0.723   1.282   4.178  1.00  0.00     0.024 A 
ATOM     10  C   UNL     1       0.090  -0.985   4.641  1.00  0.00     0.024 A 
ATOM     11  C   UNL     1       0.334   1.641   5.481  1.00  0.00     0.027 A 
ATOM     12  C   UNL     1      -0.290  -0.601   5.931  1.00  0.00     0.027 A 
BRANCH   8  13
ATOM     13  S   UNL     1       1.238  -0.562   2.203  1.00  0.00     0.242 S 
ATOM     14  O   UNL     1       0.743  -1.898   1.938  1.00  0.00    -0.207 OA
ATOM     15  O   UNL     1       2.656  -0.273   2.165  1.00  0.00    -0.207 OA
BRANCH  13  16
ATOM     16  N   UNL     1       0.456   0.476   1.086  1.00  0.00    -0.204 NA
ATOM     17  C   UNL     1       0.978   0.285  -0.289  1.00  0.00     0.124 C 
ATOM     18  C   UNL     1      -1.022   0.420   1.112  1.00  0.00     0.124 C 
ENDBRANCH  13  16
ENDBRANCH   8  13
ENDBRANCH   6   7
BRANCH   6  19
ATOM     19  C   UNL     1      -0.426  -0.013   8.893  1.00  0.00     0.032 C 
ATOM     20  C   UNL     1      -1.806  -0.703   8.859  1.00  0.00     0.034 C 
ATOM     21  C   UNL     1       0.764  -1.000   8.852  1.00  0.00     0.034 C 
ATOM     22  C   UNL     1      -0.335   0.579  10.325  1.00  0.00     0.034 C 
ENDBRANCH   6  19
ENDBRANCH   5   6
ENDBRANCH   3   5
ENDBRANCH   2   3
ENDBRANCH   1   2
BRANCH   1  23
ATOM     23  C   UNL     1      -4.363   3.735   9.278  1.00  0.00     0.275 C 
BRANCH  23  24
ATOM     24  O   UNL     1      -3.370   4.039  10.276  1.00  0.00    -0.458 OA
BRANCH  24  25
ATOM     25  C   UNL     1      -3.165   3.060  11.189  1.00  0.00     0.338 C 
ATOM     26  O   UNL     1      -3.784   2.012  11.289  1.00  0.00    -0.246 OA
BRANCH  25  27
ATOM     27  C   UNL     1      -2.041   3.391  12.089  1.00  0.00     0.060 A 
ATOM     28  C   UNL     1      -0.832   3.889  11.597  1.00  0.00     0.016 A 
ATOM     29  C   UNL     1      -2.150   3.034  13.434  1.00  0.00     0.016 A 
ATOM     30  C   UNL     1       0.291   3.929  12.429  1.00  0.00     0.010 A 
ATOM     31  C   UNL     1      -1.057   3.187  14.289  1.00  0.00     0.010 A 
ATOM     32  C   UNL     1       0.187   3.608  13.794  1.00  0.00    -0.014 A 
BRANCH  32  33
ATOM     33  C   UNL     1       1.342   3.768  14.726  1.00  0.00     0.031 A 
ATOM     34  C   UNL     1       1.836   2.616  15.568  1.00  0.00     0.074 A 
ATOM     35  C   UNL     1       1.906   4.984  14.876  1.00  0.00     0.049 A 
ATOM     36  N   UNL     1       2.682   2.625  16.568  1.00  0.00    -0.248 NA
ATOM     37  C   UNL     1       1.298   1.282  15.255  1.00  0.00     0.031 C 
ATOM     38  C   UNL     1       1.530   6.189  14.133  1.00  0.00     0.029 A 
ATOM     39  N   UNL     1       2.903   5.414  15.717  1.00  0.00    -0.354 N 
ATOM     40  C   UNL     1       2.752   1.314  17.029  1.00  0.00     0.074 A 
ATOM     41  C   UNL     1       1.851   0.535  16.203  1.00  0.00     0.031 C 
ATOM     42  C   UNL     1       2.293   7.213  14.537  1.00  0.00     0.029 A 
ATOM     43  C   UNL     1       3.153   6.763  15.624  1.00  0.00     0.049 A 
ATOM     44  H   UNL     1       3.391   4.815  16.328  1.00  0.00     0.167 HD
ATOM     45  C   UNL     1       3.496   0.808  18.044  1.00  0.00     0.037 A 
ATOM     46  C   UNL     1       3.944   7.569  16.357  1.00  0.00     0.037 A 
ATOM     47  C   UNL     1       4.412   1.582  18.847  1.00  0.00     0.049 A 
ATOM     48  C   UNL     1       4.739   6.993  17.490  1.00  0.00     0.074 A 
ATOM     49  C   UNL     1       5.229   1.149  19.879  1.00  0.00     0.029 A 
ATOM     50  N   UNL     1       4.638   2.944  18.710  1.00  0.00    -0.354 N 
ATOM     51  N   UNL     1       4.779   5.756  17.920  1.00  0.00    -0.248 NA
ATOM     52  C   UNL     1       5.589   7.924  18.243  1.00  0.00     0.031 C 
ATOM     53  C   UNL     1       5.919   2.255  20.389  1.00  0.00     0.029 A 
ATOM     54  C   UNL     1       5.567   3.369  19.646  1.00  0.00     0.049 A 
ATOM     55  H   UNL     1       4.201   3.523  18.045  1.00  0.00     0.167 HD
ATOM     56  C   UNL     1       5.668   5.756  18.988  1.00  0.00     0.074 A 
ATOM     57  C   UNL     1       6.155   7.113  19.127  1.00  0.00     0.031 C 
ATOM     58  C   UNL     1       6.044   4.723  19.782  1.00  0.00     0.037 A 
BRANCH  45  59
ATOM     59  C   UNL     1       3.344  -0.656  18.368  1.00  0.00     0.058 A 
ATOM     60  C   UNL     1       3.871  -1.658  17.538  1.00  0.00     0.135 A 
ATOM     61  C   UNL     1       2.713  -1.059  19.557  1.00  0.00     0.135 A 
ATOM     62  F   UNL     1       4.477  -1.332  16.386  1.00  0.00    -0.206 F 
ATOM     63  C   UNL     1       3.756  -3.007  17.862  1.00  0.00     0.059 A 
ATOM     64  C   UNL     1       2.607  -2.401  19.913  1.00  0.00     0.059 A 
ATOM     65  F   UNL     1       2.196  -0.143  20.391  1.00  0.00    -0.206 F 
ATOM     66  C   UNL     1       3.119  -3.369  19.051  1.00  0.00     0.060 A 
BRANCH  66  67
ATOM     67  S   UNL     1       2.974  -5.123  19.457  1.00  0.00     0.124 S 
ATOM     68  O   UNL     1       1.929  -5.550  18.531  1.00  0.00    -0.237 OA
ATOM     69  O   UNL     1       4.315  -5.624  19.173  1.00  0.00    -0.237 OA
ATOM     70  O   UNL     1       2.597  -5.116  20.867  1.00  0.00    -0.744 OA
ENDBRANCH  66  67
ENDBRANCH  45  59
BRANCH  46  71
ATOM     71  C   UNL     1       3.987   9.021  16.047  1.00  0.00     0.058 A 
ATOM     72  C   UNL     1       5.114   9.596  15.443  1.00  0.00     0.135 A 
ATOM     73  C   UNL     1       2.881   9.849  16.297  1.00  0.00     0.135 A 
ATOM     74  F   UNL     1       6.197   8.845  15.192  1.00  0.00    -0.206 F 
ATOM     75  C   UNL     1       5.145  10.943  15.098  1.00  0.00     0.059 A 
ATOM     76  C   UNL     1       2.877  11.191  15.936  1.00  0.00     0.059 A 
ATOM     77  F   UNL     1       1.772   9.339  16.855  1.00  0.00    -0.206 F 
ATOM     78  C   UNL     1       4.018  11.731  15.343  1.00  0.00     0.060 A 
BRANCH  78  79
ATOM     79  S   UNL     1       4.036  13.459  14.821  1.00  0.00     0.124 S 
ATOM     80  O   UNL     1       4.865  14.068  15.854  1.00  0.00    -0.237 OA
ATOM     81  O   UNL     1       4.632  13.373  13.491  1.00  0.00    -0.237 OA
ATOM     82  O   UNL     1       2.624  13.829  14.842  1.00  0.00    -0.744 OA
ENDBRANCH  78  79
ENDBRANCH  46  71
BRANCH  58  83
ATOM     83  C   UNL     1       7.052   5.018  20.856  1.00  0.00     0.058 A 
ATOM     84  C   UNL     1       6.707   5.729  22.016  1.00  0.00     0.135 A 
ATOM     85  C   UNL     1       8.376   4.566  20.733  1.00  0.00     0.135 A 
ATOM     86  F   UNL     1       5.457   6.192  22.177  1.00  0.00    -0.206 F 
ATOM     87  C   UNL     1       7.646   6.006  23.005  1.00  0.00     0.059 A 
ATOM     88  C   UNL     1       9.325   4.811  21.721  1.00  0.00     0.059 A 
ATOM     89  F   UNL     1       8.757   3.876  19.646  1.00  0.00    -0.206 F 
ATOM     90  C   UNL     1       8.954   5.544  22.847  1.00  0.00     0.060 A 
BRANCH  90  91
ATOM     91  S   UNL     1      10.160   5.893  24.144  1.00  0.00     0.124 S 
ATOM     92  O   UNL     1      10.451   7.303  23.902  1.00  0.00    -0.237 OA
ATOM     93  O   UNL     1       9.407   5.601  25.360  1.00  0.00    -0.237 OA
ATOM     94  O   UNL     1      11.250   4.967  23.852  1.00  0.00    -0.744 OA
ENDBRANCH  90  91
ENDBRANCH  58  83
ENDBRANCH  32  33
ENDBRANCH  25  27
ENDBRANCH  24  25
ENDBRANCH  23  24
ENDBRANCH   1  23
TORSDOF 19
