REMARK SMILES CC(=O)Oc1ccccc1SCCCCCC(=O)OCCOC(=O)c1ccc(-c2c3nc(c(-c4c(F)cc(S(=O)(=O)[O-])cc4F)c4ccc([nH]4)c(-c4c(F)cc(S(=O)(=O)[O-])cc4F)c4nc(c(-c5c(F)cc(S(=O)(=O)[O-])cc5F)c5ccc2[nH]5)C=C4)C=C3)cc1
REMARK SMILES IDX 17 1 18 2 16 3 15 4 14 5 13 6 12 7 11 8 10 9 5 10 6 11 7 12
REMARK SMILES IDX 9 13 8 14 4 15 2 16 1 17 3 18 19 19 20 20 21 21 22 22 23 23
REMARK SMILES IDX 24 24 25 25 26 26 90 27 27 28 89 29 28 30 29 31 30 32 83 33
REMARK SMILES IDX 31 34 88 35 82 36 84 37 32 38 87 39 81 40 80 41 33 43 67 44
REMARK SMILES IDX 46 45 66 46 47 47 50 48 65 49 85 50 48 51 49 52 64 54 86 55
REMARK SMILES IDX 51 56 34 57 35 58 44 59 36 60 37 61 43 62 45 63 38 64 39 65
REMARK SMILES IDX 40 66 41 67 42 68 68 69 69 70 78 71 70 72 71 73 77 74 79 75
REMARK SMILES IDX 72 76 73 77 74 78 75 79 76 80 52 81 53 82 62 83 54 84 55 85
REMARK SMILES IDX 61 86 63 87 56 88 57 89 58 90 59 91 60 92
REMARK H PARENT 84 42 50 53
REMARK Flexibility Score: inf
ROOT
ATOM      1  C   UNL     1       3.745   0.877   1.000  1.00  0.00     0.305 C 
ATOM      2  O   UNL     1       4.537   0.934   0.068  1.00  0.00    -0.252 OA
ENDROOT
BRANCH   1   3
ATOM      3  C   UNL     1       2.507   0.033   0.987  1.00  0.00     0.123 C 
BRANCH   3   4
ATOM      4  C   UNL     1       2.081  -0.529   2.359  1.00  0.00     0.012 C 
BRANCH   4   5
ATOM      5  C   UNL     1       1.033   0.256   3.178  1.00  0.00     0.001 C 
BRANCH   5   6
ATOM      6  C   UNL     1      -0.089   1.082   2.525  1.00  0.00     0.011 C 
BRANCH   6   7
ATOM      7  C   UNL     1      -1.438   0.549   1.983  1.00  0.00     0.075 C 
BRANCH   7   8
ATOM      8  S   UNL     1      -2.574  -0.707   2.705  1.00  0.00    -0.122 SA
BRANCH   8   9
ATOM      9  C   UNL     1      -1.607  -2.145   3.100  1.00  0.00     0.050 A 
ATOM     10  C   UNL     1      -0.898  -2.990   2.231  1.00  0.00     0.144 A 
ATOM     11  C   UNL     1      -0.101  -4.027   2.743  1.00  0.00     0.048 A 
ATOM     12  C   UNL     1      -0.094  -4.300   4.114  1.00  0.00     0.004 A 
ATOM     13  C   UNL     1      -1.674  -2.518   4.457  1.00  0.00     0.019 A 
ATOM     14  C   UNL     1      -0.931  -3.586   4.962  1.00  0.00     0.001 A 
BRANCH  10  15
ATOM     15  O   UNL     1      -1.103  -3.006   0.829  1.00  0.00    -0.426 OA
BRANCH  15  16
ATOM     16  C   UNL     1      -0.451  -2.013   0.146  1.00  0.00     0.308 C 
ATOM     17  C   UNL     1      -0.623  -2.052  -1.328  1.00  0.00     0.139 C 
ATOM     18  O   UNL     1       0.216  -1.137   0.650  1.00  0.00    -0.252 OA
ENDBRANCH  15  16
ENDBRANCH  10  15
ENDBRANCH   8   9
ENDBRANCH   7   8
ENDBRANCH   6   7
ENDBRANCH   5   6
ENDBRANCH   4   5
ENDBRANCH   3   4
ENDBRANCH   1   3
BRANCH   1  19
ATOM     19  O   UNL     1       3.878   1.523   2.184  1.00  0.00    -0.462 OA
BRANCH  19  20
ATOM     20  C   UNL     1       5.237   1.715   2.596  1.00  0.00     0.274 C 
BRANCH  20  21
ATOM     21  C   UNL     1       5.755   0.405   3.201  1.00  0.00     0.275 C 
BRANCH  21  22
ATOM     22  O   UNL     1       5.992  -0.556   2.151  1.00  0.00    -0.458 OA
BRANCH  22  23
ATOM     23  C   UNL     1       5.690  -1.844   2.439  1.00  0.00     0.338 C 
ATOM     24  O   UNL     1       5.270  -2.282   3.497  1.00  0.00    -0.246 OA
BRANCH  23  25
ATOM     25  C   UNL     1       6.000  -2.700   1.278  1.00  0.00     0.060 A 
ATOM     26  C   UNL     1       5.346  -2.526   0.057  1.00  0.00     0.016 A 
ATOM     27  C   UNL     1       6.924  -3.734   1.435  1.00  0.00     0.016 A 
ATOM     28  C   UNL     1       5.597  -3.401  -1.000  1.00  0.00     0.010 A 
ATOM     29  C   UNL     1       7.242  -4.549   0.345  1.00  0.00     0.010 A 
ATOM     30  C   UNL     1       6.584  -4.391  -0.887  1.00  0.00    -0.014 A 
BRANCH  30  31
ATOM     31  C   UNL     1       6.998  -5.207  -2.063  1.00  0.00     0.031 A 
ATOM     32  C   UNL     1       6.937  -6.708  -2.015  1.00  0.00     0.074 A 
ATOM     33  C   UNL     1       7.512  -4.587  -3.146  1.00  0.00     0.049 A 
ATOM     34  N   UNL     1       7.460  -7.586  -2.831  1.00  0.00    -0.248 NA
ATOM     35  C   UNL     1       6.203  -7.301  -0.886  1.00  0.00     0.031 C 
ATOM     36  C   UNL     1       7.612  -3.135  -3.319  1.00  0.00     0.029 A 
ATOM     37  N   UNL     1       8.075  -5.093  -4.292  1.00  0.00    -0.354 N 
ATOM     38  C   UNL     1       7.161  -8.834  -2.294  1.00  0.00     0.074 A 
ATOM     39  C   UNL     1       6.418  -8.596  -1.074  1.00  0.00     0.031 C 
ATOM     40  C   UNL     1       8.198  -2.868  -4.493  1.00  0.00     0.029 A 
ATOM     41  C   UNL     1       8.604  -4.122  -5.112  1.00  0.00     0.049 A 
ATOM     42  H   UNL     1       8.098  -6.054  -4.506  1.00  0.00     0.167 HD
ATOM     43  C   UNL     1       7.487 -10.060  -2.775  1.00  0.00     0.037 A 
ATOM     44  C   UNL     1       9.392  -4.217  -6.200  1.00  0.00     0.037 A 
ATOM     45  C   UNL     1       8.222 -10.268  -3.998  1.00  0.00     0.049 A 
ATOM     46  C   UNL     1       9.792  -5.579  -6.687  1.00  0.00     0.074 A 
ATOM     47  C   UNL     1       8.568 -11.464  -4.603  1.00  0.00     0.029 A 
ATOM     48  N   UNL     1       8.739  -9.255  -4.796  1.00  0.00    -0.354 N 
ATOM     49  N   UNL     1       9.485  -6.751  -6.184  1.00  0.00    -0.248 NA
ATOM     50  C   UNL     1      10.651  -5.636  -7.875  1.00  0.00     0.031 C 
ATOM     51  C   UNL     1       9.351 -11.175  -5.727  1.00  0.00     0.029 A 
ATOM     52  C   UNL     1       9.439  -9.798  -5.862  1.00  0.00     0.049 A 
ATOM     53  H   UNL     1       8.625  -8.291  -4.628  1.00  0.00     0.167 HD
ATOM     54  C   UNL     1      10.112  -7.688  -6.995  1.00  0.00     0.074 A 
ATOM     55  C   UNL     1      10.794  -6.945  -8.037  1.00  0.00     0.031 C 
ATOM     56  C   UNL     1      10.125  -9.040  -6.883  1.00  0.00     0.037 A 
BRANCH  43  57
ATOM     57  C   UNL     1       7.102 -11.261  -1.948  1.00  0.00     0.058 A 
ATOM     58  C   UNL     1       5.765 -11.647  -1.759  1.00  0.00     0.135 A 
ATOM     59  C   UNL     1       8.094 -12.041  -1.329  1.00  0.00     0.135 A 
ATOM     60  F   UNL     1       4.771 -10.938  -2.318  1.00  0.00    -0.206 F 
ATOM     61  C   UNL     1       5.423 -12.724  -0.945  1.00  0.00     0.059 A 
ATOM     62  C   UNL     1       7.778 -13.143  -0.538  1.00  0.00     0.059 A 
ATOM     63  F   UNL     1       9.391 -11.729  -1.478  1.00  0.00    -0.206 F 
ATOM     64  C   UNL     1       6.438 -13.461  -0.331  1.00  0.00     0.060 A 
BRANCH  64  65
ATOM     65  S   UNL     1       5.976 -14.826   0.757  1.00  0.00     0.124 S 
ATOM     66  O   UNL     1       5.434 -14.109   1.908  1.00  0.00    -0.237 OA
ATOM     67  O   UNL     1       5.003 -15.554  -0.050  1.00  0.00    -0.237 OA
ATOM     68  O   UNL     1       7.239 -15.520   0.990  1.00  0.00    -0.744 OA
ENDBRANCH  64  65
ENDBRANCH  43  57
BRANCH  44  69
ATOM     69  C   UNL     1       9.891  -2.973  -6.846  1.00  0.00     0.058 A 
ATOM     70  C   UNL     1       9.414  -2.561  -8.097  1.00  0.00     0.135 A 
ATOM     71  C   UNL     1      10.794  -2.125  -6.180  1.00  0.00     0.135 A 
ATOM     72  F   UNL     1       8.559  -3.340  -8.778  1.00  0.00    -0.206 F 
ATOM     73  C   UNL     1       9.802  -1.349  -8.661  1.00  0.00     0.059 A 
ATOM     74  C   UNL     1      11.173  -0.896  -6.709  1.00  0.00     0.059 A 
ATOM     75  F   UNL     1      11.271  -2.466  -4.972  1.00  0.00    -0.206 F 
ATOM     76  C   UNL     1      10.671  -0.517  -7.952  1.00  0.00     0.060 A 
BRANCH  76  77
ATOM     77  S   UNL     1      11.090   1.095  -8.652  1.00  0.00     0.124 S 
ATOM     78  O   UNL     1      11.946   0.717  -9.770  1.00  0.00    -0.237 OA
ATOM     79  O   UNL     1       9.776   1.625  -9.004  1.00  0.00    -0.237 OA
ATOM     80  O   UNL     1      11.758   1.779  -7.549  1.00  0.00    -0.744 OA
ENDBRANCH  76  77
ENDBRANCH  44  69
BRANCH  56  81
ATOM     81  C   UNL     1      10.900  -9.808  -7.918  1.00  0.00     0.058 A 
ATOM     82  C   UNL     1      12.303  -9.820  -7.924  1.00  0.00     0.135 A 
ATOM     83  C   UNL     1      10.232 -10.597  -8.868  1.00  0.00     0.135 A 
ATOM     84  F   UNL     1      12.990  -9.071  -7.047  1.00  0.00    -0.206 F 
ATOM     85  C   UNL     1      13.018 -10.582  -8.842  1.00  0.00     0.059 A 
ATOM     86  C   UNL     1      10.926 -11.390  -9.775  1.00  0.00     0.059 A 
ATOM     87  F   UNL     1       8.890 -10.623  -8.902  1.00  0.00    -0.206 F 
ATOM     88  C   UNL     1      12.320 -11.373  -9.757  1.00  0.00     0.060 A 
BRANCH  88  89
ATOM     89  S   UNL     1      13.262 -12.406 -10.898  1.00  0.00     0.124 S 
ATOM     90  O   UNL     1      13.840 -11.409 -11.792  1.00  0.00    -0.237 OA
ATOM     91  O   UNL     1      14.201 -13.077 -10.004  1.00  0.00    -0.237 OA
ATOM     92  O   UNL     1      12.247 -13.270 -11.493  1.00  0.00    -0.744 OA
ENDBRANCH  88  89
ENDBRANCH  56  81
ENDBRANCH  30  31
ENDBRANCH  23  25
ENDBRANCH  22  23
ENDBRANCH  21  22
ENDBRANCH  20  21
ENDBRANCH  19  20
ENDBRANCH   1  19
TORSDOF 22
