REMARK SMILES Cc1csc(CSCC[C@H]([NH3+])C(=O)OCCOC(=O)c2ccc(-c3c4nc(c(-c5c(F)cc(S(=O)(=O)[O-])cc5F)c5ccc([nH]5)c(-c5c(F)cc(S(=O)(=O)[O-])cc5F)c5nc(c(-c6c(F)cc(S(=O)(=O)[O-])cc6F)c6ccc3[nH]6)C=C5)C=C4)cc2)n1
REMARK SMILES IDX 15 1 14 2 12 3 13 4 10 5 9 6 8 7 7 8 6 9 5 10 1 11 2 12 3 13
REMARK SMILES IDX 86 14 4 15 11 16 16 20 17 21 18 22 19 23 20 24 21 25 85 26
REMARK SMILES IDX 22 27 84 28 23 29 24 30 25 31 78 32 26 33 83 34 77 35 79 36
REMARK SMILES IDX 27 37 82 38 76 39 75 40 28 42 62 43 41 44 61 45 42 46 45 47
REMARK SMILES IDX 60 48 80 49 43 50 44 51 59 53 81 54 46 55 29 56 30 57 39 58
REMARK SMILES IDX 31 59 32 60 38 61 40 62 33 63 34 64 35 65 36 66 37 67 63 68
REMARK SMILES IDX 64 69 73 70 65 71 66 72 72 73 74 74 67 75 68 76 69 77 70 78
REMARK SMILES IDX 71 79 47 80 48 81 57 82 49 83 50 84 56 85 58 86 51 87 52 88
REMARK SMILES IDX 53 89 54 90 55 91
REMARK H PARENT 11 17 11 18 11 19 79 41 45 52
REMARK Flexibility Score: inf
ROOT
ATOM      1  C   UNL     1       6.904   0.799  -1.883  1.00  0.00     0.274 C 
ENDROOT
BRANCH   1   2
ATOM      2  O   UNL     1       5.503   0.973  -2.192  1.00  0.00    -0.458 OA
BRANCH   2   3
ATOM      3  C   UNL     1       4.586   0.793  -1.201  1.00  0.00     0.364 C 
ATOM      4  O   UNL     1       4.865   0.469  -0.055  1.00  0.00    -0.245 OA
BRANCH   3   5
ATOM      5  C   UNL     1       3.146   1.016  -1.699  1.00  0.00     0.292 C 
BRANCH   5   6
ATOM      6  C   UNL     1       2.229  -0.199  -1.483  1.00  0.00     0.088 C 
BRANCH   6   7
ATOM      7  C   UNL     1       2.342  -1.393  -2.437  1.00  0.00     0.077 C 
BRANCH   7   8
ATOM      8  S   UNL     1       3.291  -2.856  -1.885  1.00  0.00    -0.154 SA
BRANCH   8   9
ATOM      9  C   UNL     1       5.026  -2.404  -2.156  1.00  0.00     0.137 C 
BRANCH   9  10
ATOM     10  C   UNL     1       5.497  -2.273  -3.579  1.00  0.00     0.103 A 
ATOM     11  C   UNL     1       7.731  -3.394  -6.177  1.00  0.00     0.067 C 
ATOM     12  C   UNL     1       6.763  -2.607  -5.379  1.00  0.00     0.049 A 
ATOM     13  C   UNL     1       6.178  -1.417  -5.752  1.00  0.00     0.090 A 
ATOM     14  N   UNL     1       6.382  -3.080  -4.133  1.00  0.00    -0.246 NA
ATOM     15  S   UNL     1       5.055  -0.936  -4.572  1.00  0.00    -0.126 S 
ENDBRANCH   9  10
ENDBRANCH   8   9
ENDBRANCH   7   8
ENDBRANCH   6   7
ENDBRANCH   5   6
BRANCH   5  16
ATOM     16  N   UNL     1       3.075   1.558  -3.076  1.00  0.00    -0.346 N 
ATOM     17  H   UNL     1       3.438   0.867  -3.733  1.00  0.00     0.345 HD
ATOM     18  H   UNL     1       3.633   2.410  -3.136  1.00  0.00     0.345 HD
ATOM     19  H   UNL     1       2.104   1.771  -3.309  1.00  0.00     0.345 HD
ENDBRANCH   5  16
ENDBRANCH   3   5
ENDBRANCH   2   3
ENDBRANCH   1   2
BRANCH   1  20
ATOM     20  C   UNL     1       7.695   2.019  -2.358  1.00  0.00     0.275 C 
BRANCH  20  21
ATOM     21  O   UNL     1       7.445   3.119  -1.472  1.00  0.00    -0.458 OA
BRANCH  21  22
ATOM     22  C   UNL     1       6.279   3.767  -1.701  1.00  0.00     0.338 C 
ATOM     23  O   UNL     1       5.580   3.698  -2.702  1.00  0.00    -0.246 OA
BRANCH  22  24
ATOM     24  C   UNL     1       5.829   4.359  -0.432  1.00  0.00     0.060 A 
ATOM     25  C   UNL     1       4.482   4.193  -0.100  1.00  0.00     0.016 A 
ATOM     26  C   UNL     1       6.699   5.035   0.426  1.00  0.00     0.016 A 
ATOM     27  C   UNL     1       3.989   4.710   1.087  1.00  0.00     0.010 A 
ATOM     28  C   UNL     1       6.200   5.573   1.613  1.00  0.00     0.010 A 
ATOM     29  C   UNL     1       4.839   5.432   1.931  1.00  0.00    -0.014 A 
BRANCH  29  30
ATOM     30  C   UNL     1       4.239   6.171   3.059  1.00  0.00     0.031 A 
ATOM     31  C   UNL     1       4.005   7.646   2.899  1.00  0.00     0.074 A 
ATOM     32  C   UNL     1       3.838   5.510   4.158  1.00  0.00     0.049 A 
ATOM     33  N   UNL     1       3.475   8.495   3.736  1.00  0.00    -0.248 NA
ATOM     34  C   UNL     1       4.424   8.246   1.619  1.00  0.00     0.031 C 
ATOM     35  C   UNL     1       3.976   4.068   4.373  1.00  0.00     0.029 A 
ATOM     36  N   UNL     1       3.219   5.960   5.293  1.00  0.00    -0.354 N 
ATOM     37  C   UNL     1       3.516   9.729   3.098  1.00  0.00     0.074 A 
ATOM     38  C   UNL     1       4.141   9.526   1.812  1.00  0.00     0.031 C 
ATOM     39  C   UNL     1       3.443   3.751   5.565  1.00  0.00     0.029 A 
ATOM     40  C   UNL     1       2.964   4.970   6.211  1.00  0.00     0.049 A 
ATOM     41  H   UNL     1       2.979   6.904   5.438  1.00  0.00     0.167 HD
ATOM     42  C   UNL     1       3.066  10.922   3.551  1.00  0.00     0.037 A 
ATOM     43  C   UNL     1       2.417   5.051   7.438  1.00  0.00     0.037 A 
ATOM     44  C   UNL     1       2.428  11.094   4.830  1.00  0.00     0.049 A 
ATOM     45  C   UNL     1       1.966   6.402   7.932  1.00  0.00     0.074 A 
ATOM     46  C   UNL     1       1.910  12.249   5.386  1.00  0.00     0.029 A 
ATOM     47  N   UNL     1       2.224  10.078   5.755  1.00  0.00    -0.354 N 
ATOM     48  N   UNL     1       1.998   7.562   7.315  1.00  0.00    -0.248 NA
ATOM     49  C   UNL     1       1.402   6.455   9.285  1.00  0.00     0.031 C 
ATOM     50  C   UNL     1       1.448  11.945   6.670  1.00  0.00     0.029 A 
ATOM     51  C   UNL     1       1.617  10.586   6.890  1.00  0.00     0.049 A 
ATOM     52  H   UNL     1       2.474   9.135   5.622  1.00  0.00     0.167 HD
ATOM     53  C   UNL     1       1.430   8.476   8.195  1.00  0.00     0.074 A 
ATOM     54  C   UNL     1       1.042   7.728   9.374  1.00  0.00     0.031 C 
ATOM     55  C   UNL     1       1.245   9.814   8.050  1.00  0.00     0.037 A 
BRANCH  42  56
ATOM     56  C   UNL     1       3.286  12.132   2.687  1.00  0.00     0.058 A 
ATOM     57  C   UNL     1       2.580  12.339   1.491  1.00  0.00     0.135 A 
ATOM     58  C   UNL     1       4.196  13.125   3.087  1.00  0.00     0.135 A 
ATOM     59  F   UNL     1       1.718  11.412   1.044  1.00  0.00    -0.206 F 
ATOM     60  C   UNL     1       2.777  13.480   0.718  1.00  0.00     0.059 A 
ATOM     61  C   UNL     1       4.388  14.286   2.345  1.00  0.00     0.059 A 
ATOM     62  F   UNL     1       4.908  12.973   4.215  1.00  0.00    -0.206 F 
ATOM     63  C   UNL     1       3.679  14.451   1.157  1.00  0.00     0.060 A 
BRANCH  63  64
ATOM     64  S   UNL     1       3.897  15.941   0.162  1.00  0.00     0.124 S 
ATOM     65  O   UNL     1       4.610  15.416  -0.999  1.00  0.00    -0.237 OA
ATOM     66  O   UNL     1       2.520  16.360  -0.077  1.00  0.00    -0.237 OA
ATOM     67  O   UNL     1       4.675  16.820   1.029  1.00  0.00    -0.744 OA
ENDBRANCH  63  64
ENDBRANCH  42  56
BRANCH  43  68
ATOM     68  C   UNL     1       2.273   3.837   8.287  1.00  0.00     0.058 A 
ATOM     69  C   UNL     1       1.009   3.345   8.646  1.00  0.00     0.135 A 
ATOM     70  C   UNL     1       3.398   3.158   8.782  1.00  0.00     0.135 A 
ATOM     71  F   UNL     1      -0.100   3.959   8.205  1.00  0.00    -0.206 F 
ATOM     72  C   UNL     1       0.864   2.250   9.493  1.00  0.00     0.059 A 
ATOM     73  C   UNL     1       3.280   2.041   9.603  1.00  0.00     0.059 A 
ATOM     74  F   UNL     1       4.633   3.576   8.460  1.00  0.00    -0.206 F 
ATOM     75  C   UNL     1       2.007   1.606   9.969  1.00  0.00     0.060 A 
BRANCH  75  76
ATOM     76  S   UNL     1       1.809   0.181  11.060  1.00  0.00     0.124 S 
ATOM     77  O   UNL     1       1.360   0.817  12.293  1.00  0.00    -0.237 OA
ATOM     78  O   UNL     1       0.812  -0.613  10.350  1.00  0.00    -0.237 OA
ATOM     79  O   UNL     1       3.149  -0.399  11.101  1.00  0.00    -0.744 OA
ENDBRANCH  75  76
ENDBRANCH  43  68
BRANCH  55  80
ATOM     80  C   UNL     1       0.560  10.531   9.181  1.00  0.00     0.058 A 
ATOM     81  C   UNL     1       1.180  10.710  10.428  1.00  0.00     0.135 A 
ATOM     82  C   UNL     1      -0.736  11.045   9.012  1.00  0.00     0.135 A 
ATOM     83  F   UNL     1       2.418  10.238  10.642  1.00  0.00    -0.206 F 
ATOM     84  C   UNL     1       0.516  11.322  11.486  1.00  0.00     0.059 A 
ATOM     85  C   UNL     1      -1.403  11.694  10.045  1.00  0.00     0.059 A 
ATOM     86  F   UNL     1      -1.367  10.919   7.834  1.00  0.00    -0.206 F 
ATOM     87  C   UNL     1      -0.778  11.804  11.286  1.00  0.00     0.060 A 
BRANCH  87  88
ATOM     88  S   UNL     1      -1.638  12.575  12.672  1.00  0.00     0.124 S 
ATOM     89  O   UNL     1      -1.977  11.415  13.489  1.00  0.00    -0.237 OA
ATOM     90  O   UNL     1      -0.615  13.461  13.221  1.00  0.00    -0.237 OA
ATOM     91  O   UNL     1      -2.767  13.249  12.039  1.00  0.00    -0.744 OA
ENDBRANCH  87  88
ENDBRANCH  55  80
ENDBRANCH  29  30
ENDBRANCH  22  24
ENDBRANCH  21  22
ENDBRANCH  20  21
ENDBRANCH   1  20
TORSDOF 20
