REMARK SMILES [NH3+]CCOCC(=O)N[C@H](C(=O)OCCOC(=O)c1ccc(-c2c3nc(c(-c4c(F)cc(S(=O)(=O)[O-])cc4F)c4ccc([nH]4)c(-c4c(F)cc(S(=O)(=O)[O-])cc4F)c4nc(c(-c5c(F)cc(S(=O)(=O)[O-])cc5F)c5ccc2[nH]5)C=C4)C=C3)cc1)C1CCCCC1
REMARK SMILES IDX 12 1 10 2 11 3 9 4 8 5 6 6 7 7 5 9 4 10 3 11 2 12 1 13 84 17
REMARK SMILES IDX 85 18 89 19 86 20 88 21 87 22 13 23 14 24 15 25 16 26 17 27
REMARK SMILES IDX 18 28 19 29 83 30 20 31 82 32 21 33 22 34 23 35 76 36 24 37
REMARK SMILES IDX 81 38 75 39 77 40 25 41 80 42 74 43 73 44 26 46 60 47 39 48
REMARK SMILES IDX 59 49 40 50 43 51 58 52 78 53 41 54 42 55 57 57 79 58 44 59
REMARK SMILES IDX 27 60 28 61 37 62 29 63 30 64 36 65 38 66 31 67 32 68 33 69
REMARK SMILES IDX 34 70 35 71 61 72 62 73 71 74 63 75 64 76 70 77 72 78 65 79
REMARK SMILES IDX 66 80 67 81 68 82 69 83 45 84 46 85 55 86 47 87 48 88 54 89
REMARK SMILES IDX 56 90 49 91 50 92 51 93 52 94 53 95
REMARK H PARENT 8 8 1 14 1 15 1 16 77 45 43 56
REMARK Flexibility Score: inf
ROOT
ATOM      1  O   UNL     1       4.943  -3.013   1.393  1.00  0.00    -0.461 OA
ENDROOT
BRANCH   1   2
ATOM      2  C   UNL     1       4.205  -3.317   2.480  1.00  0.00     0.329 C 
ATOM      3  O   UNL     1       4.176  -2.604   3.478  1.00  0.00    -0.250 OA
BRANCH   2   4
ATOM      4  C   UNL     1       3.282  -4.560   2.282  1.00  0.00     0.195 C 
BRANCH   4   5
ATOM      5  N   UNL     1       3.534  -5.591   1.235  1.00  0.00    -0.340 N 
ATOM      6  C   UNL     1       3.694  -5.579  -0.110  1.00  0.00     0.246 C 
ATOM      7  O   UNL     1       3.184  -6.520  -0.732  1.00  0.00    -0.272 OA
ATOM      8  H   UNL     1       3.599  -6.499   1.611  1.00  0.00     0.164 HD
BRANCH   6   9
ATOM      9  C   UNL     1       4.588  -4.589  -0.848  1.00  0.00     0.260 C 
BRANCH   9  10
ATOM     10  O   UNL     1       4.087  -3.307  -1.156  1.00  0.00    -0.366 OA
BRANCH  10  11
ATOM     11  C   UNL     1       2.936  -3.304  -2.000  1.00  0.00     0.222 C 
BRANCH  11  12
ATOM     12  C   UNL     1       3.314  -2.924  -3.438  1.00  0.00     0.287 C 
BRANCH  12  13
ATOM     13  N   UNL     1       4.212  -3.888  -4.086  1.00  0.00    -0.356 N 
ATOM     14  H   UNL     1       4.421  -3.574  -5.034  1.00  0.00     0.344 HD
ATOM     15  H   UNL     1       3.761  -4.802  -4.122  1.00  0.00     0.344 HD
ATOM     16  H   UNL     1       5.079  -3.956  -3.552  1.00  0.00     0.344 HD
ENDBRANCH  12  13
ENDBRANCH  11  12
ENDBRANCH  10  11
ENDBRANCH   9  10
ENDBRANCH   6   9
ENDBRANCH   4   5
BRANCH   4  17
ATOM     17  C   UNL     1       3.177  -5.261   3.704  1.00  0.00     0.023 C 
ATOM     18  C   UNL     1       2.147  -4.554   4.618  1.00  0.00     0.006 C 
ATOM     19  C   UNL     1       2.843  -6.771   3.687  1.00  0.00     0.006 C 
ATOM     20  C   UNL     1       2.124  -5.148   6.027  1.00  0.00     0.000 C 
ATOM     21  C   UNL     1       2.819  -7.375   5.090  1.00  0.00     0.000 C 
ATOM     22  C   UNL     1       1.848  -6.645   6.006  1.00  0.00     0.000 C 
ENDBRANCH   4  17
ENDBRANCH   2   4
ENDBRANCH   1   2
BRANCH   1  23
ATOM     23  C   UNL     1       5.600  -1.729   1.376  1.00  0.00     0.274 C 
BRANCH  23  24
ATOM     24  C   UNL     1       4.728  -0.631   0.750  1.00  0.00     0.275 C 
BRANCH  24  25
ATOM     25  O   UNL     1       3.716  -0.174   1.664  1.00  0.00    -0.458 OA
BRANCH  25  26
ATOM     26  C   UNL     1       2.514  -0.788   1.567  1.00  0.00     0.338 C 
ATOM     27  O   UNL     1       2.178  -1.613   0.731  1.00  0.00    -0.246 OA
BRANCH  26  28
ATOM     28  C   UNL     1       1.679  -0.465   2.740  1.00  0.00     0.060 A 
ATOM     29  C   UNL     1       0.831  -1.472   3.215  1.00  0.00     0.016 A 
ATOM     30  C   UNL     1       1.732   0.775   3.384  1.00  0.00     0.016 A 
ATOM     31  C   UNL     1       0.063  -1.262   4.354  1.00  0.00     0.010 A 
ATOM     32  C   UNL     1       0.947   0.993   4.519  1.00  0.00     0.010 A 
ATOM     33  C   UNL     1       0.113  -0.026   5.008  1.00  0.00    -0.014 A 
BRANCH  33  34
ATOM     34  C   UNL     1      -0.778   0.210   6.162  1.00  0.00     0.031 A 
ATOM     35  C   UNL     1      -2.083   0.913   5.941  1.00  0.00     0.074 A 
ATOM     36  C   UNL     1      -0.434  -0.249   7.379  1.00  0.00     0.049 A 
ATOM     37  N   UNL     1      -3.025   1.197   6.800  1.00  0.00    -0.248 NA
ATOM     38  C   UNL     1      -2.366   1.352   4.564  1.00  0.00     0.031 C 
ATOM     39  C   UNL     1       0.797  -0.977   7.690  1.00  0.00     0.029 A 
ATOM     40  N   UNL     1      -1.091  -0.171   8.579  1.00  0.00    -0.354 N 
ATOM     41  C   UNL     1      -4.017   1.839   6.071  1.00  0.00     0.074 A 
ATOM     42  C   UNL     1      -3.547   1.936   4.706  1.00  0.00     0.031 C 
ATOM     43  C   UNL     1       0.809  -1.272   9.001  1.00  0.00     0.029 A 
ATOM     44  C   UNL     1      -0.398  -0.734   9.623  1.00  0.00     0.049 A 
ATOM     45  H   UNL     1      -1.976   0.248   8.683  1.00  0.00     0.167 HD
ATOM     46  C   UNL     1      -5.215   2.297   6.504  1.00  0.00     0.037 A 
ATOM     47  C   UNL     1      -0.703  -0.793  10.935  1.00  0.00     0.037 A 
ATOM     48  C   UNL     1      -5.658   2.212   7.872  1.00  0.00     0.049 A 
ATOM     49  C   UNL     1      -2.012  -0.211  11.403  1.00  0.00     0.074 A 
ATOM     50  C   UNL     1      -6.853   2.645   8.418  1.00  0.00     0.029 A 
ATOM     51  N   UNL     1      -4.917   1.667   8.912  1.00  0.00    -0.354 N 
ATOM     52  N   UNL     1      -2.957   0.369  10.701  1.00  0.00    -0.248 NA
ATOM     53  C   UNL     1      -2.301  -0.300  12.841  1.00  0.00     0.031 C 
ATOM     54  C   UNL     1      -6.812   2.410   9.797  1.00  0.00     0.029 A 
ATOM     55  C   UNL     1      -5.617   1.776  10.101  1.00  0.00     0.049 A 
ATOM     56  H   UNL     1      -4.024   1.264   8.817  1.00  0.00     0.167 HD
ATOM     57  C   UNL     1      -3.966   0.686  11.605  1.00  0.00     0.074 A 
ATOM     58  C   UNL     1      -3.519   0.221  12.902  1.00  0.00     0.031 C 
ATOM     59  C   UNL     1      -5.155   1.302  11.384  1.00  0.00     0.037 A 
BRANCH  46  60
ATOM     60  C   UNL     1      -6.110   2.957   5.493  1.00  0.00     0.058 A 
ATOM     61  C   UNL     1      -6.749   2.224   4.480  1.00  0.00     0.135 A 
ATOM     62  C   UNL     1      -6.346   4.340   5.547  1.00  0.00     0.135 A 
ATOM     63  F   UNL     1      -6.541   0.902   4.367  1.00  0.00    -0.206 F 
ATOM     64  C   UNL     1      -7.569   2.841   3.541  1.00  0.00     0.059 A 
ATOM     65  C   UNL     1      -7.185   4.975   4.635  1.00  0.00     0.059 A 
ATOM     66  F   UNL     1      -5.756   5.090   6.490  1.00  0.00    -0.206 F 
ATOM     67  C   UNL     1      -7.780   4.219   3.627  1.00  0.00     0.060 A 
BRANCH  67  68
ATOM     68  S   UNL     1      -8.848   5.005   2.402  1.00  0.00     0.124 S 
ATOM     69  O   UNL     1      -8.010   4.949   1.207  1.00  0.00    -0.237 OA
ATOM     70  O   UNL     1     -10.015   4.130   2.398  1.00  0.00    -0.237 OA
ATOM     71  O   UNL     1      -9.069   6.340   2.950  1.00  0.00    -0.744 OA
ENDBRANCH  67  68
ENDBRANCH  46  60
BRANCH  47  72
ATOM     72  C   UNL     1       0.244  -1.421  11.895  1.00  0.00     0.058 A 
ATOM     73  C   UNL     1      -0.067  -2.624  12.545  1.00  0.00     0.135 A 
ATOM     74  C   UNL     1       1.482  -0.825  12.185  1.00  0.00     0.135 A 
ATOM     75  F   UNL     1      -1.242  -3.228  12.309  1.00  0.00    -0.206 F 
ATOM     76  C   UNL     1       0.804  -3.205  13.461  1.00  0.00     0.059 A 
ATOM     77  C   UNL     1       2.382  -1.401  13.076  1.00  0.00     0.059 A 
ATOM     78  F   UNL     1       1.835   0.322  11.583  1.00  0.00    -0.206 F 
ATOM     79  C   UNL     1       2.028  -2.586  13.719  1.00  0.00     0.060 A 
BRANCH  79  80
ATOM     80  S   UNL     1       3.169  -3.370  14.879  1.00  0.00     0.124 S 
ATOM     81  O   UNL     1       2.505  -3.127  16.154  1.00  0.00    -0.237 OA
ATOM     82  O   UNL     1       3.173  -4.754  14.415  1.00  0.00    -0.237 OA
ATOM     83  O   UNL     1       4.417  -2.643  14.668  1.00  0.00    -0.744 OA
ENDBRANCH  79  80
ENDBRANCH  47  72
BRANCH  59  84
ATOM     84  C   UNL     1      -6.073   1.472  12.564  1.00  0.00     0.058 A 
ATOM     85  C   UNL     1      -5.795   2.381  13.597  1.00  0.00     0.135 A 
ATOM     86  C   UNL     1      -7.268   0.738  12.643  1.00  0.00     0.135 A 
ATOM     87  F   UNL     1      -4.665   3.105  13.574  1.00  0.00    -0.206 F 
ATOM     88  C   UNL     1      -6.650   2.529  14.684  1.00  0.00     0.059 A 
ATOM     89  C   UNL     1      -8.154   0.894  13.704  1.00  0.00     0.059 A 
ATOM     90  F   UNL     1      -7.591  -0.135  11.675  1.00  0.00    -0.206 F 
ATOM     91  C   UNL     1      -7.827   1.780  14.729  1.00  0.00     0.060 A 
BRANCH  91  92
ATOM     92  S   UNL     1      -8.935   1.990  16.139  1.00  0.00     0.124 S 
ATOM     93  O   UNL     1      -8.206   1.292  17.192  1.00  0.00    -0.237 OA
ATOM     94  O   UNL     1      -9.003   3.442  16.270  1.00  0.00    -0.237 OA
ATOM     95  O   UNL     1     -10.171   1.349  15.699  1.00  0.00    -0.744 OA
ENDBRANCH  91  92
ENDBRANCH  59  84
ENDBRANCH  33  34
ENDBRANCH  26  28
ENDBRANCH  25  26
ENDBRANCH  24  25
ENDBRANCH  23  24
ENDBRANCH   1  23
TORSDOF 21
