REMARK SMILES CC[C@H]1SC[C@H](C(=O)OCCOC(=O)c2ccc(-c3c4nc(c(-c5c(F)cc(S(=O)(=O)[O-])cc5F)c5ccc([nH]5)c(-c5c(F)cc(S(=O)(=O)[O-])cc5F)c5nc(c(-c6c(F)cc(S(=O)(=O)[O-])cc6F)c6ccc3[nH]6)C=C5)C=C4)cc2)N1C(=O)Cc1ccc(F)c(F)c1
REMARK SMILES IDX 10 1 9 2 7 3 8 4 6 5 3 6 4 7 81 8 5 9 2 10 1 11 82 12 83 13
REMARK SMILES IDX 84 14 85 15 86 16 92 17 87 18 90 19 88 20 91 21 89 22 11 23
REMARK SMILES IDX 12 24 13 25 14 26 15 27 16 28 80 29 17 30 79 31 18 32 19 33
REMARK SMILES IDX 20 34 73 35 21 36 78 37 72 38 74 39 22 40 77 41 71 42 70 43
REMARK SMILES IDX 23 45 57 46 36 47 56 48 37 49 40 50 55 51 75 52 38 53 39 54
REMARK SMILES IDX 54 56 76 57 41 58 24 59 25 60 34 61 26 62 27 63 33 64 35 65
REMARK SMILES IDX 28 66 29 67 30 68 31 69 32 70 58 71 59 72 68 73 60 74 61 75
REMARK SMILES IDX 67 76 69 77 62 78 63 79 64 80 65 81 66 82 42 83 43 84 52 85
REMARK SMILES IDX 44 86 45 87 51 88 53 89 46 90 47 91 48 92 49 93 50 94
REMARK H PARENT 74 44 40 55
REMARK Flexibility Score: inf
ROOT
ATOM      1  C   UNL     1       6.416  -0.013  -0.825  1.00  0.00     0.274 C 
ENDROOT
BRANCH   1   2
ATOM      2  O   UNL     1       4.997   0.213  -0.936  1.00  0.00    -0.461 OA
BRANCH   2   3
ATOM      3  C   UNL     1       4.285  -0.799  -1.511  1.00  0.00     0.329 C 
ATOM      4  O   UNL     1       4.781  -1.825  -1.958  1.00  0.00    -0.250 OA
BRANCH   3   5
ATOM      5  C   UNL     1       2.784  -0.469  -1.550  1.00  0.00     0.206 C 
ATOM      6  C   UNL     1       0.729  -1.754  -1.086  1.00  0.00     0.144 C 
ATOM      7  S   UNL     1       1.287  -2.364  -2.699  1.00  0.00    -0.134 SA
ATOM      8  N   UNL     1       1.929  -1.145  -0.536  1.00  0.00    -0.316 N 
ATOM      9  C   UNL     1       2.309  -0.890  -2.958  1.00  0.00     0.109 C 
BRANCH   6  10
ATOM     10  C   UNL     1      -0.445  -0.761  -1.327  1.00  0.00     0.033 C 
ATOM     11  C   UNL     1      -0.375   0.601  -0.645  1.00  0.00     0.007 C 
ENDBRANCH   6  10
BRANCH   8  12
ATOM     12  C   UNL     1       2.117  -0.922   0.819  1.00  0.00     0.228 C 
ATOM     13  O   UNL     1       2.846  -0.007   1.207  1.00  0.00    -0.274 OA
BRANCH  12  14
ATOM     14  C   UNL     1       1.509  -1.913   1.821  1.00  0.00     0.135 C 
BRANCH  14  15
ATOM     15  C   UNL     1       0.072  -1.688   2.228  1.00  0.00    -0.036 A 
ATOM     16  C   UNL     1      -0.334  -0.483   2.821  1.00  0.00     0.007 A 
ATOM     17  C   UNL     1      -0.877  -2.713   2.063  1.00  0.00     0.046 A 
ATOM     18  C   UNL     1      -1.676  -0.276   3.159  1.00  0.00     0.043 A 
ATOM     19  C   UNL     1      -2.209  -2.501   2.407  1.00  0.00     0.159 A 
ATOM     20  C   UNL     1      -2.609  -1.283   2.937  1.00  0.00     0.158 A 
ATOM     21  F   UNL     1      -3.105  -3.475   2.200  1.00  0.00    -0.204 F 
ATOM     22  F   UNL     1      -3.898  -1.062   3.231  1.00  0.00    -0.204 F 
ENDBRANCH  14  15
ENDBRANCH  12  14
ENDBRANCH   8  12
ENDBRANCH   3   5
ENDBRANCH   2   3
ENDBRANCH   1   2
BRANCH   1  23
ATOM     23  C   UNL     1       6.765  -0.729   0.479  1.00  0.00     0.275 C 
BRANCH  23  24
ATOM     24  O   UNL     1       6.139  -2.021   0.499  1.00  0.00    -0.458 OA
BRANCH  24  25
ATOM     25  C   UNL     1       5.662  -2.427   1.692  1.00  0.00     0.338 C 
ATOM     26  O   UNL     1       5.809  -1.866   2.773  1.00  0.00    -0.246 OA
BRANCH  25  27
ATOM     27  C   UNL     1       4.934  -3.702   1.541  1.00  0.00     0.060 A 
ATOM     28  C   UNL     1       4.038  -3.911   0.489  1.00  0.00     0.016 A 
ATOM     29  C   UNL     1       5.083  -4.680   2.523  1.00  0.00     0.016 A 
ATOM     30  C   UNL     1       3.242  -5.054   0.453  1.00  0.00     0.010 A 
ATOM     31  C   UNL     1       4.345  -5.862   2.443  1.00  0.00     0.010 A 
ATOM     32  C   UNL     1       3.394  -6.050   1.424  1.00  0.00    -0.014 A 
BRANCH  32  33
ATOM     33  C   UNL     1       2.554  -7.276   1.405  1.00  0.00     0.031 A 
ATOM     34  C   UNL     1       1.679  -7.603   2.585  1.00  0.00     0.074 A 
ATOM     35  C   UNL     1       2.595  -8.112   0.350  1.00  0.00     0.049 A 
ATOM     36  N   UNL     1       1.060  -8.717   2.874  1.00  0.00    -0.248 NA
ATOM     37  C   UNL     1       1.490  -6.535   3.581  1.00  0.00     0.031 C 
ATOM     38  C   UNL     1       3.361  -7.892  -0.878  1.00  0.00     0.029 A 
ATOM     39  N   UNL     1       1.985  -9.325   0.148  1.00  0.00    -0.354 N 
ATOM     40  C   UNL     1       0.460  -8.510   4.110  1.00  0.00     0.074 A 
ATOM     41  C   UNL     1       0.784  -7.158   4.514  1.00  0.00     0.031 C 
ATOM     42  C   UNL     1       3.165  -8.926  -1.710  1.00  0.00     0.029 A 
ATOM     43  C   UNL     1       2.332  -9.919  -1.042  1.00  0.00     0.049 A 
ATOM     44  H   UNL     1       1.360  -9.730   0.792  1.00  0.00     0.167 HD
ATOM     45  C   UNL     1      -0.282  -9.374   4.843  1.00  0.00     0.037 A 
ATOM     46  C   UNL     1       2.059 -11.147  -1.523  1.00  0.00     0.037 A 
ATOM     47  C   UNL     1      -0.632 -10.703   4.412  1.00  0.00     0.049 A 
ATOM     48  C   UNL     1       1.253 -12.099  -0.688  1.00  0.00     0.074 A 
ATOM     49  C   UNL     1      -1.393 -11.653   5.071  1.00  0.00     0.029 A 
ATOM     50  N   UNL     1      -0.252 -11.268   3.202  1.00  0.00    -0.354 N 
ATOM     51  N   UNL     1       0.742 -11.914   0.506  1.00  0.00    -0.248 NA
ATOM     52  C   UNL     1       1.004 -13.430  -1.254  1.00  0.00     0.031 C 
ATOM     53  C   UNL     1      -1.448 -12.802   4.273  1.00  0.00     0.029 A 
ATOM     54  C   UNL     1      -0.752 -12.555   3.100  1.00  0.00     0.049 A 
ATOM     55  H   UNL     1       0.294 -10.819   2.517  1.00  0.00     0.167 HD
ATOM     56  C   UNL     1       0.107 -13.104   0.835  1.00  0.00     0.074 A 
ATOM     57  C   UNL     1       0.283 -13.997  -0.294  1.00  0.00     0.031 C 
ATOM     58  C   UNL     1      -0.558 -13.431   1.971  1.00  0.00     0.037 A 
BRANCH  45  59
ATOM     59  C   UNL     1      -0.725  -8.921   6.207  1.00  0.00     0.058 A 
ATOM     60  C   UNL     1      -1.736  -7.965   6.385  1.00  0.00     0.135 A 
ATOM     61  C   UNL     1      -0.122  -9.458   7.358  1.00  0.00     0.135 A 
ATOM     62  F   UNL     1      -2.331  -7.406   5.320  1.00  0.00    -0.206 F 
ATOM     63  C   UNL     1      -2.110  -7.529   7.654  1.00  0.00     0.059 A 
ATOM     64  C   UNL     1      -0.497  -9.056   8.636  1.00  0.00     0.059 A 
ATOM     65  F   UNL     1       0.851 -10.376   7.245  1.00  0.00    -0.206 F 
ATOM     66  C   UNL     1      -1.478  -8.075   8.773  1.00  0.00     0.060 A 
BRANCH  66  67
ATOM     67  S   UNL     1      -1.951  -7.485  10.413  1.00  0.00     0.124 S 
ATOM     68  O   UNL     1      -1.262  -6.199  10.468  1.00  0.00    -0.237 OA
ATOM     69  O   UNL     1      -3.406  -7.420  10.319  1.00  0.00    -0.237 OA
ATOM     70  O   UNL     1      -1.430  -8.515  11.307  1.00  0.00    -0.744 OA
ENDBRANCH  66  67
ENDBRANCH  45  59
BRANCH  46  71
ATOM     71  C   UNL     1       2.600 -11.545  -2.849  1.00  0.00     0.058 A 
ATOM     72  C   UNL     1       1.763 -11.639  -3.968  1.00  0.00     0.135 A 
ATOM     73  C   UNL     1       3.974 -11.764  -3.035  1.00  0.00     0.135 A 
ATOM     74  F   UNL     1       0.442 -11.449  -3.836  1.00  0.00    -0.206 F 
ATOM     75  C   UNL     1       2.270 -11.925  -5.232  1.00  0.00     0.059 A 
ATOM     76  C   UNL     1       4.508 -12.028  -4.292  1.00  0.00     0.059 A 
ATOM     77  F   UNL     1       4.817 -11.672  -1.994  1.00  0.00    -0.206 F 
ATOM     78  C   UNL     1       3.647 -12.107  -5.385  1.00  0.00     0.060 A 
BRANCH  78  79
ATOM     79  S   UNL     1       4.310 -12.373  -7.044  1.00  0.00     0.124 S 
ATOM     80  O   UNL     1       3.978 -13.775  -7.271  1.00  0.00    -0.237 OA
ATOM     81  O   UNL     1       3.561 -11.404  -7.837  1.00  0.00    -0.237 OA
ATOM     82  O   UNL     1       5.731 -12.076  -6.887  1.00  0.00    -0.744 OA
ENDBRANCH  78  79
ENDBRANCH  46  71
BRANCH  58  83
ATOM     83  C   UNL     1      -1.157 -14.806   2.039  1.00  0.00     0.058 A 
ATOM     84  C   UNL     1      -0.364 -15.940   2.269  1.00  0.00     0.135 A 
ATOM     85  C   UNL     1      -2.543 -14.986   1.907  1.00  0.00     0.135 A 
ATOM     86  F   UNL     1       0.967 -15.820   2.394  1.00  0.00    -0.206 F 
ATOM     87  C   UNL     1      -0.922 -17.212   2.346  1.00  0.00     0.059 A 
ATOM     88  C   UNL     1      -3.125 -16.246   2.000  1.00  0.00     0.059 A 
ATOM     89  F   UNL     1      -3.345 -13.931   1.692  1.00  0.00    -0.206 F 
ATOM     90  C   UNL     1      -2.305 -17.355   2.208  1.00  0.00     0.060 A 
BRANCH  90  91
ATOM     91  S   UNL     1      -3.024 -19.006   2.334  1.00  0.00     0.124 S 
ATOM     92  O   UNL     1      -2.699 -19.567   1.027  1.00  0.00    -0.237 OA
ATOM     93  O   UNL     1      -2.303 -19.579   3.467  1.00  0.00    -0.237 OA
ATOM     94  O   UNL     1      -4.440 -18.741   2.571  1.00  0.00    -0.744 OA
ENDBRANCH  90  91
ENDBRANCH  58  83
ENDBRANCH  32  33
ENDBRANCH  25  27
ENDBRANCH  24  25
ENDBRANCH  23  24
ENDBRANCH   1  23
TORSDOF 18
