REMARK SMILES [NH3+][C@H]1CCCC[C@@H]1C(=O)N1CC(C(=O)OCCOC(=O)c2ccc(-c3c4nc(c(-c5c(F)cc(S(=O)(=O)[O-])cc5F)c5ccc([nH]5)c(-c5c(F)cc(S(=O)(=O)[O-])cc5F)c5nc(c(-c6c(F)cc(S(=O)(=O)[O-])cc6F)c6ccc3[nH]6)C=C5)C=C4)cc2)C1
REMARK SMILES IDX 17 1 16 2 15 3 13 4 14 5 12 6 8 7 9 8 10 9 11 10 87 11 7 12
REMARK SMILES IDX 2 13 3 14 4 15 6 16 5 17 1 18 18 22 19 23 20 24 21 25 22 26
REMARK SMILES IDX 86 27 23 28 85 29 24 30 25 31 26 32 79 33 27 34 84 35 78 36
REMARK SMILES IDX 80 37 28 38 83 39 77 40 76 41 29 43 63 44 42 45 62 46 43 47
REMARK SMILES IDX 46 48 61 49 81 50 44 51 45 52 60 54 82 55 47 56 30 57 31 58
REMARK SMILES IDX 40 59 32 60 33 61 39 62 41 63 34 64 35 65 36 66 37 67 38 68
REMARK SMILES IDX 64 69 65 70 74 71 66 72 67 73 73 74 75 75 68 76 69 77 70 78
REMARK SMILES IDX 71 79 72 80 48 81 49 82 58 83 50 84 51 85 57 86 59 87 52 88
REMARK SMILES IDX 53 89 54 90 55 91 56 92
REMARK H PARENT 1 19 1 20 1 21 80 42 46 53
REMARK Flexibility Score: inf
ROOT
ATOM      1  C   UNL     1      -3.358  -0.982  -7.438  1.00  0.00     0.275 C 
ENDROOT
BRANCH   1   2
ATOM      2  C   UNL     1      -3.873  -0.316  -6.157  1.00  0.00     0.274 C 
BRANCH   2   3
ATOM      3  O   UNL     1      -3.104  -0.734  -5.011  1.00  0.00    -0.462 OA
BRANCH   3   4
ATOM      4  C   UNL     1      -3.696  -1.648  -4.185  1.00  0.00     0.312 C 
ATOM      5  O   UNL     1      -4.876  -1.981  -4.291  1.00  0.00    -0.252 OA
BRANCH   4   6
ATOM      6  C   UNL     1      -2.731  -2.260  -3.166  1.00  0.00     0.138 C 
ATOM      7  C   UNL     1      -1.290  -1.990  -0.119  1.00  0.00     0.231 C 
ATOM      8  O   UNL     1      -1.694  -2.751   0.765  1.00  0.00    -0.274 OA
ATOM      9  N   UNL     1      -1.793  -2.048  -1.380  1.00  0.00    -0.340 N 
ATOM     10  C   UNL     1      -3.189  -2.287  -1.709  1.00  0.00     0.136 C 
ATOM     11  C   UNL     1      -1.482  -1.511  -2.689  1.00  0.00     0.136 C 
BRANCH   7  12
ATOM     12  C   UNL     1      -0.304  -0.890   0.228  1.00  0.00     0.136 C 
ATOM     13  C   UNL     1      -0.894   0.508  -0.056  1.00  0.00     0.193 C 
ATOM     14  C   UNL     1       0.060   1.601   0.433  1.00  0.00     0.066 C 
ATOM     15  C   UNL     1       1.449   1.431  -0.180  1.00  0.00     0.006 C 
ATOM     16  C   UNL     1       1.075  -1.062  -0.410  1.00  0.00     0.020 C 
ATOM     17  C   UNL     1       2.022   0.038   0.074  1.00  0.00     0.001 C 
BRANCH  13  18
ATOM     18  N   UNL     1      -2.218   0.691   0.539  1.00  0.00    -0.354 N 
ATOM     19  H   UNL     1      -2.562   1.627   0.323  1.00  0.00     0.344 HD
ATOM     20  H   UNL     1      -2.155   0.577   1.551  1.00  0.00     0.344 HD
ATOM     21  H   UNL     1      -2.861  -0.004   0.159  1.00  0.00     0.344 HD
ENDBRANCH  13  18
ENDBRANCH   7  12
ENDBRANCH   4   6
ENDBRANCH   3   4
ENDBRANCH   2   3
ENDBRANCH   1   2
BRANCH   1  22
ATOM     22  O   UNL     1      -3.580  -2.406  -7.444  1.00  0.00    -0.458 OA
BRANCH  22  23
ATOM     23  C   UNL     1      -2.575  -3.135  -6.904  1.00  0.00     0.338 C 
ATOM     24  O   UNL     1      -1.537  -2.711  -6.424  1.00  0.00    -0.246 OA
BRANCH  23  25
ATOM     25  C   UNL     1      -2.940  -4.558  -6.846  1.00  0.00     0.060 A 
ATOM     26  C   UNL     1      -3.157  -5.115  -5.588  1.00  0.00     0.016 A 
ATOM     27  C   UNL     1      -2.909  -5.373  -7.977  1.00  0.00     0.016 A 
ATOM     28  C   UNL     1      -3.253  -6.489  -5.429  1.00  0.00     0.010 A 
ATOM     29  C   UNL     1      -3.070  -6.757  -7.826  1.00  0.00     0.010 A 
ATOM     30  C   UNL     1      -3.210  -7.327  -6.547  1.00  0.00    -0.014 A 
BRANCH  30  31
ATOM     31  C   UNL     1      -3.257  -8.795  -6.337  1.00  0.00     0.031 A 
ATOM     32  C   UNL     1      -2.042  -9.633  -6.624  1.00  0.00     0.074 A 
ATOM     33  C   UNL     1      -4.361  -9.358  -5.806  1.00  0.00     0.049 A 
ATOM     34  N   UNL     1      -1.907 -10.932  -6.580  1.00  0.00    -0.248 NA
ATOM     35  C   UNL     1      -0.817  -8.915  -7.012  1.00  0.00     0.031 C 
ATOM     36  C   UNL     1      -5.574  -8.635  -5.414  1.00  0.00     0.029 A 
ATOM     37  N   UNL     1      -4.634 -10.662  -5.484  1.00  0.00    -0.354 N 
ATOM     38  C   UNL     1      -0.596 -11.192  -6.961  1.00  0.00     0.074 A 
ATOM     39  C   UNL     1       0.023  -9.914  -7.244  1.00  0.00     0.031 C 
ATOM     40  C   UNL     1      -6.448  -9.502  -4.877  1.00  0.00     0.029 A 
ATOM     41  C   UNL     1      -5.886 -10.846  -4.947  1.00  0.00     0.049 A 
ATOM     42  H   UNL     1      -3.994 -11.397  -5.624  1.00  0.00     0.167 HD
ATOM     43  C   UNL     1       0.033 -12.387  -7.062  1.00  0.00     0.037 A 
ATOM     44  C   UNL     1      -6.522 -11.975  -4.580  1.00  0.00     0.037 A 
ATOM     45  C   UNL     1      -0.583 -13.650  -6.747  1.00  0.00     0.049 A 
ATOM     46  C   UNL     1      -5.818 -13.293  -4.749  1.00  0.00     0.074 A 
ATOM     47  C   UNL     1      -0.047 -14.922  -6.854  1.00  0.00     0.029 A 
ATOM     48  N   UNL     1      -1.867 -13.799  -6.244  1.00  0.00    -0.354 N 
ATOM     49  N   UNL     1      -4.604 -13.528  -5.187  1.00  0.00    -0.248 NA
ATOM     50  C   UNL     1      -6.574 -14.499  -4.388  1.00  0.00     0.031 C 
ATOM     51  C   UNL     1      -1.016 -15.842  -6.434  1.00  0.00     0.029 A 
ATOM     52  C   UNL     1      -2.142 -15.140  -6.035  1.00  0.00     0.049 A 
ATOM     53  H   UNL     1      -2.491 -13.060  -6.062  1.00  0.00     0.167 HD
ATOM     54  C   UNL     1      -4.446 -14.907  -5.139  1.00  0.00     0.074 A 
ATOM     55  C   UNL     1      -5.682 -15.453  -4.616  1.00  0.00     0.031 C 
ATOM     56  C   UNL     1      -3.376 -15.657  -5.501  1.00  0.00     0.037 A 
BRANCH  43  57
ATOM     57  C   UNL     1       1.449 -12.387  -7.562  1.00  0.00     0.058 A 
ATOM     58  C   UNL     1       2.520 -11.981  -6.750  1.00  0.00     0.135 A 
ATOM     59  C   UNL     1       1.742 -12.824  -8.864  1.00  0.00     0.135 A 
ATOM     60  F   UNL     1       2.292 -11.534  -5.505  1.00  0.00    -0.206 F 
ATOM     61  C   UNL     1       3.830 -11.988  -7.220  1.00  0.00     0.059 A 
ATOM     62  C   UNL     1       3.047 -12.859  -9.347  1.00  0.00     0.059 A 
ATOM     63  F   UNL     1       0.754 -13.219  -9.682  1.00  0.00    -0.206 F 
ATOM     64  C   UNL     1       4.083 -12.426  -8.521  1.00  0.00     0.060 A 
BRANCH  64  65
ATOM     65  S   UNL     1       5.787 -12.432  -9.120  1.00  0.00     0.124 S 
ATOM     66  O   UNL     1       6.008 -11.012  -9.377  1.00  0.00    -0.237 OA
ATOM     67  O   UNL     1       6.518 -12.992  -7.987  1.00  0.00    -0.237 OA
ATOM     68  O   UNL     1       5.727 -13.282 -10.305  1.00  0.00    -0.744 OA
ENDBRANCH  64  65
ENDBRANCH  43  57
BRANCH  44  69
ATOM     69  C   UNL     1      -7.910 -11.913  -4.054  1.00  0.00     0.058 A 
ATOM     70  C   UNL     1      -8.191 -12.208  -2.712  1.00  0.00     0.135 A 
ATOM     71  C   UNL     1      -8.986 -11.565  -4.886  1.00  0.00     0.135 A 
ATOM     72  F   UNL     1      -7.197 -12.555  -1.880  1.00  0.00    -0.206 F 
ATOM     73  C   UNL     1      -9.491 -12.178  -2.216  1.00  0.00     0.059 A 
ATOM     74  C   UNL     1     -10.290 -11.504  -4.408  1.00  0.00     0.059 A 
ATOM     75  F   UNL     1      -8.768 -11.261  -6.175  1.00  0.00    -0.206 F 
ATOM     76  C   UNL     1     -10.535 -11.827  -3.074  1.00  0.00     0.060 A 
BRANCH  76  77
ATOM     77  S   UNL     1     -12.218 -11.761  -2.423  1.00  0.00     0.124 S 
ATOM     78  O   UNL     1     -12.580 -13.174  -2.408  1.00  0.00    -0.237 OA
ATOM     79  O   UNL     1     -12.024 -11.137  -1.118  1.00  0.00    -0.237 OA
ATOM     80  O   UNL     1     -12.921 -10.939  -3.404  1.00  0.00    -0.744 OA
ENDBRANCH  76  77
ENDBRANCH  44  69
BRANCH  56  81
ATOM     81  C   UNL     1      -3.487 -17.141  -5.308  1.00  0.00     0.058 A 
ATOM     82  C   UNL     1      -4.240 -17.940  -6.181  1.00  0.00     0.135 A 
ATOM     83  C   UNL     1      -2.804 -17.773  -4.257  1.00  0.00     0.135 A 
ATOM     84  F   UNL     1      -4.916 -17.380  -7.197  1.00  0.00    -0.206 F 
ATOM     85  C   UNL     1      -4.332 -19.317  -6.005  1.00  0.00     0.059 A 
ATOM     86  C   UNL     1      -2.865 -19.150  -4.075  1.00  0.00     0.059 A 
ATOM     87  F   UNL     1      -2.064 -17.051  -3.401  1.00  0.00    -0.206 F 
ATOM     88  C   UNL     1      -3.642 -19.912  -4.947  1.00  0.00     0.060 A 
BRANCH  88  89
ATOM     89  S   UNL     1      -3.744 -21.703  -4.742  1.00  0.00     0.124 S 
ATOM     90  O   UNL     1      -5.054 -21.852  -4.116  1.00  0.00    -0.237 OA
ATOM     91  O   UNL     1      -3.640 -22.186  -6.115  1.00  0.00    -0.237 OA
ATOM     92  O   UNL     1      -2.600 -22.011  -3.889  1.00  0.00    -0.744 OA
ENDBRANCH  88  89
ENDBRANCH  56  81
ENDBRANCH  30  31
ENDBRANCH  23  25
ENDBRANCH  22  23
ENDBRANCH   1  22
TORSDOF 16
