REMARK SMILES C[NH2+][C@@]1(C(=O)OCCOC(=O)c2ccc(-c3c4nc(c(-c5c(F)cc(S(=O)(=O)[O-])cc5F)c5ccc([nH]5)c(-c5c(F)cc(S(=O)(=O)[O-])cc5F)c5nc(c(-c6c(F)cc(S(=O)(=O)[O-])cc6F)c6ccc3[nH]6)C=C5)C=C4)cc2)C=CC=C(c2ccccc2)C1
REMARK SMILES IDX 8 1 7 2 6 3 4 4 5 5 3 6 78 7 88 8 79 9 81 10 80 11 2 12 1 13
REMARK SMILES IDX 82 16 83 17 87 18 84 19 86 20 85 21 9 22 10 23 11 24 12 25
REMARK SMILES IDX 13 26 77 27 14 28 76 29 15 30 16 31 17 32 70 33 18 34 75 35
REMARK SMILES IDX 69 36 71 37 19 38 74 39 68 40 67 41 20 43 54 44 33 45 53 46
REMARK SMILES IDX 34 47 37 48 52 49 72 50 35 51 36 52 51 54 73 55 38 56 21 57
REMARK SMILES IDX 22 58 31 59 23 60 24 61 30 62 32 63 25 64 26 65 27 66 28 67
REMARK SMILES IDX 29 68 55 69 56 70 65 71 57 72 58 73 64 74 66 75 59 76 60 77
REMARK SMILES IDX 61 78 62 79 63 80 39 81 40 82 49 83 41 84 42 85 48 86 50 87
REMARK SMILES IDX 43 88 44 89 45 90 46 91 47 92
REMARK H PARENT 2 14 2 15 71 42 37 53
REMARK Flexibility Score: inf
ROOT
ATOM      1  C   UNL     1      -2.752   1.104   5.019  1.00  0.00     0.275 C 
ENDROOT
BRANCH   1   2
ATOM      2  C   UNL     1      -3.200   1.421   3.594  1.00  0.00     0.274 C 
BRANCH   2   3
ATOM      3  O   UNL     1      -2.708   0.432   2.667  1.00  0.00    -0.457 OA
BRANCH   3   4
ATOM      4  C   UNL     1      -1.793   0.854   1.747  1.00  0.00     0.372 C 
ATOM      5  O   UNL     1      -1.387   2.014   1.688  1.00  0.00    -0.244 OA
BRANCH   4   6
ATOM      6  C   UNL     1      -1.349  -0.274   0.744  1.00  0.00     0.217 C 
ATOM      7  C   UNL     1      -1.864   0.181  -0.618  1.00  0.00     0.053 C 
ATOM      8  C   UNL     1      -1.961  -1.667   1.111  1.00  0.00     0.122 C 
ATOM      9  C   UNL     1      -2.296  -0.688  -1.546  1.00  0.00     0.003 C 
ATOM     10  C   UNL     1      -2.012  -2.605  -0.081  1.00  0.00    -0.034 C 
ATOM     11  C   UNL     1      -2.197  -2.111  -1.319  1.00  0.00     0.004 C 
BRANCH   6  12
ATOM     12  N   UNL     1       0.140  -0.358   0.829  1.00  0.00    -0.331 N 
ATOM     13  C   UNL     1       0.904  -0.166  -0.390  1.00  0.00     0.332 C 
ATOM     14  H   UNL     1       0.446   0.352   1.494  1.00  0.00     0.347 HD
ATOM     15  H   UNL     1       0.326  -1.325   1.097  1.00  0.00     0.347 HD
ENDBRANCH   6  12
BRANCH  10  16
ATOM     16  C   UNL     1      -1.859  -4.050   0.148  1.00  0.00    -0.022 A 
ATOM     17  C   UNL     1      -0.889  -4.782  -0.553  1.00  0.00     0.008 A 
ATOM     18  C   UNL     1      -2.661  -4.714   1.084  1.00  0.00     0.008 A 
ATOM     19  C   UNL     1      -0.736  -6.152  -0.334  1.00  0.00     0.001 A 
ATOM     20  C   UNL     1      -2.512  -6.086   1.297  1.00  0.00     0.001 A 
ATOM     21  C   UNL     1      -1.551  -6.805   0.588  1.00  0.00     0.000 A 
ENDBRANCH  10  16
ENDBRANCH   4   6
ENDBRANCH   3   4
ENDBRANCH   2   3
ENDBRANCH   1   2
BRANCH   1  22
ATOM     22  O   UNL     1      -1.326   1.231   5.141  1.00  0.00    -0.458 OA
BRANCH  22  23
ATOM     23  C   UNL     1      -0.643   0.065   5.079  1.00  0.00     0.338 C 
ATOM     24  O   UNL     1      -1.100  -1.061   4.988  1.00  0.00    -0.246 OA
BRANCH  23  25
ATOM     25  C   UNL     1       0.797   0.349   5.057  1.00  0.00     0.060 A 
ATOM     26  C   UNL     1       1.408   0.534   3.820  1.00  0.00     0.016 A 
ATOM     27  C   UNL     1       1.558   0.303   6.223  1.00  0.00     0.016 A 
ATOM     28  C   UNL     1       2.794   0.591   3.727  1.00  0.00     0.010 A 
ATOM     29  C   UNL     1       2.949   0.435   6.136  1.00  0.00     0.010 A 
ATOM     30  C   UNL     1       3.583   0.545   4.885  1.00  0.00    -0.014 A 
BRANCH  30  31
ATOM     31  C   UNL     1       5.066   0.569   4.775  1.00  0.00     0.031 A 
ATOM     32  C   UNL     1       5.876  -0.617   5.228  1.00  0.00     0.074 A 
ATOM     33  C   UNL     1       5.690   1.639   4.244  1.00  0.00     0.049 A 
ATOM     34  N   UNL     1       7.174  -0.737   5.341  1.00  0.00    -0.248 NA
ATOM     35  C   UNL     1       5.127  -1.824   5.613  1.00  0.00     0.031 C 
ATOM     36  C   UNL     1       5.025   2.835   3.723  1.00  0.00     0.029 A 
ATOM     37  N   UNL     1       7.025   1.889   4.045  1.00  0.00    -0.354 N 
ATOM     38  C   UNL     1       7.395  -2.007   5.862  1.00  0.00     0.074 A 
ATOM     39  C   UNL     1       6.097  -2.623   6.036  1.00  0.00     0.031 C 
ATOM     40  C   UNL     1       5.950   3.674   3.231  1.00  0.00     0.029 A 
ATOM     41  C   UNL     1       7.276   3.109   3.463  1.00  0.00     0.049 A 
ATOM     42  H   UNL     1       7.735   1.255   4.294  1.00  0.00     0.167 HD
ATOM     43  C   UNL     1       8.573  -2.601   6.172  1.00  0.00     0.037 A 
ATOM     44  C   UNL     1       8.441   3.720   3.176  1.00  0.00     0.037 A 
ATOM     45  C   UNL     1       9.865  -2.010   5.944  1.00  0.00     0.049 A 
ATOM     46  C   UNL     1       9.734   3.043   3.529  1.00  0.00     0.074 A 
ATOM     47  C   UNL     1      11.116  -2.539   6.213  1.00  0.00     0.029 A 
ATOM     48  N   UNL     1      10.074  -0.763   5.373  1.00  0.00    -0.354 N 
ATOM     49  N   UNL     1       9.924   1.867   4.079  1.00  0.00    -0.248 NA
ATOM     50  C   UNL     1      10.971   3.783   3.245  1.00  0.00     0.031 C 
ATOM     51  C   UNL     1      12.081  -1.603   5.821  1.00  0.00     0.029 A 
ATOM     52  C   UNL     1      11.431  -0.503   5.286  1.00  0.00     0.049 A 
ATOM     53  H   UNL     1       9.361  -0.153   5.074  1.00  0.00     0.167 HD
ATOM     54  C   UNL     1      11.300   1.727   4.207  1.00  0.00     0.074 A 
ATOM     55  C   UNL     1      11.897   2.929   3.659  1.00  0.00     0.031 C 
ATOM     56  C   UNL     1      12.005   0.699   4.739  1.00  0.00     0.037 A 
BRANCH  43  57
ATOM     57  C   UNL     1       8.514  -3.950   6.827  1.00  0.00     0.058 A 
ATOM     58  C   UNL     1       8.242  -5.119   6.100  1.00  0.00     0.135 A 
ATOM     59  C   UNL     1       8.750  -4.074   8.206  1.00  0.00     0.135 A 
ATOM     60  F   UNL     1       7.991  -5.051   4.783  1.00  0.00    -0.206 F 
ATOM     61  C   UNL     1       8.182  -6.362   6.722  1.00  0.00     0.059 A 
ATOM     62  C   UNL     1       8.713  -5.310   8.845  1.00  0.00     0.059 A 
ATOM     63  F   UNL     1       9.012  -2.986   8.947  1.00  0.00    -0.206 F 
ATOM     64  C   UNL     1       8.412  -6.447   8.097  1.00  0.00     0.060 A 
BRANCH  64  65
ATOM     65  S   UNL     1       8.325  -8.062   8.899  1.00  0.00     0.124 S 
ATOM     66  O   UNL     1       6.883  -8.237   9.041  1.00  0.00    -0.237 OA
ATOM     67  O   UNL     1       8.976  -8.936   7.929  1.00  0.00    -0.237 OA
ATOM     68  O   UNL     1       9.059  -7.860  10.145  1.00  0.00    -0.744 OA
ENDBRANCH  64  65
ENDBRANCH  43  57
BRANCH  44  69
ATOM     69  C   UNL     1       8.432   5.063   2.542  1.00  0.00     0.058 A 
ATOM     70  C   UNL     1       8.786   5.226   1.196  1.00  0.00     0.135 A 
ATOM     71  C   UNL     1       8.042   6.203   3.262  1.00  0.00     0.135 A 
ATOM     72  F   UNL     1       9.175   4.165   0.472  1.00  0.00    -0.206 F 
ATOM     73  C   UNL     1       8.755   6.474   0.582  1.00  0.00     0.059 A 
ATOM     74  C   UNL     1       7.984   7.457   2.665  1.00  0.00     0.059 A 
ATOM     75  F   UNL     1       7.685   6.095   4.551  1.00  0.00    -0.206 F 
ATOM     76  C   UNL     1       8.349   7.584   1.325  1.00  0.00     0.060 A 
BRANCH  76  77
ATOM     77  S   UNL     1       8.240   9.192   0.509  1.00  0.00     0.124 S 
ATOM     78  O   UNL     1       9.629   9.634   0.548  1.00  0.00    -0.237 OA
ATOM     79  O   UNL     1       7.719   8.842  -0.808  1.00  0.00    -0.237 OA
ATOM     80  O   UNL     1       7.315   9.933   1.362  1.00  0.00    -0.744 OA
ENDBRANCH  76  77
ENDBRANCH  44  69
BRANCH  56  81
ATOM     81  C   UNL     1      13.500   0.828   4.742  1.00  0.00     0.058 A 
ATOM     82  C   UNL     1      14.161   1.614   5.697  1.00  0.00     0.135 A 
ATOM     83  C   UNL     1      14.279   0.130   3.807  1.00  0.00     0.135 A 
ATOM     84  F   UNL     1      13.456   2.306   6.607  1.00  0.00    -0.206 F 
ATOM     85  C   UNL     1      15.547   1.719   5.716  1.00  0.00     0.059 A 
ATOM     86  C   UNL     1      15.668   0.208   3.816  1.00  0.00     0.059 A 
ATOM     87  F   UNL     1      13.691  -0.640   2.878  1.00  0.00    -0.206 F 
ATOM     88  C   UNL     1      16.292   1.014   4.769  1.00  0.00     0.060 A 
BRANCH  88  89
ATOM     89  S   UNL     1      18.094   1.128   4.814  1.00  0.00     0.124 S 
ATOM     90  O   UNL     1      18.323   2.400   4.138  1.00  0.00    -0.237 OA
ATOM     91  O   UNL     1      18.378   1.111   6.246  1.00  0.00    -0.237 OA
ATOM     92  O   UNL     1      18.525  -0.060   4.084  1.00  0.00    -0.744 OA
ENDBRANCH  88  89
ENDBRANCH  56  81
ENDBRANCH  30  31
ENDBRANCH  23  25
ENDBRANCH  22  23
ENDBRANCH   1  22
TORSDOF 16
