REMARK SMILES CC(=O)NS(=O)(=O)c1cc(-c2ccn(C(F)F)c(=O)c2)ccc1C(=O)OCCOC(=O)c1ccc(-c2c3nc(c(-c4c(F)cc(S(=O)(=O)[O-])cc4F)c4ccc([nH]4)c(-c4c(F)cc(S(=O)(=O)[O-])cc4F)c4nc(c(-c5c(F)cc(S(=O)(=O)[O-])cc5F)c5ccc2[nH]5)C=C4)C=C3)cc1
REMARK SMILES IDX 28 1 27 2 26 3 24 4 25 5 23 6 8 7 9 8 10 9 22 10 21 11 5 12
REMARK SMILES IDX 6 13 7 14 4 15 1 16 2 17 3 18 11 20 12 21 20 22 13 23 18 24
REMARK SMILES IDX 14 25 19 26 15 27 16 28 17 29 29 30 30 31 31 32 32 33 33 34
REMARK SMILES IDX 97 35 34 36 96 37 35 38 36 39 37 40 90 41 38 42 95 43 89 44
REMARK SMILES IDX 91 45 39 46 94 47 88 48 87 49 40 51 74 52 53 53 73 54 54 55
REMARK SMILES IDX 57 56 72 57 92 58 55 59 56 60 71 62 93 63 58 64 41 65 42 66
REMARK SMILES IDX 51 67 43 68 44 69 50 70 52 71 45 72 46 73 47 74 48 75 49 76
REMARK SMILES IDX 75 77 76 78 85 79 77 80 78 81 84 82 86 83 79 84 80 85 81 86
REMARK SMILES IDX 82 87 83 88 59 89 60 90 69 91 61 92 62 93 68 94 70 95 63 96
REMARK SMILES IDX 64 97 65 98 66 99 67 100
REMARK H PARENT 4 19 91 50 57 61
REMARK Flexibility Score: inf
ROOT
ATOM      1  C   UNL     1       1.425   1.181   3.585  1.00  0.00     0.275 C 
ENDROOT
BRANCH   1   2
ATOM      2  C   UNL     1       1.087  -0.255   3.165  1.00  0.00     0.275 C 
BRANCH   2   3
ATOM      3  O   UNL     1       1.952  -0.774   2.133  1.00  0.00    -0.458 OA
BRANCH   3   4
ATOM      4  C   UNL     1       1.519  -0.527   0.882  1.00  0.00     0.339 C 
ATOM      5  O   UNL     1       0.521   0.094   0.553  1.00  0.00    -0.246 OA
BRANCH   4   6
ATOM      6  C   UNL     1       2.385  -1.118  -0.139  1.00  0.00     0.080 A 
ATOM      7  C   UNL     1       2.177  -2.393  -0.658  1.00  0.00     0.103 A 
ATOM      8  C   UNL     1       2.890  -2.812  -1.804  1.00  0.00     0.032 A 
ATOM      9  C   UNL     1       3.765  -1.942  -2.477  1.00  0.00    -0.017 A 
ATOM     10  C   UNL     1       3.279  -0.258  -0.781  1.00  0.00     0.018 A 
ATOM     11  C   UNL     1       3.932  -0.653  -1.949  1.00  0.00     0.010 A 
BRANCH   7  12
ATOM     12  S   UNL     1       1.008  -3.526   0.035  1.00  0.00     0.264 S 
ATOM     13  O   UNL     1       1.658  -4.128   1.173  1.00  0.00    -0.201 OA
ATOM     14  O   UNL     1       0.502  -4.340  -1.054  1.00  0.00    -0.201 OA
BRANCH  12  15
ATOM     15  N   UNL     1      -0.268  -2.672   0.628  1.00  0.00    -0.249 N 
ATOM     16  C   UNL     1      -1.156  -1.671  -1.492  1.00  0.00     0.115 C 
ATOM     17  C   UNL     1      -1.315  -2.022  -0.040  1.00  0.00     0.230 C 
ATOM     18  O   UNL     1      -2.320  -1.737   0.598  1.00  0.00    -0.274 OA
ATOM     19  H   UNL     1      -0.301  -2.607   1.610  1.00  0.00     0.183 HD
ENDBRANCH  12  15
ENDBRANCH   7  12
BRANCH   9  20
ATOM     20  C   UNL     1       4.517  -2.325  -3.708  1.00  0.00    -0.011 A 
ATOM     21  C   UNL     1       5.837  -1.780  -4.007  1.00  0.00     0.027 A 
ATOM     22  C   UNL     1       3.974  -3.166  -4.610  1.00  0.00     0.080 A 
ATOM     23  C   UNL     1       6.463  -2.057  -5.155  1.00  0.00     0.095 A 
ATOM     24  C   UNL     1       4.690  -3.538  -5.868  1.00  0.00     0.255 A 
ATOM     25  N   UNL     1       5.903  -2.909  -6.083  1.00  0.00    -0.258 N 
ATOM     26  O   UNL     1       4.169  -4.360  -6.617  1.00  0.00    -0.269 OA
BRANCH  25  27
ATOM     27  C   UNL     1       6.604  -3.212  -7.305  1.00  0.00     0.451 C 
ATOM     28  F   UNL     1       6.981  -4.515  -7.334  1.00  0.00    -0.185 F 
ATOM     29  F   UNL     1       5.832  -2.976  -8.392  1.00  0.00    -0.185 F 
ENDBRANCH  25  27
ENDBRANCH   9  20
ENDBRANCH   4   6
ENDBRANCH   3   4
ENDBRANCH   2   3
ENDBRANCH   1   2
BRANCH   1  30
ATOM     30  O   UNL     1       1.185   2.144   2.541  1.00  0.00    -0.458 OA
BRANCH  30  31
ATOM     31  C   UNL     1       2.268   2.438   1.789  1.00  0.00     0.338 C 
ATOM     32  O   UNL     1       3.388   1.961   1.896  1.00  0.00    -0.246 OA
BRANCH  31  33
ATOM     33  C   UNL     1       1.943   3.398   0.725  1.00  0.00     0.060 A 
ATOM     34  C   UNL     1       1.646   2.921  -0.554  1.00  0.00     0.016 A 
ATOM     35  C   UNL     1       2.176   4.756   0.935  1.00  0.00     0.016 A 
ATOM     36  C   UNL     1       1.679   3.779  -1.647  1.00  0.00     0.010 A 
ATOM     37  C   UNL     1       2.141   5.629  -0.155  1.00  0.00     0.010 A 
ATOM     38  C   UNL     1       1.938   5.141  -1.460  1.00  0.00    -0.014 A 
BRANCH  38  39
ATOM     39  C   UNL     1       2.073   6.055  -2.621  1.00  0.00     0.031 A 
ATOM     40  C   UNL     1       3.391   6.736  -2.871  1.00  0.00     0.074 A 
ATOM     41  C   UNL     1       1.026   6.287  -3.434  1.00  0.00     0.049 A 
ATOM     42  N   UNL     1       3.662   7.761  -3.633  1.00  0.00    -0.248 NA
ATOM     43  C   UNL     1       4.557   6.192  -2.155  1.00  0.00     0.031 C 
ATOM     44  C   UNL     1      -0.277   5.626  -3.351  1.00  0.00     0.029 A 
ATOM     45  N   UNL     1       0.889   7.165  -4.479  1.00  0.00    -0.354 N 
ATOM     46  C   UNL     1       5.014   8.027  -3.443  1.00  0.00     0.074 A 
ATOM     47  C   UNL     1       5.511   7.045  -2.503  1.00  0.00     0.031 C 
ATOM     48  C   UNL     1      -1.085   6.128  -4.298  1.00  0.00     0.029 A 
ATOM     49  C   UNL     1      -0.386   7.202  -4.994  1.00  0.00     0.049 A 
ATOM     50  H   UNL     1       1.629   7.714  -4.827  1.00  0.00     0.167 HD
ATOM     51  C   UNL     1       5.761   9.011  -3.996  1.00  0.00     0.037 A 
ATOM     52  C   UNL     1      -0.947   8.050  -5.877  1.00  0.00     0.037 A 
ATOM     53  C   UNL     1       5.253   9.956  -4.957  1.00  0.00     0.049 A 
ATOM     54  C   UNL     1      -0.116   9.169  -6.441  1.00  0.00     0.074 A 
ATOM     55  C   UNL     1       5.916  11.001  -5.575  1.00  0.00     0.029 A 
ATOM     56  N   UNL     1       3.955   9.959  -5.449  1.00  0.00    -0.354 N 
ATOM     57  N   UNL     1       1.139   9.464  -6.199  1.00  0.00    -0.248 NA
ATOM     58  C   UNL     1      -0.780  10.080  -7.382  1.00  0.00     0.031 C 
ATOM     59  C   UNL     1       5.011  11.654  -6.420  1.00  0.00     0.029 A 
ATOM     60  C   UNL     1       3.796  10.989  -6.359  1.00  0.00     0.049 A 
ATOM     61  H   UNL     1       3.252   9.321  -5.189  1.00  0.00     0.167 HD
ATOM     62  C   UNL     1       1.422  10.582  -6.974  1.00  0.00     0.074 A 
ATOM     63  C   UNL     1       0.209  10.907  -7.697  1.00  0.00     0.031 C 
ATOM     64  C   UNL     1       2.581  11.279  -7.079  1.00  0.00     0.037 A 
BRANCH  51  65
ATOM     65  C   UNL     1       7.188   9.147  -3.541  1.00  0.00     0.058 A 
ATOM     66  C   UNL     1       8.185   8.242  -3.933  1.00  0.00     0.135 A 
ATOM     67  C   UNL     1       7.564  10.219  -2.713  1.00  0.00     0.135 A 
ATOM     68  F   UNL     1       7.877   7.189  -4.706  1.00  0.00    -0.206 F 
ATOM     69  C   UNL     1       9.501   8.379  -3.500  1.00  0.00     0.059 A 
ATOM     70  C   UNL     1       8.878  10.389  -2.288  1.00  0.00     0.059 A 
ATOM     71  F   UNL     1       6.649  11.112  -2.306  1.00  0.00    -0.206 F 
ATOM     72  C   UNL     1       9.837   9.454  -2.674  1.00  0.00     0.060 A 
BRANCH  72  73
ATOM     73  S   UNL     1      11.545   9.614  -2.111  1.00  0.00     0.124 S 
ATOM     74  O   UNL     1      11.615   8.566  -1.097  1.00  0.00    -0.237 OA
ATOM     75  O   UNL     1      12.303   9.364  -3.333  1.00  0.00    -0.237 OA
ATOM     76  O   UNL     1      11.610  10.982  -1.605  1.00  0.00    -0.744 OA
ENDBRANCH  72  73
ENDBRANCH  51  65
BRANCH  52  77
ATOM     77  C   UNL     1      -2.382   7.902  -6.231  1.00  0.00     0.058 A 
ATOM     78  C   UNL     1      -2.770   7.456  -7.501  1.00  0.00     0.135 A 
ATOM     79  C   UNL     1      -3.393   8.170  -5.294  1.00  0.00     0.135 A 
ATOM     80  F   UNL     1      -1.840   7.196  -8.433  1.00  0.00    -0.206 F 
ATOM     81  C   UNL     1      -4.110   7.284  -7.835  1.00  0.00     0.059 A 
ATOM     82  C   UNL     1      -4.738   7.982  -5.594  1.00  0.00     0.059 A 
ATOM     83  F   UNL     1      -3.073   8.587  -4.059  1.00  0.00    -0.206 F 
ATOM     84  C   UNL     1      -5.087   7.545  -6.872  1.00  0.00     0.060 A 
BRANCH  84  85
ATOM     85  S   UNL     1      -6.820   7.258  -7.291  1.00  0.00     0.124 S 
ATOM     86  O   UNL     1      -7.113   8.415  -8.129  1.00  0.00    -0.237 OA
ATOM     87  O   UNL     1      -6.761   5.971  -7.976  1.00  0.00    -0.237 OA
ATOM     88  O   UNL     1      -7.479   7.236  -5.989  1.00  0.00    -0.744 OA
ENDBRANCH  84  85
ENDBRANCH  52  77
BRANCH  64  89
ATOM     89  C   UNL     1       2.608  12.426  -8.046  1.00  0.00     0.058 A 
ATOM     90  C   UNL     1       2.009  13.658  -7.746  1.00  0.00     0.135 A 
ATOM     91  C   UNL     1       3.299  12.306  -9.263  1.00  0.00     0.135 A 
ATOM     92  F   UNL     1       1.331  13.818  -6.599  1.00  0.00    -0.206 F 
ATOM     93  C   UNL     1       2.083  14.731  -8.627  1.00  0.00     0.059 A 
ATOM     94  C   UNL     1       3.403  13.372 -10.148  1.00  0.00     0.059 A 
ATOM     95  F   UNL     1       3.895  11.148  -9.590  1.00  0.00    -0.206 F 
ATOM     96  C   UNL     1       2.785  14.579  -9.825  1.00  0.00     0.060 A 
BRANCH  96  97
ATOM     97  S   UNL     1       2.916  15.993 -10.940  1.00  0.00     0.124 S 
ATOM     98  O   UNL     1       1.589  16.014 -11.545  1.00  0.00    -0.237 OA
ATOM     99  O   UNL     1       3.212  17.090 -10.023  1.00  0.00    -0.237 OA
ATOM    100  O   UNL     1       4.009  15.619 -11.833  1.00  0.00    -0.744 OA
ENDBRANCH  96  97
ENDBRANCH  64  89
ENDBRANCH  38  39
ENDBRANCH  31  33
ENDBRANCH  30  31
ENDBRANCH   1  30
TORSDOF 18
