REMARK SMILES COCCNC(=O)N[C@H]1CCCCC[C@@H]1C(=O)OCCOC(=O)c1ccc(-c2c3nc(c(-c4c(F)cc(S(=O)(=O)[O-])cc4F)c4ccc([nH]4)c(-c4c(F)cc(S(=O)(=O)[O-])cc4F)c4nc(c(-c5c(F)cc(S(=O)(=O)[O-])cc5F)c5ccc2[nH]5)C=C4)C=C3)cc1
REMARK SMILES IDX 19 1 18 2 16 3 17 4 15 5 9 6 8 7 5 8 6 9 7 11 4 13 3 14 2 15
REMARK SMILES IDX 1 16 10 17 11 18 14 20 13 21 12 22 20 24 21 25 22 26 23 27
REMARK SMILES IDX 24 28 25 29 89 30 26 31 88 32 27 33 28 34 29 35 82 36 30 37
REMARK SMILES IDX 87 38 81 39 83 40 31 41 86 42 80 43 79 44 32 46 66 47 45 48
REMARK SMILES IDX 65 49 46 50 49 51 64 52 84 53 47 54 48 55 63 57 85 58 50 59
REMARK SMILES IDX 33 60 34 61 43 62 35 63 36 64 42 65 44 66 37 67 38 68 39 69
REMARK SMILES IDX 40 70 41 71 67 72 68 73 77 74 69 75 70 76 76 77 78 78 71 79
REMARK SMILES IDX 72 80 73 81 74 82 75 83 51 84 52 85 61 86 53 87 54 88 60 89
REMARK SMILES IDX 62 90 55 91 56 92 57 93 58 94 59 95
REMARK H PARENT 5 10 8 12 83 45 49 56
REMARK Flexibility Score: 90.00
ROOT
ATOM      1  C   UNL     1       1.341  -6.971  -1.632  1.00  0.00     0.274 C 
ENDROOT
BRANCH   1   2
ATOM      2  O   UNL     1       2.001  -6.282  -0.551  1.00  0.00    -0.462 OA
BRANCH   2   3
ATOM      3  C   UNL     1       1.394  -6.457   0.650  1.00  0.00     0.311 C 
ATOM      4  O   UNL     1       0.369  -7.111   0.820  1.00  0.00    -0.252 OA
BRANCH   3   5
ATOM      5  C   UNL     1       2.062  -5.718   1.789  1.00  0.00     0.121 C 
BRANCH   5   6
ATOM      6  C   UNL     1       1.529  -4.294   1.853  1.00  0.00     0.098 C 
BRANCH   6   7
ATOM      7  N   UNL     1       0.102  -4.146   2.203  1.00  0.00    -0.335 N 
ATOM      8  N   UNL     1      -0.802  -5.684   3.795  1.00  0.00    -0.336 N 
ATOM      9  C   UNL     1      -0.877  -4.684   2.925  1.00  0.00     0.315 C 
ATOM     10  H   UNL     1      -1.692  -5.945   4.125  1.00  0.00     0.165 HD
ATOM     11  O   UNL     1      -1.997  -4.185   2.758  1.00  0.00    -0.249 OA
ATOM     12  H   UNL     1      -0.256  -3.362   1.727  1.00  0.00     0.165 HD
BRANCH   8  13
ATOM     13  C   UNL     1       0.247  -6.497   4.389  1.00  0.00     0.146 C 
BRANCH  13  14
ATOM     14  C   UNL     1      -0.138  -7.137   5.726  1.00  0.00     0.181 C 
BRANCH  14  15
ATOM     15  O   UNL     1      -0.580  -8.489   5.583  1.00  0.00    -0.383 OA
ATOM     16  C   UNL     1      -1.824  -8.629   4.915  1.00  0.00     0.194 C 
ENDBRANCH  14  15
ENDBRANCH  13  14
ENDBRANCH   8  13
ENDBRANCH   6   7
BRANCH   6  17
ATOM     17  C   UNL     1       2.393  -3.256   2.586  1.00  0.00     0.026 C 
BRANCH  17  18
ATOM     18  C   UNL     1       2.807  -3.622   4.001  1.00  0.00     0.002 CG0
ATOM     19  G   UNL     1       4.046  -4.513   4.085  1.00  0.00     0.000 G0
ENDBRANCH  17  18
ENDBRANCH   6  17
ENDBRANCH   5   6
BRANCH   5  20
ATOM     20  C   UNL     1       3.580  -5.871   1.897  1.00  0.00     0.017 C 
BRANCH  20  21
ATOM     21  C   UNL     1       4.026  -5.866   3.371  1.00  0.00     0.001 C 
BRANCH  21  22
ATOM     22  C   UNL     1       4.046  -4.513   4.085  1.00  0.00     0.000 CG0
ATOM     23  G   UNL     1       2.807  -3.622   4.001  1.00  0.00     0.000 G0
ENDBRANCH  21  22
ENDBRANCH  20  21
ENDBRANCH   5  20
ENDBRANCH   3   5
ENDBRANCH   2   3
ENDBRANCH   1   2
BRANCH   1  24
ATOM     24  C   UNL     1       1.907  -8.374  -1.853  1.00  0.00     0.275 C 
BRANCH  24  25
ATOM     25  O   UNL     1       1.864  -9.165  -0.651  1.00  0.00    -0.458 OA
BRANCH  25  26
ATOM     26  C   UNL     1       3.049  -9.314  -0.020  1.00  0.00     0.338 C 
ATOM     27  O   UNL     1       4.133  -8.860  -0.376  1.00  0.00    -0.246 OA
BRANCH  26  28
ATOM     28  C   UNL     1       2.906 -10.150   1.181  1.00  0.00     0.060 A 
ATOM     29  C   UNL     1       2.098  -9.756   2.252  1.00  0.00     0.016 A 
ATOM     30  C   UNL     1       3.695 -11.295   1.283  1.00  0.00     0.016 A 
ATOM     31  C   UNL     1       2.121 -10.481   3.449  1.00  0.00     0.010 A 
ATOM     32  C   UNL     1       3.662 -12.054   2.453  1.00  0.00     0.010 A 
ATOM     33  C   UNL     1       2.897 -11.645   3.561  1.00  0.00    -0.014 A 
BRANCH  33  34
ATOM     34  C   UNL     1       2.974 -12.448   4.815  1.00  0.00     0.031 A 
ATOM     35  C   UNL     1       4.316 -12.680   5.460  1.00  0.00     0.074 A 
ATOM     36  C   UNL     1       1.881 -13.040   5.336  1.00  0.00     0.049 A 
ATOM     37  N   UNL     1       4.686 -13.611   6.300  1.00  0.00    -0.248 NA
ATOM     38  C   UNL     1       5.389 -11.743   5.089  1.00  0.00     0.031 C 
ATOM     39  C   UNL     1       0.507 -12.856   4.871  1.00  0.00     0.029 A 
ATOM     40  N   UNL     1       1.767 -13.954   6.358  1.00  0.00    -0.354 N 
ATOM     41  C   UNL     1       6.044 -13.409   6.517  1.00  0.00     0.074 A 
ATOM     42  C   UNL     1       6.433 -12.263   5.723  1.00  0.00     0.031 C 
ATOM     43  C   UNL     1      -0.309 -13.642   5.591  1.00  0.00     0.029 A 
ATOM     44  C   UNL     1       0.492 -14.449   6.507  1.00  0.00     0.049 A 
ATOM     45  H   UNL     1       2.523 -14.226   6.927  1.00  0.00     0.167 HD
ATOM     46  C   UNL     1       6.889 -14.123   7.300  1.00  0.00     0.037 A 
ATOM     47  C   UNL     1       0.027 -15.480   7.240  1.00  0.00     0.037 A 
ATOM     48  C   UNL     1       6.484 -15.239   8.115  1.00  0.00     0.049 A 
ATOM     49  C   UNL     1       0.986 -16.293   8.068  1.00  0.00     0.074 A 
ATOM     50  C   UNL     1       7.267 -16.050   8.918  1.00  0.00     0.029 A 
ATOM     51  N   UNL     1       5.178 -15.685   8.249  1.00  0.00    -0.354 N 
ATOM     52  N   UNL     1       2.284 -16.159   8.194  1.00  0.00    -0.248 NA
ATOM     53  C   UNL     1       0.421 -17.411   8.839  1.00  0.00     0.031 C 
ATOM     54  C   UNL     1       6.437 -17.000   9.523  1.00  0.00     0.029 A 
ATOM     55  C   UNL     1       5.132 -16.755   9.126  1.00  0.00     0.049 A 
ATOM     56  H   UNL     1       4.399 -15.298   7.789  1.00  0.00     0.167 HD
ATOM     57  C   UNL     1       2.687 -17.159   9.072  1.00  0.00     0.074 A 
ATOM     58  C   UNL     1       1.496 -17.888   9.454  1.00  0.00     0.031 C 
ATOM     59  C   UNL     1       3.933 -17.450   9.519  1.00  0.00     0.037 A 
BRANCH  46  60
ATOM     60  C   UNL     1       8.343 -13.742   7.293  1.00  0.00     0.058 A 
ATOM     61  C   UNL     1       8.810 -12.592   7.946  1.00  0.00     0.135 A 
ATOM     62  C   UNL     1       9.289 -14.565   6.658  1.00  0.00     0.135 A 
ATOM     63  F   UNL     1       7.947 -11.762   8.553  1.00  0.00    -0.206 F 
ATOM     64  C   UNL     1      10.162 -12.259   7.954  1.00  0.00     0.059 A 
ATOM     65  C   UNL     1      10.648 -14.264   6.673  1.00  0.00     0.059 A 
ATOM     66  F   UNL     1       8.896 -15.677   6.019  1.00  0.00    -0.206 F 
ATOM     67  C   UNL     1      11.073 -13.101   7.313  1.00  0.00     0.060 A 
BRANCH  67  68
ATOM     68  S   UNL     1      12.823 -12.658   7.333  1.00  0.00     0.124 S 
ATOM     69  O   UNL     1      12.858 -11.566   6.365  1.00  0.00    -0.237 OA
ATOM     70  O   UNL     1      13.035 -12.275   8.725  1.00  0.00    -0.237 OA
ATOM     71  O   UNL     1      13.490 -13.887   6.916  1.00  0.00    -0.744 OA
ENDBRANCH  67  68
ENDBRANCH  46  60
BRANCH  47  72
ATOM     72  C   UNL     1      -1.413 -15.849   7.168  1.00  0.00     0.058 A 
ATOM     73  C   UNL     1      -2.268 -15.649   8.261  1.00  0.00     0.135 A 
ATOM     74  C   UNL     1      -1.961 -16.405   6.001  1.00  0.00     0.135 A 
ATOM     75  F   UNL     1      -1.788 -15.133   9.403  1.00  0.00    -0.206 F 
ATOM     76  C   UNL     1      -3.613 -16.000   8.206  1.00  0.00     0.059 A 
ATOM     77  C   UNL     1      -3.308 -16.738   5.913  1.00  0.00     0.059 A 
ATOM     78  F   UNL     1      -1.187 -16.607   4.923  1.00  0.00    -0.206 F 
ATOM     79  C   UNL     1      -4.125 -16.543   7.026  1.00  0.00     0.060 A 
BRANCH  79  80
ATOM     80  S   UNL     1      -5.881 -16.955   6.944  1.00  0.00     0.124 S 
ATOM     81  O   UNL     1      -5.921 -18.212   7.682  1.00  0.00    -0.237 OA
ATOM     82  O   UNL     1      -6.500 -15.808   7.601  1.00  0.00    -0.237 OA
ATOM     83  O   UNL     1      -6.133 -17.055   5.509  1.00  0.00    -0.744 OA
ENDBRANCH  79  80
ENDBRANCH  47  72
BRANCH  59  84
ATOM     84  C   UNL     1       4.077 -18.566  10.514  1.00  0.00     0.058 A 
ATOM     85  C   UNL     1       4.038 -19.912  10.122  1.00  0.00     0.135 A 
ATOM     86  C   UNL     1       4.344 -18.278  11.862  1.00  0.00     0.135 A 
ATOM     87  F   UNL     1       3.778 -20.238   8.847  1.00  0.00    -0.206 F 
ATOM     88  C   UNL     1       4.260 -20.938  11.036  1.00  0.00     0.059 A 
ATOM     89  C   UNL     1       4.588 -19.287  12.788  1.00  0.00     0.059 A 
ATOM     90  F   UNL     1       4.397 -17.005  12.284  1.00  0.00    -0.206 F 
ATOM     91  C   UNL     1       4.541 -20.615  12.365  1.00  0.00     0.060 A 
BRANCH  91  92
ATOM     92  S   UNL     1       4.897 -21.952  13.526  1.00  0.00     0.124 S 
ATOM     93  O   UNL     1       3.565 -22.496  13.767  1.00  0.00    -0.237 OA
ATOM     94  O   UNL     1       5.801 -22.803  12.757  1.00  0.00    -0.237 OA
ATOM     95  O   UNL     1       5.509 -21.264  14.659  1.00  0.00    -0.744 OA
ENDBRANCH  91  92
ENDBRANCH  59  84
ENDBRANCH  33  34
ENDBRANCH  26  28
ENDBRANCH  25  26
ENDBRANCH  24  25
ENDBRANCH   1  24
TORSDOF 18
