REMARK SMILES CN1N[C@H](C(=O)N[C@@H](CC2=c3ccccc3=NC2)C(=O)OCCOC(=O)c2ccc(-c3c4nc(c(-c5c(F)cc(S(=O)(=O)[O-])cc5F)c5ccc([nH]5)c(-c5c(F)cc(S(=O)(=O)[O-])cc5F)c5nc(c(-c6c(F)cc(S(=O)(=O)[O-])cc6F)c6ccc3[nH]6)C=C5)C=C4)cc2)c2ccccc2C1=O
REMARK SMILES IDX 23 1 22 2 21 3 19 4 20 5 8 6 7 7 5 8 6 9 4 11 1 12 2 13 3 14
REMARK SMILES IDX 99 15 98 17 100 18 93 19 97 20 94 21 96 22 95 23 9 24 10 25
REMARK SMILES IDX 11 26 18 27 12 28 16 29 17 30 13 31 15 32 14 33 24 34 25 35
REMARK SMILES IDX 26 36 27 37 28 38 92 39 29 40 91 41 30 42 31 43 32 44 85 45
REMARK SMILES IDX 33 46 90 47 84 48 86 49 34 50 89 51 83 52 82 53 35 55 69 56
REMARK SMILES IDX 48 57 68 58 49 59 52 60 67 61 87 62 50 63 51 64 66 66 88 67
REMARK SMILES IDX 53 68 36 69 37 70 46 71 38 72 39 73 45 74 47 75 40 76 41 77
REMARK SMILES IDX 42 78 43 79 44 80 70 81 71 82 80 83 72 84 73 85 79 86 81 87
REMARK SMILES IDX 74 88 75 89 76 90 77 91 78 92 54 93 55 94 64 95 56 96 57 97
REMARK SMILES IDX 63 98 65 99 58 100 59 101 60 102 61 103 62 104
REMARK H PARENT 7 10 3 16 86 54 52 65
REMARK Flexibility Score: inf
ROOT
ATOM      1  C   UNL     1      -4.406   7.605  -0.214  1.00  0.00     0.275 C 
ENDROOT
BRANCH   1   2
ATOM      2  C   UNL     1      -4.404   7.122   1.235  1.00  0.00     0.274 C 
BRANCH   2   3
ATOM      3  O   UNL     1      -3.165   6.475   1.584  1.00  0.00    -0.461 OA
BRANCH   3   4
ATOM      4  C   UNL     1      -3.209   5.117   1.572  1.00  0.00     0.329 C 
ATOM      5  O   UNL     1      -4.207   4.462   1.283  1.00  0.00    -0.250 OA
BRANCH   4   6
ATOM      6  C   UNL     1      -1.911   4.455   2.038  1.00  0.00     0.196 C 
BRANCH   6   7
ATOM      7  N   UNL     1      -0.727   5.308   2.212  1.00  0.00    -0.341 N 
ATOM      8  C   UNL     1       0.602   5.049   2.027  1.00  0.00     0.244 C 
ATOM      9  O   UNL     1       1.401   5.831   2.559  1.00  0.00    -0.273 OA
ATOM     10  H   UNL     1      -0.925   6.224   2.513  1.00  0.00     0.164 HD
BRANCH   8  11
ATOM     11  C   UNL     1       1.127   3.917   1.103  1.00  0.00     0.195 C 
ATOM     12  C   UNL     1       1.184   0.232   1.111  1.00  0.00     0.169 C 
ATOM     13  N   UNL     1       0.852   1.558   0.616  1.00  0.00    -0.276 N 
ATOM     14  N   UNL     1       0.623   2.605   1.560  1.00  0.00    -0.215 NA
ATOM     15  C   UNL     1       0.608   1.742  -0.748  1.00  0.00     0.268 C 
ATOM     16  H   UNL     1       1.093   2.363   2.433  1.00  0.00     0.149 HD
ATOM     17  C   UNL     1       0.619   3.143  -1.237  1.00  0.00     0.046 A 
ATOM     18  O   UNL     1       0.448   0.820  -1.540  1.00  0.00    -0.268 OA
ATOM     19  C   UNL     1       0.857   4.202  -0.356  1.00  0.00    -0.007 A 
ATOM     20  C   UNL     1       0.473   3.384  -2.609  1.00  0.00     0.014 A 
ATOM     21  C   UNL     1       0.964   5.502  -0.881  1.00  0.00     0.007 A 
ATOM     22  C   UNL     1       0.539   4.683  -3.107  1.00  0.00     0.001 A 
ATOM     23  C   UNL     1       0.788   5.741  -2.243  1.00  0.00     0.000 A 
ENDBRANCH   8  11
ENDBRANCH   6   7
BRANCH   6  24
ATOM     24  C   UNL     1      -2.272   3.691   3.340  1.00  0.00     0.070 C 
BRANCH  24  25
ATOM     25  C   UNL     1      -2.194   4.382   4.682  1.00  0.00    -0.037 C 
ATOM     26  C   UNL     1      -2.001   5.650   5.046  1.00  0.00     0.001 A 
ATOM     27  C   UNL     1      -1.901   3.521   5.881  1.00  0.00     0.174 C 
ATOM     28  C   UNL     1      -2.267   6.979   4.595  1.00  0.00     0.010 A 
ATOM     29  C   UNL     1      -0.894   5.402   6.009  1.00  0.00     0.065 A 
ATOM     30  N   UNL     1      -0.789   4.221   6.542  1.00  0.00    -0.280 NA
ATOM     31  C   UNL     1      -1.447   7.976   4.969  1.00  0.00     0.001 A 
ATOM     32  C   UNL     1       0.099   6.490   6.148  1.00  0.00     0.028 A 
ATOM     33  C   UNL     1      -0.185   7.694   5.628  1.00  0.00     0.002 A 
ENDBRANCH  24  25
ENDBRANCH   6  24
ENDBRANCH   4   6
ENDBRANCH   3   4
ENDBRANCH   2   3
ENDBRANCH   1   2
BRANCH   1  34
ATOM     34  O   UNL     1      -4.357   6.507  -1.142  1.00  0.00    -0.458 OA
BRANCH  34  35
ATOM     35  C   UNL     1      -3.110   6.181  -1.557  1.00  0.00     0.338 C 
ATOM     36  O   UNL     1      -2.072   6.734  -1.240  1.00  0.00    -0.246 OA
BRANCH  35  37
ATOM     37  C   UNL     1      -3.159   4.986  -2.413  1.00  0.00     0.060 A 
ATOM     38  C   UNL     1      -3.330   5.108  -3.793  1.00  0.00     0.016 A 
ATOM     39  C   UNL     1      -2.886   3.744  -1.842  1.00  0.00     0.016 A 
ATOM     40  C   UNL     1      -3.224   3.970  -4.605  1.00  0.00     0.010 A 
ATOM     41  C   UNL     1      -2.736   2.624  -2.657  1.00  0.00     0.010 A 
ATOM     42  C   UNL     1      -2.905   2.721  -4.047  1.00  0.00    -0.014 A 
BRANCH  42  43
ATOM     43  C   UNL     1      -2.741   1.497  -4.880  1.00  0.00     0.031 A 
ATOM     44  C   UNL     1      -3.685   0.338  -4.693  1.00  0.00     0.074 A 
ATOM     45  C   UNL     1      -1.698   1.377  -5.727  1.00  0.00     0.049 A 
ATOM     46  N   UNL     1      -3.709  -0.816  -5.309  1.00  0.00    -0.248 NA
ATOM     47  C   UNL     1      -4.732   0.491  -3.668  1.00  0.00     0.031 C 
ATOM     48  C   UNL     1      -0.672   2.393  -5.960  1.00  0.00     0.029 A 
ATOM     49  N   UNL     1      -1.304   0.332  -6.527  1.00  0.00    -0.354 N 
ATOM     50  C   UNL     1      -4.786  -1.507  -4.770  1.00  0.00     0.074 A 
ATOM     51  C   UNL     1      -5.321  -0.694  -3.701  1.00  0.00     0.031 C 
ATOM     52  C   UNL     1       0.260   1.907  -6.796  1.00  0.00     0.029 A 
ATOM     53  C   UNL     1      -0.124   0.559  -7.198  1.00  0.00     0.049 A 
ATOM     54  H   UNL     1      -1.819  -0.503  -6.611  1.00  0.00     0.167 HD
ATOM     55  C   UNL     1      -5.330  -2.680  -5.175  1.00  0.00     0.037 A 
ATOM     56  C   UNL     1       0.555  -0.217  -8.063  1.00  0.00     0.037 A 
ATOM     57  C   UNL     1      -4.803  -3.479  -6.247  1.00  0.00     0.049 A 
ATOM     58  C   UNL     1      -0.047  -1.528  -8.490  1.00  0.00     0.074 A 
ATOM     59  C   UNL     1      -5.315  -4.644  -6.790  1.00  0.00     0.029 A 
ATOM     60  N   UNL     1      -3.636  -3.192  -6.940  1.00  0.00    -0.354 N 
ATOM     61  N   UNL     1      -1.147  -2.103  -8.068  1.00  0.00    -0.248 NA
ATOM     62  C   UNL     1       0.652  -2.267  -9.550  1.00  0.00     0.031 C 
ATOM     63  C   UNL     1      -4.448  -5.069  -7.803  1.00  0.00     0.029 A 
ATOM     64  C   UNL     1      -3.411  -4.155  -7.908  1.00  0.00     0.049 A 
ATOM     65  H   UNL     1      -3.054  -2.416  -6.769  1.00  0.00     0.167 HD
ATOM     66  C   UNL     1      -1.302  -3.243  -8.849  1.00  0.00     0.074 A 
ATOM     67  C   UNL     1      -0.177  -3.281  -9.761  1.00  0.00     0.031 C 
ATOM     68  C   UNL     1      -2.296  -4.164  -8.822  1.00  0.00     0.037 A 
BRANCH  55  69
ATOM     69  C   UNL     1      -6.601  -3.110  -4.498  1.00  0.00     0.058 A 
ATOM     70  C   UNL     1      -7.796  -2.396  -4.702  1.00  0.00     0.135 A 
ATOM     71  C   UNL     1      -6.643  -4.224  -3.647  1.00  0.00     0.135 A 
ATOM     72  F   UNL     1      -7.810  -1.315  -5.498  1.00  0.00    -0.206 F 
ATOM     73  C   UNL     1      -8.973  -2.742  -4.051  1.00  0.00     0.059 A 
ATOM     74  C   UNL     1      -7.819  -4.606  -3.005  1.00  0.00     0.059 A 
ATOM     75  F   UNL     1      -5.534  -4.944  -3.420  1.00  0.00    -0.206 F 
ATOM     76  C   UNL     1      -8.974  -3.846  -3.199  1.00  0.00     0.060 A 
BRANCH  76  77
ATOM     77  S   UNL     1     -10.510  -4.267  -2.350  1.00  0.00     0.124 S 
ATOM     78  O   UNL     1     -10.592  -3.204  -1.352  1.00  0.00    -0.237 OA
ATOM     79  O   UNL     1     -11.492  -4.199  -3.427  1.00  0.00    -0.237 OA
ATOM     80  O   UNL     1     -10.252  -5.603  -1.823  1.00  0.00    -0.744 OA
ENDBRANCH  76  77
ENDBRANCH  55  69
BRANCH  56  81
ATOM     81  C   UNL     1       1.815   0.276  -8.680  1.00  0.00     0.058 A 
ATOM     82  C   UNL     1       1.820   0.764  -9.995  1.00  0.00     0.135 A 
ATOM     83  C   UNL     1       3.030   0.279  -7.977  1.00  0.00     0.135 A 
ATOM     84  F   UNL     1       0.682   0.781 -10.706  1.00  0.00    -0.206 F 
ATOM     85  C   UNL     1       2.986   1.216 -10.602  1.00  0.00     0.059 A 
ATOM     86  C   UNL     1       4.209   0.742  -8.558  1.00  0.00     0.059 A 
ATOM     87  F   UNL     1       3.075  -0.163  -6.711  1.00  0.00    -0.206 F 
ATOM     88  C   UNL     1       4.178   1.200  -9.876  1.00  0.00     0.060 A 
BRANCH  88  89
ATOM     89  S   UNL     1       5.677   1.816 -10.675  1.00  0.00     0.124 S 
ATOM     90  O   UNL     1       5.919   0.788 -11.680  1.00  0.00    -0.237 OA
ATOM     91  O   UNL     1       5.239   3.113 -11.182  1.00  0.00    -0.237 OA
ATOM     92  O   UNL     1       6.644   1.871  -9.583  1.00  0.00    -0.744 OA
ENDBRANCH  88  89
ENDBRANCH  56  81
BRANCH  68  93
ATOM     93  C   UNL     1      -2.245  -5.269  -9.837  1.00  0.00     0.058 A 
ATOM     94  C   UNL     1      -1.348  -6.339  -9.712  1.00  0.00     0.135 A 
ATOM     95  C   UNL     1      -3.156  -5.291 -10.905  1.00  0.00     0.135 A 
ATOM     96  F   UNL     1      -0.452  -6.357  -8.713  1.00  0.00    -0.206 F 
ATOM     97  C   UNL     1      -1.351  -7.395 -10.617  1.00  0.00     0.059 A 
ATOM     98  C   UNL     1      -3.192  -6.348 -11.808  1.00  0.00     0.059 A 
ATOM     99  F   UNL     1      -4.038  -4.292 -11.064  1.00  0.00    -0.206 F 
ATOM    100  C   UNL     1      -2.282  -7.393 -11.658  1.00  0.00     0.060 A 
BRANCH 100 101
ATOM    101  S   UNL     1      -2.317  -8.801 -12.788  1.00  0.00     0.124 S 
ATOM    102  O   UNL     1      -1.125  -8.561 -13.594  1.00  0.00    -0.237 OA
ATOM    103  O   UNL     1      -2.245  -9.937 -11.873  1.00  0.00    -0.237 OA
ATOM    104  O   UNL     1      -3.590  -8.646 -13.485  1.00  0.00    -0.744 OA
ENDBRANCH 100 101
ENDBRANCH  68  93
ENDBRANCH  42  43
ENDBRANCH  35  37
ENDBRANCH  34  35
ENDBRANCH   1  34
TORSDOF 18
