REMARK SMILES Cc1[nH]c(=O)n(C)c(=O)c1CC(=O)OCCOC(=O)c1ccc(-c2c3nc(c(-c4c(F)cc(S(=O)(=O)[O-])cc4F)c4ccc([nH]4)c(-c4c(F)cc(S(=O)(=O)[O-])cc4F)c4nc(c(-c5c(F)cc(S(=O)(=O)[O-])cc5F)c5ccc2[nH]5)C=C4)C=C3)cc1
REMARK SMILES IDX 16 1 15 2 14 3 12 4 13 5 11 6 10 7 1 8 2 9 3 10 4 11 8 13
REMARK SMILES IDX 5 14 6 15 9 16 7 17 17 18 18 19 19 20 20 21 21 22 85 23
REMARK SMILES IDX 22 24 84 25 23 26 24 27 25 28 78 29 26 30 83 31 77 32 79 33
REMARK SMILES IDX 27 34 82 35 76 36 75 37 28 39 62 40 41 41 61 42 42 43 45 44
REMARK SMILES IDX 60 45 80 46 43 47 44 48 59 50 81 51 46 52 29 53 30 54 39 55
REMARK SMILES IDX 31 56 32 57 38 58 40 59 33 60 34 61 35 62 36 63 37 64 63 65
REMARK SMILES IDX 64 66 73 67 65 68 66 69 72 70 74 71 67 72 68 73 69 74 70 75
REMARK SMILES IDX 71 76 47 77 48 78 57 79 49 80 50 81 56 82 58 83 51 84 52 85
REMARK SMILES IDX 53 86 54 87 55 88
REMARK H PARENT 3 12 79 38 45 49
REMARK Flexibility Score: inf
ROOT
ATOM      1  C   UNL     1       1.967   4.374  -4.050  1.00  0.00     0.275 C 
ENDROOT
BRANCH   1   2
ATOM      2  C   UNL     1       1.859   2.853  -3.982  1.00  0.00     0.274 C 
BRANCH   2   3
ATOM      3  O   UNL     1       1.649   2.417  -2.622  1.00  0.00    -0.462 OA
BRANCH   3   4
ATOM      4  C   UNL     1       2.758   1.966  -1.974  1.00  0.00     0.310 C 
ATOM      5  O   UNL     1       3.860   1.831  -2.497  1.00  0.00    -0.252 OA
BRANCH   4   6
ATOM      6  C   UNL     1       2.517   1.577  -0.523  1.00  0.00     0.165 C 
BRANCH   6   7
ATOM      7  C   UNL     1       1.143   1.875   0.009  1.00  0.00     0.048 A 
ATOM      8  C   UNL     1       0.314  -0.507   0.066  1.00  0.00     0.065 C 
ATOM      9  C   UNL     1       0.173   0.977   0.250  1.00  0.00     0.026 A 
ATOM     10  N   UNL     1      -1.046   1.403   0.703  1.00  0.00    -0.311 N 
ATOM     11  C   UNL     1      -1.401   2.706   0.914  1.00  0.00     0.328 A 
ATOM     12  H   UNL     1      -1.724   0.714   0.892  1.00  0.00     0.171 HD
ATOM     13  C   UNL     1       0.872   3.309   0.327  1.00  0.00     0.259 A 
ATOM     14  O   UNL     1      -2.540   2.966   1.298  1.00  0.00    -0.248 OA
ATOM     15  N   UNL     1      -0.419   3.644   0.680  1.00  0.00    -0.263 N 
ATOM     16  O   UNL     1       1.803   4.109   0.285  1.00  0.00    -0.269 OA
ATOM     17  C   UNL     1      -0.746   5.037   0.915  1.00  0.00     0.158 C 
ENDBRANCH   6   7
ENDBRANCH   4   6
ENDBRANCH   3   4
ENDBRANCH   2   3
ENDBRANCH   1   2
BRANCH   1  18
ATOM     18  O   UNL     1       3.027   4.812  -3.189  1.00  0.00    -0.458 OA
BRANCH  18  19
ATOM     19  C   UNL     1       2.692   5.753  -2.274  1.00  0.00     0.338 C 
ATOM     20  O   UNL     1       1.627   6.337  -2.176  1.00  0.00    -0.246 OA
BRANCH  19  21
ATOM     21  C   UNL     1       3.868   6.034  -1.429  1.00  0.00     0.060 A 
ATOM     22  C   UNL     1       4.529   5.001  -0.759  1.00  0.00     0.016 A 
ATOM     23  C   UNL     1       4.271   7.356  -1.248  1.00  0.00     0.016 A 
ATOM     24  C   UNL     1       5.548   5.291   0.144  1.00  0.00     0.010 A 
ATOM     25  C   UNL     1       5.347   7.639  -0.403  1.00  0.00     0.010 A 
ATOM     26  C   UNL     1       5.976   6.613   0.323  1.00  0.00    -0.014 A 
BRANCH  26  27
ATOM     27  C   UNL     1       7.056   6.928   1.293  1.00  0.00     0.031 A 
ATOM     28  C   UNL     1       6.756   7.777   2.499  1.00  0.00     0.074 A 
ATOM     29  C   UNL     1       8.300   6.452   1.093  1.00  0.00     0.049 A 
ATOM     30  N   UNL     1       7.582   8.275   3.383  1.00  0.00    -0.248 NA
ATOM     31  C   UNL     1       5.344   8.121   2.738  1.00  0.00     0.031 C 
ATOM     32  C   UNL     1       8.708   5.589  -0.017  1.00  0.00     0.029 A 
ATOM     33  N   UNL     1       9.454   6.628   1.816  1.00  0.00    -0.354 N 
ATOM     34  C   UNL     1       6.798   9.014   4.261  1.00  0.00     0.074 A 
ATOM     35  C   UNL     1       5.432   8.915   3.796  1.00  0.00     0.031 C 
ATOM     36  C   UNL     1      10.012   5.297   0.108  1.00  0.00     0.029 A 
ATOM     37  C   UNL     1      10.549   6.002   1.267  1.00  0.00     0.049 A 
ATOM     38  H   UNL     1       9.494   7.153   2.648  1.00  0.00     0.167 HD
ATOM     39  C   UNL     1       7.185   9.705   5.359  1.00  0.00     0.037 A 
ATOM     40  C   UNL     1      11.845   6.021   1.634  1.00  0.00     0.037 A 
ATOM     41  C   UNL     1       8.541   9.762   5.840  1.00  0.00     0.049 A 
ATOM     42  C   UNL     1      12.256   6.833   2.832  1.00  0.00     0.074 A 
ATOM     43  C   UNL     1       9.027  10.412   6.961  1.00  0.00     0.029 A 
ATOM     44  N   UNL     1       9.624   9.139   5.238  1.00  0.00    -0.354 N 
ATOM     45  N   UNL     1      11.506   7.542   3.640  1.00  0.00    -0.248 NA
ATOM     46  C   UNL     1      13.689   6.862   3.158  1.00  0.00     0.031 C 
ATOM     47  C   UNL     1      10.410  10.214   7.016  1.00  0.00     0.029 A 
ATOM     48  C   UNL     1      10.780   9.407   5.952  1.00  0.00     0.049 A 
ATOM     49  H   UNL     1       9.578   8.588   4.423  1.00  0.00     0.167 HD
ATOM     50  C   UNL     1      12.373   8.096   4.574  1.00  0.00     0.074 A 
ATOM     51  C   UNL     1      13.702   7.624   4.244  1.00  0.00     0.031 C 
ATOM     52  C   UNL     1      12.095   8.927   5.609  1.00  0.00     0.037 A 
BRANCH  39  53
ATOM     53  C   UNL     1       6.138  10.468   6.120  1.00  0.00     0.058 A 
ATOM     54  C   UNL     1       5.213   9.821   6.952  1.00  0.00     0.135 A 
ATOM     55  C   UNL     1       6.110  11.871   6.074  1.00  0.00     0.135 A 
ATOM     56  F   UNL     1       5.185   8.480   7.019  1.00  0.00    -0.206 F 
ATOM     57  C   UNL     1       4.291  10.538   7.708  1.00  0.00     0.059 A 
ATOM     58  C   UNL     1       5.212  12.610   6.838  1.00  0.00     0.059 A 
ATOM     59  F   UNL     1       6.973  12.539   5.291  1.00  0.00    -0.206 F 
ATOM     60  C   UNL     1       4.303  11.934   7.650  1.00  0.00     0.060 A 
BRANCH  60  61
ATOM     61  S   UNL     1       3.126  12.849   8.668  1.00  0.00     0.124 S 
ATOM     62  O   UNL     1       1.867  12.569   7.983  1.00  0.00    -0.237 OA
ATOM     63  O   UNL     1       3.289  12.219   9.975  1.00  0.00    -0.237 OA
ATOM     64  O   UNL     1       3.595  14.228   8.577  1.00  0.00    -0.744 OA
ENDBRANCH  60  61
ENDBRANCH  39  53
BRANCH  40  65
ATOM     65  C   UNL     1      12.852   5.270   0.838  1.00  0.00     0.058 A 
ATOM     66  C   UNL     1      13.475   4.126   1.356  1.00  0.00     0.135 A 
ATOM     67  C   UNL     1      13.199   5.673  -0.461  1.00  0.00     0.135 A 
ATOM     68  F   UNL     1      13.184   3.708   2.597  1.00  0.00    -0.206 F 
ATOM     69  C   UNL     1      14.412   3.410   0.618  1.00  0.00     0.059 A 
ATOM     70  C   UNL     1      14.115   4.960  -1.228  1.00  0.00     0.059 A 
ATOM     71  F   UNL     1      12.624   6.756  -1.006  1.00  0.00    -0.206 F 
ATOM     72  C   UNL     1      14.723   3.834  -0.676  1.00  0.00     0.060 A 
BRANCH  72  73
ATOM     73  S   UNL     1      15.904   2.869  -1.644  1.00  0.00     0.124 S 
ATOM     74  O   UNL     1      17.164   3.215  -0.998  1.00  0.00    -0.237 OA
ATOM     75  O   UNL     1      15.431   1.505  -1.434  1.00  0.00    -0.237 OA
ATOM     76  O   UNL     1      15.727   3.384  -2.999  1.00  0.00    -0.744 OA
ENDBRANCH  72  73
ENDBRANCH  40  65
BRANCH  52  77
ATOM     77  C   UNL     1      13.242   9.377   6.467  1.00  0.00     0.058 A 
ATOM     78  C   UNL     1      14.140  10.360   6.026  1.00  0.00     0.135 A 
ATOM     79  C   UNL     1      13.395   8.881   7.771  1.00  0.00     0.135 A 
ATOM     80  F   UNL     1      14.039  10.859   4.784  1.00  0.00    -0.206 F 
ATOM     81  C   UNL     1      15.156  10.835   6.848  1.00  0.00     0.059 A 
ATOM     82  C   UNL     1      14.391   9.357   8.619  1.00  0.00     0.059 A 
ATOM     83  F   UNL     1      12.556   7.945   8.242  1.00  0.00    -0.206 F 
ATOM     84  C   UNL     1      15.269  10.332   8.146  1.00  0.00     0.060 A 
BRANCH  84  85
ATOM     85  S   UNL     1      16.557  11.000   9.221  1.00  0.00     0.124 S 
ATOM     86  O   UNL     1      17.759  10.408   8.644  1.00  0.00    -0.237 OA
ATOM     87  O   UNL     1      16.405  12.439   9.031  1.00  0.00    -0.237 OA
ATOM     88  O   UNL     1      16.186  10.506  10.544  1.00  0.00    -0.744 OA
ENDBRANCH  84  85
ENDBRANCH  52  77
ENDBRANCH  26  27
ENDBRANCH  19  21
ENDBRANCH  18  19
ENDBRANCH   1  18
TORSDOF 15
