REMARK SMILES C#CCN(CC(=O)OCCOC(=O)c1ccc(-c2c3nc(c(-c4c(F)cc(S(=O)(=O)[O-])cc4F)c4ccc([nH]4)c(-c4c(F)cc(S(=O)(=O)[O-])cc4F)c4nc(c(-c5c(F)cc(S(=O)(=O)[O-])cc5F)c5ccc2[nH]5)C=C4)C=C3)cc1)C(=O)C(C)(C)[NH2+]CC
REMARK SMILES IDX 9 1 8 2 6 3 7 4 5 5 4 6 3 7 2 8 1 9 80 10 81 11 82 12 83 13
REMARK SMILES IDX 84 14 85 15 86 18 87 19 10 20 11 21 12 22 13 23 14 24 15 25
REMARK SMILES IDX 79 26 16 27 78 28 17 29 18 30 19 31 72 32 20 33 77 34 71 35
REMARK SMILES IDX 73 36 21 37 76 38 70 39 69 40 22 42 56 43 35 44 55 45 36 46
REMARK SMILES IDX 39 47 54 48 74 49 37 50 38 51 53 53 75 54 40 55 23 56 24 57
REMARK SMILES IDX 33 58 25 59 26 60 32 61 34 62 27 63 28 64 29 65 30 66 31 67
REMARK SMILES IDX 57 68 58 69 67 70 59 71 60 72 66 73 68 74 61 75 62 76 63 77
REMARK SMILES IDX 64 78 65 79 41 80 42 81 51 82 43 83 44 84 50 85 52 86 45 87
REMARK SMILES IDX 46 88 47 89 48 90 49 91
REMARK H PARENT 85 16 85 17 73 41 39 52
REMARK Flexibility Score: inf
ROOT
ATOM      1  C   UNL     1      -6.580  -1.309  -1.668  1.00  0.00     0.274 C 
ENDROOT
BRANCH   1   2
ATOM      2  O   UNL     1      -5.171  -1.077  -1.501  1.00  0.00    -0.461 OA
BRANCH   2   3
ATOM      3  C   UNL     1      -4.645  -1.433  -0.297  1.00  0.00     0.325 C 
ATOM      4  O   UNL     1      -5.278  -1.531   0.747  1.00  0.00    -0.250 OA
BRANCH   3   5
ATOM      5  C   UNL     1      -3.208  -1.932  -0.476  1.00  0.00     0.243 C 
BRANCH   5   6
ATOM      6  N   UNL     1      -2.240  -0.978  -1.033  1.00  0.00    -0.315 N 
BRANCH   6   7
ATOM      7  C   UNL     1      -1.746  -0.024  -0.058  1.00  0.00     0.210 C 
BRANCH   7   8
ATOM      8  C   UNL     1      -0.226  -0.024  -0.058  1.00  0.00    -0.085 C 
ATOM      9  C   UNL     1       1.078  -0.024  -0.058  1.00  0.00     0.006 C 
ENDBRANCH   7   8
ENDBRANCH   6   7
BRANCH   6  10
ATOM     10  C   UNL     1      -1.874  -0.731  -2.365  1.00  0.00     0.284 C 
ATOM     11  O   UNL     1      -1.492   0.409  -2.672  1.00  0.00    -0.268 OA
BRANCH  10  12
ATOM     12  C   UNL     1      -1.935  -1.846  -3.477  1.00  0.00     0.170 C 
ATOM     13  C   UNL     1      -1.578  -3.233  -2.969  1.00  0.00     0.090 C 
ATOM     14  C   UNL     1      -3.339  -1.802  -4.076  1.00  0.00     0.090 C 
BRANCH  12  15
ATOM     15  N   UNL     1      -1.058  -1.529  -4.640  1.00  0.00    -0.334 N 
ATOM     16  H   UNL     1      -1.282  -0.580  -4.939  1.00  0.00     0.347 HD
ATOM     17  H   UNL     1      -1.258  -2.264  -5.318  1.00  0.00     0.347 HD
BRANCH  15  18
ATOM     18  C   UNL     1       0.389  -1.594  -4.446  1.00  0.00     0.257 C 
ATOM     19  C   UNL     1       0.990  -2.993  -4.585  1.00  0.00     0.071 C 
ENDBRANCH  15  18
ENDBRANCH  12  15
ENDBRANCH  10  12
ENDBRANCH   6  10
ENDBRANCH   5   6
ENDBRANCH   3   5
ENDBRANCH   2   3
ENDBRANCH   1   2
BRANCH   1  20
ATOM     20  C   UNL     1      -6.835  -1.970  -3.040  1.00  0.00     0.275 C 
BRANCH  20  21
ATOM     21  O   UNL     1      -6.062  -3.155  -3.382  1.00  0.00    -0.458 OA
BRANCH  21  22
ATOM     22  C   UNL     1      -5.811  -4.085  -2.438  1.00  0.00     0.338 C 
ATOM     23  O   UNL     1      -6.251  -4.085  -1.300  1.00  0.00    -0.246 OA
BRANCH  22  24
ATOM     24  C   UNL     1      -4.759  -5.040  -2.878  1.00  0.00     0.060 A 
ATOM     25  C   UNL     1      -3.879  -5.493  -1.889  1.00  0.00     0.016 A 
ATOM     26  C   UNL     1      -4.597  -5.490  -4.195  1.00  0.00     0.016 A 
ATOM     27  C   UNL     1      -2.832  -6.354  -2.213  1.00  0.00     0.010 A 
ATOM     28  C   UNL     1      -3.619  -6.463  -4.492  1.00  0.00     0.010 A 
ATOM     29  C   UNL     1      -2.751  -6.931  -3.492  1.00  0.00    -0.014 A 
BRANCH  29  30
ATOM     30  C   UNL     1      -1.936  -8.175  -3.641  1.00  0.00     0.031 A 
ATOM     31  C   UNL     1      -0.750  -8.289  -4.558  1.00  0.00     0.074 A 
ATOM     32  C   UNL     1      -2.290  -9.225  -2.865  1.00  0.00     0.049 A 
ATOM     33  N   UNL     1       0.007  -9.333  -4.786  1.00  0.00    -0.248 NA
ATOM     34  C   UNL     1      -0.357  -7.091  -5.314  1.00  0.00     0.031 C 
ATOM     35  C   UNL     1      -3.425  -9.230  -1.933  1.00  0.00     0.029 A 
ATOM     36  N   UNL     1      -1.736 -10.469  -2.700  1.00  0.00    -0.354 N 
ATOM     37  C   UNL     1       0.951  -8.935  -5.728  1.00  0.00     0.074 A 
ATOM     38  C   UNL     1       0.673  -7.543  -6.024  1.00  0.00     0.031 C 
ATOM     39  C   UNL     1      -3.437 -10.376  -1.245  1.00  0.00     0.029 A 
ATOM     40  C   UNL     1      -2.396 -11.243  -1.772  1.00  0.00     0.049 A 
ATOM     41  H   UNL     1      -0.943 -10.778  -3.196  1.00  0.00     0.167 HD
ATOM     42  C   UNL     1       1.940  -9.671  -6.293  1.00  0.00     0.037 A 
ATOM     43  C   UNL     1      -2.235 -12.530  -1.415  1.00  0.00     0.037 A 
ATOM     44  C   UNL     1       2.204 -11.057  -5.973  1.00  0.00     0.049 A 
ATOM     45  C   UNL     1      -1.163 -13.326  -2.086  1.00  0.00     0.074 A 
ATOM     46  C   UNL     1       3.189 -11.887  -6.484  1.00  0.00     0.029 A 
ATOM     47  N   UNL     1       1.479 -11.820  -5.067  1.00  0.00    -0.354 N 
ATOM     48  N   UNL     1      -0.298 -12.932  -2.989  1.00  0.00    -0.248 NA
ATOM     49  C   UNL     1      -1.054 -14.740  -1.713  1.00  0.00     0.031 C 
ATOM     50  C   UNL     1       3.028 -13.160  -5.926  1.00  0.00     0.029 A 
ATOM     51  C   UNL     1       1.976 -13.114  -5.026  1.00  0.00     0.049 A 
ATOM     52  H   UNL     1       0.722 -11.490  -4.531  1.00  0.00     0.167 HD
ATOM     53  C   UNL     1       0.461 -14.052  -3.296  1.00  0.00     0.074 A 
ATOM     54  C   UNL     1      -0.031 -15.131  -2.460  1.00  0.00     0.031 C 
ATOM     55  C   UNL     1       1.467 -14.177  -4.195  1.00  0.00     0.037 A 
BRANCH  42  56
ATOM     56  C   UNL     1       2.800  -9.028  -7.351  1.00  0.00     0.058 A 
ATOM     57  C   UNL     1       3.804  -8.100  -7.037  1.00  0.00     0.135 A 
ATOM     58  C   UNL     1       2.675  -9.421  -8.696  1.00  0.00     0.135 A 
ATOM     59  F   UNL     1       3.965  -7.681  -5.773  1.00  0.00    -0.206 F 
ATOM     60  C   UNL     1       4.647  -7.579  -8.018  1.00  0.00     0.059 A 
ATOM     61  C   UNL     1       3.519  -8.929  -9.688  1.00  0.00     0.059 A 
ATOM     62  F   UNL     1       1.734 -10.309  -9.054  1.00  0.00    -0.206 F 
ATOM     63  C   UNL     1       4.499  -8.001  -9.341  1.00  0.00     0.060 A 
BRANCH  63  64
ATOM     64  S   UNL     1       5.614  -7.335 -10.597  1.00  0.00     0.124 S 
ATOM     65  O   UNL     1       5.124  -5.965 -10.723  1.00  0.00    -0.237 OA
ATOM     66  O   UNL     1       6.921  -7.484  -9.965  1.00  0.00    -0.237 OA
ATOM     67  O   UNL     1       5.378  -8.194 -11.753  1.00  0.00    -0.744 OA
ENDBRANCH  63  64
ENDBRANCH  42  56
BRANCH  43  68
ATOM     68  C   UNL     1      -3.171 -13.141  -0.433  1.00  0.00     0.058 A 
ATOM     69  C   UNL     1      -2.747 -13.525   0.845  1.00  0.00     0.135 A 
ATOM     70  C   UNL     1      -4.533 -13.300  -0.746  1.00  0.00     0.135 A 
ATOM     71  F   UNL     1      -1.457 -13.398   1.190  1.00  0.00    -0.206 F 
ATOM     72  C   UNL     1      -3.637 -14.045   1.780  1.00  0.00     0.059 A 
ATOM     73  C   UNL     1      -5.447 -13.785   0.182  1.00  0.00     0.059 A 
ATOM     74  F   UNL     1      -4.995 -12.930  -1.951  1.00  0.00    -0.206 F 
ATOM     75  C   UNL     1      -4.987 -14.165   1.440  1.00  0.00     0.060 A 
BRANCH  75  76
ATOM     76  S   UNL     1      -6.151 -14.779   2.677  1.00  0.00     0.124 S 
ATOM     77  O   UNL     1      -5.880 -16.211   2.646  1.00  0.00    -0.237 OA
ATOM     78  O   UNL     1      -5.723 -14.073   3.881  1.00  0.00    -0.237 OA
ATOM     79  O   UNL     1      -7.447 -14.367   2.147  1.00  0.00    -0.744 OA
ENDBRANCH  75  76
ENDBRANCH  43  68
BRANCH  55  80
ATOM     80  C   UNL     1       2.109 -15.529  -4.298  1.00  0.00     0.058 A 
ATOM     81  C   UNL     1       1.459 -16.605  -4.923  1.00  0.00     0.135 A 
ATOM     82  C   UNL     1       3.392 -15.748  -3.772  1.00  0.00     0.135 A 
ATOM     83  F   UNL     1       0.225 -16.448  -5.428  1.00  0.00    -0.206 F 
ATOM     84  C   UNL     1       2.048 -17.862  -4.998  1.00  0.00     0.059 A 
ATOM     85  C   UNL     1       4.010 -16.991  -3.858  1.00  0.00     0.059 A 
ATOM     86  F   UNL     1       4.055 -14.749  -3.168  1.00  0.00    -0.206 F 
ATOM     87  C   UNL     1       3.324 -18.045  -4.460  1.00  0.00     0.060 A 
BRANCH  87  88
ATOM     88  S   UNL     1       4.085 -19.677  -4.575  1.00  0.00     0.124 S 
ATOM     89  O   UNL     1       3.359 -20.412  -3.544  1.00  0.00    -0.237 OA
ATOM     90  O   UNL     1       3.795 -20.062  -5.952  1.00  0.00    -0.237 OA
ATOM     91  O   UNL     1       5.492 -19.415  -4.287  1.00  0.00    -0.744 OA
ENDBRANCH  87  88
ENDBRANCH  55  80
ENDBRANCH  29  30
ENDBRANCH  22  24
ENDBRANCH  21  22
ENDBRANCH  20  21
ENDBRANCH   1  20
TORSDOF 21
