REMARK SMILES Cc1ccc(Cl)c(Nc2ccccc2C(=O)N[C@@H](C)C(=O)OCCOC(=O)c2ccc(-c3c4nc(c(-c5c(F)cc(S(=O)(=O)[O-])cc5F)c5ccc([nH]5)c(-c5c(F)cc(S(=O)(=O)[O-])cc5F)c5nc(c(-c6c(F)cc(S(=O)(=O)[O-])cc6F)c6ccc3[nH]6)C=C5)C=C4)cc2)c1Cl
REMARK SMILES IDX 23 1 22 2 20 3 21 4 18 5 19 6 17 7 15 8 16 9 14 11 9 12
REMARK SMILES IDX 10 13 11 14 13 15 12 16 8 17 7 19 1 20 2 21 3 22 94 23 4 24
REMARK SMILES IDX 95 25 5 26 6 27 24 28 25 29 26 30 27 31 28 32 29 33 93 34
REMARK SMILES IDX 30 35 92 36 31 37 32 38 33 39 86 40 34 41 91 42 85 43 87 44
REMARK SMILES IDX 35 45 90 46 84 47 83 48 36 50 70 51 49 52 69 53 50 54 53 55
REMARK SMILES IDX 68 56 88 57 51 58 52 59 67 61 89 62 54 63 37 64 38 65 47 66
REMARK SMILES IDX 39 67 40 68 46 69 48 70 41 71 42 72 43 73 44 74 45 75 71 76
REMARK SMILES IDX 72 77 81 78 73 79 74 80 80 81 82 82 75 83 76 84 77 85 78 86
REMARK SMILES IDX 79 87 55 88 56 89 65 90 57 91 58 92 64 93 66 94 59 95 60 96
REMARK SMILES IDX 61 97 62 98 63 99
REMARK H PARENT 17 10 8 18 87 49 53 60
REMARK Flexibility Score: inf
ROOT
ATOM      1  C   UNL     1      -1.135   3.019   0.146  1.00  0.00     0.274 C 
ENDROOT
BRANCH   1   2
ATOM      2  O   UNL     1      -1.312   1.647   0.691  1.00  0.00    -0.461 OA
BRANCH   2   3
ATOM      3  C   UNL     1      -0.761   1.167   1.869  1.00  0.00     0.328 C 
ATOM      4  O   UNL     1      -0.165   1.872   2.656  1.00  0.00    -0.250 OA
BRANCH   3   5
ATOM      5  C   UNL     1      -0.990  -0.431   2.081  1.00  0.00     0.189 C 
ATOM      6  C   UNL     1      -2.259  -0.672   2.897  1.00  0.00     0.043 C 
BRANCH   5   7
ATOM      7  N   UNL     1       0.186  -1.086   2.738  1.00  0.00    -0.339 N 
ATOM      8  C   UNL     1       0.954  -2.236   2.813  1.00  0.00     0.254 C 
ATOM      9  O   UNL     1       1.755  -2.124   3.762  1.00  0.00    -0.269 OA
ATOM     10  H   UNL     1       0.565  -0.438   3.374  1.00  0.00     0.164 HD
BRANCH   8  11
ATOM     11  C   UNL     1       1.062  -3.568   2.036  1.00  0.00     0.063 A 
ATOM     12  C   UNL     1       0.393  -4.082   0.898  1.00  0.00     0.051 A 
ATOM     13  C   UNL     1       0.725  -5.348   0.330  1.00  0.00     0.027 A 
ATOM     14  C   UNL     1       1.824  -6.066   0.759  1.00  0.00     0.002 A 
ATOM     15  C   UNL     1       2.150  -4.380   2.467  1.00  0.00     0.016 A 
ATOM     16  C   UNL     1       2.550  -5.569   1.823  1.00  0.00     0.001 A 
BRANCH  12  17
ATOM     17  N   UNL     1      -0.296  -3.298  -0.022  1.00  0.00    -0.352 N 
ATOM     18  H   UNL     1      -1.229  -3.533  -0.230  1.00  0.00     0.167 HD
BRANCH  17  19
ATOM     19  C   UNL     1       0.275  -2.183  -0.673  1.00  0.00     0.077 A 
ATOM     20  C   UNL     1       3.275   0.094   0.148  1.00  0.00     0.046 C 
ATOM     21  C   UNL     1       1.945  -0.438  -0.295  1.00  0.00    -0.030 A 
ATOM     22  C   UNL     1       0.919   0.443  -0.513  1.00  0.00     0.006 A 
ATOM     23  C   UNL     1       1.633  -1.772  -0.484  1.00  0.00     0.069 A 
ATOM     24  C   UNL     1      -0.329   0.034  -1.028  1.00  0.00     0.023 A 
ATOM     25  Cl  UNL     1       2.950  -2.889  -0.557  1.00  0.00    -0.082 Cl
ATOM     26  C   UNL     1      -0.661  -1.281  -1.133  1.00  0.00     0.066 A 
ATOM     27  Cl  UNL     1      -2.288  -1.710  -1.529  1.00  0.00    -0.082 Cl
ENDBRANCH  17  19
ENDBRANCH  12  17
ENDBRANCH   8  11
ENDBRANCH   5   7
ENDBRANCH   3   5
ENDBRANCH   2   3
ENDBRANCH   1   2
BRANCH   1  28
ATOM     28  C   UNL     1      -0.136   3.348  -1.097  1.00  0.00     0.275 C 
BRANCH  28  29
ATOM     29  O   UNL     1      -0.054   2.423  -2.256  1.00  0.00    -0.458 OA
BRANCH  29  30
ATOM     30  C   UNL     1       1.175   2.264  -2.902  1.00  0.00     0.338 C 
ATOM     31  O   UNL     1       2.099   3.054  -2.772  1.00  0.00    -0.246 OA
BRANCH  30  32
ATOM     32  C   UNL     1       1.380   0.907  -3.610  1.00  0.00     0.060 A 
ATOM     33  C   UNL     1       0.339   0.013  -3.799  1.00  0.00     0.016 A 
ATOM     34  C   UNL     1       2.663   0.405  -3.924  1.00  0.00     0.016 A 
ATOM     35  C   UNL     1       0.594  -1.356  -4.073  1.00  0.00     0.010 A 
ATOM     36  C   UNL     1       2.876  -0.937  -4.409  1.00  0.00     0.010 A 
ATOM     37  C   UNL     1       1.832  -1.869  -4.504  1.00  0.00    -0.014 A 
BRANCH  37  38
ATOM     38  C   UNL     1       1.925  -3.277  -5.132  1.00  0.00     0.031 A 
ATOM     39  C   UNL     1       3.111  -4.244  -4.975  1.00  0.00     0.074 A 
ATOM     40  C   UNL     1       0.912  -3.746  -5.914  1.00  0.00     0.049 A 
ATOM     41  N   UNL     1       3.404  -5.322  -5.680  1.00  0.00    -0.248 NA
ATOM     42  C   UNL     1       4.064  -4.002  -3.886  1.00  0.00     0.031 C 
ATOM     43  C   UNL     1      -0.352  -3.060  -6.191  1.00  0.00     0.029 A 
ATOM     44  N   UNL     1       0.779  -4.922  -6.638  1.00  0.00    -0.354 N 
ATOM     45  C   UNL     1       4.587  -5.852  -5.155  1.00  0.00     0.074 A 
ATOM     46  C   UNL     1       4.939  -4.995  -4.039  1.00  0.00     0.031 C 
ATOM     47  C   UNL     1      -1.150  -3.837  -6.925  1.00  0.00     0.029 A 
ATOM     48  C   UNL     1      -0.384  -4.983  -7.379  1.00  0.00     0.049 A 
ATOM     49  H   UNL     1       1.449  -5.643  -6.625  1.00  0.00     0.167 HD
ATOM     50  C   UNL     1       5.324  -6.925  -5.565  1.00  0.00     0.037 A 
ATOM     51  C   UNL     1      -0.792  -5.752  -8.410  1.00  0.00     0.037 A 
ATOM     52  C   UNL     1       4.980  -7.817  -6.656  1.00  0.00     0.049 A 
ATOM     53  C   UNL     1       0.097  -6.811  -8.969  1.00  0.00     0.074 A 
ATOM     54  C   UNL     1       5.686  -8.920  -7.124  1.00  0.00     0.029 A 
ATOM     55  N   UNL     1       3.850  -7.721  -7.450  1.00  0.00    -0.354 N 
ATOM     56  N   UNL     1       1.267  -7.205  -8.539  1.00  0.00    -0.248 NA
ATOM     57  C   UNL     1      -0.371  -7.502 -10.179  1.00  0.00     0.031 C 
ATOM     58  C   UNL     1       5.014  -9.451  -8.232  1.00  0.00     0.029 A 
ATOM     59  C   UNL     1       3.861  -8.714  -8.424  1.00  0.00     0.049 A 
ATOM     60  H   UNL     1       3.141  -7.047  -7.340  1.00  0.00     0.167 HD
ATOM     61  C   UNL     1       1.680  -8.186  -9.431  1.00  0.00     0.074 A 
ATOM     62  C   UNL     1       0.627  -8.344 -10.409  1.00  0.00     0.031 C 
ATOM     63  C   UNL     1       2.842  -8.881  -9.427  1.00  0.00     0.037 A 
BRANCH  50  64
ATOM     64  C   UNL     1       6.653  -7.197  -4.890  1.00  0.00     0.058 A 
ATOM     65  C   UNL     1       6.754  -7.833  -3.643  1.00  0.00     0.135 A 
ATOM     66  C   UNL     1       7.853  -6.939  -5.582  1.00  0.00     0.135 A 
ATOM     67  F   UNL     1       5.648  -8.123  -2.942  1.00  0.00    -0.206 F 
ATOM     68  C   UNL     1       7.993  -8.180  -3.098  1.00  0.00     0.059 A 
ATOM     69  C   UNL     1       9.098  -7.296  -5.066  1.00  0.00     0.059 A 
ATOM     70  F   UNL     1       7.819  -6.362  -6.794  1.00  0.00    -0.206 F 
ATOM     71  C   UNL     1       9.159  -7.905  -3.816  1.00  0.00     0.060 A 
BRANCH  71  72
ATOM     72  S   UNL     1      10.757  -8.361  -3.101  1.00  0.00     0.124 S 
ATOM     73  O   UNL     1      10.906  -7.355  -2.054  1.00  0.00    -0.237 OA
ATOM     74  O   UNL     1      10.519  -9.725  -2.638  1.00  0.00    -0.237 OA
ATOM     75  O   UNL     1      11.682  -8.238  -4.223  1.00  0.00    -0.744 OA
ENDBRANCH  71  72
ENDBRANCH  50  64
BRANCH  51  76
ATOM     76  C   UNL     1      -2.078  -5.417  -9.088  1.00  0.00     0.058 A 
ATOM     77  C   UNL     1      -3.201  -6.243  -8.966  1.00  0.00     0.135 A 
ATOM     78  C   UNL     1      -2.216  -4.218  -9.810  1.00  0.00     0.135 A 
ATOM     79  F   UNL     1      -3.109  -7.409  -8.308  1.00  0.00    -0.206 F 
ATOM     80  C   UNL     1      -4.427  -5.880  -9.513  1.00  0.00     0.059 A 
ATOM     81  C   UNL     1      -3.438  -3.816 -10.331  1.00  0.00     0.059 A 
ATOM     82  F   UNL     1      -1.169  -3.388  -9.945  1.00  0.00    -0.206 F 
ATOM     83  C   UNL     1      -4.539  -4.656 -10.178  1.00  0.00     0.060 A 
BRANCH  83  84
ATOM     84  S   UNL     1      -6.160  -4.131 -10.776  1.00  0.00     0.124 S 
ATOM     85  O   UNL     1      -6.290  -4.918 -11.997  1.00  0.00    -0.237 OA
ATOM     86  O   UNL     1      -7.035  -4.512  -9.672  1.00  0.00    -0.237 OA
ATOM     87  O   UNL     1      -5.995  -2.692 -10.963  1.00  0.00    -0.744 OA
ENDBRANCH  83  84
ENDBRANCH  51  76
BRANCH  63  88
ATOM     88  C   UNL     1       3.037  -9.895 -10.518  1.00  0.00     0.058 A 
ATOM     89  C   UNL     1       3.330  -9.506 -11.835  1.00  0.00     0.135 A 
ATOM     90  C   UNL     1       2.925 -11.269 -10.252  1.00  0.00     0.135 A 
ATOM     91  F   UNL     1       3.427  -8.204 -12.148  1.00  0.00    -0.206 F 
ATOM     92  C   UNL     1       3.488 -10.442 -12.853  1.00  0.00     0.059 A 
ATOM     93  C   UNL     1       3.099 -12.224 -11.251  1.00  0.00     0.059 A 
ATOM     94  F   UNL     1       2.640 -11.696  -9.012  1.00  0.00    -0.206 F 
ATOM     95  C   UNL     1       3.369 -11.800 -12.552  1.00  0.00     0.060 A 
BRANCH  95  96
ATOM     96  S   UNL     1       3.595 -13.005 -13.879  1.00  0.00     0.124 S 
ATOM     97  O   UNL     1       2.351 -12.856 -14.627  1.00  0.00    -0.237 OA
ATOM     98  O   UNL     1       4.798 -12.516 -14.545  1.00  0.00    -0.237 OA
ATOM     99  O   UNL     1       3.751 -14.270 -13.166  1.00  0.00    -0.744 OA
ENDBRANCH  95  96
ENDBRANCH  63  88
ENDBRANCH  37  38
ENDBRANCH  30  32
ENDBRANCH  29  30
ENDBRANCH  28  29
ENDBRANCH   1  28
TORSDOF 18
