REMARK SMILES Cc1cc(C)n(C)c(=O)c1C(=O)[NH+]1CCC2(CC1)C[NH2+][C@@H](C(=O)OCCOC(=O)c1ccc(-c3c4nc(c(-c5c(F)cc(S(=O)(=O)[O-])cc5F)c5ccc([nH]5)c(-c5c(F)cc(S(=O)(=O)[O-])cc5F)c5nc(c(-c6c(F)cc(S(=O)(=O)[O-])cc6F)c6ccc3[nH]6)C=C5)C=C4)cc1)C2
REMARK SMILES IDX 26 1 25 2 24 3 22 4 23 5 21 6 13 7 14 8 18 9 15 11 17 12
REMARK SMILES IDX 16 13 19 14 96 15 20 16 11 19 12 20 10 21 1 22 2 23 3 24
REMARK SMILES IDX 4 25 8 26 5 27 6 28 9 29 7 30 27 31 28 32 29 33 30 34 31 35
REMARK SMILES IDX 95 36 32 37 94 38 33 39 34 40 35 41 88 42 36 43 93 44 87 45
REMARK SMILES IDX 89 46 37 47 92 48 86 49 85 50 38 52 72 53 51 54 71 55 52 56
REMARK SMILES IDX 55 57 70 58 90 59 53 60 54 61 69 63 91 64 56 65 39 66 40 67
REMARK SMILES IDX 49 68 41 69 42 70 48 71 50 72 43 73 44 74 45 75 46 76 47 77
REMARK SMILES IDX 73 78 74 79 83 80 75 81 76 82 82 83 84 84 77 85 78 86 79 87
REMARK SMILES IDX 80 88 81 89 57 90 58 91 67 92 59 93 60 94 66 95 68 96 61 97
REMARK SMILES IDX 62 98 63 99 64 100 65 101
REMARK H PARENT 13 10 20 17 20 18 89 51 55 62
REMARK Flexibility Score: inf
ROOT
ATOM      1  C   UNL     1       4.734  -4.837  -6.542  1.00  0.00     0.275 C 
ENDROOT
BRANCH   1   2
ATOM      2  C   UNL     1       3.773  -5.531  -5.577  1.00  0.00     0.274 C 
BRANCH   2   3
ATOM      3  O   UNL     1       3.497  -4.665  -4.464  1.00  0.00    -0.458 OA
BRANCH   3   4
ATOM      4  C   UNL     1       4.003  -5.045  -3.265  1.00  0.00     0.364 C 
ATOM      5  O   UNL     1       4.530  -6.131  -3.038  1.00  0.00    -0.245 OA
BRANCH   4   6
ATOM      6  C   UNL     1       3.869  -3.971  -2.192  1.00  0.00     0.294 C 
ATOM      7  N   UNL     1       2.498   1.008  -1.248  1.00  0.00    -0.267 N 
ATOM      8  C   UNL     1       3.865   0.530  -1.404  1.00  0.00     0.271 C 
ATOM      9  C   UNL     1       1.534   0.277  -2.056  1.00  0.00     0.271 C 
ATOM     10  H   UNL     1       2.505   1.740  -0.590  1.00  0.00     0.357 HD
ATOM     11  C   UNL     1       3.939  -0.844  -0.755  1.00  0.00     0.075 C 
ATOM     12  C   UNL     1       1.579  -1.238  -1.796  1.00  0.00     0.075 C 
ATOM     13  C   UNL     1       2.960  -1.855  -1.403  1.00  0.00     0.036 C 
ATOM     14  C   UNL     1       2.747  -3.046  -0.429  1.00  0.00     0.268 C 
ATOM     15  C   UNL     1       3.629  -2.529  -2.632  1.00  0.00     0.090 C 
ATOM     16  N   UNL     1       2.732  -4.229  -1.287  1.00  0.00    -0.334 N 
ATOM     17  H   UNL     1       1.856  -4.299  -1.804  1.00  0.00     0.347 HD
ATOM     18  H   UNL     1       2.808  -5.107  -0.775  1.00  0.00     0.347 HD
BRANCH   7  19
ATOM     19  C   UNL     1       2.268   2.033  -0.340  1.00  0.00     0.350 C 
ATOM     20  O   UNL     1       3.198   2.688   0.141  1.00  0.00    -0.225 OA
BRANCH  19  21
ATOM     21  C   UNL     1       0.902   2.304   0.204  1.00  0.00     0.147 A 
ATOM     22  C   UNL     1       0.651  -0.018   1.239  1.00  0.00     0.045 C 
ATOM     23  C   UNL     1       0.241   1.395   0.955  1.00  0.00    -0.027 A 
ATOM     24  C   UNL     1      -0.908   1.796   1.742  1.00  0.00     0.026 A 
ATOM     25  C   UNL     1      -1.184   3.088   1.971  1.00  0.00     0.018 A 
ATOM     26  C   UNL     1       0.448   3.739   0.270  1.00  0.00     0.267 A 
ATOM     27  C   UNL     1      -2.255   3.433   2.970  1.00  0.00     0.064 C 
ATOM     28  N   UNL     1      -0.473   4.066   1.284  1.00  0.00    -0.315 N 
ATOM     29  O   UNL     1       0.881   4.569  -0.529  1.00  0.00    -0.268 OA
ATOM     30  C   UNL     1      -0.674   5.479   1.576  1.00  0.00     0.153 C 
ENDBRANCH  19  21
ENDBRANCH   7  19
ENDBRANCH   4   6
ENDBRANCH   3   4
ENDBRANCH   2   3
ENDBRANCH   1   2
BRANCH   1  31
ATOM     31  O   UNL     1       6.020  -4.615  -5.929  1.00  0.00    -0.458 OA
BRANCH  31  32
ATOM     32  C   UNL     1       6.199  -3.383  -5.396  1.00  0.00     0.338 C 
ATOM     33  O   UNL     1       5.412  -2.454  -5.398  1.00  0.00    -0.246 OA
BRANCH  32  34
ATOM     34  C   UNL     1       7.480  -3.336  -4.675  1.00  0.00     0.060 A 
ATOM     35  C   UNL     1       7.453  -3.342  -3.280  1.00  0.00     0.016 A 
ATOM     36  C   UNL     1       8.686  -3.177  -5.358  1.00  0.00     0.016 A 
ATOM     37  C   UNL     1       8.626  -3.169  -2.554  1.00  0.00     0.010 A 
ATOM     38  C   UNL     1       9.870  -3.021  -4.627  1.00  0.00     0.010 A 
ATOM     39  C   UNL     1       9.845  -3.001  -3.221  1.00  0.00    -0.014 A 
BRANCH  39  40
ATOM     40  C   UNL     1      11.078  -2.756  -2.434  1.00  0.00     0.031 A 
ATOM     41  C   UNL     1      11.692  -1.384  -2.411  1.00  0.00     0.074 A 
ATOM     42  C   UNL     1      11.612  -3.750  -1.700  1.00  0.00     0.049 A 
ATOM     43  N   UNL     1      12.797  -0.984  -1.838  1.00  0.00    -0.248 NA
ATOM     44  C   UNL     1      10.964  -0.322  -3.123  1.00  0.00     0.031 C 
ATOM     45  C   UNL     1      11.068  -5.104  -1.591  1.00  0.00     0.029 A 
ATOM     46  N   UNL     1      12.724  -3.772  -0.896  1.00  0.00    -0.354 N 
ATOM     47  C   UNL     1      12.907   0.370  -2.130  1.00  0.00     0.074 A 
ATOM     48  C   UNL     1      11.765   0.720  -2.948  1.00  0.00     0.031 C 
ATOM     49  C   UNL     1      11.836  -5.820  -0.754  1.00  0.00     0.029 A 
ATOM     50  C   UNL     1      12.955  -4.993  -0.308  1.00  0.00     0.049 A 
ATOM     51  H   UNL     1      13.302  -2.988  -0.754  1.00  0.00     0.167 HD
ATOM     52  C   UNL     1      13.871   1.240  -1.746  1.00  0.00     0.037 A 
ATOM     53  C   UNL     1      13.966  -5.406   0.480  1.00  0.00     0.037 A 
ATOM     54  C   UNL     1      14.997   0.887  -0.921  1.00  0.00     0.049 A 
ATOM     55  C   UNL     1      15.066  -4.441   0.828  1.00  0.00     0.074 A 
ATOM     56  C   UNL     1      16.033   1.696  -0.486  1.00  0.00     0.029 A 
ATOM     57  N   UNL     1      15.231  -0.377  -0.400  1.00  0.00    -0.354 N 
ATOM     58  N   UNL     1      15.181  -3.174   0.508  1.00  0.00    -0.248 NA
ATOM     59  C   UNL     1      16.183  -4.965   1.627  1.00  0.00     0.031 C 
ATOM     60  C   UNL     1      16.912   0.911   0.269  1.00  0.00     0.029 A 
ATOM     61  C   UNL     1      16.404  -0.376   0.337  1.00  0.00     0.049 A 
ATOM     62  H   UNL     1      14.649  -1.160  -0.534  1.00  0.00     0.167 HD
ATOM     63  C   UNL     1      16.376  -2.746   1.073  1.00  0.00     0.074 A 
ATOM     64  C   UNL     1      16.942  -3.885   1.768  1.00  0.00     0.031 C 
ATOM     65  C   UNL     1      16.954  -1.521   1.018  1.00  0.00     0.037 A 
BRANCH  52  66
ATOM     66  C   UNL     1      13.765   2.656  -2.237  1.00  0.00     0.058 A 
ATOM     67  C   UNL     1      12.833   3.555  -1.698  1.00  0.00     0.135 A 
ATOM     68  C   UNL     1      14.630   3.128  -3.237  1.00  0.00     0.135 A 
ATOM     69  F   UNL     1      11.970   3.148  -0.753  1.00  0.00    -0.206 F 
ATOM     70  C   UNL     1      12.749   4.870  -2.145  1.00  0.00     0.059 A 
ATOM     71  C   UNL     1      14.579   4.445  -3.685  1.00  0.00     0.059 A 
ATOM     72  F   UNL     1      15.538   2.307  -3.788  1.00  0.00    -0.206 F 
ATOM     73  C   UNL     1      13.626   5.305  -3.141  1.00  0.00     0.060 A 
BRANCH  73  74
ATOM     74  S   UNL     1      13.511   7.015  -3.710  1.00  0.00     0.124 S 
ATOM     75  O   UNL     1      12.280   6.978  -4.494  1.00  0.00    -0.237 OA
ATOM     76  O   UNL     1      13.442   7.758  -2.456  1.00  0.00    -0.237 OA
ATOM     77  O   UNL     1      14.738   7.202  -4.478  1.00  0.00    -0.744 OA
ENDBRANCH  73  74
ENDBRANCH  52  66
BRANCH  53  78
ATOM     78  C   UNL     1      13.990  -6.806   0.978  1.00  0.00     0.058 A 
ATOM     79  C   UNL     1      13.751  -7.094   2.329  1.00  0.00     0.135 A 
ATOM     80  C   UNL     1      14.223  -7.884   0.109  1.00  0.00     0.135 A 
ATOM     81  F   UNL     1      13.536  -6.097   3.200  1.00  0.00    -0.206 F 
ATOM     82  C   UNL     1      13.740  -8.402   2.803  1.00  0.00     0.059 A 
ATOM     83  C   UNL     1      14.195  -9.201   0.554  1.00  0.00     0.059 A 
ATOM     84  F   UNL     1      14.449  -7.659  -1.195  1.00  0.00    -0.206 F 
ATOM     85  C   UNL     1      13.956  -9.450   1.905  1.00  0.00     0.060 A 
BRANCH  85  86
ATOM     86  S   UNL     1      13.869 -11.147   2.517  1.00  0.00     0.124 S 
ATOM     87  O   UNL     1      15.116 -11.255   3.265  1.00  0.00    -0.237 OA
ATOM     88  O   UNL     1      12.646 -11.123   3.314  1.00  0.00    -0.237 OA
ATOM     89  O   UNL     1      13.795 -11.941   1.294  1.00  0.00    -0.744 OA
ENDBRANCH  85  86
ENDBRANCH  53  78
BRANCH  65  90
ATOM     90  C   UNL     1      18.264  -1.342   1.732  1.00  0.00     0.058 A 
ATOM     91  C   UNL     1      19.462  -1.834   1.193  1.00  0.00     0.135 A 
ATOM     92  C   UNL     1      18.331  -0.610   2.928  1.00  0.00     0.135 A 
ATOM     93  F   UNL     1      19.448  -2.547   0.056  1.00  0.00    -0.206 F 
ATOM     94  C   UNL     1      20.683  -1.614   1.821  1.00  0.00     0.059 A 
ATOM     95  C   UNL     1      19.544  -0.360   3.562  1.00  0.00     0.059 A 
ATOM     96  F   UNL     1      17.212  -0.112   3.479  1.00  0.00    -0.206 F 
ATOM     97  C   UNL     1      20.714  -0.872   3.003  1.00  0.00     0.060 A 
BRANCH  97  98
ATOM     98  S   UNL     1      22.312  -0.551   3.780  1.00  0.00     0.124 S 
ATOM     99  O   UNL     1      22.628  -1.855   4.353  1.00  0.00    -0.237 OA
ATOM    100  O   UNL     1      23.135  -0.141   2.646  1.00  0.00    -0.237 OA
ATOM    101  O   UNL     1      22.016   0.504   4.745  1.00  0.00    -0.744 OA
ENDBRANCH  97  98
ENDBRANCH  65  90
ENDBRANCH  39  40
ENDBRANCH  32  34
ENDBRANCH  31  32
ENDBRANCH   1  31
TORSDOF 16
