REMARK SMILES O=C(Cn1c(-c2nc(-c3ccc(C(F)(F)F)cc3)no2)cc2ccccc21)OCCOC(=O)c1ccc(-c2c3nc(c(-c4c(F)cc(S(=O)(=O)[O-])cc4F)c4ccc([nH]4)c(-c4c(F)cc(S(=O)(=O)[O-])cc4F)c4nc(c(-c5c(F)cc(S(=O)(=O)[O-])cc5F)c5ccc2[nH]5)C=C4)C=C3)cc1
REMARK SMILES IDX 29 1 28 2 2 3 1 4 3 5 4 6 5 7 27 8 21 9 22 10 26 11 23 12
REMARK SMILES IDX 25 13 24 14 6 15 7 16 20 17 8 18 19 19 9 20 10 21 18 22
REMARK SMILES IDX 11 23 17 24 12 25 13 26 14 27 15 28 16 29 30 30 31 31 32 32
REMARK SMILES IDX 33 33 34 34 35 35 99 36 36 37 98 38 37 39 38 40 39 41 92 42
REMARK SMILES IDX 40 43 97 44 91 45 93 46 41 47 96 48 90 49 89 50 42 52 76 53
REMARK SMILES IDX 55 54 75 55 56 56 59 57 74 58 94 59 57 60 58 61 73 63 95 64
REMARK SMILES IDX 60 65 43 66 44 67 53 68 45 69 46 70 52 71 54 72 47 73 48 74
REMARK SMILES IDX 49 75 50 76 51 77 77 78 78 79 87 80 79 81 80 82 86 83 88 84
REMARK SMILES IDX 81 85 82 86 83 87 84 88 85 89 61 90 62 91 71 92 63 93 64 94
REMARK SMILES IDX 70 95 72 96 65 97 66 98 67 99 68 100 69 101
REMARK H PARENT 93 51 59 62
REMARK Flexibility Score: inf
ROOT
ATOM      1  C   UNL     1       4.099  -1.499   0.677  1.00  0.00     0.274 C 
ENDROOT
BRANCH   1   2
ATOM      2  O   UNL     1       2.743  -1.099   0.831  1.00  0.00    -0.461 OA
BRANCH   2   3
ATOM      3  C   UNL     1       2.447   0.229   0.873  1.00  0.00     0.326 C 
ATOM      4  O   UNL     1       1.396   0.575   1.398  1.00  0.00    -0.250 OA
BRANCH   3   5
ATOM      5  C   UNL     1       3.302   1.150   0.048  1.00  0.00     0.245 C 
BRANCH   5   6
ATOM      6  N   UNL     1       3.991   2.298   0.596  1.00  0.00    -0.325 N 
ATOM      7  C   UNL     1       3.543   3.614   0.596  1.00  0.00     0.109 A 
ATOM      8  C   UNL     1       5.341   2.231   0.892  1.00  0.00     0.049 A 
ATOM      9  C   UNL     1       4.643   4.375   0.968  1.00  0.00     0.042 A 
ATOM     10  C   UNL     1       5.682   3.481   1.386  1.00  0.00     0.000 A 
ATOM     11  C   UNL     1       6.269   1.177   0.834  1.00  0.00     0.027 A 
ATOM     12  C   UNL     1       6.889   3.585   2.105  1.00  0.00     0.010 A 
ATOM     13  C   UNL     1       7.352   1.236   1.699  1.00  0.00     0.002 A 
ATOM     14  C   UNL     1       7.635   2.420   2.362  1.00  0.00     0.001 A 
BRANCH   7  15
ATOM     15  C   UNL     1       2.174   3.997   0.273  1.00  0.00     0.274 A 
ATOM     16  N   UNL     1       1.520   5.444  -0.350  1.00  0.00    -0.185 NA
ATOM     17  O   UNL     1       0.752   2.704   0.103  1.00  0.00    -0.332 OA
ATOM     18  C   UNL     1      -0.309   5.270  -1.035  1.00  0.00     0.202 A 
ATOM     19  N   UNL     1      -0.855   3.612  -0.707  1.00  0.00    -0.057 NA
BRANCH  18  20
ATOM     20  C   UNL     1      -0.567   5.631  -2.698  1.00  0.00     0.023 A 
ATOM     21  C   UNL     1      -2.183   6.181  -2.954  1.00  0.00     0.013 A 
ATOM     22  C   UNL     1       0.799   5.869  -4.276  1.00  0.00     0.013 A 
ATOM     23  C   UNL     1      -2.507   6.972  -4.443  1.00  0.00     0.014 A 
ATOM     24  C   UNL     1       0.253   6.733  -5.712  1.00  0.00     0.014 A 
ATOM     25  C   UNL     1      -1.367   7.268  -5.725  1.00  0.00     0.056 A 
BRANCH  25  26
ATOM     26  C   UNL     1      -1.979   7.861  -6.984  1.00  0.00     0.416 C 
ATOM     27  F   UNL     1      -3.267   7.447  -7.160  1.00  0.00    -0.166 F 
ATOM     28  F   UNL     1      -2.009   9.216  -6.979  1.00  0.00    -0.166 F 
ATOM     29  F   UNL     1      -1.330   7.494  -8.126  1.00  0.00    -0.166 F 
ENDBRANCH  25  26
ENDBRANCH  18  20
ENDBRANCH   7  15
ENDBRANCH   5   6
ENDBRANCH   3   5
ENDBRANCH   2   3
ENDBRANCH   1   2
BRANCH   1  30
ATOM     30  C   UNL     1       4.448  -1.949  -0.755  1.00  0.00     0.275 C 
BRANCH  30  31
ATOM     31  O   UNL     1       3.969  -1.068  -1.800  1.00  0.00    -0.458 OA
BRANCH  31  32
ATOM     32  C   UNL     1       2.729  -1.324  -2.312  1.00  0.00     0.338 C 
ATOM     33  O   UNL     1       2.099  -2.354  -2.154  1.00  0.00    -0.246 OA
BRANCH  32  34
ATOM     34  C   UNL     1       2.119  -0.037  -2.767  1.00  0.00     0.060 A 
ATOM     35  C   UNL     1       2.885   1.054  -3.203  1.00  0.00     0.016 A 
ATOM     36  C   UNL     1       0.796   0.169  -2.369  1.00  0.00     0.016 A 
ATOM     37  C   UNL     1       2.481   2.338  -2.821  1.00  0.00     0.010 A 
ATOM     38  C   UNL     1       0.346   1.454  -2.139  1.00  0.00     0.010 A 
ATOM     39  C   UNL     1       1.286   2.488  -2.071  1.00  0.00    -0.014 A 
BRANCH  39  40
ATOM     40  C   UNL     1       0.951   3.874  -1.179  1.00  0.00     0.031 A 
ATOM     41  C   UNL     1       1.189   4.818  -2.612  1.00  0.00     0.074 A 
ATOM     42  C   UNL     1       0.298   4.343   0.584  1.00  0.00     0.049 A 
ATOM     43  N   UNL     1       1.183   6.439  -2.526  1.00  0.00    -0.248 NA
ATOM     44  C   UNL     1      -0.080   4.105  -3.952  1.00  0.00     0.031 C 
ATOM     45  C   UNL     1       0.230   3.495   2.033  1.00  0.00     0.029 A 
ATOM     46  N   UNL     1      -0.326   5.570   1.331  1.00  0.00    -0.354 N 
ATOM     47  C   UNL     1      -0.205   7.165  -3.551  1.00  0.00     0.074 A 
ATOM     48  C   UNL     1      -0.928   5.395  -4.479  1.00  0.00     0.031 C 
ATOM     49  C   UNL     1      -0.553   4.026   2.997  1.00  0.00     0.029 A 
ATOM     50  C   UNL     1      -1.056   5.313   2.616  1.00  0.00     0.049 A 
ATOM     51  H   UNL     1      -0.242   6.481   0.968  1.00  0.00     0.167 HD
ATOM     52  C   UNL     1      -0.395   8.493  -3.122  1.00  0.00     0.037 A 
ATOM     53  C   UNL     1      -1.861   6.123   3.445  1.00  0.00     0.037 A 
ATOM     54  C   UNL     1       0.689   8.910  -2.224  1.00  0.00     0.049 A 
ATOM     55  C   UNL     1      -1.622   7.516   3.029  1.00  0.00     0.074 A 
ATOM     56  C   UNL     1       2.078   8.921  -2.201  1.00  0.00     0.029 A 
ATOM     57  N   UNL     1       0.316   9.094  -0.922  1.00  0.00    -0.354 N 
ATOM     58  N   UNL     1      -0.458   8.084   3.155  1.00  0.00    -0.248 NA
ATOM     59  C   UNL     1      -2.481   7.919   1.926  1.00  0.00     0.031 C 
ATOM     60  C   UNL     1       2.464   8.719  -0.834  1.00  0.00     0.029 A 
ATOM     61  C   UNL     1       1.321   8.772  -0.050  1.00  0.00     0.049 A 
ATOM     62  H   UNL     1      -0.571   9.420  -0.645  1.00  0.00     0.167 HD
ATOM     63  C   UNL     1      -0.194   8.469   1.860  1.00  0.00     0.074 A 
ATOM     64  C   UNL     1      -1.467   8.281   1.142  1.00  0.00     0.031 C 
ATOM     65  C   UNL     1       1.071   8.568   1.360  1.00  0.00     0.037 A 
BRANCH  52  66
ATOM     66  C   UNL     1      -1.622   9.368  -3.166  1.00  0.00     0.058 A 
ATOM     67  C   UNL     1      -1.522  10.654  -3.683  1.00  0.00     0.135 A 
ATOM     68  C   UNL     1      -2.881   9.044  -2.617  1.00  0.00     0.135 A 
ATOM     69  F   UNL     1      -0.319  11.184  -3.941  1.00  0.00    -0.206 F 
ATOM     70  C   UNL     1      -2.654  11.427  -3.918  1.00  0.00     0.059 A 
ATOM     71  C   UNL     1      -4.045   9.686  -3.005  1.00  0.00     0.059 A 
ATOM     72  F   UNL     1      -3.024   8.084  -1.695  1.00  0.00    -0.206 F 
ATOM     73  C   UNL     1      -3.916  10.884  -3.678  1.00  0.00     0.060 A 
BRANCH  73  74
ATOM     74  S   UNL     1      -5.383  11.747  -4.244  1.00  0.00     0.124 S 
ATOM     75  O   UNL     1      -5.594  12.698  -3.159  1.00  0.00    -0.237 OA
ATOM     76  O   UNL     1      -4.939  12.313  -5.514  1.00  0.00    -0.237 OA
ATOM     77  O   UNL     1      -6.371  10.678  -4.360  1.00  0.00    -0.744 OA
ENDBRANCH  73  74
ENDBRANCH  52  66
BRANCH  53  78
ATOM     78  C   UNL     1      -3.116   5.899   4.354  1.00  0.00     0.058 A 
ATOM     79  C   UNL     1      -3.770   6.894   5.167  1.00  0.00     0.135 A 
ATOM     80  C   UNL     1      -3.916   4.775   4.124  1.00  0.00     0.135 A 
ATOM     81  F   UNL     1      -3.131   8.030   5.499  1.00  0.00    -0.206 F 
ATOM     82  C   UNL     1      -5.123   6.791   5.629  1.00  0.00     0.059 A 
ATOM     83  C   UNL     1      -5.256   4.660   4.553  1.00  0.00     0.059 A 
ATOM     84  F   UNL     1      -3.440   3.767   3.384  1.00  0.00    -0.206 F 
ATOM     85  C   UNL     1      -5.875   5.675   5.276  1.00  0.00     0.060 A 
BRANCH  85  86
ATOM     86  S   UNL     1      -7.669   5.558   5.638  1.00  0.00     0.124 S 
ATOM     87  O   UNL     1      -7.703   5.503   7.096  1.00  0.00    -0.237 OA
ATOM     88  O   UNL     1      -8.202   6.777   5.040  1.00  0.00    -0.237 OA
ATOM     89  O   UNL     1      -8.067   4.321   4.968  1.00  0.00    -0.744 OA
ENDBRANCH  85  86
ENDBRANCH  53  78
BRANCH  65  90
ATOM     90  C   UNL     1       2.259   8.425   2.290  1.00  0.00     0.058 A 
ATOM     91  C   UNL     1       2.690   7.250   2.947  1.00  0.00     0.135 A 
ATOM     92  C   UNL     1       3.101   9.538   2.396  1.00  0.00     0.135 A 
ATOM     93  F   UNL     1       2.003   6.104   2.836  1.00  0.00    -0.206 F 
ATOM     94  C   UNL     1       3.884   7.204   3.690  1.00  0.00     0.059 A 
ATOM     95  C   UNL     1       4.299   9.509   3.102  1.00  0.00     0.059 A 
ATOM     96  F   UNL     1       2.783  10.676   1.758  1.00  0.00    -0.206 F 
ATOM     97  C   UNL     1       4.680   8.347   3.764  1.00  0.00     0.060 A 
BRANCH  97  98
ATOM     98  S   UNL     1       6.224   8.318   4.707  1.00  0.00     0.124 S 
ATOM     99  O   UNL     1       5.752   8.102   6.071  1.00  0.00    -0.237 OA
ATOM    100  O   UNL     1       6.945   7.200   4.102  1.00  0.00    -0.237 OA
ATOM    101  O   UNL     1       6.806   9.634   4.453  1.00  0.00    -0.744 OA
ENDBRANCH  97  98
ENDBRANCH  65  90
ENDBRANCH  39  40
ENDBRANCH  32  34
ENDBRANCH  31  32
ENDBRANCH  30  31
ENDBRANCH   1  30
TORSDOF 18
