REMARK SMILES CC(C)(C)OC(=O)N1C[C@H](Oc2ccncc2)C[C@H]1C(=O)OCCOC(=O)c1ccc(-c2c3nc(c(-c4c(F)cc(S(=O)(=O)[O-])cc4F)c4ccc([nH]4)c(-c4c(F)cc(S(=O)(=O)[O-])cc4F)c4nc(c(-c5c(F)cc(S(=O)(=O)[O-])cc5F)c5ccc2[nH]5)C=C4)C=C3)cc1
REMARK SMILES IDX 23 1 22 2 20 3 21 4 19 5 8 6 9 7 10 8 18 9 6 10 7 11 5 12
REMARK SMILES IDX 2 13 1 14 3 15 4 16 11 17 12 18 13 19 17 20 14 21 16 22
REMARK SMILES IDX 15 23 24 24 25 25 26 26 27 27 28 28 29 29 93 30 30 31 92 32
REMARK SMILES IDX 31 33 32 34 33 35 86 36 34 37 91 38 85 39 87 40 35 41 90 42
REMARK SMILES IDX 84 43 83 44 36 46 70 47 49 48 69 49 50 50 53 51 68 52 88 53
REMARK SMILES IDX 51 54 52 55 67 57 89 58 54 59 37 60 38 61 47 62 39 63 40 64
REMARK SMILES IDX 46 65 48 66 41 67 42 68 43 69 44 70 45 71 71 72 72 73 81 74
REMARK SMILES IDX 73 75 74 76 80 77 82 78 75 79 76 80 77 81 78 82 79 83 55 84
REMARK SMILES IDX 56 85 65 86 57 87 58 88 64 89 66 90 59 91 60 92 61 93 62 94
REMARK SMILES IDX 63 95
REMARK H PARENT 87 45 53 56
REMARK Flexibility Score: inf
ROOT
ATOM      1  C   UNL     1       0.174  -7.742   2.675  1.00  0.00     0.274 C 
ENDROOT
BRANCH   1   2
ATOM      2  O   UNL     1       0.391  -6.698   1.707  1.00  0.00    -0.461 OA
BRANCH   2   3
ATOM      3  C   UNL     1       1.003  -7.065   0.550  1.00  0.00     0.329 C 
ATOM      4  O   UNL     1       1.416  -8.201   0.336  1.00  0.00    -0.250 OA
BRANCH   3   5
ATOM      5  C   UNL     1       0.954  -5.959  -0.527  1.00  0.00     0.202 C 
ATOM      6  N   UNL     1       1.488  -4.649  -0.155  1.00  0.00    -0.291 N 
ATOM      7  C   UNL     1       2.717  -4.357  -0.873  1.00  0.00     0.169 C 
ATOM      8  C   UNL     1       2.618  -5.173  -2.157  1.00  0.00     0.195 C 
ATOM      9  C   UNL     1       1.765  -6.381  -1.776  1.00  0.00     0.084 C 
BRANCH   6  10
ATOM     10  C   UNL     1       0.754  -3.742   0.574  1.00  0.00     0.411 C 
ATOM     11  O   UNL     1      -0.241  -4.024   1.214  1.00  0.00    -0.224 OA
BRANCH  10  12
ATOM     12  O   UNL     1       1.260  -2.487   0.451  1.00  0.00    -0.444 OA
BRANCH  12  13
ATOM     13  C   UNL     1       0.658  -1.346   1.115  1.00  0.00     0.106 C 
ATOM     14  C   UNL     1       1.242  -0.125   0.387  1.00  0.00     0.056 C 
ATOM     15  C   UNL     1       1.114  -1.335   2.574  1.00  0.00     0.056 C 
ATOM     16  C   UNL     1      -0.871  -1.277   1.002  1.00  0.00     0.056 C 
ENDBRANCH  12  13
ENDBRANCH  10  12
ENDBRANCH   6  10
BRANCH   8  17
ATOM     17  O   UNL     1       2.192  -4.460  -3.330  1.00  0.00    -0.488 OA
BRANCH  17  18
ATOM     18  C   UNL     1       0.927  -3.951  -3.348  1.00  0.00     0.122 A 
ATOM     19  C   UNL     1       0.666  -2.697  -2.816  1.00  0.00     0.066 A 
ATOM     20  C   UNL     1      -0.063  -4.616  -4.060  1.00  0.00     0.066 A 
ATOM     21  C   UNL     1      -0.615  -2.192  -2.943  1.00  0.00     0.115 A 
ATOM     22  C   UNL     1      -1.312  -4.025  -4.140  1.00  0.00     0.115 A 
ATOM     23  N   UNL     1      -1.614  -2.831  -3.584  1.00  0.00    -0.264 NA
ENDBRANCH  17  18
ENDBRANCH   8  17
ENDBRANCH   3   5
ENDBRANCH   2   3
ENDBRANCH   1   2
BRANCH   1  24
ATOM     24  C   UNL     1      -1.210  -8.394   2.538  1.00  0.00     0.275 C 
BRANCH  24  25
ATOM     25  O   UNL     1      -1.315  -9.216   1.357  1.00  0.00    -0.458 OA
BRANCH  25  26
ATOM     26  C   UNL     1      -1.848  -8.596   0.277  1.00  0.00     0.338 C 
ATOM     27  O   UNL     1      -2.276  -7.454   0.230  1.00  0.00    -0.246 OA
BRANCH  26  28
ATOM     28  C   UNL     1      -1.683  -9.419  -0.936  1.00  0.00     0.060 A 
ATOM     29  C   UNL     1      -1.088  -8.798  -2.037  1.00  0.00     0.016 A 
ATOM     30  C   UNL     1      -2.150 -10.730  -1.040  1.00  0.00     0.016 A 
ATOM     31  C   UNL     1      -0.930  -9.480  -3.238  1.00  0.00     0.010 A 
ATOM     32  C   UNL     1      -2.017 -11.411  -2.260  1.00  0.00     0.010 A 
ATOM     33  C   UNL     1      -1.409 -10.788  -3.365  1.00  0.00    -0.014 A 
BRANCH  33  34
ATOM     34  C   UNL     1      -1.338 -11.444  -4.694  1.00  0.00     0.031 A 
ATOM     35  C   UNL     1      -2.560 -11.481  -5.568  1.00  0.00     0.074 A 
ATOM     36  C   UNL     1      -0.164 -11.920  -5.150  1.00  0.00     0.049 A 
ATOM     37  N   UNL     1      -2.715 -12.022  -6.749  1.00  0.00    -0.248 NA
ATOM     38  C   UNL     1      -3.762 -10.808  -5.051  1.00  0.00     0.031 C 
ATOM     39  C   UNL     1       1.105 -11.876  -4.423  1.00  0.00     0.029 A 
ATOM     40  N   UNL     1       0.154 -12.528  -6.340  1.00  0.00    -0.354 N 
ATOM     41  C   UNL     1      -4.028 -11.756  -7.118  1.00  0.00     0.074 A 
ATOM     42  C   UNL     1      -4.635 -11.025  -6.026  1.00  0.00     0.031 C 
ATOM     43  C   UNL     1       2.063 -12.439  -5.180  1.00  0.00     0.029 A 
ATOM     44  C   UNL     1       1.470 -12.916  -6.427  1.00  0.00     0.049 A 
ATOM     45  H   UNL     1      -0.499 -12.672  -7.062  1.00  0.00     0.167 HD
ATOM     46  C   UNL     1      -4.665 -12.084  -8.267  1.00  0.00     0.037 A 
ATOM     47  C   UNL     1       2.115 -13.603  -7.391  1.00  0.00     0.037 A 
ATOM     48  C   UNL     1      -4.060 -12.815  -9.350  1.00  0.00     0.049 A 
ATOM     49  C   UNL     1       1.358 -14.030  -8.622  1.00  0.00     0.074 A 
ATOM     50  C   UNL     1      -4.639 -13.236 -10.535  1.00  0.00     0.029 A 
ATOM     51  N   UNL     1      -2.736 -13.225  -9.385  1.00  0.00    -0.354 N 
ATOM     52  N   UNL     1       0.106 -13.804  -8.941  1.00  0.00    -0.248 NA
ATOM     53  C   UNL     1       2.101 -14.808  -9.625  1.00  0.00     0.031 C 
ATOM     54  C   UNL     1      -3.672 -13.926 -11.274  1.00  0.00     0.029 A 
ATOM     55  C   UNL     1      -2.481 -13.899 -10.568  1.00  0.00     0.049 A 
ATOM     56  H   UNL     1      -2.075 -13.062  -8.675  1.00  0.00     0.167 HD
ATOM     57  C   UNL     1      -0.081 -14.390 -10.188  1.00  0.00     0.074 A 
ATOM     58  C   UNL     1       1.189 -14.968 -10.574  1.00  0.00     0.031 C 
ATOM     59  C   UNL     1      -1.204 -14.450 -10.945  1.00  0.00     0.037 A 
BRANCH  46  60
ATOM     60  C   UNL     1      -6.101 -11.667  -8.409  1.00  0.00     0.058 A 
ATOM     61  C   UNL     1      -6.454 -10.335  -8.674  1.00  0.00     0.135 A 
ATOM     62  C   UNL     1      -7.132 -12.617  -8.332  1.00  0.00     0.135 A 
ATOM     63  F   UNL     1      -5.508  -9.385  -8.737  1.00  0.00    -0.206 F 
ATOM     64  C   UNL     1      -7.782  -9.956  -8.846  1.00  0.00     0.059 A 
ATOM     65  C   UNL     1      -8.465 -12.264  -8.523  1.00  0.00     0.059 A 
ATOM     66  F   UNL     1      -6.848 -13.904  -8.078  1.00  0.00    -0.206 F 
ATOM     67  C   UNL     1      -8.780 -10.929  -8.770  1.00  0.00     0.060 A 
BRANCH  67  68
ATOM     68  S   UNL     1     -10.496 -10.425  -9.018  1.00  0.00     0.124 S 
ATOM     69  O   UNL     1     -10.777  -9.725  -7.768  1.00  0.00    -0.237 OA
ATOM     70  O   UNL     1     -10.408  -9.587 -10.209  1.00  0.00    -0.237 OA
ATOM     71  O   UNL     1     -11.200 -11.692  -9.198  1.00  0.00    -0.744 OA
ENDBRANCH  67  68
ENDBRANCH  46  60
BRANCH  47  72
ATOM     72  C   UNL     1       3.545 -13.976  -7.220  1.00  0.00     0.058 A 
ATOM     73  C   UNL     1       4.545 -13.432  -8.039  1.00  0.00     0.135 A 
ATOM     74  C   UNL     1       3.932 -14.924  -6.259  1.00  0.00     0.135 A 
ATOM     75  F   UNL     1       4.225 -12.530  -8.979  1.00  0.00    -0.206 F 
ATOM     76  C   UNL     1       5.873 -13.837  -7.936  1.00  0.00     0.059 A 
ATOM     77  C   UNL     1       5.256 -15.324  -6.118  1.00  0.00     0.059 A 
ATOM     78  F   UNL     1       3.016 -15.467  -5.443  1.00  0.00    -0.206 F 
ATOM     79  C   UNL     1       6.217 -14.790  -6.975  1.00  0.00     0.060 A 
BRANCH  79  80
ATOM     80  S   UNL     1       7.941 -15.310  -6.839  1.00  0.00     0.124 S 
ATOM     81  O   UNL     1       8.060 -16.222  -7.971  1.00  0.00    -0.237 OA
ATOM     82  O   UNL     1       8.658 -14.045  -6.959  1.00  0.00    -0.237 OA
ATOM     83  O   UNL     1       7.998 -15.930  -5.518  1.00  0.00    -0.744 OA
ENDBRANCH  79  80
ENDBRANCH  47  72
BRANCH  59  84
ATOM     84  C   UNL     1      -1.102 -15.124 -12.285  1.00  0.00     0.058 A 
ATOM     85  C   UNL     1      -1.023 -16.519 -12.403  1.00  0.00     0.135 A 
ATOM     86  C   UNL     1      -1.134 -14.364 -13.466  1.00  0.00     0.135 A 
ATOM     87  F   UNL     1      -0.983 -17.289 -11.304  1.00  0.00    -0.206 F 
ATOM     88  C   UNL     1      -0.958 -17.140 -13.647  1.00  0.00     0.059 A 
ATOM     89  C   UNL     1      -1.094 -14.965 -14.720  1.00  0.00     0.059 A 
ATOM     90  F   UNL     1      -1.219 -13.026 -13.407  1.00  0.00    -0.206 F 
ATOM     91  C   UNL     1      -0.994 -16.353 -14.800  1.00  0.00     0.060 A 
BRANCH  91  92
ATOM     92  S   UNL     1      -0.945 -17.171 -16.410  1.00  0.00     0.124 S 
ATOM     93  O   UNL     1       0.465 -17.532 -16.512  1.00  0.00    -0.237 OA
ATOM     94  O   UNL     1      -1.872 -18.283 -16.227  1.00  0.00    -0.237 OA
ATOM     95  O   UNL     1      -1.396 -16.132 -17.331  1.00  0.00    -0.744 OA
ENDBRANCH  91  92
ENDBRANCH  59  84
ENDBRANCH  33  34
ENDBRANCH  26  28
ENDBRANCH  25  26
ENDBRANCH  24  25
ENDBRANCH   1  24
TORSDOF 19
