REMARK SMILES COC(=O)c1ccc(C[N@@H+](CC(=O)OCCOC(=O)c2ccc(-c3c4nc(c(-c5c(F)cc(S(=O)(=O)[O-])cc5F)c5ccc([nH]5)c(-c5c(F)cc(S(=O)(=O)[O-])cc5F)c5nc(c(-c6c(F)cc(S(=O)(=O)[O-])cc6F)c6ccc3[nH]6)C=C5)C=C4)cc2)C(C)(C)C)cc1
REMARK SMILES IDX 15 1 14 2 12 3 13 4 11 5 10 6 9 8 8 9 5 10 6 11 91 12 7 13
REMARK SMILES IDX 90 14 3 15 4 16 2 17 1 18 86 19 87 20 88 21 89 22 16 23
REMARK SMILES IDX 17 24 18 25 19 26 20 27 21 28 85 29 22 30 84 31 23 32 24 33
REMARK SMILES IDX 25 34 78 35 26 36 83 37 77 38 79 39 27 40 82 41 76 42 75 43
REMARK SMILES IDX 28 45 62 46 41 47 61 48 42 49 45 50 60 51 80 52 43 53 44 54
REMARK SMILES IDX 59 56 81 57 46 58 29 59 30 60 39 61 31 62 32 63 38 64 40 65
REMARK SMILES IDX 33 66 34 67 35 68 36 69 37 70 63 71 64 72 73 73 65 74 66 75
REMARK SMILES IDX 72 76 74 77 67 78 68 79 69 80 70 81 71 82 47 83 48 84 57 85
REMARK SMILES IDX 49 86 50 87 56 88 58 89 51 90 52 91 53 92 54 93 55 94
REMARK H PARENT 10 7 79 44 45 55
REMARK Flexibility Score: inf
ROOT
ATOM      1  C   UNL     1      -4.515   2.127  -9.488  1.00  0.00     0.274 C 
ENDROOT
BRANCH   1   2
ATOM      2  O   UNL     1      -3.260   2.446  -8.830  1.00  0.00    -0.458 OA
BRANCH   2   3
ATOM      3  C   UNL     1      -2.350   3.160  -9.543  1.00  0.00     0.361 C 
ATOM      4  O   UNL     1      -2.471   3.371 -10.750  1.00  0.00    -0.245 OA
BRANCH   3   5
ATOM      5  C   UNL     1      -1.117   3.683  -8.786  1.00  0.00     0.387 C 
BRANCH   5   6
ATOM      6  N   UNL     1      -0.960   3.493  -7.319  1.00  0.00    -0.318 N 
ATOM      7  H   UNL     1      -0.009   3.781  -7.089  1.00  0.00     0.349 HD
BRANCH   6   8
ATOM      8  C   UNL     1      -1.017   2.068  -6.973  1.00  0.00     0.299 C 
BRANCH   8   9
ATOM      9  C   UNL     1      -0.358   1.690  -5.672  1.00  0.00     0.006 A 
ATOM     10  C   UNL     1       0.754   1.248  -3.147  1.00  0.00     0.060 A 
ATOM     11  C   UNL     1       1.550   1.759  -4.179  1.00  0.00     0.016 A 
ATOM     12  C   UNL     1      -0.585   0.917  -3.389  1.00  0.00     0.016 A 
ATOM     13  C   UNL     1       1.002   1.953  -5.447  1.00  0.00     0.010 A 
ATOM     14  C   UNL     1      -1.137   1.136  -4.647  1.00  0.00     0.010 A 
BRANCH  10  15
ATOM     15  C   UNL     1       1.351   1.117  -1.794  1.00  0.00     0.337 C 
ATOM     16  O   UNL     1       2.332   1.719  -1.419  1.00  0.00    -0.246 OA
BRANCH  15  17
ATOM     17  O   UNL     1       0.646   0.195  -1.084  1.00  0.00    -0.465 OA
ATOM     18  C   UNL     1       1.148  -0.035   0.229  1.00  0.00     0.282 C 
ENDBRANCH  15  17
ENDBRANCH  10  15
ENDBRANCH   8   9
ENDBRANCH   6   8
BRANCH   6  19
ATOM     19  C   UNL     1      -1.470   4.536  -6.370  1.00  0.00     0.090 C 
ATOM     20  C   UNL     1      -2.830   4.211  -5.694  1.00  0.00     0.078 C 
ATOM     21  C   UNL     1      -0.466   4.750  -5.199  1.00  0.00     0.078 C 
ATOM     22  C   UNL     1      -1.512   5.959  -6.995  1.00  0.00     0.078 C 
ENDBRANCH   6  19
ENDBRANCH   5   6
ENDBRANCH   3   5
ENDBRANCH   2   3
ENDBRANCH   1   2
BRANCH   1  23
ATOM     23  C   UNL     1      -5.700   2.920  -8.899  1.00  0.00     0.275 C 
BRANCH  23  24
ATOM     24  O   UNL     1      -5.795   4.266  -9.428  1.00  0.00    -0.458 OA
BRANCH  24  25
ATOM     25  C   UNL     1      -4.889   5.078  -8.856  1.00  0.00     0.338 C 
ATOM     26  O   UNL     1      -4.091   4.734  -8.004  1.00  0.00    -0.246 OA
BRANCH  25  27
ATOM     27  C   UNL     1      -4.820   6.459  -9.305  1.00  0.00     0.060 A 
ATOM     28  C   UNL     1      -3.612   6.854  -9.889  1.00  0.00     0.016 A 
ATOM     29  C   UNL     1      -5.708   7.398  -8.781  1.00  0.00     0.016 A 
ATOM     30  C   UNL     1      -3.269   8.198  -9.913  1.00  0.00     0.010 A 
ATOM     31  C   UNL     1      -5.398   8.756  -8.883  1.00  0.00     0.010 A 
ATOM     32  C   UNL     1      -4.178   9.163  -9.450  1.00  0.00    -0.014 A 
BRANCH  32  33
ATOM     33  C   UNL     1      -3.912  10.594  -9.718  1.00  0.00     0.031 A 
ATOM     34  C   UNL     1      -3.689  11.586  -8.617  1.00  0.00     0.074 A 
ATOM     35  C   UNL     1      -3.916  10.979 -11.009  1.00  0.00     0.049 A 
ATOM     36  N   UNL     1      -3.597  12.888  -8.695  1.00  0.00    -0.248 NA
ATOM     37  C   UNL     1      -3.560  11.054  -7.252  1.00  0.00     0.031 C 
ATOM     38  C   UNL     1      -4.109  10.077 -12.151  1.00  0.00     0.029 A 
ATOM     39  N   UNL     1      -3.764  12.210 -11.584  1.00  0.00    -0.354 N 
ATOM     40  C   UNL     1      -3.429  13.341  -7.392  1.00  0.00     0.074 A 
ATOM     41  C   UNL     1      -3.433  12.169  -6.540  1.00  0.00     0.031 C 
ATOM     42  C   UNL     1      -4.044  10.780 -13.286  1.00  0.00     0.029 A 
ATOM     43  C   UNL     1      -3.897  12.189 -12.951  1.00  0.00     0.049 A 
ATOM     44  H   UNL     1      -3.578  13.030 -11.070  1.00  0.00     0.167 HD
ATOM     45  C   UNL     1      -3.295  14.620  -6.961  1.00  0.00     0.037 A 
ATOM     46  C   UNL     1      -3.953  13.194 -13.841  1.00  0.00     0.037 A 
ATOM     47  C   UNL     1      -3.291  15.765  -7.841  1.00  0.00     0.049 A 
ATOM     48  C   UNL     1      -3.839  14.597 -13.336  1.00  0.00     0.074 A 
ATOM     49  C   UNL     1      -3.152  17.104  -7.518  1.00  0.00     0.029 A 
ATOM     50  N   UNL     1      -3.437  15.705  -9.223  1.00  0.00    -0.354 N 
ATOM     51  N   UNL     1      -3.702  15.013 -12.099  1.00  0.00    -0.248 NA
ATOM     52  C   UNL     1      -3.895  15.666 -14.337  1.00  0.00     0.031 C 
ATOM     53  C   UNL     1      -3.256  17.854  -8.696  1.00  0.00     0.029 A 
ATOM     54  C   UNL     1      -3.410  16.982  -9.762  1.00  0.00     0.049 A 
ATOM     55  H   UNL     1      -3.543  14.876  -9.742  1.00  0.00     0.167 HD
ATOM     56  C   UNL     1      -3.646  16.397 -12.171  1.00  0.00     0.074 A 
ATOM     57  C   UNL     1      -3.747  16.743 -13.577  1.00  0.00     0.031 C 
ATOM     58  C   UNL     1      -3.524  17.299 -11.166  1.00  0.00     0.037 A 
BRANCH  45  59
ATOM     59  C   UNL     1      -3.189  14.855  -5.476  1.00  0.00     0.058 A 
ATOM     60  C   UNL     1      -2.039  14.513  -4.746  1.00  0.00     0.135 A 
ATOM     61  C   UNL     1      -4.248  15.457  -4.775  1.00  0.00     0.135 A 
ATOM     62  F   UNL     1      -0.998  13.928  -5.360  1.00  0.00    -0.206 F 
ATOM     63  C   UNL     1      -1.957  14.726  -3.372  1.00  0.00     0.059 A 
ATOM     64  C   UNL     1      -4.178  15.701  -3.405  1.00  0.00     0.059 A 
ATOM     65  F   UNL     1      -5.370  15.811  -5.420  1.00  0.00    -0.206 F 
ATOM     66  C   UNL     1      -3.035  15.314  -2.708  1.00  0.00     0.060 A 
BRANCH  66  67
ATOM     67  S   UNL     1      -2.927  15.560  -0.922  1.00  0.00     0.124 S 
ATOM     68  O   UNL     1      -3.108  14.198  -0.429  1.00  0.00    -0.237 OA
ATOM     69  O   UNL     1      -1.589  16.119  -0.760  1.00  0.00    -0.237 OA
ATOM     70  O   UNL     1      -4.025  16.479  -0.638  1.00  0.00    -0.744 OA
ENDBRANCH  66  67
ENDBRANCH  45  59
BRANCH  46  71
ATOM     71  C   UNL     1      -4.156  12.877 -15.276  1.00  0.00     0.058 A 
ATOM     72  C   UNL     1      -3.108  13.003 -16.196  1.00  0.00     0.135 A 
ATOM     73  C   UNL     1      -5.373  12.343 -15.733  1.00  0.00     0.135 A 
ATOM     74  F   UNL     1      -1.927  13.504 -15.803  1.00  0.00    -0.206 F 
ATOM     75  C   UNL     1      -3.255  12.607 -17.521  1.00  0.00     0.059 A 
ATOM     76  C   UNL     1      -5.535  11.915 -17.046  1.00  0.00     0.059 A 
ATOM     77  F   UNL     1      -6.397  12.177 -14.881  1.00  0.00    -0.206 F 
ATOM     78  C   UNL     1      -4.470  12.056 -17.934  1.00  0.00     0.060 A 
BRANCH  78  79
ATOM     79  S   UNL     1      -4.623  11.465 -19.633  1.00  0.00     0.124 S 
ATOM     80  O   UNL     1      -4.738  12.718 -20.369  1.00  0.00    -0.237 OA
ATOM     81  O   UNL     1      -3.376  10.728 -19.816  1.00  0.00    -0.237 OA
ATOM     82  O   UNL     1      -5.827  10.641 -19.595  1.00  0.00    -0.744 OA
ENDBRANCH  78  79
ENDBRANCH  46  71
BRANCH  58  83
ATOM     83  C   UNL     1      -3.471  18.744 -11.566  1.00  0.00     0.058 A 
ATOM     84  C   UNL     1      -4.619  19.431 -11.990  1.00  0.00     0.135 A 
ATOM     85  C   UNL     1      -2.262  19.454 -11.505  1.00  0.00     0.135 A 
ATOM     86  F   UNL     1      -5.796  18.792 -12.080  1.00  0.00    -0.206 F 
ATOM     87  C   UNL     1      -4.564  20.770 -12.364  1.00  0.00     0.059 A 
ATOM     88  C   UNL     1      -2.189  20.799 -11.849  1.00  0.00     0.059 A 
ATOM     89  F   UNL     1      -1.138  18.840 -11.102  1.00  0.00    -0.206 F 
ATOM     90  C   UNL     1      -3.344  21.445 -12.290  1.00  0.00     0.060 A 
BRANCH  90  91
ATOM     91  S   UNL     1      -3.290  23.188 -12.751  1.00  0.00     0.124 S 
ATOM     92  O   UNL     1      -3.354  23.108 -14.207  1.00  0.00    -0.237 OA
ATOM     93  O   UNL     1      -4.478  23.724 -12.092  1.00  0.00    -0.237 OA
ATOM     94  O   UNL     1      -2.017  23.645 -12.201  1.00  0.00    -0.744 OA
ENDBRANCH  90  91
ENDBRANCH  58  83
ENDBRANCH  32  33
ENDBRANCH  25  27
ENDBRANCH  24  25
ENDBRANCH  23  24
ENDBRANCH   1  23
TORSDOF 20
