REMARK SMILES C[C@H](C(=O)Nc1ccc(C(F)(F)F)cc1)n1nc(C(=O)OCCOC(=O)c2ccc(-c3c4nc(c(-c5c(F)cc(S(=O)(=O)[O-])cc5F)c5ccc([nH]5)c(-c5c(F)cc(S(=O)(=O)[O-])cc5F)c5nc(c(-c6c(F)cc(S(=O)(=O)[O-])cc6F)c6ccc3[nH]6)C=C5)C=C4)cc2)c2ccccc2c1=O
REMARK SMILES IDX 22 1 21 2 19 3 20 4 18 5 16 6 17 7 99 8 98 9 100 10 93 11
REMARK SMILES IDX 97 12 94 13 96 14 95 15 2 16 1 17 3 18 4 19 5 20 6 22 7 23
REMARK SMILES IDX 15 24 8 25 14 26 9 27 10 28 11 29 12 30 13 31 23 32 24 33
REMARK SMILES IDX 25 34 26 35 27 36 28 37 92 38 29 39 91 40 30 41 31 42 32 43
REMARK SMILES IDX 85 44 33 45 90 46 84 47 86 48 34 49 89 50 83 51 82 52 35 54
REMARK SMILES IDX 69 55 48 56 68 57 49 58 52 59 67 60 87 61 50 62 51 63 66 65
REMARK SMILES IDX 88 66 53 67 36 68 37 69 46 70 38 71 39 72 45 73 47 74 40 75
REMARK SMILES IDX 41 76 42 77 43 78 44 79 70 80 71 81 80 82 72 83 73 84 79 85
REMARK SMILES IDX 81 86 74 87 75 88 76 89 77 90 78 91 54 92 55 93 64 94 56 95
REMARK SMILES IDX 57 96 63 97 65 98 58 99 59 100 60 101 61 102 62 103
REMARK H PARENT 5 21 86 53 52 64
REMARK Flexibility Score: inf
ROOT
ATOM      1  C   UNL     1      -4.114   0.445  -3.601  1.00  0.00     0.275 C 
ENDROOT
BRANCH   1   2
ATOM      2  O   UNL     1      -3.388  -0.551  -2.863  1.00  0.00    -0.457 OA
BRANCH   2   3
ATOM      3  C   UNL     1      -3.719  -0.644  -1.562  1.00  0.00     0.359 C 
ATOM      4  O   UNL     1      -4.500   0.075  -0.961  1.00  0.00    -0.244 OA
BRANCH   3   5
ATOM      5  C   UNL     1      -2.772  -1.555  -0.792  1.00  0.00     0.176 A 
ATOM      6  N   UNL     1      -0.697  -0.977  -0.133  1.00  0.00    -0.216 N 
ATOM      7  N   UNL     1      -1.534  -1.419  -1.142  1.00  0.00    -0.161 NA
ATOM      8  C   UNL     1      -1.208  -0.570   1.119  1.00  0.00     0.275 A 
ATOM      9  C   UNL     1      -2.447  -1.258   1.541  1.00  0.00     0.051 A 
ATOM     10  O   UNL     1      -0.713   0.260   1.870  1.00  0.00    -0.267 OA
ATOM     11  C   UNL     1      -3.144  -1.949   0.567  1.00  0.00     0.022 A 
ATOM     12  C   UNL     1      -2.865  -1.317   2.871  1.00  0.00     0.014 A 
ATOM     13  C   UNL     1      -4.114  -2.886   0.908  1.00  0.00     0.011 A 
ATOM     14  C   UNL     1      -3.904  -2.182   3.221  1.00  0.00     0.001 A 
ATOM     15  C   UNL     1      -4.486  -3.006   2.252  1.00  0.00     0.001 A 
BRANCH   6  16
ATOM     16  C   UNL     1       0.636  -0.622  -0.638  1.00  0.00     0.197 C 
ATOM     17  C   UNL     1       1.439  -1.891  -0.930  1.00  0.00     0.044 C 
BRANCH  16  18
ATOM     18  C   UNL     1       1.419   0.344   0.244  1.00  0.00     0.249 C 
ATOM     19  O   UNL     1       2.161  -0.069   1.144  1.00  0.00    -0.272 OA
ATOM     20  N   UNL     1       1.357   1.698   0.042  1.00  0.00    -0.324 N 
ATOM     21  H   UNL     1       1.917   2.211   0.668  1.00  0.00     0.170 HD
BRANCH  20  22
ATOM     22  C   UNL     1       0.661   2.510  -0.873  1.00  0.00     0.041 A 
ATOM     23  C   UNL     1       1.227   3.761  -1.135  1.00  0.00     0.027 A 
ATOM     24  C   UNL     1      -0.521   2.172  -1.530  1.00  0.00     0.027 A 
ATOM     25  C   UNL     1       0.691   4.605  -2.115  1.00  0.00     0.015 A 
ATOM     26  C   UNL     1      -1.068   3.015  -2.508  1.00  0.00     0.015 A 
ATOM     27  C   UNL     1      -0.448   4.226  -2.835  1.00  0.00     0.056 A 
BRANCH  27  28
ATOM     28  C   UNL     1      -0.981   5.109  -3.935  1.00  0.00     0.416 C 
ATOM     29  F   UNL     1      -1.409   6.318  -3.480  1.00  0.00    -0.166 F 
ATOM     30  F   UNL     1      -0.036   5.381  -4.880  1.00  0.00    -0.166 F 
ATOM     31  F   UNL     1      -2.032   4.567  -4.612  1.00  0.00    -0.166 F 
ENDBRANCH  27  28
ENDBRANCH  20  22
ENDBRANCH  16  18
ENDBRANCH   6  16
ENDBRANCH   3   5
ENDBRANCH   2   3
ENDBRANCH   1   2
BRANCH   1  32
ATOM     32  C   UNL     1      -5.247  -0.209  -4.386  1.00  0.00     0.275 C 
BRANCH  32  33
ATOM     33  O   UNL     1      -6.288  -0.682  -3.506  1.00  0.00    -0.458 OA
BRANCH  33  34
ATOM     34  C   UNL     1      -6.131  -1.951  -3.073  1.00  0.00     0.338 C 
ATOM     35  O   UNL     1      -5.224  -2.724  -3.357  1.00  0.00    -0.246 OA
BRANCH  34  36
ATOM     36  C   UNL     1      -7.133  -2.295  -2.061  1.00  0.00     0.060 A 
ATOM     37  C   UNL     1      -6.838  -2.027  -0.730  1.00  0.00     0.016 A 
ATOM     38  C   UNL     1      -8.217  -3.105  -2.384  1.00  0.00     0.016 A 
ATOM     39  C   UNL     1      -7.525  -2.676   0.283  1.00  0.00     0.010 A 
ATOM     40  C   UNL     1      -8.980  -3.672  -1.353  1.00  0.00     0.010 A 
ATOM     41  C   UNL     1      -8.604  -3.511  -0.006  1.00  0.00    -0.014 A 
BRANCH  41  42
ATOM     42  C   UNL     1      -9.252  -4.272   1.098  1.00  0.00     0.031 A 
ATOM     43  C   UNL     1      -9.312  -5.778   1.033  1.00  0.00     0.074 A 
ATOM     44  C   UNL     1      -9.698  -3.639   2.204  1.00  0.00     0.049 A 
ATOM     45  N   UNL     1      -9.997  -6.610   1.773  1.00  0.00    -0.248 NA
ATOM     46  C   UNL     1      -8.491  -6.433   0.000  1.00  0.00     0.031 C 
ATOM     47  C   UNL     1      -9.596  -2.200   2.463  1.00  0.00     0.029 A 
ATOM     48  N   UNL     1     -10.317  -4.128   3.329  1.00  0.00    -0.354 N 
ATOM     49  C   UNL     1      -9.731  -7.879   1.267  1.00  0.00     0.074 A 
ATOM     50  C   UNL     1      -8.826  -7.707   0.152  1.00  0.00     0.031 C 
ATOM     51  C   UNL     1     -10.095  -1.930   3.678  1.00  0.00     0.029 A 
ATOM     52  C   UNL     1     -10.673  -3.148   4.227  1.00  0.00     0.049 A 
ATOM     53  H   UNL     1     -10.489  -5.086   3.478  1.00  0.00     0.167 HD
ATOM     54  C   UNL     1     -10.203  -9.074   1.696  1.00  0.00     0.037 A 
ATOM     55  C   UNL     1     -11.446  -3.202   5.329  1.00  0.00     0.037 A 
ATOM     56  C   UNL     1     -11.079  -9.230   2.829  1.00  0.00     0.049 A 
ATOM     57  C   UNL     1     -12.050  -4.523   5.723  1.00  0.00     0.074 A 
ATOM     58  C   UNL     1     -11.674 -10.384   3.309  1.00  0.00     0.029 A 
ATOM     59  N   UNL     1     -11.464  -8.202   3.678  1.00  0.00    -0.354 N 
ATOM     60  N   UNL     1     -11.900  -5.698   5.159  1.00  0.00    -0.248 NA
ATOM     61  C   UNL     1     -12.940  -4.522   6.890  1.00  0.00     0.031 C 
ATOM     62  C   UNL     1     -12.449 -10.048   4.423  1.00  0.00     0.029 A 
ATOM     63  C   UNL     1     -12.289  -8.695   4.676  1.00  0.00     0.049 A 
ATOM     64  H   UNL     1     -11.192  -7.261   3.584  1.00  0.00     0.167 HD
ATOM     65  C   UNL     1     -12.653  -6.582   5.924  1.00  0.00     0.074 A 
ATOM     66  C   UNL     1     -13.242  -5.808   6.997  1.00  0.00     0.031 C 
ATOM     67  C   UNL     1     -12.844  -7.914   5.753  1.00  0.00     0.037 A 
BRANCH  54  68
ATOM     68  C   UNL     1      -9.822 -10.303   0.914  1.00  0.00     0.058 A 
ATOM     69  C   UNL     1      -8.528 -10.842   0.954  1.00  0.00     0.135 A 
ATOM     70  C   UNL     1     -10.786 -10.975   0.143  1.00  0.00     0.135 A 
ATOM     71  F   UNL     1      -7.561 -10.228   1.654  1.00  0.00    -0.206 F 
ATOM     72  C   UNL     1      -8.197 -11.995   0.246  1.00  0.00     0.059 A 
ATOM     73  C   UNL     1     -10.486 -12.144  -0.549  1.00  0.00     0.059 A 
ATOM     74  F   UNL     1     -12.039 -10.500   0.064  1.00  0.00    -0.206 F 
ATOM     75  C   UNL     1      -9.185 -12.641  -0.500  1.00  0.00     0.060 A 
BRANCH  75  76
ATOM     76  S   UNL     1      -8.745 -14.143  -1.401  1.00  0.00     0.124 S 
ATOM     77  O   UNL     1      -7.894 -13.608  -2.460  1.00  0.00    -0.237 OA
ATOM     78  O   UNL     1      -8.064 -14.930  -0.378  1.00  0.00    -0.237 OA
ATOM     79  O   UNL     1     -10.034 -14.669  -1.838  1.00  0.00    -0.744 OA
ENDBRANCH  75  76
ENDBRANCH  54  68
BRANCH  55  80
ATOM     80  C   UNL     1     -11.778  -1.957   6.078  1.00  0.00     0.058 A 
ATOM     81  C   UNL     1     -11.391  -1.778   7.414  1.00  0.00     0.135 A 
ATOM     82  C   UNL     1     -12.528  -0.932   5.476  1.00  0.00     0.135 A 
ATOM     83  F   UNL     1     -10.681  -2.729   8.040  1.00  0.00    -0.206 F 
ATOM     84  C   UNL     1     -11.766  -0.649   8.136  1.00  0.00     0.059 A 
ATOM     85  C   UNL     1     -12.878   0.224   6.163  1.00  0.00     0.059 A 
ATOM     86  F   UNL     1     -12.916  -1.042   4.195  1.00  0.00    -0.206 F 
ATOM     87  C   UNL     1     -12.513   0.345   7.502  1.00  0.00     0.060 A 
BRANCH  87  88
ATOM     88  S   UNL     1     -13.000   1.806   8.444  1.00  0.00     0.124 S 
ATOM     89  O   UNL     1     -14.045   1.262   9.303  1.00  0.00    -0.237 OA
ATOM     90  O   UNL     1     -11.753   2.174   9.106  1.00  0.00    -0.237 OA
ATOM     91  O   UNL     1     -13.451   2.735   7.411  1.00  0.00    -0.744 OA
ENDBRANCH  87  88
ENDBRANCH  55  80
BRANCH  67  92
ATOM     92  C   UNL     1     -13.657  -8.631   6.794  1.00  0.00     0.058 A 
ATOM     93  C   UNL     1     -15.044  -8.450   6.916  1.00  0.00     0.135 A 
ATOM     94  C   UNL     1     -13.034  -9.534   7.672  1.00  0.00     0.135 A 
ATOM     95  F   UNL     1     -15.687  -7.594   6.106  1.00  0.00    -0.206 F 
ATOM     96  C   UNL     1     -15.778  -9.109   7.896  1.00  0.00     0.059 A 
ATOM     97  C   UNL     1     -13.755 -10.229   8.637  1.00  0.00     0.059 A 
ATOM     98  F   UNL     1     -11.712  -9.753   7.592  1.00  0.00    -0.206 F 
ATOM     99  C   UNL     1     -15.124  -9.996   8.753  1.00  0.00     0.060 A 
BRANCH  99 100
ATOM    100  S   UNL     1     -16.090 -10.855  10.012  1.00  0.00     0.124 S 
ATOM    101  O   UNL     1     -16.354  -9.780  10.963  1.00  0.00    -0.237 OA
ATOM    102  O   UNL     1     -17.243 -11.327   9.252  1.00  0.00    -0.237 OA
ATOM    103  O   UNL     1     -15.185 -11.900  10.481  1.00  0.00    -0.744 OA
ENDBRANCH  99 100
ENDBRANCH  67  92
ENDBRANCH  41  42
ENDBRANCH  34  36
ENDBRANCH  33  34
ENDBRANCH  32  33
ENDBRANCH   1  32
TORSDOF 18
