REMARK SMILES O=C(OCCOC(=O)[C@@H]1CCCCC[C@H]1NS(=O)(=O)C(F)F)c1ccc(-c2c3nc(c(-c4c(F)cc(S(=O)(=O)[O-])cc4F)c4ccc([nH]4)c(-c4c(F)cc(S(=O)(=O)[O-])cc4F)c4nc(c(-c5c(F)cc(S(=O)(=O)[O-])cc5F)c5ccc2[nH]5)C=C4)C=C3)cc1
REMARK SMILES IDX 5 1 4 2 3 3 2 4 1 5 23 6 24 7 88 8 25 9 87 10 26 11 27 12
REMARK SMILES IDX 28 13 81 14 29 15 86 16 80 17 82 18 30 19 85 20 79 21 78 22
REMARK SMILES IDX 31 24 65 25 44 26 64 27 45 28 48 29 63 30 83 31 46 32 47 33
REMARK SMILES IDX 62 35 84 36 49 37 32 38 33 39 42 40 34 41 35 42 41 43 43 44
REMARK SMILES IDX 36 45 37 46 38 47 39 48 40 49 66 50 67 51 76 52 68 53 69 54
REMARK SMILES IDX 75 55 77 56 70 57 71 58 72 59 73 60 74 61 50 62 51 63 60 64
REMARK SMILES IDX 52 65 53 66 59 67 61 68 54 69 55 70 56 71 57 72 58 73 6 74
REMARK SMILES IDX 7 75 8 76 9 77 10 78 11 79 15 81 14 82 13 83 12 84 16 86
REMARK SMILES IDX 17 88 18 89 19 90 20 91 21 92 22 93
REMARK H PARENT 82 23 48 34 16 87
REMARK Flexibility Score: 100.00
ROOT
ATOM      1  C   UNL     1       3.772   1.203  -1.803  1.00  0.00     0.274 C 
ENDROOT
BRANCH   1   2
ATOM      2  C   UNL     1       4.022  -0.310  -1.718  1.00  0.00     0.275 C 
BRANCH   2   3
ATOM      3  O   UNL     1       3.213  -1.017  -0.783  1.00  0.00    -0.458 OA
BRANCH   3   4
ATOM      4  C   UNL     1       3.269  -0.958   0.562  1.00  0.00     0.338 C 
ATOM      5  O   UNL     1       2.335  -1.456   1.190  1.00  0.00    -0.246 OA
BRANCH   4   6
ATOM      6  C   UNL     1       4.344  -0.234   1.330  1.00  0.00     0.060 A 
ATOM      7  C   UNL     1       5.577   0.272   0.886  1.00  0.00     0.016 A 
ATOM      8  C   UNL     1       3.994   0.044   2.646  1.00  0.00     0.016 A 
ATOM      9  C   UNL     1       6.362   1.136   1.682  1.00  0.00     0.010 A 
ATOM     10  C   UNL     1       4.726   0.958   3.396  1.00  0.00     0.010 A 
ATOM     11  C   UNL     1       5.924   1.529   2.941  1.00  0.00    -0.014 A 
BRANCH  11  12
ATOM     12  C   UNL     1       6.639   2.475   3.858  1.00  0.00     0.031 A 
ATOM     13  C   UNL     1       6.813   2.043   5.299  1.00  0.00     0.074 A 
ATOM     14  C   UNL     1       6.920   3.756   3.517  1.00  0.00     0.049 A 
ATOM     15  N   UNL     1       7.147   2.747   6.347  1.00  0.00    -0.248 NA
ATOM     16  C   UNL     1       6.484   0.636   5.615  1.00  0.00     0.031 C 
ATOM     17  C   UNL     1       6.736   4.372   2.199  1.00  0.00     0.029 A 
ATOM     18  N   UNL     1       7.328   4.816   4.299  1.00  0.00    -0.354 N 
ATOM     19  C   UNL     1       7.067   1.859   7.411  1.00  0.00     0.074 A 
ATOM     20  C   UNL     1       6.405   0.672   6.933  1.00  0.00     0.031 C 
ATOM     21  C   UNL     1       6.899   5.705   2.295  1.00  0.00     0.029 A 
ATOM     22  C   UNL     1       7.268   6.040   3.664  1.00  0.00     0.049 A 
ATOM     23  H   UNL     1       7.634   4.709   5.229  1.00  0.00     0.167 HD
ATOM     24  C   UNL     1       7.662   1.934   8.623  1.00  0.00     0.037 A 
ATOM     25  C   UNL     1       7.500   7.285   4.132  1.00  0.00     0.037 A 
ATOM     26  C   UNL     1       8.417   3.075   9.043  1.00  0.00     0.049 A 
ATOM     27  C   UNL     1       8.095   7.415   5.511  1.00  0.00     0.074 A 
ATOM     28  C   UNL     1       9.229   3.222  10.149  1.00  0.00     0.029 A 
ATOM     29  N   UNL     1       8.452   4.273   8.346  1.00  0.00    -0.354 N 
ATOM     30  N   UNL     1       8.243   6.496   6.435  1.00  0.00    -0.248 NA
ATOM     31  C   UNL     1       8.662   8.723   5.869  1.00  0.00     0.031 C 
ATOM     32  C   UNL     1       9.733   4.527  10.137  1.00  0.00     0.029 A 
ATOM     33  C   UNL     1       9.268   5.172   9.000  1.00  0.00     0.049 A 
ATOM     34  H   UNL     1       7.967   4.454   7.509  1.00  0.00     0.167 HD
ATOM     35  C   UNL     1       9.027   7.078   7.426  1.00  0.00     0.074 A 
ATOM     36  C   UNL     1       9.269   8.445   7.015  1.00  0.00     0.031 C 
ATOM     37  C   UNL     1       9.541   6.512   8.546  1.00  0.00     0.037 A 
BRANCH  24  38
ATOM     38  C   UNL     1       7.631   0.692   9.471  1.00  0.00     0.058 A 
ATOM     39  C   UNL     1       8.247  -0.497   9.029  1.00  0.00     0.135 A 
ATOM     40  C   UNL     1       6.960   0.659  10.700  1.00  0.00     0.135 A 
ATOM     41  F   UNL     1       8.899  -0.529   7.854  1.00  0.00    -0.206 F 
ATOM     42  C   UNL     1       8.130  -1.687   9.733  1.00  0.00     0.059 A 
ATOM     43  C   UNL     1       6.871  -0.515  11.446  1.00  0.00     0.059 A 
ATOM     44  F   UNL     1       6.362   1.762  11.175  1.00  0.00    -0.206 F 
ATOM     45  C   UNL     1       7.435  -1.687  10.940  1.00  0.00     0.060 A 
BRANCH  45  46
ATOM     46  S   UNL     1       7.287  -3.246  11.834  1.00  0.00     0.124 S 
ATOM     47  O   UNL     1       6.313  -3.960  11.014  1.00  0.00    -0.237 OA
ATOM     48  O   UNL     1       8.652  -3.762  11.788  1.00  0.00    -0.237 OA
ATOM     49  O   UNL     1       6.819  -2.836  13.154  1.00  0.00    -0.744 OA
ENDBRANCH  45  46
ENDBRANCH  24  38
BRANCH  25  50
ATOM     50  C   UNL     1       7.349   8.489   3.264  1.00  0.00     0.058 A 
ATOM     51  C   UNL     1       8.471   9.077   2.657  1.00  0.00     0.135 A 
ATOM     52  C   UNL     1       6.107   9.114   3.068  1.00  0.00     0.135 A 
ATOM     53  F   UNL     1       9.683   8.526   2.822  1.00  0.00    -0.206 F 
ATOM     54  C   UNL     1       8.377  10.254   1.919  1.00  0.00     0.059 A 
ATOM     55  C   UNL     1       5.985  10.288   2.320  1.00  0.00     0.059 A 
ATOM     56  F   UNL     1       4.998   8.594   3.615  1.00  0.00    -0.206 F 
ATOM     57  C   UNL     1       7.128  10.855   1.757  1.00  0.00     0.060 A 
BRANCH  57  58
ATOM     58  S   UNL     1       7.031  12.377   0.783  1.00  0.00     0.124 S 
ATOM     59  O   UNL     1       7.772  13.315   1.619  1.00  0.00    -0.237 OA
ATOM     60  O   UNL     1       7.684  11.979  -0.461  1.00  0.00    -0.237 OA
ATOM     61  O   UNL     1       5.596  12.621   0.680  1.00  0.00    -0.744 OA
ENDBRANCH  57  58
ENDBRANCH  25  50
BRANCH  37  62
ATOM     62  C   UNL     1      10.526   7.314   9.343  1.00  0.00     0.058 A 
ATOM     63  C   UNL     1      10.142   8.407  10.129  1.00  0.00     0.135 A 
ATOM     64  C   UNL     1      11.875   6.919   9.370  1.00  0.00     0.135 A 
ATOM     65  F   UNL     1       8.867   8.826  10.130  1.00  0.00    -0.206 F 
ATOM     66  C   UNL     1      11.068   9.098  10.902  1.00  0.00     0.059 A 
ATOM     67  C   UNL     1      12.809   7.572  10.164  1.00  0.00     0.059 A 
ATOM     68  F   UNL     1      12.290   5.869   8.642  1.00  0.00    -0.206 F 
ATOM     69  C   UNL     1      12.397   8.668  10.918  1.00  0.00     0.060 A 
BRANCH  69  70
ATOM     70  S   UNL     1      13.576   9.540  11.967  1.00  0.00     0.124 S 
ATOM     71  O   UNL     1      13.775  10.777  11.220  1.00  0.00    -0.237 OA
ATOM     72  O   UNL     1      12.841   9.668  13.222  1.00  0.00    -0.237 OA
ATOM     73  O   UNL     1      14.724   8.639  12.010  1.00  0.00    -0.744 OA
ENDBRANCH  69  70
ENDBRANCH  37  62
ENDBRANCH  11  12
ENDBRANCH   4   6
ENDBRANCH   3   4
ENDBRANCH   2   3
ENDBRANCH   1   2
BRANCH   1  74
ATOM     74  O   UNL     1       3.407   1.887  -0.577  1.00  0.00    -0.462 OA
BRANCH  74  75
ATOM     75  C   UNL     1       2.077   2.168  -0.430  1.00  0.00     0.310 C 
ATOM     76  O   UNL     1       1.212   1.729  -1.183  1.00  0.00    -0.252 OA
BRANCH  75  77
ATOM     77  C   UNL     1       1.758   3.248   0.624  1.00  0.00     0.117 C 
BRANCH  77  78
ATOM     78  C   UNL     1       2.055   4.601  -0.058  1.00  0.00     0.017 C 
BRANCH  78  79
ATOM     79  C   UNL     1       1.691   5.835   0.765  1.00  0.00     0.001 CG0
ATOM     80  G   UNL     1       2.830   6.332   1.645  1.00  0.00     0.000 G0
ENDBRANCH  78  79
ENDBRANCH  77  78
BRANCH  77  81
ATOM     81  C   UNL     1       2.381   3.014   2.032  1.00  0.00     0.084 C 
BRANCH  81  82
ATOM     82  C   UNL     1       3.517   3.988   2.347  1.00  0.00     0.021 C 
BRANCH  82  83
ATOM     83  C   UNL     1       3.139   5.396   2.795  1.00  0.00     0.002 C 
BRANCH  83  84
ATOM     84  C   UNL     1       2.830   6.332   1.645  1.00  0.00     0.000 CG0
ATOM     85  G   UNL     1       1.691   5.835   0.765  1.00  0.00     0.000 G0
ENDBRANCH  83  84
ENDBRANCH  82  83
ENDBRANCH  81  82
BRANCH  81  86
ATOM     86  N   UNL     1       1.321   2.956   3.103  1.00  0.00    -0.206 NA
ATOM     87  H   UNL     1       0.794   2.104   2.914  1.00  0.00     0.141 HD
BRANCH  86  88
ATOM     88  S   UNL     1       1.606   2.945   4.786  1.00  0.00     0.274 S 
ATOM     89  O   UNL     1       2.979   3.313   5.064  1.00  0.00    -0.206 OA
ATOM     90  O   UNL     1       0.531   3.776   5.293  1.00  0.00    -0.206 OA
BRANCH  88  91
ATOM     91  C   UNL     1       1.335   1.250   5.431  1.00  0.00     0.473 C 
ATOM     92  F   UNL     1       0.113   0.747   5.103  1.00  0.00    -0.191 F 
ATOM     93  F   UNL     1       2.255   0.346   5.000  1.00  0.00    -0.191 F 
ENDBRANCH  88  91
ENDBRANCH  86  88
ENDBRANCH  81  86
ENDBRANCH  77  81
ENDBRANCH  75  77
ENDBRANCH  74  75
ENDBRANCH   1  74
TORSDOF 17
