REMARK SMILES Cc1cc2nc(SCC(=O)OCCOC(=O)c3ccc(-c4c5nc(c(-c6c(F)cc(S(=O)(=O)[O-])cc6F)c6ccc([nH]6)c(-c6c(F)cc(S(=O)(=O)[O-])cc6F)c6nc(c(-c7c(F)cc(S(=O)(=O)[O-])cc7F)c7ccc4[nH]7)C=C6)C=C5)cc3)n(CC(C)C)c(=O)c2[nH]1
REMARK SMILES IDX 12 1 11 2 9 3 10 4 8 5 7 6 6 7 1 8 2 9 3 10 91 11 4 12 90 13
REMARK SMILES IDX 5 15 88 16 83 17 89 18 84 19 85 20 86 21 87 22 13 23 14 24
REMARK SMILES IDX 15 25 16 26 17 27 18 28 82 29 19 30 81 31 20 32 21 33 22 34
REMARK SMILES IDX 75 35 23 36 80 37 74 38 76 39 24 40 79 41 73 42 72 43 25 45
REMARK SMILES IDX 59 46 38 47 58 48 39 49 42 50 57 51 77 52 40 53 41 54 56 56
REMARK SMILES IDX 78 57 43 58 26 59 27 60 36 61 28 62 29 63 35 64 37 65 30 66
REMARK SMILES IDX 31 67 32 68 33 69 34 70 60 71 61 72 70 73 62 74 63 75 69 76
REMARK SMILES IDX 71 77 64 78 65 79 66 80 67 81 68 82 44 83 45 84 54 85 46 86
REMARK SMILES IDX 47 87 53 88 55 89 48 90 49 91 50 92 51 93 52 94
REMARK H PARENT 91 14 76 44 42 55
REMARK Flexibility Score: inf
ROOT
ATOM      1  C   UNL     1      -5.157  -6.946   5.268  1.00  0.00     0.274 C 
ENDROOT
BRANCH   1   2
ATOM      2  O   UNL     1      -5.463  -5.569   5.510  1.00  0.00    -0.461 OA
BRANCH   2   3
ATOM      3  C   UNL     1      -4.742  -4.988   6.502  1.00  0.00     0.316 C 
ATOM      4  O   UNL     1      -4.704  -5.464   7.629  1.00  0.00    -0.251 OA
BRANCH   3   5
ATOM      5  C   UNL     1      -4.013  -3.716   6.035  1.00  0.00     0.200 C 
BRANCH   5   6
ATOM      6  S   UNL     1      -4.225  -3.462   4.234  1.00  0.00    -0.076 SA
BRANCH   6   7
ATOM      7  C   UNL     1      -2.715  -2.809   3.626  1.00  0.00     0.172 A 
ATOM      8  C   UNL     1       0.320   1.105   0.710  1.00  0.00     0.064 C 
ATOM      9  C   UNL     1      -0.110   0.217   1.816  1.00  0.00     0.014 A 
ATOM     10  C   UNL     1      -1.031   0.302   2.865  1.00  0.00     0.052 A 
ATOM     11  N   UNL     1       0.339  -1.082   1.801  1.00  0.00    -0.353 N 
ATOM     12  C   UNL     1      -1.355  -1.039   3.209  1.00  0.00     0.097 A 
ATOM     13  C   UNL     1      -0.713  -1.790   2.279  1.00  0.00     0.131 A 
ATOM     14  H   UNL     1       1.218  -1.418   1.511  1.00  0.00     0.166 HD
ATOM     15  N   UNL     1      -2.453  -1.560   3.917  1.00  0.00    -0.222 NA
ATOM     16  C   UNL     1      -1.296  -2.950   1.744  1.00  0.00     0.278 A 
ATOM     17  N   UNL     1      -2.075  -3.608   2.656  1.00  0.00    -0.286 N 
ATOM     18  O   UNL     1      -1.230  -3.247   0.563  1.00  0.00    -0.267 OA
BRANCH  17  19
ATOM     19  C   UNL     1      -1.728  -5.026   2.769  1.00  0.00     0.131 C 
BRANCH  19  20
ATOM     20  C   UNL     1      -1.996  -6.106   1.664  1.00  0.00     0.003 C 
ATOM     21  C   UNL     1      -0.947  -6.158   0.546  1.00  0.00     0.009 C 
ATOM     22  C   UNL     1      -1.950  -7.572   2.168  1.00  0.00     0.009 C 
ENDBRANCH  19  20
ENDBRANCH  17  19
ENDBRANCH   6   7
ENDBRANCH   5   6
ENDBRANCH   3   5
ENDBRANCH   2   3
ENDBRANCH   1   2
BRANCH   1  23
ATOM     23  C   UNL     1      -3.745  -7.118   4.698  1.00  0.00     0.275 C 
BRANCH  23  24
ATOM     24  O   UNL     1      -2.565  -7.446   5.522  1.00  0.00    -0.458 OA
BRANCH  24  25
ATOM     25  C   UNL     1      -1.702  -6.519   6.052  1.00  0.00     0.338 C 
ATOM     26  O   UNL     1      -1.967  -5.902   7.074  1.00  0.00    -0.246 OA
BRANCH  25  27
ATOM     27  C   UNL     1      -0.381  -6.238   5.336  1.00  0.00     0.060 A 
ATOM     28  C   UNL     1       0.209  -4.964   5.488  1.00  0.00     0.016 A 
ATOM     29  C   UNL     1       0.222  -7.092   4.411  1.00  0.00     0.016 A 
ATOM     30  C   UNL     1       1.216  -4.491   4.600  1.00  0.00     0.010 A 
ATOM     31  C   UNL     1       1.205  -6.604   3.501  1.00  0.00     0.010 A 
ATOM     32  C   UNL     1       1.660  -5.268   3.517  1.00  0.00    -0.014 A 
BRANCH  32  33
ATOM     33  C   UNL     1       2.771  -4.777   2.630  1.00  0.00     0.031 A 
ATOM     34  C   UNL     1       4.068  -5.245   3.155  1.00  0.00     0.074 A 
ATOM     35  C   UNL     1       2.854  -4.154   1.417  1.00  0.00     0.049 A 
ATOM     36  N   UNL     1       4.884  -4.604   3.921  1.00  0.00    -0.248 NA
ATOM     37  C   UNL     1       4.385  -6.665   2.959  1.00  0.00     0.031 C 
ATOM     38  C   UNL     1       1.794  -3.936   0.450  1.00  0.00     0.029 A 
ATOM     39  N   UNL     1       3.946  -3.628   0.736  1.00  0.00    -0.354 N 
ATOM     40  C   UNL     1       5.933  -5.488   4.116  1.00  0.00     0.074 A 
ATOM     41  C   UNL     1       5.440  -6.794   3.761  1.00  0.00     0.031 C 
ATOM     42  C   UNL     1       2.276  -3.461  -0.721  1.00  0.00     0.029 A 
ATOM     43  C   UNL     1       3.706  -3.257  -0.601  1.00  0.00     0.049 A 
ATOM     44  H   UNL     1       4.828  -3.522   1.161  1.00  0.00     0.167 HD
ATOM     45  C   UNL     1       7.217  -5.064   4.241  1.00  0.00     0.037 A 
ATOM     46  C   UNL     1       4.584  -2.842  -1.566  1.00  0.00     0.037 A 
ATOM     47  C   UNL     1       7.305  -3.647   4.479  1.00  0.00     0.049 A 
ATOM     48  C   UNL     1       5.812  -2.384  -0.875  1.00  0.00     0.074 A 
ATOM     49  C   UNL     1       6.748  -2.779   5.400  1.00  0.00     0.029 A 
ATOM     50  N   UNL     1       7.781  -2.855   3.463  1.00  0.00    -0.354 N 
ATOM     51  N   UNL     1       5.887  -1.316  -0.133  1.00  0.00    -0.248 NA
ATOM     52  C   UNL     1       6.870  -3.361  -0.680  1.00  0.00     0.031 C 
ATOM     53  C   UNL     1       6.493  -1.579   4.676  1.00  0.00     0.029 A 
ATOM     54  C   UNL     1       6.958  -1.762   3.374  1.00  0.00     0.049 A 
ATOM     55  H   UNL     1       8.568  -3.038   2.901  1.00  0.00     0.167 HD
ATOM     56  C   UNL     1       6.726  -1.677   0.909  1.00  0.00     0.074 A 
ATOM     57  C   UNL     1       7.364  -2.916   0.476  1.00  0.00     0.031 C 
ATOM     58  C   UNL     1       6.617  -1.095   2.137  1.00  0.00     0.037 A 
BRANCH  45  59
ATOM     59  C   UNL     1       8.384  -5.892   3.778  1.00  0.00     0.058 A 
ATOM     60  C   UNL     1       9.672  -5.604   4.258  1.00  0.00     0.135 A 
ATOM     61  C   UNL     1       8.316  -6.817   2.710  1.00  0.00     0.135 A 
ATOM     62  F   UNL     1       9.848  -4.699   5.234  1.00  0.00    -0.206 F 
ATOM     63  C   UNL     1      10.813  -6.181   3.703  1.00  0.00     0.059 A 
ATOM     64  C   UNL     1       9.428  -7.462   2.195  1.00  0.00     0.059 A 
ATOM     65  F   UNL     1       7.177  -7.065   2.049  1.00  0.00    -0.206 F 
ATOM     66  C   UNL     1      10.678  -7.110   2.672  1.00  0.00     0.060 A 
BRANCH  66  67
ATOM     67  S   UNL     1      12.149  -7.800   1.901  1.00  0.00     0.124 S 
ATOM     68  O   UNL     1      12.672  -6.637   1.195  1.00  0.00    -0.237 OA
ATOM     69  O   UNL     1      12.914  -8.248   3.060  1.00  0.00    -0.237 OA
ATOM     70  O   UNL     1      11.616  -8.866   1.058  1.00  0.00    -0.744 OA
ENDBRANCH  66  67
ENDBRANCH  45  59
BRANCH  46  71
ATOM     71  C   UNL     1       4.552  -3.012  -3.063  1.00  0.00     0.058 A 
ATOM     72  C   UNL     1       5.459  -2.354  -3.929  1.00  0.00     0.135 A 
ATOM     73  C   UNL     1       3.803  -4.043  -3.664  1.00  0.00     0.135 A 
ATOM     74  F   UNL     1       6.244  -1.369  -3.465  1.00  0.00    -0.206 F 
ATOM     75  C   UNL     1       5.641  -2.729  -5.274  1.00  0.00     0.059 A 
ATOM     76  C   UNL     1       3.954  -4.423  -5.001  1.00  0.00     0.059 A 
ATOM     77  F   UNL     1       2.958  -4.790  -2.940  1.00  0.00    -0.206 F 
ATOM     78  C   UNL     1       4.896  -3.784  -5.796  1.00  0.00     0.060 A 
BRANCH  78  79
ATOM     79  S   UNL     1       5.243  -4.407  -7.464  1.00  0.00     0.124 S 
ATOM     80  O   UNL     1       4.827  -3.290  -8.304  1.00  0.00    -0.237 OA
ATOM     81  O   UNL     1       6.678  -4.662  -7.406  1.00  0.00    -0.237 OA
ATOM     82  O   UNL     1       4.407  -5.602  -7.560  1.00  0.00    -0.744 OA
ENDBRANCH  78  79
ENDBRANCH  46  71
BRANCH  58  83
ATOM     83  C   UNL     1       5.880   0.211   2.263  1.00  0.00     0.058 A 
ATOM     84  C   UNL     1       4.500   0.375   2.060  1.00  0.00     0.135 A 
ATOM     85  C   UNL     1       6.585   1.298   2.809  1.00  0.00     0.135 A 
ATOM     86  F   UNL     1       3.736  -0.636   1.615  1.00  0.00    -0.206 F 
ATOM     87  C   UNL     1       3.859   1.573   2.385  1.00  0.00     0.059 A 
ATOM     88  C   UNL     1       5.960   2.492   3.153  1.00  0.00     0.059 A 
ATOM     89  F   UNL     1       7.897   1.179   3.075  1.00  0.00    -0.206 F 
ATOM     90  C   UNL     1       4.594   2.624   2.933  1.00  0.00     0.060 A 
BRANCH  90  91
ATOM     91  S   UNL     1       3.731   4.133   3.428  1.00  0.00     0.124 S 
ATOM     92  O   UNL     1       3.381   4.721   2.140  1.00  0.00    -0.237 OA
ATOM     93  O   UNL     1       2.615   3.615   4.213  1.00  0.00    -0.237 OA
ATOM     94  O   UNL     1       4.736   4.863   4.197  1.00  0.00    -0.744 OA
ENDBRANCH  90  91
ENDBRANCH  58  83
ENDBRANCH  32  33
ENDBRANCH  25  27
ENDBRANCH  24  25
ENDBRANCH  23  24
ENDBRANCH   1  23
TORSDOF 18
