REMARK SMILES CO[C@@H]1C[NH2+][C@@H](O[C@@H]2C[C@@H](C(=O)OCCOC(=O)c3ccc(-c4c5nc(c(-c6c(F)cc(S(=O)(=O)[O-])cc6F)c6ccc([nH]6)c(-c6c(F)cc(S(=O)(=O)[O-])cc6F)c6nc(c(-c7c(F)cc(S(=O)(=O)[O-])cc7F)c7ccc4[nH]7)C=C6)C=C5)cc3)N(C(=O)OC(C)(C)C)C2)c2cc(Cl)ccc21
REMARK SMILES IDX 14 1 13 2 11 3 12 4 10 5 8 6 9 7 93 8 85 9 7 10 6 11 3 12
REMARK SMILES IDX 4 13 100 14 5 15 94 16 99 17 95 20 98 21 96 22 97 23 2 24
REMARK SMILES IDX 1 25 86 26 87 27 88 28 89 29 90 30 91 31 92 32 15 33 16 34
REMARK SMILES IDX 17 35 18 36 19 37 20 38 84 39 21 40 83 41 22 42 23 43 24 44
REMARK SMILES IDX 77 45 25 46 82 47 76 48 78 49 26 50 81 51 75 52 74 53 27 55
REMARK SMILES IDX 61 56 40 57 60 58 41 59 44 60 59 61 79 62 42 63 43 64 58 66
REMARK SMILES IDX 80 67 45 68 28 69 29 70 38 71 30 72 31 73 37 74 39 75 32 76
REMARK SMILES IDX 33 77 34 78 35 79 36 80 62 81 63 82 72 83 64 84 65 85 71 86
REMARK SMILES IDX 73 87 66 88 67 89 68 90 69 91 70 92 46 93 47 94 56 95 48 96
REMARK SMILES IDX 49 97 55 98 57 99 50 100 51 101 52 102 53 103 54 104
REMARK H PARENT 5 18 5 19 78 54 44 65
REMARK Flexibility Score: inf
ROOT
ATOM      1  C   UNL     1       4.723  -0.549  -2.287  1.00  0.00     0.274 C 
ENDROOT
BRANCH   1   2
ATOM      2  O   UNL     1       3.449  -1.224  -2.273  1.00  0.00    -0.461 OA
BRANCH   2   3
ATOM      3  C   UNL     1       3.303  -2.298  -3.126  1.00  0.00     0.329 C 
ATOM      4  O   UNL     1       4.059  -2.566  -4.048  1.00  0.00    -0.250 OA
BRANCH   3   5
ATOM      5  C   UNL     1       2.097  -3.145  -2.665  1.00  0.00     0.201 C 
ATOM      6  C   UNL     1       1.148  -5.393  -2.496  1.00  0.00     0.147 C 
ATOM      7  C   UNL     1       2.477  -4.637  -2.553  1.00  0.00     0.071 C 
ATOM      8  C   UNL     1       0.213  -4.495  -3.328  1.00  0.00     0.156 C 
ATOM      9  N   UNL     1       0.782  -3.147  -3.297  1.00  0.00    -0.292 N 
BRANCH   6  10
ATOM     10  O   UNL     1       0.611  -5.973  -1.309  1.00  0.00    -0.320 OA
BRANCH  10  11
ATOM     11  C   UNL     1       0.609  -5.540   0.051  1.00  0.00     0.354 C 
ATOM     12  C   UNL     1       0.516  -2.628   0.300  1.00  0.00     0.203 C 
ATOM     13  C   UNL     1      -0.703  -3.509  -0.054  1.00  0.00     0.300 C 
ATOM     14  C   UNL     1       1.830  -3.414   0.508  1.00  0.00    -0.002 A 
ATOM     15  N   UNL     1      -0.633  -4.884   0.415  1.00  0.00    -0.315 N 
ATOM     16  C   UNL     1       1.823  -4.809   0.553  1.00  0.00     0.046 A 
ATOM     17  C   UNL     1       3.101  -2.812   0.495  1.00  0.00     0.009 A 
ATOM     18  H   UNL     1      -1.409  -5.407   0.008  1.00  0.00     0.349 HD
ATOM     19  H   UNL     1      -0.682  -4.864   1.433  1.00  0.00     0.349 HD
ATOM     20  C   UNL     1       2.984  -5.517   0.939  1.00  0.00     0.033 A 
ATOM     21  C   UNL     1       4.275  -3.504   0.805  1.00  0.00     0.021 A 
ATOM     22  C   UNL     1       4.196  -4.852   1.103  1.00  0.00     0.041 A 
ATOM     23  Cl  UNL     1       5.608  -5.703   1.579  1.00  0.00    -0.084 Cl
BRANCH  12  24
ATOM     24  O   UNL     1       0.169  -1.844   1.450  1.00  0.00    -0.371 OA
ATOM     25  C   UNL     1      -0.388  -0.565   1.122  1.00  0.00     0.196 C 
ENDBRANCH  12  24
ENDBRANCH  10  11
ENDBRANCH   6  10
BRANCH   9  26
ATOM     26  C   UNL     1      -0.080  -2.067  -3.415  1.00  0.00     0.411 C 
ATOM     27  O   UNL     1      -1.210  -2.185  -3.856  1.00  0.00    -0.224 OA
BRANCH  26  28
ATOM     28  O   UNL     1       0.443  -0.891  -2.958  1.00  0.00    -0.444 OA
BRANCH  28  29
ATOM     29  C   UNL     1      -0.314   0.354  -3.107  1.00  0.00     0.106 C 
ATOM     30  C   UNL     1      -0.514   0.678  -4.592  1.00  0.00     0.056 C 
ATOM     31  C   UNL     1      -1.667   0.360  -2.373  1.00  0.00     0.056 C 
ATOM     32  C   UNL     1       0.562   1.462  -2.492  1.00  0.00     0.056 C 
ENDBRANCH  28  29
ENDBRANCH  26  28
ENDBRANCH   9  26
ENDBRANCH   3   5
ENDBRANCH   2   3
ENDBRANCH   1   2
BRANCH   1  33
ATOM     33  C   UNL     1       4.711   0.683  -1.356  1.00  0.00     0.275 C 
BRANCH  33  34
ATOM     34  O   UNL     1       4.713   0.327   0.056  1.00  0.00    -0.458 OA
BRANCH  34  35
ATOM     35  C   UNL     1       3.748   0.910   0.825  1.00  0.00     0.338 C 
ATOM     36  O   UNL     1       2.862   1.647   0.419  1.00  0.00    -0.246 OA
BRANCH  35  37
ATOM     37  C   UNL     1       3.696   0.302   2.182  1.00  0.00     0.060 A 
ATOM     38  C   UNL     1       4.490   0.572   3.285  1.00  0.00     0.016 A 
ATOM     39  C   UNL     1       2.647  -0.582   2.353  1.00  0.00     0.016 A 
ATOM     40  C   UNL     1       4.236  -0.110   4.507  1.00  0.00     0.010 A 
ATOM     41  C   UNL     1       2.420  -1.312   3.512  1.00  0.00     0.010 A 
ATOM     42  C   UNL     1       3.220  -1.086   4.616  1.00  0.00    -0.014 A 
BRANCH  42  43
ATOM     43  C   UNL     1       2.830  -1.769   5.875  1.00  0.00     0.031 A 
ATOM     44  C   UNL     1       3.164  -3.213   6.139  1.00  0.00     0.074 A 
ATOM     45  C   UNL     1       1.969  -1.138   6.697  1.00  0.00     0.049 A 
ATOM     46  N   UNL     1       3.059  -3.892   7.253  1.00  0.00    -0.248 NA
ATOM     47  C   UNL     1       3.638  -4.011   4.998  1.00  0.00     0.031 C 
ATOM     48  C   UNL     1       1.346   0.158   6.419  1.00  0.00     0.029 A 
ATOM     49  N   UNL     1       1.450  -1.503   7.912  1.00  0.00    -0.354 N 
ATOM     50  C   UNL     1       3.516  -5.176   6.966  1.00  0.00     0.074 A 
ATOM     51  C   UNL     1       3.802  -5.209   5.548  1.00  0.00     0.031 C 
ATOM     52  C   UNL     1       0.570   0.503   7.457  1.00  0.00     0.029 A 
ATOM     53  C   UNL     1       0.667  -0.529   8.484  1.00  0.00     0.049 A 
ATOM     54  H   UNL     1       1.622  -2.376   8.334  1.00  0.00     0.167 HD
ATOM     55  C   UNL     1       3.713  -6.207   7.825  1.00  0.00     0.037 A 
ATOM     56  C   UNL     1       0.146  -0.450   9.723  1.00  0.00     0.037 A 
ATOM     57  C   UNL     1       3.352  -6.147   9.222  1.00  0.00     0.049 A 
ATOM     58  C   UNL     1       0.457  -1.548  10.703  1.00  0.00     0.074 A 
ATOM     59  C   UNL     1       3.599  -7.068  10.225  1.00  0.00     0.029 A 
ATOM     60  N   UNL     1       2.636  -5.109   9.803  1.00  0.00    -0.354 N 
ATOM     61  N   UNL     1       1.117  -2.665  10.505  1.00  0.00    -0.248 NA
ATOM     62  C   UNL     1      -0.012  -1.361  12.082  1.00  0.00     0.031 C 
ATOM     63  C   UNL     1       2.994  -6.606  11.400  1.00  0.00     0.029 A 
ATOM     64  C   UNL     1       2.416  -5.372  11.145  1.00  0.00     0.049 A 
ATOM     65  H   UNL     1       2.329  -4.302   9.330  1.00  0.00     0.167 HD
ATOM     66  C   UNL     1       1.164  -3.305  11.737  1.00  0.00     0.074 A 
ATOM     67  C   UNL     1       0.482  -2.438  12.679  1.00  0.00     0.031 C 
ATOM     68  C   UNL     1       1.721  -4.499  12.061  1.00  0.00     0.037 A 
BRANCH  55  69
ATOM     69  C   UNL     1       4.413  -7.446   7.315  1.00  0.00     0.058 A 
ATOM     70  C   UNL     1       5.756  -7.391   6.900  1.00  0.00     0.135 A 
ATOM     71  C   UNL     1       3.799  -8.710   7.336  1.00  0.00     0.135 A 
ATOM     72  F   UNL     1       6.405  -6.216   6.865  1.00  0.00    -0.206 F 
ATOM     73  C   UNL     1       6.452  -8.530   6.507  1.00  0.00     0.059 A 
ATOM     74  C   UNL     1       4.486  -9.869   6.973  1.00  0.00     0.059 A 
ATOM     75  F   UNL     1       2.522  -8.835   7.731  1.00  0.00    -0.206 F 
ATOM     76  C   UNL     1       5.812  -9.768   6.553  1.00  0.00     0.060 A 
BRANCH  76  77
ATOM     77  S   UNL     1       6.752 -11.235   6.074  1.00  0.00     0.124 S 
ATOM     78  O   UNL     1       6.943 -11.009   4.644  1.00  0.00    -0.237 OA
ATOM     79  O   UNL     1       7.951 -11.118   6.898  1.00  0.00    -0.237 OA
ATOM     80  O   UNL     1       5.863 -12.340   6.419  1.00  0.00    -0.744 OA
ENDBRANCH  76  77
ENDBRANCH  55  69
BRANCH  56  81
ATOM     81  C   UNL     1      -0.563   0.791  10.133  1.00  0.00     0.058 A 
ATOM     82  C   UNL     1       0.070   1.725  10.969  1.00  0.00     0.135 A 
ATOM     83  C   UNL     1      -1.834   1.117   9.636  1.00  0.00     0.135 A 
ATOM     84  F   UNL     1       1.290   1.464  11.463  1.00  0.00    -0.206 F 
ATOM     85  C   UNL     1      -0.533   2.932  11.305  1.00  0.00     0.059 A 
ATOM     86  C   UNL     1      -2.449   2.329   9.940  1.00  0.00     0.059 A 
ATOM     87  F   UNL     1      -2.468   0.273   8.808  1.00  0.00    -0.206 F 
ATOM     88  C   UNL     1      -1.791   3.229  10.779  1.00  0.00     0.060 A 
BRANCH  88  89
ATOM     89  S   UNL     1      -2.529   4.830  11.172  1.00  0.00     0.124 S 
ATOM     90  O   UNL     1      -2.803   4.687  12.598  1.00  0.00    -0.237 OA
ATOM     91  O   UNL     1      -1.456   5.754  10.818  1.00  0.00    -0.237 OA
ATOM     92  O   UNL     1      -3.703   4.883  10.307  1.00  0.00    -0.744 OA
ENDBRANCH  88  89
ENDBRANCH  56  81
BRANCH  68  93
ATOM     93  C   UNL     1       1.611  -4.946  13.493  1.00  0.00     0.058 A 
ATOM     94  C   UNL     1       0.388  -5.369  14.036  1.00  0.00     0.135 A 
ATOM     95  C   UNL     1       2.752  -5.014  14.309  1.00  0.00     0.135 A 
ATOM     96  F   UNL     1      -0.733  -5.318  13.300  1.00  0.00    -0.206 F 
ATOM     97  C   UNL     1       0.296  -5.828  15.345  1.00  0.00     0.059 A 
ATOM     98  C   UNL     1       2.688  -5.499  15.611  1.00  0.00     0.059 A 
ATOM     99  F   UNL     1       3.948  -4.630  13.835  1.00  0.00    -0.206 F 
ATOM    100  C   UNL     1       1.454  -5.895  16.123  1.00  0.00     0.060 A 
BRANCH 100 101
ATOM    101  S   UNL     1       1.321  -6.531  17.807  1.00  0.00     0.124 S 
ATOM    102  O   UNL     1       0.582  -5.461  18.469  1.00  0.00    -0.237 OA
ATOM    103  O   UNL     1       0.589  -7.778  17.609  1.00  0.00    -0.237 OA
ATOM    104  O   UNL     1       2.711  -6.684  18.225  1.00  0.00    -0.744 OA
ENDBRANCH 100 101
ENDBRANCH  68  93
ENDBRANCH  42  43
ENDBRANCH  35  37
ENDBRANCH  34  35
ENDBRANCH  33  34
ENDBRANCH   1  33
TORSDOF 20
