REMARK SMILES CCCn1ncc(C(=O)N2CCC(C(=O)OCCOC(=O)c3ccc(-c4c5nc(c(-c6c(F)cc(S(=O)(=O)[O-])cc6F)c6ccc([nH]6)c(-c6c(F)cc(S(=O)(=O)[O-])cc6F)c6nc(c(-c7c(F)cc(S(=O)(=O)[O-])cc7F)c7ccc4[nH]7)C=C6)C=C5)cc3)CC2)c1C
REMARK SMILES IDX 17 1 16 2 14 3 15 4 13 5 8 6 9 7 10 8 11 9 89 10 12 11 88 12
REMARK SMILES IDX 7 13 4 14 5 15 90 16 6 17 91 18 3 19 2 20 1 21 18 22 19 23
REMARK SMILES IDX 20 24 21 25 22 26 23 27 87 28 24 29 86 30 25 31 26 32 27 33
REMARK SMILES IDX 80 34 28 35 85 36 79 37 81 38 29 39 84 40 78 41 77 42 30 44
REMARK SMILES IDX 64 45 43 46 63 47 44 48 47 49 62 50 82 51 45 52 46 53 61 55
REMARK SMILES IDX 83 56 48 57 31 58 32 59 41 60 33 61 34 62 40 63 42 64 35 65
REMARK SMILES IDX 36 66 37 67 38 68 39 69 65 70 66 71 75 72 67 73 68 74 74 75
REMARK SMILES IDX 76 76 69 77 70 78 71 79 72 80 73 81 49 82 50 83 59 84 51 85
REMARK SMILES IDX 52 86 58 87 60 88 53 89 54 90 55 91 56 92 57 93
REMARK H PARENT 81 43 47 54
REMARK Flexibility Score: inf
ROOT
ATOM      1  C   UNL     1      -0.381  11.379   5.014  1.00  0.00     0.274 C 
ENDROOT
BRANCH   1   2
ATOM      2  O   UNL     1      -0.282  10.234   4.147  1.00  0.00    -0.462 OA
BRANCH   2   3
ATOM      3  C   UNL     1      -1.363   9.984   3.360  1.00  0.00     0.309 C 
ATOM      4  O   UNL     1      -2.441  10.562   3.448  1.00  0.00    -0.252 OA
BRANCH   3   5
ATOM      5  C   UNL     1      -1.139   8.829   2.406  1.00  0.00     0.103 C 
ATOM      6  C   UNL     1       0.994   5.375   2.059  1.00  0.00     0.257 C 
ATOM      7  O   UNL     1       2.171   5.695   2.227  1.00  0.00    -0.269 OA
ATOM      8  N   UNL     1       0.027   6.303   1.702  1.00  0.00    -0.338 N 
ATOM      9  C   UNL     1       0.440   7.489   0.974  1.00  0.00     0.120 C 
ATOM     10  C   UNL     1      -1.332   6.322   2.232  1.00  0.00     0.120 C 
ATOM     11  C   UNL     1       0.277   8.735   1.822  1.00  0.00     0.037 C 
ATOM     12  C   UNL     1      -1.531   7.539   3.128  1.00  0.00     0.037 C 
BRANCH   6  13
ATOM     13  C   UNL     1       0.581   3.980   2.116  1.00  0.00     0.080 A 
ATOM     14  N   UNL     1       0.618   1.786   2.311  1.00  0.00    -0.269 N 
ATOM     15  N   UNL     1      -0.583   2.045   1.758  1.00  0.00    -0.180 NA
ATOM     16  C   UNL     1       1.310   2.924   2.651  1.00  0.00     0.048 A 
ATOM     17  C   UNL     1      -0.555   3.360   1.554  1.00  0.00     0.149 A 
ATOM     18  C   UNL     1       2.605   2.947   3.383  1.00  0.00     0.067 C 
BRANCH  14  19
ATOM     19  C   UNL     1       1.044   0.405   2.447  1.00  0.00     0.144 C 
BRANCH  19  20
ATOM     20  C   UNL     1       0.586  -0.528   1.319  1.00  0.00     0.020 C 
ATOM     21  C   UNL     1       1.160  -0.149  -0.041  1.00  0.00     0.006 C 
ENDBRANCH  19  20
ENDBRANCH  14  19
ENDBRANCH   6  13
ENDBRANCH   3   5
ENDBRANCH   2   3
ENDBRANCH   1   2
BRANCH   1  22
ATOM     22  C   UNL     1       0.150  12.643   4.349  1.00  0.00     0.275 C 
BRANCH  22  23
ATOM     23  O   UNL     1      -0.683  13.060   3.267  1.00  0.00    -0.458 OA
BRANCH  23  24
ATOM     24  C   UNL     1      -0.286  12.584   2.067  1.00  0.00     0.338 C 
ATOM     25  O   UNL     1       0.527  11.698   1.873  1.00  0.00    -0.246 OA
BRANCH  24  26
ATOM     26  C   UNL     1      -0.792  13.419   0.980  1.00  0.00     0.060 A 
ATOM     27  C   UNL     1      -0.586  12.960  -0.326  1.00  0.00     0.016 A 
ATOM     28  C   UNL     1      -1.141  14.746   1.258  1.00  0.00     0.016 A 
ATOM     29  C   UNL     1      -0.558  13.883  -1.349  1.00  0.00     0.010 A 
ATOM     30  C   UNL     1      -1.095  15.666   0.239  1.00  0.00     0.010 A 
ATOM     31  C   UNL     1      -0.733  15.235  -1.036  1.00  0.00    -0.014 A 
BRANCH  31  32
ATOM     32  C   UNL     1      -0.604  16.201  -2.105  1.00  0.00     0.031 A 
ATOM     33  C   UNL     1      -1.756  16.206  -3.028  1.00  0.00     0.074 A 
ATOM     34  C   UNL     1       0.406  17.088  -2.165  1.00  0.00     0.049 A 
ATOM     35  N   UNL     1      -1.790  15.810  -4.255  1.00  0.00    -0.248 NA
ATOM     36  C   UNL     1      -3.074  16.532  -2.461  1.00  0.00     0.031 C 
ATOM     37  C   UNL     1       1.420  17.364  -1.142  1.00  0.00     0.029 A 
ATOM     38  N   UNL     1       0.671  18.014  -3.125  1.00  0.00    -0.354 N 
ATOM     39  C   UNL     1      -3.090  16.055  -4.684  1.00  0.00     0.074 A 
ATOM     40  C   UNL     1      -3.873  16.297  -3.502  1.00  0.00     0.031 C 
ATOM     41  C   UNL     1       2.045  18.526  -1.441  1.00  0.00     0.029 A 
ATOM     42  C   UNL     1       1.575  18.993  -2.735  1.00  0.00     0.049 A 
ATOM     43  H   UNL     1       0.259  17.992  -4.018  1.00  0.00     0.167 HD
ATOM     44  C   UNL     1      -3.364  16.310  -5.991  1.00  0.00     0.037 A 
ATOM     45  C   UNL     1       1.861  20.133  -3.409  1.00  0.00     0.037 A 
ATOM     46  C   UNL     1      -2.253  15.961  -6.837  1.00  0.00     0.049 A 
ATOM     47  C   UNL     1       1.461  19.926  -4.823  1.00  0.00     0.074 A 
ATOM     48  C   UNL     1      -1.628  14.792  -7.213  1.00  0.00     0.029 A 
ATOM     49  N   UNL     1      -1.397  16.989  -7.142  1.00  0.00    -0.354 N 
ATOM     50  N   UNL     1       2.039  19.075  -5.626  1.00  0.00    -0.248 NA
ATOM     51  C   UNL     1       0.155  20.399  -5.263  1.00  0.00     0.031 C 
ATOM     52  C   UNL     1      -0.263  15.140  -7.434  1.00  0.00     0.029 A 
ATOM     53  C   UNL     1      -0.115  16.511  -7.212  1.00  0.00     0.049 A 
ATOM     54  H   UNL     1      -1.663  17.926  -7.287  1.00  0.00     0.167 HD
ATOM     55  C   UNL     1       1.018  18.593  -6.428  1.00  0.00     0.074 A 
ATOM     56  C   UNL     1      -0.069  19.550  -6.270  1.00  0.00     0.031 C 
ATOM     57  C   UNL     1       1.052  17.316  -6.910  1.00  0.00     0.037 A 
BRANCH  44  58
ATOM     58  C   UNL     1      -4.442  17.259  -6.455  1.00  0.00     0.058 A 
ATOM     59  C   UNL     1      -4.780  17.299  -7.823  1.00  0.00     0.135 A 
ATOM     60  C   UNL     1      -4.938  18.325  -5.671  1.00  0.00     0.135 A 
ATOM     61  F   UNL     1      -4.345  16.346  -8.662  1.00  0.00    -0.206 F 
ATOM     62  C   UNL     1      -5.503  18.354  -8.380  1.00  0.00     0.059 A 
ATOM     63  C   UNL     1      -5.710  19.354  -6.195  1.00  0.00     0.059 A 
ATOM     64  F   UNL     1      -4.610  18.480  -4.383  1.00  0.00    -0.206 F 
ATOM     65  C   UNL     1      -5.952  19.384  -7.557  1.00  0.00     0.060 A 
BRANCH  65  66
ATOM     66  S   UNL     1      -6.792  20.801  -8.284  1.00  0.00     0.124 S 
ATOM     67  O   UNL     1      -5.697  21.457  -8.988  1.00  0.00    -0.237 OA
ATOM     68  O   UNL     1      -7.800  20.159  -9.121  1.00  0.00    -0.237 OA
ATOM     69  O   UNL     1      -7.313  21.513  -7.121  1.00  0.00    -0.744 OA
ENDBRANCH  65  66
ENDBRANCH  44  58
BRANCH  45  70
ATOM     70  C   UNL     1       2.186  21.471  -2.854  1.00  0.00     0.058 A 
ATOM     71  C   UNL     1       2.770  22.471  -3.649  1.00  0.00     0.135 A 
ATOM     72  C   UNL     1       1.674  21.885  -1.608  1.00  0.00     0.135 A 
ATOM     73  F   UNL     1       3.260  22.169  -4.861  1.00  0.00    -0.206 F 
ATOM     74  C   UNL     1       2.806  23.812  -3.252  1.00  0.00     0.059 A 
ATOM     75  C   UNL     1       1.706  23.213  -1.186  1.00  0.00     0.059 A 
ATOM     76  F   UNL     1       1.041  21.020  -0.800  1.00  0.00    -0.206 F 
ATOM     77  C   UNL     1       2.252  24.176  -2.025  1.00  0.00     0.060 A 
BRANCH  77  78
ATOM     78  S   UNL     1       2.144  25.927  -1.584  1.00  0.00     0.124 S 
ATOM     79  O   UNL     1       3.546  26.270  -1.366  1.00  0.00    -0.237 OA
ATOM     80  O   UNL     1       1.523  26.506  -2.771  1.00  0.00    -0.237 OA
ATOM     81  O   UNL     1       1.309  25.924  -0.386  1.00  0.00    -0.744 OA
ENDBRANCH  77  78
ENDBRANCH  45  70
BRANCH  57  82
ATOM     82  C   UNL     1       2.389  16.626  -6.950  1.00  0.00     0.058 A 
ATOM     83  C   UNL     1       3.130  16.245  -5.818  1.00  0.00     0.135 A 
ATOM     84  C   UNL     1       2.883  16.234  -8.204  1.00  0.00     0.135 A 
ATOM     85  F   UNL     1       2.679  16.500  -4.582  1.00  0.00    -0.206 F 
ATOM     86  C   UNL     1       4.329  15.540  -5.932  1.00  0.00     0.059 A 
ATOM     87  C   UNL     1       4.058  15.503  -8.339  1.00  0.00     0.059 A 
ATOM     88  F   UNL     1       2.191  16.521  -9.319  1.00  0.00    -0.206 F 
ATOM     89  C   UNL     1       4.785  15.171  -7.199  1.00  0.00     0.060 A 
BRANCH  89  90
ATOM     90  S   UNL     1       6.294  14.189  -7.342  1.00  0.00     0.124 S 
ATOM     91  O   UNL     1       7.328  15.169  -7.029  1.00  0.00    -0.237 OA
ATOM     92  O   UNL     1       6.088  13.142  -6.346  1.00  0.00    -0.237 OA
ATOM     93  O   UNL     1       6.270  13.729  -8.729  1.00  0.00    -0.744 OA
ENDBRANCH  89  90
ENDBRANCH  57  82
ENDBRANCH  31  32
ENDBRANCH  24  26
ENDBRANCH  23  24
ENDBRANCH  22  23
ENDBRANCH   1  22
TORSDOF 17
