REMARK SMILES Cc1cc(F)cc(N[C@](C)(C(=O)OCCOC(=O)c2ccc(-c3c4nc(c(-c5c(F)cc(S(=O)(=O)[O-])cc5F)c5ccc([nH]5)c(-c5c(F)cc(S(=O)(=O)[O-])cc5F)c5nc(c(-c6c(F)cc(S(=O)(=O)[O-])cc6F)c6ccc3[nH]6)C=C5)C=C4)cc2)c2cccc(F)c2)c1
REMARK SMILES IDX 15 1 14 2 13 3 11 4 12 5 9 6 10 7 8 8 7 10 1 11 2 12 3 13
REMARK SMILES IDX 92 14 4 15 5 16 6 17 85 18 86 19 91 20 87 21 89 22 88 23
REMARK SMILES IDX 90 24 16 25 17 26 18 27 19 28 20 29 84 30 21 31 83 32 22 33
REMARK SMILES IDX 23 34 24 35 77 36 25 37 82 38 76 39 78 40 26 41 81 42 75 43
REMARK SMILES IDX 74 44 27 46 61 47 40 48 60 49 41 50 44 51 59 52 79 53 42 54
REMARK SMILES IDX 43 55 58 57 80 58 45 59 28 60 29 61 38 62 30 63 31 64 37 65
REMARK SMILES IDX 39 66 32 67 33 68 34 69 35 70 36 71 62 72 63 73 72 74 64 75
REMARK SMILES IDX 65 76 71 77 73 78 66 79 67 80 68 81 69 82 70 83 46 84 47 85
REMARK SMILES IDX 56 86 48 87 49 88 55 89 57 90 50 91 51 92 52 93 53 94 54 95
REMARK H PARENT 8 9 78 45 44 56
REMARK Flexibility Score: inf
ROOT
ATOM      1  C   UNL     1      -2.284  -4.685   4.098  1.00  0.00     0.275 C 
ENDROOT
BRANCH   1   2
ATOM      2  C   UNL     1      -3.211  -4.244   2.958  1.00  0.00     0.274 C 
BRANCH   2   3
ATOM      3  O   UNL     1      -2.688  -4.557   1.649  1.00  0.00    -0.460 OA
BRANCH   3   4
ATOM      4  C   UNL     1      -1.893  -3.593   1.086  1.00  0.00     0.336 C 
ATOM      5  O   UNL     1      -1.652  -2.540   1.665  1.00  0.00    -0.249 OA
BRANCH   4   6
ATOM      6  C   UNL     1      -1.389  -3.999  -0.358  1.00  0.00     0.159 C 
ATOM      7  C   UNL     1      -2.565  -3.966  -1.361  1.00  0.00     0.053 C 
BRANCH   6   8
ATOM      8  N   UNL     1      -0.344  -3.070  -0.891  1.00  0.00    -0.366 N 
ATOM      9  H   UNL     1       0.426  -3.509  -1.319  1.00  0.00     0.162 HD
BRANCH   8  10
ATOM     10  C   UNL     1      -0.297  -1.685  -0.872  1.00  0.00     0.038 A 
ATOM     11  C   UNL     1       2.465   0.973  -1.122  1.00  0.00     0.044 C 
ATOM     12  C   UNL     1       1.116   0.342  -0.933  1.00  0.00    -0.046 A 
ATOM     13  C   UNL     1       0.003   1.134  -0.655  1.00  0.00     0.042 A 
ATOM     14  C   UNL     1       0.949  -1.053  -1.059  1.00  0.00     0.029 A 
ATOM     15  C   UNL     1      -1.230   0.529  -0.480  1.00  0.00     0.125 A 
ATOM     16  F   UNL     1      -2.304   1.282  -0.203  1.00  0.00    -0.207 F 
ATOM     17  C   UNL     1      -1.380  -0.854  -0.578  1.00  0.00     0.065 A 
ENDBRANCH   8  10
ENDBRANCH   6   8
BRANCH   6  18
ATOM     18  C   UNL     1      -0.796  -5.443  -0.297  1.00  0.00    -0.009 A 
ATOM     19  C   UNL     1       0.585  -5.686  -0.148  1.00  0.00     0.007 A 
ATOM     20  C   UNL     1      -1.639  -6.574  -0.309  1.00  0.00     0.046 A 
ATOM     21  C   UNL     1       1.096  -6.987  -0.032  1.00  0.00     0.003 A 
ATOM     22  C   UNL     1      -1.123  -7.863  -0.186  1.00  0.00     0.123 A 
ATOM     23  C   UNL     1       0.238  -8.080  -0.052  1.00  0.00     0.039 A 
ATOM     24  F   UNL     1      -1.964  -8.908  -0.187  1.00  0.00    -0.207 F 
ENDBRANCH   6  18
ENDBRANCH   4   6
ENDBRANCH   3   4
ENDBRANCH   2   3
ENDBRANCH   1   2
BRANCH   1  25
ATOM     25  O   UNL     1      -1.115  -3.852   4.201  1.00  0.00    -0.458 OA
BRANCH  25  26
ATOM     26  C   UNL     1       0.017  -4.377   3.673  1.00  0.00     0.338 C 
ATOM     27  O   UNL     1       0.153  -5.493   3.200  1.00  0.00    -0.246 OA
BRANCH  26  28
ATOM     28  C   UNL     1       1.077  -3.355   3.617  1.00  0.00     0.060 A 
ATOM     29  C   UNL     1       1.492  -2.929   2.355  1.00  0.00     0.016 A 
ATOM     30  C   UNL     1       1.724  -2.892   4.762  1.00  0.00     0.016 A 
ATOM     31  C   UNL     1       2.563  -2.053   2.222  1.00  0.00     0.010 A 
ATOM     32  C   UNL     1       2.802  -2.004   4.631  1.00  0.00     0.010 A 
ATOM     33  C   UNL     1       3.235  -1.592   3.358  1.00  0.00    -0.014 A 
BRANCH  33  34
ATOM     34  C   UNL     1       4.425  -0.730   3.172  1.00  0.00     0.031 A 
ATOM     35  C   UNL     1       5.799  -1.334   3.238  1.00  0.00     0.074 A 
ATOM     36  C   UNL     1       4.270   0.567   2.844  1.00  0.00     0.049 A 
ATOM     37  N   UNL     1       6.963  -0.756   3.094  1.00  0.00    -0.248 NA
ATOM     38  C   UNL     1       5.869  -2.782   3.489  1.00  0.00     0.031 C 
ATOM     39  C   UNL     1       2.984   1.243   2.671  1.00  0.00     0.029 A 
ATOM     40  N   UNL     1       5.199   1.537   2.568  1.00  0.00    -0.354 N 
ATOM     41  C   UNL     1       7.907  -1.761   3.266  1.00  0.00     0.074 A 
ATOM     42  C   UNL     1       7.179  -2.988   3.513  1.00  0.00     0.031 C 
ATOM     43  C   UNL     1       3.207   2.511   2.285  1.00  0.00     0.029 A 
ATOM     44  C   UNL     1       4.647   2.745   2.217  1.00  0.00     0.049 A 
ATOM     45  H   UNL     1       6.170   1.382   2.616  1.00  0.00     0.167 HD
ATOM     46  C   UNL     1       9.258  -1.664   3.236  1.00  0.00     0.037 A 
ATOM     47  C   UNL     1       5.240   3.908   1.881  1.00  0.00     0.037 A 
ATOM     48  C   UNL     1       9.979  -0.443   2.991  1.00  0.00     0.049 A 
ATOM     49  C   UNL     1       6.743   3.996   1.885  1.00  0.00     0.074 A 
ATOM     50  C   UNL     1      11.346  -0.231   2.998  1.00  0.00     0.029 A 
ATOM     51  N   UNL     1       9.387   0.776   2.691  1.00  0.00    -0.354 N 
ATOM     52  N   UNL     1       7.625   3.051   2.107  1.00  0.00    -0.248 NA
ATOM     53  C   UNL     1       7.331   5.316   1.615  1.00  0.00     0.031 C 
ATOM     54  C   UNL     1      11.581   1.124   2.731  1.00  0.00     0.029 A 
ATOM     55  C   UNL     1      10.361   1.747   2.523  1.00  0.00     0.049 A 
ATOM     56  H   UNL     1       8.418   0.928   2.609  1.00  0.00     0.167 HD
ATOM     57  C   UNL     1       8.870   3.662   2.009  1.00  0.00     0.074 A 
ATOM     58  C   UNL     1       8.629   5.051   1.675  1.00  0.00     0.031 C 
ATOM     59  C   UNL     1      10.101   3.126   2.195  1.00  0.00     0.037 A 
BRANCH  46  60
ATOM     60  C   UNL     1      10.039  -2.909   3.541  1.00  0.00     0.058 A 
ATOM     61  C   UNL     1      10.191  -3.940   2.602  1.00  0.00     0.135 A 
ATOM     62  C   UNL     1      10.641  -3.072   4.800  1.00  0.00     0.135 A 
ATOM     63  F   UNL     1       9.618  -3.841   1.392  1.00  0.00    -0.206 F 
ATOM     64  C   UNL     1      10.891  -5.103   2.909  1.00  0.00     0.059 A 
ATOM     65  C   UNL     1      11.360  -4.218   5.122  1.00  0.00     0.059 A 
ATOM     66  F   UNL     1      10.520  -2.116   5.734  1.00  0.00    -0.206 F 
ATOM     67  C   UNL     1      11.464  -5.236   4.176  1.00  0.00     0.060 A 
BRANCH  67  68
ATOM     68  S   UNL     1      12.344  -6.761   4.576  1.00  0.00     0.124 S 
ATOM     69  O   UNL     1      11.236  -7.681   4.813  1.00  0.00    -0.237 OA
ATOM     70  O   UNL     1      13.122  -7.004   3.365  1.00  0.00    -0.237 OA
ATOM     71  O   UNL     1      13.125  -6.401   5.756  1.00  0.00    -0.744 OA
ENDBRANCH  67  68
ENDBRANCH  46  60
BRANCH  47  72
ATOM     72  C   UNL     1       4.415   5.087   1.511  1.00  0.00     0.058 A 
ATOM     73  C   UNL     1       4.385   5.552   0.188  1.00  0.00     0.135 A 
ATOM     74  C   UNL     1       3.649   5.774   2.465  1.00  0.00     0.135 A 
ATOM     75  F   UNL     1       5.108   4.932  -0.757  1.00  0.00    -0.206 F 
ATOM     76  C   UNL     1       3.633   6.664  -0.176  1.00  0.00     0.059 A 
ATOM     77  C   UNL     1       2.871   6.875   2.120  1.00  0.00     0.059 A 
ATOM     78  F   UNL     1       3.639   5.364   3.742  1.00  0.00    -0.206 F 
ATOM     79  C   UNL     1       2.880   7.320   0.799  1.00  0.00     0.060 A 
BRANCH  79  80
ATOM     80  S   UNL     1       1.866   8.735   0.315  1.00  0.00     0.124 S 
ATOM     81  O   UNL     1       2.853   9.808   0.295  1.00  0.00    -0.237 OA
ATOM     82  O   UNL     1       1.349   8.319  -0.985  1.00  0.00    -0.237 OA
ATOM     83  O   UNL     1       0.871   8.807   1.381  1.00  0.00    -0.744 OA
ENDBRANCH  79  80
ENDBRANCH  47  72
BRANCH  59  84
ATOM     84  C   UNL     1      11.281   4.045   2.052  1.00  0.00     0.058 A 
ATOM     85  C   UNL     1      11.608   4.970   3.056  1.00  0.00     0.135 A 
ATOM     86  C   UNL     1      12.124   3.962   0.933  1.00  0.00     0.135 A 
ATOM     87  F   UNL     1      10.831   5.090   4.143  1.00  0.00    -0.206 F 
ATOM     88  C   UNL     1      12.723   5.795   2.947  1.00  0.00     0.059 A 
ATOM     89  C   UNL     1      13.255   4.764   0.812  1.00  0.00     0.059 A 
ATOM     90  F   UNL     1      11.859   3.087  -0.050  1.00  0.00    -0.206 F 
ATOM     91  C   UNL     1      13.541   5.685   1.821  1.00  0.00     0.060 A 
BRANCH  91  92
ATOM     92  S   UNL     1      15.008   6.731   1.708  1.00  0.00     0.124 S 
ATOM     93  O   UNL     1      14.428   8.008   1.308  1.00  0.00    -0.237 OA
ATOM     94  O   UNL     1      15.542   6.675   3.066  1.00  0.00    -0.237 OA
ATOM     95  O   UNL     1      15.822   6.064   0.696  1.00  0.00    -0.744 OA
ENDBRANCH  91  92
ENDBRANCH  59  84
ENDBRANCH  33  34
ENDBRANCH  26  28
ENDBRANCH  25  26
ENDBRANCH   1  25
TORSDOF 17
