REMARK SMILES C=C1C=C[C@H](C(=O)OCCOC(=O)c2ccc(-c3c4nc(c(-c5c(F)cc(S(=O)(=O)[O-])cc5F)c5ccc([nH]5)c(-c5c(F)cc(S(=O)(=O)[O-])cc5F)c5nc(c(-c6c(F)cc(S(=O)(=O)[O-])cc6F)c6ccc3[nH]6)C=C5)C=C4)cc2)C(=S)N1
REMARK SMILES IDX 11 1 10 2 9 3 8 4 6 5 7 6 5 7 1 8 2 9 3 10 82 11 4 12 80 13
REMARK SMILES IDX 81 15 12 16 13 17 14 18 15 19 79 20 16 21 78 22 17 23 18 24
REMARK SMILES IDX 19 25 72 26 20 27 77 28 71 29 73 30 21 31 76 32 70 33 69 34
REMARK SMILES IDX 22 36 56 37 35 38 55 39 36 40 39 41 54 42 74 43 37 44 38 45
REMARK SMILES IDX 53 47 75 48 40 49 23 50 24 51 33 52 25 53 26 54 32 55 34 56
REMARK SMILES IDX 27 57 28 58 29 59 30 60 31 61 57 62 58 63 67 64 59 65 60 66
REMARK SMILES IDX 66 67 68 68 61 69 62 70 63 71 64 72 65 73 41 74 42 75 51 76
REMARK SMILES IDX 43 77 44 78 50 79 52 80 45 81 46 82 47 83 48 84 49 85
REMARK H PARENT 82 14 73 35 39 46
REMARK Flexibility Score: inf
ROOT
ATOM      1  O   UNL     1      -1.347   6.844   1.284  1.00  0.00    -0.458 OA
ENDROOT
BRANCH   1   2
ATOM      2  C   UNL     1      -1.672   6.128   2.491  1.00  0.00     0.275 C 
BRANCH   2   3
ATOM      3  C   UNL     1      -2.616   4.954   2.220  1.00  0.00     0.274 C 
BRANCH   3   4
ATOM      4  O   UNL     1      -1.971   3.886   1.496  1.00  0.00    -0.461 OA
BRANCH   4   5
ATOM      5  C   UNL     1      -2.164   3.890   0.148  1.00  0.00     0.319 C 
ATOM      6  O   UNL     1      -2.792   4.752  -0.459  1.00  0.00    -0.251 OA
BRANCH   5   7
ATOM      7  C   UNL     1      -1.480   2.724  -0.554  1.00  0.00     0.180 C 
ATOM      8  C   UNL     1       0.954  -0.642   0.353  1.00  0.00     0.037 C 
ATOM      9  C   UNL     1       0.193   0.434   0.123  1.00  0.00     0.031 C 
ATOM     10  C   UNL     1       0.770   1.739  -0.070  1.00  0.00     0.022 C 
ATOM     11  N   UNL     1      -1.172   0.323   0.076  1.00  0.00    -0.350 N 
ATOM     12  C   UNL     1       0.016   2.801  -0.371  1.00  0.00    -0.003 C 
ATOM     13  C   UNL     1      -2.046   1.350  -0.192  1.00  0.00     0.098 C 
ATOM     14  H   UNL     1      -1.559  -0.565   0.250  1.00  0.00     0.167 HD
ATOM     15  S   UNL     1      -3.689   1.003  -0.217  1.00  0.00    -0.064 S 
ENDBRANCH   5   7
ENDBRANCH   4   5
ENDBRANCH   3   4
ENDBRANCH   2   3
ENDBRANCH   1   2
BRANCH   1  16
ATOM     16  C   UNL     1      -0.136   6.554   0.755  1.00  0.00     0.338 C 
ATOM     17  O   UNL     1       0.704   5.795   1.209  1.00  0.00    -0.246 OA
BRANCH  16  18
ATOM     18  C   UNL     1       0.020   7.205  -0.554  1.00  0.00     0.060 A 
ATOM     19  C   UNL     1      -0.048   6.399  -1.691  1.00  0.00     0.016 A 
ATOM     20  C   UNL     1       0.373   8.551  -0.663  1.00  0.00     0.016 A 
ATOM     21  C   UNL     1       0.295   6.915  -2.934  1.00  0.00     0.010 A 
ATOM     22  C   UNL     1       0.676   9.082  -1.925  1.00  0.00     0.010 A 
ATOM     23  C   UNL     1       0.666   8.259  -3.064  1.00  0.00    -0.014 A 
BRANCH  23  24
ATOM     24  C   UNL     1       1.064   8.753  -4.407  1.00  0.00     0.031 A 
ATOM     25  C   UNL     1       2.502   9.068  -4.710  1.00  0.00     0.074 A 
ATOM     26  C   UNL     1       0.136   8.821  -5.381  1.00  0.00     0.049 A 
ATOM     27  N   UNL     1       3.040   9.456  -5.839  1.00  0.00    -0.248 NA
ATOM     28  C   UNL     1       3.461   8.931  -3.604  1.00  0.00     0.031 C 
ATOM     29  C   UNL     1      -1.287   8.518  -5.213  1.00  0.00     0.029 A 
ATOM     30  N   UNL     1       0.256   9.133  -6.711  1.00  0.00    -0.354 N 
ATOM     31  C   UNL     1       4.392   9.635  -5.575  1.00  0.00     0.074 A 
ATOM     32  C   UNL     1       4.593   9.321  -4.176  1.00  0.00     0.031 C 
ATOM     33  C   UNL     1      -1.900   8.617  -6.403  1.00  0.00     0.029 A 
ATOM     34  C   UNL     1      -0.923   9.023  -7.409  1.00  0.00     0.049 A 
ATOM     35  H   UNL     1       1.105   9.409  -7.126  1.00  0.00     0.167 HD
ATOM     36  C   UNL     1       5.376  10.023  -6.422  1.00  0.00     0.037 A 
ATOM     37  C   UNL     1      -1.188   9.223  -8.713  1.00  0.00     0.037 A 
ATOM     38  C   UNL     1       5.182  10.306  -7.820  1.00  0.00     0.049 A 
ATOM     39  C   UNL     1      -0.074   9.622  -9.637  1.00  0.00     0.074 A 
ATOM     40  C   UNL     1       6.116  10.716  -8.757  1.00  0.00     0.029 A 
ATOM     41  N   UNL     1       3.971  10.196  -8.488  1.00  0.00    -0.354 N 
ATOM     42  N   UNL     1       1.194   9.813  -9.362  1.00  0.00    -0.248 NA
ATOM     43  C   UNL     1      -0.426   9.834 -11.047  1.00  0.00     0.031 C 
ATOM     44  C   UNL     1       5.466  10.866  -9.989  1.00  0.00     0.029 A 
ATOM     45  C   UNL     1       4.133  10.528  -9.823  1.00  0.00     0.049 A 
ATOM     46  H   UNL     1       3.122   9.921  -8.073  1.00  0.00     0.167 HD
ATOM     47  C   UNL     1       1.792  10.171 -10.564  1.00  0.00     0.074 A 
ATOM     48  C   UNL     1       0.751  10.143 -11.573  1.00  0.00     0.031 C 
ATOM     49  C   UNL     1       3.083  10.502 -10.809  1.00  0.00     0.037 A 
BRANCH  36  50
ATOM     50  C   UNL     1       6.751  10.190  -5.843  1.00  0.00     0.058 A 
ATOM     51  C   UNL     1       7.573   9.086  -5.565  1.00  0.00     0.135 A 
ATOM     52  C   UNL     1       7.256  11.471  -5.571  1.00  0.00     0.135 A 
ATOM     53  F   UNL     1       7.129   7.840  -5.790  1.00  0.00    -0.206 F 
ATOM     54  C   UNL     1       8.840   9.246  -5.013  1.00  0.00     0.059 A 
ATOM     55  C   UNL     1       8.527  11.655  -5.034  1.00  0.00     0.059 A 
ATOM     56  F   UNL     1       6.508  12.558  -5.816  1.00  0.00    -0.206 F 
ATOM     57  C   UNL     1       9.305  10.535  -4.743  1.00  0.00     0.060 A 
BRANCH  57  58
ATOM     58  S   UNL     1      10.944  10.737  -4.012  1.00  0.00     0.124 S 
ATOM     59  O   UNL     1      10.671  10.457  -2.606  1.00  0.00    -0.237 OA
ATOM     60  O   UNL     1      11.733   9.730  -4.716  1.00  0.00    -0.237 OA
ATOM     61  O   UNL     1      11.283  12.122  -4.324  1.00  0.00    -0.744 OA
ENDBRANCH  57  58
ENDBRANCH  36  50
BRANCH  37  62
ATOM     62  C   UNL     1      -2.571   9.042  -9.217  1.00  0.00     0.058 A 
ATOM     63  C   UNL     1      -2.921   7.920  -9.981  1.00  0.00     0.135 A 
ATOM     64  C   UNL     1      -3.577   9.973  -8.915  1.00  0.00     0.135 A 
ATOM     65  F   UNL     1      -1.990   7.008 -10.298  1.00  0.00    -0.206 F 
ATOM     66  C   UNL     1      -4.222   7.727 -10.433  1.00  0.00     0.059 A 
ATOM     67  C   UNL     1      -4.888   9.792  -9.340  1.00  0.00     0.059 A 
ATOM     68  F   UNL     1      -3.290  11.055  -8.175  1.00  0.00    -0.206 F 
ATOM     69  C   UNL     1      -5.200   8.669 -10.106  1.00  0.00     0.060 A 
BRANCH  69  70
ATOM     70  S   UNL     1      -6.904   8.386 -10.631  1.00  0.00     0.124 S 
ATOM     71  O   UNL     1      -6.879   8.902 -11.995  1.00  0.00    -0.237 OA
ATOM     72  O   UNL     1      -7.040   6.938 -10.499  1.00  0.00    -0.237 OA
ATOM     73  O   UNL     1      -7.678   9.168  -9.671  1.00  0.00    -0.744 OA
ENDBRANCH  69  70
ENDBRANCH  37  62
BRANCH  49  74
ATOM     74  C   UNL     1       3.429  10.858 -12.224  1.00  0.00     0.058 A 
ATOM     75  C   UNL     1       3.097  12.112 -12.761  1.00  0.00     0.135 A 
ATOM     76  C   UNL     1       4.094   9.941 -13.051  1.00  0.00     0.135 A 
ATOM     77  F   UNL     1       2.456  13.020 -12.008  1.00  0.00    -0.206 F 
ATOM     78  C   UNL     1       3.384  12.434 -14.083  1.00  0.00     0.059 A 
ATOM     79  C   UNL     1       4.404  10.247 -14.372  1.00  0.00     0.059 A 
ATOM     80  F   UNL     1       4.438   8.732 -12.581  1.00  0.00    -0.206 F 
ATOM     81  C   UNL     1       4.029  11.490 -14.884  1.00  0.00     0.060 A 
BRANCH  81  82
ATOM     82  S   UNL     1       4.396  11.904 -16.603  1.00  0.00     0.124 S 
ATOM     83  O   UNL     1       3.131  11.587 -17.256  1.00  0.00    -0.237 OA
ATOM     84  O   UNL     1       4.733  13.322 -16.527  1.00  0.00    -0.237 OA
ATOM     85  O   UNL     1       5.512  11.020 -16.927  1.00  0.00    -0.744 OA
ENDBRANCH  81  82
ENDBRANCH  49  74
ENDBRANCH  23  24
ENDBRANCH  16  18
ENDBRANCH   1  16
TORSDOF 14
