REMARK SMILES O=C(OCCOC(=O)c1ccc(-c2c3nc(c(-c4c(F)cc(S(=O)(=O)[O-])cc4F)c4ccc([nH]4)c(-c4c(F)cc(S(=O)(=O)[O-])cc4F)c4nc(c(-c5c(F)cc(S(=O)(=O)[O-])cc5F)c5ccc2[nH]5)C=C4)C=C3)cc1)/C(=C/c1ccccc1Cl)NC(=O)c1ccccc1
REMARK SMILES IDX 5 1 4 2 3 3 2 4 1 5 75 6 76 7 84 8 85 9 86 11 87 12 88 13
REMARK SMILES IDX 92 14 89 15 91 16 90 17 77 18 78 19 82 20 79 21 81 22 83 23
REMARK SMILES IDX 80 24 6 25 7 26 8 27 9 28 10 29 74 30 11 31 73 32 12 33
REMARK SMILES IDX 13 34 14 35 67 36 15 37 72 38 66 39 68 40 16 41 71 42 65 43
REMARK SMILES IDX 64 44 17 46 51 47 30 48 50 49 31 50 34 51 49 52 69 53 32 54
REMARK SMILES IDX 33 55 48 57 70 58 35 59 18 60 19 61 28 62 20 63 21 64 27 65
REMARK SMILES IDX 29 66 22 67 23 68 24 69 25 70 26 71 52 72 53 73 62 74 54 75
REMARK SMILES IDX 55 76 61 77 63 78 56 79 57 80 58 81 59 82 60 83 36 84 37 85
REMARK SMILES IDX 46 86 38 87 39 88 45 89 47 90 40 91 41 92 42 93 43 94 44 95
REMARK H PARENT 84 10 68 45 34 56
REMARK Flexibility Score: inf
ROOT
ATOM      1  C   UNL     1       3.295   1.806   0.905  1.00  0.00     0.275 C 
ENDROOT
BRANCH   1   2
ATOM      2  C   UNL     1       2.364   1.220  -0.170  1.00  0.00     0.275 C 
BRANCH   2   3
ATOM      3  O   UNL     1       2.180  -0.192   0.016  1.00  0.00    -0.457 OA
BRANCH   3   4
ATOM      4  C   UNL     1       3.065  -0.975  -0.647  1.00  0.00     0.354 C 
ATOM      5  O   UNL     1       2.902  -1.391  -1.783  1.00  0.00    -0.244 OA
BRANCH   4   6
ATOM      6  C   UNL     1       4.138  -1.442   0.278  1.00  0.00     0.128 C 
ATOM      7  C   UNL     1       3.663  -2.214   1.282  1.00  0.00     0.043 C 
BRANCH   6   8
ATOM      8  N   UNL     1       5.468  -1.132   0.089  1.00  0.00    -0.316 N 
ATOM      9  C   UNL     1       6.160  -0.280  -0.751  1.00  0.00     0.255 C 
ATOM     10  H   UNL     1       6.062  -1.634   0.692  1.00  0.00     0.170 HD
ATOM     11  O   UNL     1       7.381  -0.175  -0.625  1.00  0.00    -0.269 OA
BRANCH   9  12
ATOM     12  C   UNL     1       5.523   0.604  -1.748  1.00  0.00     0.040 A 
ATOM     13  C   UNL     1       5.073   0.111  -2.971  1.00  0.00     0.014 A 
ATOM     14  C   UNL     1       5.497   1.988  -1.511  1.00  0.00     0.014 A 
ATOM     15  C   UNL     1       4.498   0.982  -3.903  1.00  0.00     0.001 A 
ATOM     16  C   UNL     1       4.891   2.852  -2.427  1.00  0.00     0.001 A 
ATOM     17  C   UNL     1       4.383   2.345  -3.621  1.00  0.00     0.000 A 
ENDBRANCH   9  12
ENDBRANCH   6   8
BRANCH   7  18
ATOM     18  C   UNL     1       4.260  -2.874   2.474  1.00  0.00    -0.005 A 
ATOM     19  C   UNL     1       3.655  -4.095   2.850  1.00  0.00     0.010 A 
ATOM     20  C   UNL     1       5.202  -2.327   3.362  1.00  0.00     0.048 A 
ATOM     21  C   UNL     1       3.957  -4.729   4.061  1.00  0.00     0.001 A 
ATOM     22  C   UNL     1       5.510  -2.973   4.574  1.00  0.00     0.021 A 
ATOM     23  Cl  UNL     1       5.979  -0.806   3.101  1.00  0.00    -0.084 Cl
ATOM     24  C   UNL     1       4.878  -4.162   4.929  1.00  0.00     0.002 A 
ENDBRANCH   7  18
ENDBRANCH   4   6
ENDBRANCH   3   4
ENDBRANCH   2   3
ENDBRANCH   1   2
BRANCH   1  25
ATOM     25  O   UNL     1       3.056   1.254   2.198  1.00  0.00    -0.458 OA
BRANCH  25  26
ATOM     26  C   UNL     1       1.793   1.381   2.641  1.00  0.00     0.338 C 
ATOM     27  O   UNL     1       0.951   2.174   2.247  1.00  0.00    -0.246 OA
BRANCH  26  28
ATOM     28  C   UNL     1       1.537   0.215   3.491  1.00  0.00     0.060 A 
ATOM     29  C   UNL     1       0.317  -0.445   3.334  1.00  0.00     0.016 A 
ATOM     30  C   UNL     1       2.495  -0.236   4.406  1.00  0.00     0.016 A 
ATOM     31  C   UNL     1       0.003  -1.498   4.178  1.00  0.00     0.010 A 
ATOM     32  C   UNL     1       2.197  -1.319   5.222  1.00  0.00     0.010 A 
ATOM     33  C   UNL     1       0.919  -1.892   5.163  1.00  0.00    -0.014 A 
BRANCH  33  34
ATOM     34  C   UNL     1       0.434  -2.705   6.294  1.00  0.00     0.031 A 
ATOM     35  C   UNL     1       0.144  -1.992   7.588  1.00  0.00     0.074 A 
ATOM     36  C   UNL     1       0.200  -4.018   6.140  1.00  0.00     0.049 A 
ATOM     37  N   UNL     1      -0.398  -2.454   8.682  1.00  0.00    -0.248 NA
ATOM     38  C   UNL     1       0.511  -0.565   7.661  1.00  0.00     0.031 C 
ATOM     39  C   UNL     1       0.438  -4.783   4.916  1.00  0.00     0.029 A 
ATOM     40  N   UNL     1      -0.296  -4.938   7.021  1.00  0.00    -0.354 N 
ATOM     41  C   UNL     1      -0.462  -1.371   9.552  1.00  0.00     0.074 A 
ATOM     42  C   UNL     1       0.180  -0.255   8.902  1.00  0.00     0.031 C 
ATOM     43  C   UNL     1       0.110  -6.068   5.133  1.00  0.00     0.029 A 
ATOM     44  C   UNL     1      -0.376  -6.207   6.503  1.00  0.00     0.049 A 
ATOM     45  H   UNL     1      -0.569  -4.713   7.940  1.00  0.00     0.167 HD
ATOM     46  C   UNL     1      -1.051  -1.302  10.767  1.00  0.00     0.037 A 
ATOM     47  C   UNL     1      -0.813  -7.343   7.075  1.00  0.00     0.037 A 
ATOM     48  C   UNL     1      -1.694  -2.425  11.388  1.00  0.00     0.049 A 
ATOM     49  C   UNL     1      -1.415  -7.259   8.452  1.00  0.00     0.074 A 
ATOM     50  C   UNL     1      -2.361  -2.481  12.596  1.00  0.00     0.029 A 
ATOM     51  N   UNL     1      -1.742  -3.699  10.839  1.00  0.00    -0.354 N 
ATOM     52  N   UNL     1      -1.541  -6.212   9.235  1.00  0.00    -0.248 NA
ATOM     53  C   UNL     1      -1.977  -8.497   9.005  1.00  0.00     0.031 C 
ATOM     54  C   UNL     1      -2.776  -3.803  12.797  1.00  0.00     0.029 A 
ATOM     55  C   UNL     1      -2.410  -4.557  11.691  1.00  0.00     0.049 A 
ATOM     56  H   UNL     1      -1.356  -3.954   9.969  1.00  0.00     0.167 HD
ATOM     57  C   UNL     1      -2.249  -6.651  10.348  1.00  0.00     0.074 A 
ATOM     58  C   UNL     1      -2.511  -8.062  10.137  1.00  0.00     0.031 C 
ATOM     59  C   UNL     1      -2.662  -5.953  11.436  1.00  0.00     0.037 A 
BRANCH  46  60
ATOM     60  C   UNL     1      -1.022   0.024  11.475  1.00  0.00     0.058 A 
ATOM     61  C   UNL     1      -1.759   1.127  11.007  1.00  0.00     0.135 A 
ATOM     62  C   UNL     1      -0.238   0.205  12.624  1.00  0.00     0.135 A 
ATOM     63  F   UNL     1      -2.506   1.019   9.896  1.00  0.00    -0.206 F 
ATOM     64  C   UNL     1      -1.691   2.368  11.631  1.00  0.00     0.059 A 
ATOM     65  C   UNL     1      -0.177   1.431  13.282  1.00  0.00     0.059 A 
ATOM     66  F   UNL     1       0.494  -0.810  13.110  1.00  0.00    -0.206 F 
ATOM     67  C   UNL     1      -0.893   2.511  12.768  1.00  0.00     0.060 A 
BRANCH  67  68
ATOM     68  S   UNL     1      -0.807   4.129  13.563  1.00  0.00     0.124 S 
ATOM     69  O   UNL     1       0.019   4.874  12.619  1.00  0.00    -0.237 OA
ATOM     70  O   UNL     1      -2.211   4.523  13.623  1.00  0.00    -0.237 OA
ATOM     71  O   UNL     1      -0.184   3.842  14.851  1.00  0.00    -0.744 OA
ENDBRANCH  67  68
ENDBRANCH  46  60
BRANCH  47  72
ATOM     72  C   UNL     1      -0.753  -8.623   6.324  1.00  0.00     0.058 A 
ATOM     73  C   UNL     1      -1.914  -9.235   5.830  1.00  0.00     0.135 A 
ATOM     74  C   UNL     1       0.477  -9.250   6.066  1.00  0.00     0.135 A 
ATOM     75  F   UNL     1      -3.112  -8.671   6.045  1.00  0.00    -0.206 F 
ATOM     76  C   UNL     1      -1.863 -10.435   5.129  1.00  0.00     0.059 A 
ATOM     77  C   UNL     1       0.556 -10.440   5.350  1.00  0.00     0.059 A 
ATOM     78  F   UNL     1       1.620  -8.691   6.495  1.00  0.00    -0.206 F 
ATOM     79  C   UNL     1      -0.622 -11.031   4.895  1.00  0.00     0.060 A 
BRANCH  79  80
ATOM     80  S   UNL     1      -0.567 -12.572   3.954  1.00  0.00     0.124 S 
ATOM     81  O   UNL     1      -1.145 -13.516   4.904  1.00  0.00    -0.237 OA
ATOM     82  O   UNL     1      -1.389 -12.249   2.793  1.00  0.00    -0.237 OA
ATOM     83  O   UNL     1       0.856 -12.746   3.678  1.00  0.00    -0.744 OA
ENDBRANCH  79  80
ENDBRANCH  47  72
BRANCH  59  84
ATOM     84  C   UNL     1      -3.490  -6.695  12.445  1.00  0.00     0.058 A 
ATOM     85  C   UNL     1      -2.930  -7.653  13.302  1.00  0.00     0.135 A 
ATOM     86  C   UNL     1      -4.859  -6.408  12.577  1.00  0.00     0.135 A 
ATOM     87  F   UNL     1      -1.627  -7.962  13.211  1.00  0.00    -0.206 F 
ATOM     88  C   UNL     1      -3.707  -8.330  14.234  1.00  0.00     0.059 A 
ATOM     89  C   UNL     1      -5.648  -7.051  13.523  1.00  0.00     0.059 A 
ATOM     90  F   UNL     1      -5.437  -5.487  11.790  1.00  0.00    -0.206 F 
ATOM     91  C   UNL     1      -5.066  -8.023  14.334  1.00  0.00     0.060 A 
BRANCH  91  92
ATOM     92  S   UNL     1      -6.063  -8.899  15.556  1.00  0.00     0.124 S 
ATOM     93  O   UNL     1      -6.240 -10.196  14.912  1.00  0.00    -0.237 OA
ATOM     94  O   UNL     1      -5.199  -8.887  16.732  1.00  0.00    -0.237 OA
ATOM     95  O   UNL     1      -7.266  -8.079  15.662  1.00  0.00    -0.744 OA
ENDBRANCH  91  92
ENDBRANCH  59  84
ENDBRANCH  33  34
ENDBRANCH  26  28
ENDBRANCH  25  26
ENDBRANCH   1  25
TORSDOF 17
