REMARK SMILES CC(=O)Nc1ccc(/C(=C\c2ccc(S(C)(=O)=O)cc2)C(=O)OCCOC(=O)c2ccc(-c3c4nc(c(-c5c(F)cc(S(=O)(=O)[O-])cc5F)c5ccc([nH]5)c(-c5c(F)cc(S(=O)(=O)[O-])cc5F)c5nc(c(-c6c(F)cc(S(=O)(=O)[O-])cc6F)c6ccc3[nH]6)C=C5)C=C4)cc2)cc1
REMARK SMILES IDX 25 1 24 2 23 3 21 4 22 5 9 6 10 7 8 8 5 9 6 10 96 11 7 12
REMARK SMILES IDX 95 13 4 14 1 15 2 16 3 17 11 19 12 20 20 21 13 22 19 23
REMARK SMILES IDX 14 24 15 25 16 26 17 27 18 28 26 29 27 30 28 31 29 32 30 33
REMARK SMILES IDX 94 34 31 35 93 36 32 37 33 38 34 39 87 40 35 41 92 42 86 43
REMARK SMILES IDX 88 44 36 45 91 46 85 47 84 48 37 50 71 51 50 52 70 53 51 54
REMARK SMILES IDX 54 55 69 56 89 57 52 58 53 59 68 61 90 62 55 63 38 64 39 65
REMARK SMILES IDX 48 66 40 67 41 68 47 69 49 70 42 71 43 72 44 73 45 74 46 75
REMARK SMILES IDX 72 76 73 77 82 78 74 79 75 80 81 81 83 82 76 83 77 84 78 85
REMARK SMILES IDX 79 86 80 87 56 88 57 89 66 90 58 91 59 92 65 93 67 94 60 95
REMARK SMILES IDX 61 96 62 97 63 98 64 99
REMARK H PARENT 4 18 88 49 54 60
REMARK Flexibility Score: inf
ROOT
ATOM      1  C   UNL     1       6.923   4.895   2.537  1.00  0.00     0.275 C 
ENDROOT
BRANCH   1   2
ATOM      2  C   UNL     1       7.160   5.357   1.100  1.00  0.00     0.275 C 
BRANCH   2   3
ATOM      3  O   UNL     1       5.898   5.547   0.423  1.00  0.00    -0.458 OA
BRANCH   3   4
ATOM      4  C   UNL     1       5.714   4.903  -0.766  1.00  0.00     0.338 C 
ATOM      5  O   UNL     1       6.506   4.118  -1.264  1.00  0.00    -0.246 OA
BRANCH   4   6
ATOM      6  C   UNL     1       4.389   5.280  -1.398  1.00  0.00     0.067 C 
ATOM      7  C   UNL     1       4.079   6.591  -1.206  1.00  0.00     0.024 C 
BRANCH   6   8
ATOM      8  C   UNL     1       3.555   4.237  -2.124  1.00  0.00    -0.011 A 
ATOM      9  C   UNL     1       1.670   2.255  -2.972  1.00  0.00     0.041 A 
ATOM     10  C   UNL     1       1.486   3.582  -3.304  1.00  0.00     0.027 A 
ATOM     11  C   UNL     1       2.883   1.884  -2.413  1.00  0.00     0.027 A 
ATOM     12  C   UNL     1       2.422   4.541  -2.895  1.00  0.00     0.011 A 
ATOM     13  C   UNL     1       3.821   2.863  -2.020  1.00  0.00     0.011 A 
BRANCH   9  14
ATOM     14  N   UNL     1       0.654   1.349  -3.281  1.00  0.00    -0.326 N 
ATOM     15  C   UNL     1       0.428   0.353  -1.020  1.00  0.00     0.114 C 
ATOM     16  C   UNL     1       0.078   0.397  -2.482  1.00  0.00     0.221 C 
ATOM     17  O   UNL     1      -0.796  -0.327  -2.959  1.00  0.00    -0.275 OA
ATOM     18  H   UNL     1       0.303   1.401  -4.200  1.00  0.00     0.169 HD
ENDBRANCH   9  14
ENDBRANCH   6   8
BRANCH   7  19
ATOM     19  C   UNL     1       2.901   7.312  -1.696  1.00  0.00    -0.025 A 
ATOM     20  C   UNL     1       3.023   8.031  -2.894  1.00  0.00     0.009 A 
ATOM     21  C   UNL     1       1.639   7.109  -1.120  1.00  0.00     0.009 A 
ATOM     22  C   UNL     1       1.879   8.407  -3.596  1.00  0.00     0.021 A 
ATOM     23  C   UNL     1       0.490   7.480  -1.823  1.00  0.00     0.021 A 
ATOM     24  C   UNL     1       0.620   8.085  -3.078  1.00  0.00     0.067 A 
BRANCH  24  25
ATOM     25  S   UNL     1      -0.794   8.225  -4.149  1.00  0.00     0.175 S 
ATOM     26  C   UNL     1      -1.264   9.923  -4.011  1.00  0.00     0.163 C 
ATOM     27  O   UNL     1      -0.335   7.993  -5.498  1.00  0.00    -0.224 OA
ATOM     28  O   UNL     1      -1.863   7.418  -3.576  1.00  0.00    -0.224 OA
ENDBRANCH  24  25
ENDBRANCH   7  19
ENDBRANCH   4   6
ENDBRANCH   3   4
ENDBRANCH   2   3
ENDBRANCH   1   2
BRANCH   1  29
ATOM     29  O   UNL     1       6.390   3.560   2.516  1.00  0.00    -0.458 OA
BRANCH  29  30
ATOM     30  C   UNL     1       5.124   3.414   2.963  1.00  0.00     0.338 C 
ATOM     31  O   UNL     1       4.413   4.260   3.492  1.00  0.00    -0.246 OA
BRANCH  30  32
ATOM     32  C   UNL     1       4.654   2.073   2.594  1.00  0.00     0.060 A 
ATOM     33  C   UNL     1       4.430   1.835   1.247  1.00  0.00     0.016 A 
ATOM     34  C   UNL     1       4.320   1.103   3.537  1.00  0.00     0.016 A 
ATOM     35  C   UNL     1       3.812   0.657   0.843  1.00  0.00     0.010 A 
ATOM     36  C   UNL     1       3.750  -0.114   3.113  1.00  0.00     0.010 A 
ATOM     37  C   UNL     1       3.447  -0.338   1.758  1.00  0.00    -0.014 A 
BRANCH  37  38
ATOM     38  C   UNL     1       2.637  -1.508   1.281  1.00  0.00     0.031 A 
ATOM     39  C   UNL     1       1.241  -1.725   1.822  1.00  0.00     0.074 A 
ATOM     40  C   UNL     1       3.041  -2.275   0.243  1.00  0.00     0.049 A 
ATOM     41  N   UNL     1       0.406  -2.708   1.597  1.00  0.00    -0.248 NA
ATOM     42  C   UNL     1       0.703  -0.680   2.708  1.00  0.00     0.031 C 
ATOM     43  C   UNL     1       4.287  -2.104  -0.506  1.00  0.00     0.029 A 
ATOM     44  N   UNL     1       2.418  -3.322  -0.402  1.00  0.00    -0.354 N 
ATOM     45  C   UNL     1      -0.735  -2.424   2.341  1.00  0.00     0.074 A 
ATOM     46  C   UNL     1      -0.484  -1.175   3.028  1.00  0.00     0.031 C 
ATOM     47  C   UNL     1       4.305  -2.960  -1.539  1.00  0.00     0.029 A 
ATOM     48  C   UNL     1       3.136  -3.832  -1.462  1.00  0.00     0.049 A 
ATOM     49  H   UNL     1       1.539  -3.673  -0.131  1.00  0.00     0.167 HD
ATOM     50  C   UNL     1      -1.886  -3.132   2.447  1.00  0.00     0.037 A 
ATOM     51  C   UNL     1       2.921  -4.907  -2.249  1.00  0.00     0.037 A 
ATOM     52  C   UNL     1      -2.160  -4.357   1.742  1.00  0.00     0.049 A 
ATOM     53  C   UNL     1       1.712  -5.772  -2.002  1.00  0.00     0.074 A 
ATOM     54  C   UNL     1      -3.265  -5.185   1.851  1.00  0.00     0.029 A 
ATOM     55  N   UNL     1      -1.335  -4.920   0.780  1.00  0.00    -0.354 N 
ATOM     56  N   UNL     1       0.712  -5.576  -1.177  1.00  0.00    -0.248 NA
ATOM     57  C   UNL     1       1.623  -7.029  -2.763  1.00  0.00     0.031 C 
ATOM     58  C   UNL     1      -3.083  -6.277   0.994  1.00  0.00     0.029 A 
ATOM     59  C   UNL     1      -1.889  -6.102   0.313  1.00  0.00     0.049 A 
ATOM     60  H   UNL     1      -0.482  -4.537   0.474  1.00  0.00     0.167 HD
ATOM     61  C   UNL     1      -0.130  -6.673  -1.331  1.00  0.00     0.074 A 
ATOM     62  C   UNL     1       0.469  -7.524  -2.336  1.00  0.00     0.031 C 
ATOM     63  C   UNL     1      -1.292  -6.949  -0.689  1.00  0.00     0.037 A 
BRANCH  50  64
ATOM     64  C   UNL     1      -2.912  -2.635   3.429  1.00  0.00     0.058 A 
ATOM     65  C   UNL     1      -3.719  -1.516   3.173  1.00  0.00     0.135 A 
ATOM     66  C   UNL     1      -3.091  -3.307   4.650  1.00  0.00     0.135 A 
ATOM     67  F   UNL     1      -3.573  -0.824   2.033  1.00  0.00    -0.206 F 
ATOM     68  C   UNL     1      -4.646  -1.061   4.108  1.00  0.00     0.059 A 
ATOM     69  C   UNL     1      -4.028  -2.885   5.588  1.00  0.00     0.059 A 
ATOM     70  F   UNL     1      -2.344  -4.382   4.945  1.00  0.00    -0.206 F 
ATOM     71  C   UNL     1      -4.787  -1.749   5.315  1.00  0.00     0.060 A 
BRANCH  71  72
ATOM     72  S   UNL     1      -5.966  -1.129   6.535  1.00  0.00     0.124 S 
ATOM     73  O   UNL     1      -5.290   0.078   7.003  1.00  0.00    -0.237 OA
ATOM     74  O   UNL     1      -7.164  -0.912   5.731  1.00  0.00    -0.237 OA
ATOM     75  O   UNL     1      -6.054  -2.213   7.507  1.00  0.00    -0.744 OA
ENDBRANCH  71  72
ENDBRANCH  50  64
BRANCH  51  76
ATOM     76  C   UNL     1       3.925  -5.293  -3.285  1.00  0.00     0.058 A 
ATOM     77  C   UNL     1       3.609  -5.306  -4.652  1.00  0.00     0.135 A 
ATOM     78  C   UNL     1       5.225  -5.681  -2.917  1.00  0.00     0.135 A 
ATOM     79  F   UNL     1       2.375  -4.973  -5.059  1.00  0.00    -0.206 F 
ATOM     80  C   UNL     1       4.542  -5.687  -5.614  1.00  0.00     0.059 A 
ATOM     81  C   UNL     1       6.184  -6.030  -3.861  1.00  0.00     0.059 A 
ATOM     82  F   UNL     1       5.582  -5.698  -1.624  1.00  0.00    -0.206 F 
ATOM     83  C   UNL     1       5.830  -6.042  -5.208  1.00  0.00     0.060 A 
BRANCH  83  84
ATOM     84  S   UNL     1       7.055  -6.487  -6.459  1.00  0.00     0.124 S 
ATOM     85  O   UNL     1       6.616  -7.826  -6.837  1.00  0.00    -0.237 OA
ATOM     86  O   UNL     1       6.865  -5.445  -7.463  1.00  0.00    -0.237 OA
ATOM     87  O   UNL     1       8.318  -6.419  -5.729  1.00  0.00    -0.744 OA
ENDBRANCH  83  84
ENDBRANCH  51  76
BRANCH  63  88
ATOM     88  C   UNL     1      -2.013  -8.217  -1.060  1.00  0.00     0.058 A 
ATOM     89  C   UNL     1      -1.541  -9.477  -0.660  1.00  0.00     0.135 A 
ATOM     90  C   UNL     1      -3.223  -8.169  -1.773  1.00  0.00     0.135 A 
ATOM     91  F   UNL     1      -0.387  -9.582   0.018  1.00  0.00    -0.206 F 
ATOM     92  C   UNL     1      -2.233 -10.645  -0.966  1.00  0.00     0.059 A 
ATOM     93  C   UNL     1      -3.944  -9.322  -2.069  1.00  0.00     0.059 A 
ATOM     94  F   UNL     1      -3.726  -6.990  -2.172  1.00  0.00    -0.206 F 
ATOM     95  C   UNL     1      -3.437 -10.557  -1.669  1.00  0.00     0.060 A 
BRANCH  95  96
ATOM     96  S   UNL     1      -4.347 -12.077  -2.020  1.00  0.00     0.124 S 
ATOM     97  O   UNL     1      -3.536 -12.670  -3.079  1.00  0.00    -0.237 OA
ATOM     98  O   UNL     1      -4.312 -12.768  -0.735  1.00  0.00    -0.237 OA
ATOM     99  O   UNL     1      -5.664 -11.599  -2.431  1.00  0.00    -0.744 OA
ENDBRANCH  95  96
ENDBRANCH  63  88
ENDBRANCH  37  38
ENDBRANCH  30  32
ENDBRANCH  29  30
ENDBRANCH   1  29
TORSDOF 18
