REMARK SMILES COc1ccc2[nH]c(C(=O)c3cc(C)ccn3)c(CC(=O)OCCOC(=O)c3ccc(-c4c5nc(c(-c6c(F)cc(S(=O)(=O)[O-])cc6F)c6ccc([nH]6)c(-c6c(F)cc(S(=O)(=O)[O-])cc6F)c6nc(c(-c7c(F)cc(S(=O)(=O)[O-])cc7F)c7ccc4[nH]7)C=C6)C=C5)cc3)c2c1
REMARK SMILES IDX 23 1 22 2 20 3 21 4 19 5 18 6 3 7 4 8 95 9 5 10 94 11 6 12
REMARK SMILES IDX 7 13 8 14 2 16 1 17 9 18 10 19 11 20 12 21 17 22 13 23 16 24
REMARK SMILES IDX 14 25 15 26 24 27 25 28 26 29 27 30 28 31 29 32 93 33 30 34
REMARK SMILES IDX 92 35 31 36 32 37 33 38 86 39 34 40 91 41 85 42 87 43 35 44
REMARK SMILES IDX 90 45 84 46 83 47 36 49 70 50 49 51 69 52 50 53 53 54 68 55
REMARK SMILES IDX 88 56 51 57 52 58 67 60 89 61 54 62 37 63 38 64 47 65 39 66
REMARK SMILES IDX 40 67 46 68 48 69 41 70 42 71 43 72 44 73 45 74 71 75 72 76
REMARK SMILES IDX 81 77 73 78 74 79 80 80 82 81 75 82 76 83 77 84 78 85 79 86
REMARK SMILES IDX 55 87 56 88 65 89 57 90 58 91 64 92 66 93 59 94 60 95 61 96
REMARK SMILES IDX 62 97 63 98
REMARK H PARENT 7 15 87 48 53 59
REMARK Flexibility Score: inf
ROOT
ATOM      1  C   UNL     1      -3.366  -0.892   6.846  1.00  0.00     0.274 C 
ENDROOT
BRANCH   1   2
ATOM      2  O   UNL     1      -2.341  -0.001   6.359  1.00  0.00    -0.462 OA
BRANCH   2   3
ATOM      3  C   UNL     1      -2.789   1.167   5.823  1.00  0.00     0.310 C 
ATOM      4  O   UNL     1      -3.979   1.445   5.685  1.00  0.00    -0.252 OA
BRANCH   3   5
ATOM      5  C   UNL     1      -1.706   2.147   5.425  1.00  0.00     0.161 C 
BRANCH   5   6
ATOM      6  C   UNL     1      -0.294   1.638   5.446  1.00  0.00     0.000 A 
ATOM      7  C   UNL     1       1.028   0.589   2.021  1.00  0.00     0.119 A 
ATOM      8  C   UNL     1       2.323   0.298   2.446  1.00  0.00     0.048 A 
ATOM      9  C   UNL     1       0.060   0.996   2.942  1.00  0.00     0.057 A 
ATOM     10  C   UNL     1       2.676   0.383   3.801  1.00  0.00     0.030 A 
ATOM     11  C   UNL     1       0.401   1.133   4.302  1.00  0.00     0.008 A 
ATOM     12  C   UNL     1       1.695   0.816   4.700  1.00  0.00     0.046 A 
ATOM     13  N   UNL     1       1.764   1.052   6.054  1.00  0.00    -0.352 N 
ATOM     14  C   UNL     1       0.643   1.737   6.475  1.00  0.00     0.093 A 
ATOM     15  H   UNL     1       2.506   0.773   6.637  1.00  0.00     0.167 HD
BRANCH   7  16
ATOM     16  O   UNL     1       0.611   0.593   0.717  1.00  0.00    -0.497 OA
ATOM     17  C   UNL     1       1.212  -0.391  -0.112  1.00  0.00     0.278 C 
ENDBRANCH   7  16
BRANCH  14  18
ATOM     18  C   UNL     1       0.560   2.495   7.714  1.00  0.00     0.227 C 
ATOM     19  O   UNL     1      -0.224   3.428   7.873  1.00  0.00    -0.285 OA
BRANCH  18  20
ATOM     20  C   UNL     1       1.547   2.246   8.791  1.00  0.00     0.113 A 
ATOM     21  C   UNL     1       2.590   3.146   8.977  1.00  0.00     0.036 A 
ATOM     22  N   UNL     1       1.338   1.152   9.560  1.00  0.00    -0.253 NA
ATOM     23  C   UNL     1       3.474   2.921  10.034  1.00  0.00    -0.047 A 
ATOM     24  C   UNL     1       2.153   1.008  10.625  1.00  0.00     0.112 A 
ATOM     25  C   UNL     1       4.645   3.825  10.278  1.00  0.00     0.044 C 
ATOM     26  C   UNL     1       3.223   1.849  10.895  1.00  0.00     0.023 A 
ENDBRANCH  18  20
ENDBRANCH  14  18
ENDBRANCH   5   6
ENDBRANCH   3   5
ENDBRANCH   2   3
ENDBRANCH   1   2
BRANCH   1  27
ATOM     27  C   UNL     1      -3.483  -0.808   8.365  1.00  0.00     0.275 C 
BRANCH  27  28
ATOM     28  O   UNL     1      -3.606   0.566   8.767  1.00  0.00    -0.458 OA
BRANCH  28  29
ATOM     29  C   UNL     1      -2.640   1.006   9.606  1.00  0.00     0.338 C 
ATOM     30  O   UNL     1      -1.767   0.326  10.132  1.00  0.00    -0.246 OA
BRANCH  29  31
ATOM     31  C   UNL     1      -2.805   2.445   9.878  1.00  0.00     0.060 A 
ATOM     32  C   UNL     1      -3.051   3.359   8.853  1.00  0.00     0.016 A 
ATOM     33  C   UNL     1      -2.606   2.899  11.183  1.00  0.00     0.016 A 
ATOM     34  C   UNL     1      -2.995   4.729   9.115  1.00  0.00     0.010 A 
ATOM     35  C   UNL     1      -2.653   4.267  11.460  1.00  0.00     0.010 A 
ATOM     36  C   UNL     1      -2.811   5.201  10.424  1.00  0.00    -0.014 A 
BRANCH  36  37
ATOM     37  C   UNL     1      -2.782   6.661  10.718  1.00  0.00     0.031 A 
ATOM     38  C   UNL     1      -1.575   7.290  11.365  1.00  0.00     0.074 A 
ATOM     39  C   UNL     1      -3.855   7.425  10.430  1.00  0.00     0.049 A 
ATOM     40  N   UNL     1      -1.438   8.492  11.865  1.00  0.00    -0.248 NA
ATOM     41  C   UNL     1      -0.369   6.454  11.480  1.00  0.00     0.031 C 
ATOM     42  C   UNL     1      -5.083   6.954   9.787  1.00  0.00     0.029 A 
ATOM     43  N   UNL     1      -4.087   8.761  10.645  1.00  0.00    -0.354 N 
ATOM     44  C   UNL     1      -0.155   8.541  12.400  1.00  0.00     0.074 A 
ATOM     45  C   UNL     1       0.447   7.245  12.165  1.00  0.00     0.031 C 
ATOM     46  C   UNL     1      -5.924   7.987   9.630  1.00  0.00     0.029 A 
ATOM     47  C   UNL     1      -5.329   9.176  10.229  1.00  0.00     0.049 A 
ATOM     48  H   UNL     1      -3.427   9.364  11.058  1.00  0.00     0.167 HD
ATOM     49  C   UNL     1       0.461   9.572  13.030  1.00  0.00     0.037 A 
ATOM     50  C   UNL     1      -5.943  10.369  10.345  1.00  0.00     0.037 A 
ATOM     51  C   UNL     1      -0.120  10.879  13.212  1.00  0.00     0.049 A 
ATOM     52  C   UNL     1      -5.239  11.497  11.040  1.00  0.00     0.074 A 
ATOM     53  C   UNL     1       0.436  11.992  13.821  1.00  0.00     0.029 A 
ATOM     54  N   UNL     1      -1.380  11.256  12.771  1.00  0.00    -0.354 N 
ATOM     55  N   UNL     1      -4.047  11.510  11.586  1.00  0.00    -0.248 NA
ATOM     56  C   UNL     1      -5.968  12.767  11.149  1.00  0.00     0.031 C 
ATOM     57  C   UNL     1      -0.495  13.036  13.765  1.00  0.00     0.029 A 
ATOM     58  C   UNL     1      -1.620  12.581  13.096  1.00  0.00     0.049 A 
ATOM     59  H   UNL     1      -2.011  10.668  12.296  1.00  0.00     0.167 HD
ATOM     60  C   UNL     1      -3.881  12.790  12.099  1.00  0.00     0.074 A 
ATOM     61  C   UNL     1      -5.087  13.528  11.784  1.00  0.00     0.031 C 
ATOM     62  C   UNL     1      -2.825  13.304  12.776  1.00  0.00     0.037 A 
BRANCH  49  63
ATOM     63  C   UNL     1       1.833   9.326  13.593  1.00  0.00     0.058 A 
ATOM     64  C   UNL     1       2.969   9.261  12.773  1.00  0.00     0.135 A 
ATOM     65  C   UNL     1       2.016   9.195  14.979  1.00  0.00     0.135 A 
ATOM     66  F   UNL     1       2.850   9.367  11.441  1.00  0.00    -0.206 F 
ATOM     67  C   UNL     1       4.238   9.051  13.306  1.00  0.00     0.059 A 
ATOM     68  C   UNL     1       3.277   9.003  15.536  1.00  0.00     0.059 A 
ATOM     69  F   UNL     1       0.962   9.252  15.809  1.00  0.00    -0.206 F 
ATOM     70  C   UNL     1       4.381   8.916  14.689  1.00  0.00     0.060 A 
BRANCH  70  71
ATOM     71  S   UNL     1       6.030   8.631  15.367  1.00  0.00     0.124 S 
ATOM     72  O   UNL     1       6.226   7.216  15.062  1.00  0.00    -0.237 OA
ATOM     73  O   UNL     1       6.853   9.561  14.600  1.00  0.00    -0.237 OA
ATOM     74  O   UNL     1       5.877   8.954  16.782  1.00  0.00    -0.744 OA
ENDBRANCH  70  71
ENDBRANCH  49  63
BRANCH  50  75
ATOM     75  C   UNL     1      -7.316  10.538   9.807  1.00  0.00     0.058 A 
ATOM     76  C   UNL     1      -7.544  11.273   8.636  1.00  0.00     0.135 A 
ATOM     77  C   UNL     1      -8.418   9.929  10.426  1.00  0.00     0.135 A 
ATOM     78  F   UNL     1      -6.521  11.880   8.015  1.00  0.00    -0.206 F 
ATOM     79  C   UNL     1      -8.819  11.399   8.094  1.00  0.00     0.059 A 
ATOM     80  C   UNL     1      -9.698  10.021   9.891  1.00  0.00     0.059 A 
ATOM     81  F   UNL     1      -8.247   9.203  11.542  1.00  0.00    -0.206 F 
ATOM     82  C   UNL     1      -9.889  10.765   8.727  1.00  0.00     0.060 A 
BRANCH  82  83
ATOM     83  S   UNL     1     -11.531  10.867   7.981  1.00  0.00     0.124 S 
ATOM     84  O   UNL     1     -11.973  12.183   8.428  1.00  0.00    -0.237 OA
ATOM     85  O   UNL     1     -11.237  10.742   6.557  1.00  0.00    -0.237 OA
ATOM     86  O   UNL     1     -12.233   9.730   8.569  1.00  0.00    -0.744 OA
ENDBRANCH  82  83
ENDBRANCH  50  75
BRANCH  62  87
ATOM     87  C   UNL     1      -2.922  14.739  13.202  1.00  0.00     0.058 A 
ATOM     88  C   UNL     1      -3.694  15.123  14.309  1.00  0.00     0.135 A 
ATOM     89  C   UNL     1      -2.215  15.737  12.513  1.00  0.00     0.135 A 
ATOM     90  F   UNL     1      -4.394  14.206  14.995  1.00  0.00    -0.206 F 
ATOM     91  C   UNL     1      -3.780  16.453  14.707  1.00  0.00     0.059 A 
ATOM     92  C   UNL     1      -2.273  17.071  12.904  1.00  0.00     0.059 A 
ATOM     93  F   UNL     1      -1.458  15.418  11.451  1.00  0.00    -0.206 F 
ATOM     94  C   UNL     1      -3.068  17.421  13.995  1.00  0.00     0.060 A 
BRANCH  94  95
ATOM     95  S   UNL     1      -3.164  19.143  14.530  1.00  0.00     0.124 S 
ATOM     96  O   UNL     1      -4.451  19.551  13.975  1.00  0.00    -0.237 OA
ATOM     97  O   UNL     1      -3.109  19.028  15.984  1.00  0.00    -0.237 OA
ATOM     98  O   UNL     1      -1.991  19.754  13.912  1.00  0.00    -0.744 OA
ENDBRANCH  94  95
ENDBRANCH  62  87
ENDBRANCH  36  37
ENDBRANCH  29  31
ENDBRANCH  28  29
ENDBRANCH  27  28
ENDBRANCH   1  27
TORSDOF 18
