REMARK SMILES N#Cc1ccc(C[N@H+]2CCCC[C@H]2C(=O)OCCOC(=O)c2ccc(-c3c4nc(c(-c5c(F)cc(S(=O)(=O)[O-])cc5F)c5ccc([nH]5)c(-c5c(F)cc(S(=O)(=O)[O-])cc5F)c5nc(c(-c6c(F)cc(S(=O)(=O)[O-])cc6F)c6ccc3[nH]6)C=C5)C=C4)cc2)c(F)c1
REMARK SMILES IDX 17 1 16 2 14 3 15 4 13 5 8 6 9 7 10 9 12 10 11 11 7 12 6 13
REMARK SMILES IDX 3 14 4 15 90 16 5 17 88 18 89 19 2 20 1 21 18 22 19 23 20 24
REMARK SMILES IDX 21 25 22 26 23 27 87 28 24 29 86 30 25 31 26 32 27 33 80 34
REMARK SMILES IDX 28 35 85 36 79 37 81 38 29 39 84 40 78 41 77 42 30 44 64 45
REMARK SMILES IDX 43 46 63 47 44 48 47 49 62 50 82 51 45 52 46 53 61 55 83 56
REMARK SMILES IDX 48 57 31 58 32 59 41 60 33 61 34 62 40 63 42 64 35 65 36 66
REMARK SMILES IDX 37 67 38 68 39 69 65 70 66 71 75 72 67 73 68 74 74 75 76 76
REMARK SMILES IDX 69 77 70 78 71 79 72 80 73 81 49 82 50 83 59 84 51 85 52 86
REMARK SMILES IDX 58 87 60 88 53 89 54 90 55 91 56 92 57 93
REMARK H PARENT 8 8 81 43 47 54
REMARK Flexibility Score: inf
ROOT
ATOM      1  C   UNL     1       0.691  -2.865   2.060  1.00  0.00     0.274 C 
ENDROOT
BRANCH   1   2
ATOM      2  O   UNL     1       2.136  -2.716   1.998  1.00  0.00    -0.458 OA
BRANCH   2   3
ATOM      3  C   UNL     1       2.480  -1.507   1.501  1.00  0.00     0.365 C 
ATOM      4  O   UNL     1       1.618  -0.663   1.329  1.00  0.00    -0.245 OA
BRANCH   3   5
ATOM      5  C   UNL     1       3.940  -1.282   1.085  1.00  0.00     0.295 C 
ATOM      6  N   UNL     1       4.218   0.162   0.807  1.00  0.00    -0.319 N 
ATOM      7  C   UNL     1       4.154   0.985   2.022  1.00  0.00     0.263 C 
ATOM      8  H   UNL     1       5.196   0.153   0.517  1.00  0.00     0.349 HD
ATOM      9  C   UNL     1       4.969   0.475   3.220  1.00  0.00     0.062 C 
ATOM     10  C   UNL     1       4.906  -1.786   2.170  1.00  0.00     0.078 C 
ATOM     11  C   UNL     1       4.754  -1.011   3.474  1.00  0.00     0.013 C 
BRANCH   6  12
ATOM     12  C   UNL     1       3.669   0.778  -0.454  1.00  0.00     0.302 C 
BRANCH  12  13
ATOM     13  C   UNL     1       2.206   0.637  -0.895  1.00  0.00     0.042 A 
ATOM     14  C   UNL     1      -0.589   0.183  -0.994  1.00  0.00     0.055 A 
ATOM     15  C   UNL     1      -0.099   1.474  -0.798  1.00  0.00     0.020 A 
ATOM     16  C   UNL     1       0.301  -0.824  -1.366  1.00  0.00     0.059 A 
ATOM     17  C   UNL     1       1.292   1.702  -0.793  1.00  0.00     0.014 A 
ATOM     18  C   UNL     1       1.681  -0.583  -1.337  1.00  0.00     0.133 A 
ATOM     19  F   UNL     1       2.502  -1.616  -1.575  1.00  0.00    -0.206 F 
BRANCH  14  20
ATOM     20  C   UNL     1      -1.964  -0.137  -0.717  1.00  0.00     0.099 C 
ATOM     21  N   UNL     1      -3.048  -0.441  -0.450  1.00  0.00    -0.192 NA
ENDBRANCH  14  20
ENDBRANCH  12  13
ENDBRANCH   6  12
ENDBRANCH   3   5
ENDBRANCH   2   3
ENDBRANCH   1   2
BRANCH   1  22
ATOM     22  C   UNL     1      -0.047  -2.071   3.181  1.00  0.00     0.275 C 
BRANCH  22  23
ATOM     23  O   UNL     1      -0.167  -0.629   2.978  1.00  0.00    -0.458 OA
BRANCH  23  24
ATOM     24  C   UNL     1       0.332   0.182   3.956  1.00  0.00     0.338 C 
ATOM     25  O   UNL     1       0.781  -0.207   5.026  1.00  0.00    -0.246 OA
BRANCH  24  26
ATOM     26  C   UNL     1       0.393   1.639   3.594  1.00  0.00     0.060 A 
ATOM     27  C   UNL     1       1.033   2.017   2.432  1.00  0.00     0.016 A 
ATOM     28  C   UNL     1       0.132   2.653   4.512  1.00  0.00     0.016 A 
ATOM     29  C   UNL     1       1.607   3.280   2.261  1.00  0.00     0.010 A 
ATOM     30  C   UNL     1       0.537   3.989   4.249  1.00  0.00     0.010 A 
ATOM     31  C   UNL     1       1.338   4.318   3.136  1.00  0.00    -0.014 A 
BRANCH  31  32
ATOM     32  C   UNL     1       1.965   5.668   2.915  1.00  0.00     0.031 A 
ATOM     33  C   UNL     1       2.676   6.350   4.057  1.00  0.00     0.074 A 
ATOM     34  C   UNL     1       1.981   6.284   1.708  1.00  0.00     0.049 A 
ATOM     35  N   UNL     1       3.005   7.607   4.202  1.00  0.00    -0.248 NA
ATOM     36  C   UNL     1       3.057   5.496   5.192  1.00  0.00     0.031 C 
ATOM     37  C   UNL     1       1.501   5.717   0.445  1.00  0.00     0.029 A 
ATOM     38  N   UNL     1       2.425   7.536   1.336  1.00  0.00    -0.354 N 
ATOM     39  C   UNL     1       3.535   7.716   5.484  1.00  0.00     0.074 A 
ATOM     40  C   UNL     1       3.496   6.390   6.065  1.00  0.00     0.031 C 
ATOM     41  C   UNL     1       1.721   6.581  -0.555  1.00  0.00     0.029 A 
ATOM     42  C   UNL     1       2.197   7.834   0.009  1.00  0.00     0.049 A 
ATOM     43  H   UNL     1       2.864   8.158   1.960  1.00  0.00     0.167 HD
ATOM     44  C   UNL     1       3.987   8.825   6.119  1.00  0.00     0.037 A 
ATOM     45  C   UNL     1       2.264   8.997  -0.672  1.00  0.00     0.037 A 
ATOM     46  C   UNL     1       4.066  10.125   5.497  1.00  0.00     0.049 A 
ATOM     47  C   UNL     1       2.632  10.247   0.075  1.00  0.00     0.074 A 
ATOM     48  C   UNL     1       4.489  11.322   6.049  1.00  0.00     0.029 A 
ATOM     49  N   UNL     1       3.723  10.397   4.179  1.00  0.00    -0.354 N 
ATOM     50  N   UNL     1       2.996  10.378   1.328  1.00  0.00    -0.248 NA
ATOM     51  C   UNL     1       2.571  11.510  -0.672  1.00  0.00     0.031 C 
ATOM     52  C   UNL     1       4.331  12.327   5.088  1.00  0.00     0.029 A 
ATOM     53  C   UNL     1       3.890  11.746   3.910  1.00  0.00     0.049 A 
ATOM     54  H   UNL     1       3.406   9.728   3.529  1.00  0.00     0.167 HD
ATOM     55  C   UNL     1       3.238  11.733   1.514  1.00  0.00     0.074 A 
ATOM     56  C   UNL     1       2.986  12.379   0.240  1.00  0.00     0.031 C 
ATOM     57  C   UNL     1       3.639  12.380   2.636  1.00  0.00     0.037 A 
BRANCH  44  58
ATOM     58  C   UNL     1       4.326   8.696   7.584  1.00  0.00     0.058 A 
ATOM     59  C   UNL     1       5.402   7.929   8.056  1.00  0.00     0.135 A 
ATOM     60  C   UNL     1       3.516   9.332   8.542  1.00  0.00     0.135 A 
ATOM     61  F   UNL     1       6.206   7.287   7.193  1.00  0.00    -0.206 F 
ATOM     62  C   UNL     1       5.622   7.741   9.419  1.00  0.00     0.059 A 
ATOM     63  C   UNL     1       3.742   9.194   9.908  1.00  0.00     0.059 A 
ATOM     64  F   UNL     1       2.474  10.086   8.155  1.00  0.00    -0.206 F 
ATOM     65  C   UNL     1       4.779   8.371  10.337  1.00  0.00     0.060 A 
BRANCH  65  66
ATOM     66  S   UNL     1       5.039   8.073  12.098  1.00  0.00     0.124 S 
ATOM     67  O   UNL     1       4.604   6.685  12.226  1.00  0.00    -0.237 OA
ATOM     68  O   UNL     1       6.473   8.303  12.245  1.00  0.00    -0.237 OA
ATOM     69  O   UNL     1       4.179   9.060  12.743  1.00  0.00    -0.744 OA
ENDBRANCH  65  66
ENDBRANCH  44  58
BRANCH  45  70
ATOM     70  C   UNL     1       1.911   9.044  -2.122  1.00  0.00     0.058 A 
ATOM     71  C   UNL     1       2.883   9.339  -3.089  1.00  0.00     0.135 A 
ATOM     72  C   UNL     1       0.610   8.764  -2.577  1.00  0.00     0.135 A 
ATOM     73  F   UNL     1       4.134   9.639  -2.710  1.00  0.00    -0.206 F 
ATOM     74  C   UNL     1       2.587   9.339  -4.449  1.00  0.00     0.059 A 
ATOM     75  C   UNL     1       0.297   8.725  -3.933  1.00  0.00     0.059 A 
ATOM     76  F   UNL     1      -0.364   8.477  -1.699  1.00  0.00    -0.206 F 
ATOM     77  C   UNL     1       1.294   9.013  -4.862  1.00  0.00     0.060 A 
BRANCH  77  78
ATOM     78  S   UNL     1       0.952   8.918  -6.634  1.00  0.00     0.124 S 
ATOM     79  O   UNL     1       1.063  10.316  -7.033  1.00  0.00    -0.237 OA
ATOM     80  O   UNL     1       2.017   8.034  -7.099  1.00  0.00    -0.237 OA
ATOM     81  O   UNL     1      -0.392   8.350  -6.688  1.00  0.00    -0.744 OA
ENDBRANCH  77  78
ENDBRANCH  45  70
BRANCH  57  82
ATOM     82  C   UNL     1       3.890  13.860   2.527  1.00  0.00     0.058 A 
ATOM     83  C   UNL     1       2.848  14.785   2.360  1.00  0.00     0.135 A 
ATOM     84  C   UNL     1       5.199  14.360   2.632  1.00  0.00     0.135 A 
ATOM     85  F   UNL     1       1.580  14.361   2.239  1.00  0.00    -0.206 F 
ATOM     86  C   UNL     1       3.097  16.151   2.277  1.00  0.00     0.059 A 
ATOM     87  C   UNL     1       5.467  15.724   2.590  1.00  0.00     0.059 A 
ATOM     88  F   UNL     1       6.234  13.520   2.798  1.00  0.00    -0.206 F 
ATOM     89  C   UNL     1       4.409  16.611   2.400  1.00  0.00     0.060 A 
BRANCH  89  90
ATOM     90  S   UNL     1       4.712  18.389   2.331  1.00  0.00     0.124 S 
ATOM     91  O   UNL     1       4.446  18.679   0.926  1.00  0.00    -0.237 OA
ATOM     92  O   UNL     1       3.732  18.906   3.282  1.00  0.00    -0.237 OA
ATOM     93  O   UNL     1       6.106  18.514   2.745  1.00  0.00    -0.744 OA
ENDBRANCH  89  90
ENDBRANCH  57  82
ENDBRANCH  31  32
ENDBRANCH  24  26
ENDBRANCH  23  24
ENDBRANCH  22  23
ENDBRANCH   1  22
TORSDOF 17
