REMARK SMILES O=C(CNC(=O)c1cccs1)N[C@@H]1C=C[C@H](C(=O)OCCOC(=O)c2ccc(-c3c4nc(c(-c5c(F)cc(S(=O)(=O)[O-])cc5F)c5ccc([nH]5)c(-c5c(F)cc(S(=O)(=O)[O-])cc5F)c5nc(c(-c6c(F)cc(S(=O)(=O)[O-])cc6F)c6ccc3[nH]6)C=C5)C=C4)cc2)C1
REMARK SMILES IDX 20 1 19 2 17 3 18 4 16 5 13 6 14 7 91 8 15 9 12 10 1 11 2 12
REMARK SMILES IDX 3 14 4 15 5 16 6 18 7 19 8 20 11 21 9 22 10 23 21 24 22 25
REMARK SMILES IDX 23 26 24 27 25 28 26 29 90 30 27 31 89 32 28 33 29 34 30 35
REMARK SMILES IDX 83 36 31 37 88 38 82 39 84 40 32 41 87 42 81 43 80 44 33 46
REMARK SMILES IDX 67 47 46 48 66 49 47 50 50 51 65 52 85 53 48 54 49 55 64 57
REMARK SMILES IDX 86 58 51 59 34 60 35 61 44 62 36 63 37 64 43 65 45 66 38 67
REMARK SMILES IDX 39 68 40 69 41 70 42 71 68 72 69 73 78 74 70 75 71 76 77 77
REMARK SMILES IDX 79 78 72 79 73 80 74 81 75 82 76 83 52 84 53 85 62 86 54 87
REMARK SMILES IDX 55 88 61 89 63 90 56 91 57 92 58 93 59 94 60 95
REMARK H PARENT 12 13 4 17 84 45 50 56
REMARK Flexibility Score: inf
ROOT
ATOM      1  C   UNL     1       0.273   7.537   1.805  1.00  0.00     0.274 C 
ENDROOT
BRANCH   1   2
ATOM      2  O   UNL     1       1.324   6.609   1.449  1.00  0.00    -0.462 OA
BRANCH   2   3
ATOM      3  C   UNL     1       1.758   5.773   2.442  1.00  0.00     0.312 C 
ATOM      4  O   UNL     1       1.321   5.778   3.587  1.00  0.00    -0.252 OA
BRANCH   3   5
ATOM      5  C   UNL     1       2.944   4.933   1.969  1.00  0.00     0.124 C 
ATOM      6  C   UNL     1       2.680   2.560   1.229  1.00  0.00     0.106 C 
ATOM      7  C   UNL     1       3.334   2.686   2.579  1.00  0.00    -0.006 C 
ATOM      8  C   UNL     1       2.658   4.033   0.759  1.00  0.00     0.048 C 
ATOM      9  C   UNL     1       3.426   3.954   2.997  1.00  0.00    -0.014 C 
BRANCH   6  10
ATOM     10  N   UNL     1       1.426   1.869   1.515  1.00  0.00    -0.348 N 
ATOM     11  O   UNL     1       0.552   2.451  -0.287  1.00  0.00    -0.273 OA
ATOM     12  C   UNL     1       0.131   2.049   0.850  1.00  0.00     0.239 C 
ATOM     13  H   UNL     1       1.453   1.204   2.240  1.00  0.00     0.164 HD
BRANCH  12  14
ATOM     14  C   UNL     1      -1.913   1.798   1.593  1.00  0.00     0.216 C 
BRANCH  14  15
ATOM     15  N   UNL     1      -3.325   1.306   0.955  1.00  0.00    -0.342 N 
ATOM     16  C   UNL     1      -3.999   0.105   1.036  1.00  0.00     0.261 C 
ATOM     17  H   UNL     1      -3.782   1.988   0.412  1.00  0.00     0.164 HD
ATOM     18  O   UNL     1      -4.662  -0.202   0.043  1.00  0.00    -0.268 OA
BRANCH  16  19
ATOM     19  C   UNL     1      -3.965  -0.671   2.256  1.00  0.00     0.092 A 
ATOM     20  C   UNL     1      -4.017  -0.239   3.568  1.00  0.00     0.025 A 
ATOM     21  S   UNL     1      -4.010  -2.383   2.166  1.00  0.00    -0.139 S 
ATOM     22  C   UNL     1      -4.041  -1.319   4.497  1.00  0.00     0.012 A 
ATOM     23  C   UNL     1      -3.995  -2.543   3.868  1.00  0.00     0.065 A 
ENDBRANCH  16  19
ENDBRANCH  14  15
ENDBRANCH  12  14
ENDBRANCH   6  10
ENDBRANCH   3   5
ENDBRANCH   2   3
ENDBRANCH   1   2
BRANCH   1  24
ATOM     24  C   UNL     1      -1.030   7.196   1.084  1.00  0.00     0.275 C 
BRANCH  24  25
ATOM     25  O   UNL     1      -1.334   5.818   1.333  1.00  0.00    -0.458 OA
BRANCH  25  26
ATOM     26  C   UNL     1      -1.440   5.026   0.244  1.00  0.00     0.338 C 
ATOM     27  O   UNL     1      -1.593   5.362  -0.914  1.00  0.00    -0.246 OA
BRANCH  26  28
ATOM     28  C   UNL     1      -1.272   3.642   0.705  1.00  0.00     0.060 A 
ATOM     29  C   UNL     1      -0.625   3.329   2.351  1.00  0.00     0.016 A 
ATOM     30  C   UNL     1      -1.563   2.274  -0.418  1.00  0.00     0.016 A 
ATOM     31  C   UNL     1      -0.292   1.655   2.902  1.00  0.00     0.010 A 
ATOM     32  C   UNL     1      -1.141   0.583   0.102  1.00  0.00     0.010 A 
ATOM     33  C   UNL     1      -0.521   0.232   1.772  1.00  0.00    -0.014 A 
BRANCH  33  34
ATOM     34  C   UNL     1      -0.380  -1.210   2.259  1.00  0.00     0.031 A 
ATOM     35  C   UNL     1      -0.328  -2.349   1.249  1.00  0.00     0.074 A 
ATOM     36  C   UNL     1      -0.450  -1.572   3.566  1.00  0.00     0.049 A 
ATOM     37  N   UNL     1      -0.767  -3.579   1.364  1.00  0.00    -0.248 NA
ATOM     38  C   UNL     1       0.190  -2.039  -0.089  1.00  0.00     0.031 C 
ATOM     39  C   UNL     1      -0.598  -0.692   4.721  1.00  0.00     0.029 A 
ATOM     40  N   UNL     1      -0.462  -2.828   4.155  1.00  0.00    -0.354 N 
ATOM     41  C   UNL     1      -0.778  -4.104   0.072  1.00  0.00     0.074 A 
ATOM     42  C   UNL     1      -0.276  -3.061  -0.796  1.00  0.00     0.031 C 
ATOM     43  C   UNL     1      -0.594  -1.391   5.860  1.00  0.00     0.029 A 
ATOM     44  C   UNL     1      -0.636  -2.799   5.527  1.00  0.00     0.049 A 
ATOM     45  H   UNL     1      -0.357  -3.663   3.644  1.00  0.00     0.167 HD
ATOM     46  C   UNL     1      -1.162  -5.339  -0.346  1.00  0.00     0.037 A 
ATOM     47  C   UNL     1      -0.922  -3.752   6.437  1.00  0.00     0.037 A 
ATOM     48  C   UNL     1      -1.422  -6.438   0.554  1.00  0.00     0.049 A 
ATOM     49  C   UNL     1      -1.157  -5.156   5.977  1.00  0.00     0.074 A 
ATOM     50  C   UNL     1      -1.628  -7.773   0.242  1.00  0.00     0.029 A 
ATOM     51  N   UNL     1      -1.445  -6.347   1.937  1.00  0.00    -0.354 N 
ATOM     52  N   UNL     1      -1.241  -5.610   4.753  1.00  0.00    -0.248 NA
ATOM     53  C   UNL     1      -1.360  -6.172   7.018  1.00  0.00     0.031 C 
ATOM     54  C   UNL     1      -1.776  -8.488   1.434  1.00  0.00     0.029 A 
ATOM     55  C   UNL     1      -1.622  -7.606   2.490  1.00  0.00     0.049 A 
ATOM     56  H   UNL     1      -1.349  -5.513   2.450  1.00  0.00     0.167 HD
ATOM     57  C   UNL     1      -1.470  -6.974   4.876  1.00  0.00     0.074 A 
ATOM     58  C   UNL     1      -1.511  -7.270   6.292  1.00  0.00     0.031 C 
ATOM     59  C   UNL     1      -1.629  -7.897   3.899  1.00  0.00     0.037 A 
BRANCH  46  60
ATOM     60  C   UNL     1      -1.285  -5.616  -1.829  1.00  0.00     0.058 A 
ATOM     61  C   UNL     1      -0.181  -5.613  -2.695  1.00  0.00     0.135 A 
ATOM     62  C   UNL     1      -2.528  -5.993  -2.377  1.00  0.00     0.135 A 
ATOM     63  F   UNL     1       1.037  -5.280  -2.239  1.00  0.00    -0.206 F 
ATOM     64  C   UNL     1      -0.306  -5.928  -4.046  1.00  0.00     0.059 A 
ATOM     65  C   UNL     1      -2.668  -6.356  -3.716  1.00  0.00     0.059 A 
ATOM     66  F   UNL     1      -3.622  -6.044  -1.601  1.00  0.00    -0.206 F 
ATOM     67  C   UNL     1      -1.552  -6.306  -4.548  1.00  0.00     0.060 A 
BRANCH  67  68
ATOM     68  S   UNL     1      -1.676  -6.771  -6.288  1.00  0.00     0.124 S 
ATOM     69  O   UNL     1      -1.600  -5.469  -6.946  1.00  0.00    -0.237 OA
ATOM     70  O   UNL     1      -0.513  -7.635  -6.464  1.00  0.00    -0.237 OA
ATOM     71  O   UNL     1      -2.969  -7.443  -6.373  1.00  0.00    -0.744 OA
ENDBRANCH  67  68
ENDBRANCH  46  60
BRANCH  47  72
ATOM     72  C   UNL     1      -1.059  -3.405   7.883  1.00  0.00     0.058 A 
ATOM     73  C   UNL     1      -0.081  -3.800   8.807  1.00  0.00     0.135 A 
ATOM     74  C   UNL     1      -2.156  -2.676   8.370  1.00  0.00     0.135 A 
ATOM     75  F   UNL     1       0.981  -4.508   8.394  1.00  0.00    -0.206 F 
ATOM     76  C   UNL     1      -0.194  -3.507  10.162  1.00  0.00     0.059 A 
ATOM     77  C   UNL     1      -2.275  -2.339   9.715  1.00  0.00     0.059 A 
ATOM     78  F   UNL     1      -3.111  -2.253   7.529  1.00  0.00    -0.206 F 
ATOM     79  C   UNL     1      -1.295  -2.773  10.606  1.00  0.00     0.060 A 
BRANCH  79  80
ATOM     80  S   UNL     1      -1.411  -2.362  12.361  1.00  0.00     0.124 S 
ATOM     81  O   UNL     1      -1.774  -3.651  12.939  1.00  0.00    -0.237 OA
ATOM     82  O   UNL     1      -0.063  -1.886  12.654  1.00  0.00    -0.237 OA
ATOM     83  O   UNL     1      -2.451  -1.338  12.396  1.00  0.00    -0.744 OA
ENDBRANCH  79  80
ENDBRANCH  47  72
BRANCH  59  84
ATOM     84  C   UNL     1      -1.762  -9.329   4.325  1.00  0.00     0.058 A 
ATOM     85  C   UNL     1      -2.936  -9.830   4.906  1.00  0.00     0.135 A 
ATOM     86  C   UNL     1      -0.695 -10.220   4.121  1.00  0.00     0.135 A 
ATOM     87  F   UNL     1      -3.976  -9.014   5.139  1.00  0.00    -0.206 F 
ATOM     88  C   UNL     1      -3.042 -11.162   5.290  1.00  0.00     0.059 A 
ATOM     89  C   UNL     1      -0.789 -11.562   4.472  1.00  0.00     0.059 A 
ATOM     90  F   UNL     1       0.450  -9.789   3.568  1.00  0.00    -0.206 F 
ATOM     91  C   UNL     1      -1.962 -12.021   5.067  1.00  0.00     0.060 A 
BRANCH  91  92
ATOM     92  S   UNL     1      -2.121 -13.754   5.544  1.00  0.00     0.124 S 
ATOM     93  O   UNL     1      -2.035 -13.667   6.998  1.00  0.00    -0.237 OA
ATOM     94  O   UNL     1      -3.431 -14.107   5.006  1.00  0.00    -0.237 OA
ATOM     95  O   UNL     1      -0.986 -14.394   4.885  1.00  0.00    -0.744 OA
ENDBRANCH  91  92
ENDBRANCH  59  84
ENDBRANCH  33  34
ENDBRANCH  26  28
ENDBRANCH  25  26
ENDBRANCH  24  25
ENDBRANCH   1  24
TORSDOF 18
