REMARK SMILES Nn1c(S[C@@H](C(=O)OCCOC(=O)c2ccc(-c3c4nc(c(-c5c(F)cc(S(=O)(=O)[O-])cc5F)c5ccc([nH]5)c(-c5c(F)cc(S(=O)(=O)[O-])cc5F)c5nc(c(-c6c(F)cc(S(=O)(=O)[O-])cc6F)c6ccc3[nH]6)C=C5)C=C4)cc2)c2ccccc2)nc2ccc(Br)cc2c1=O
REMARK SMILES IDX 9 1 8 2 6 3 7 4 5 5 4 6 3 7 2 8 94 9 86 10 93 11 95 12 87 13
REMARK SMILES IDX 92 14 88 15 90 16 89 17 91 18 1 19 80 22 81 23 85 24 82 25
REMARK SMILES IDX 84 26 83 27 10 28 11 29 12 30 13 31 14 32 15 33 79 34 16 35
REMARK SMILES IDX 78 36 17 37 18 38 19 39 72 40 20 41 77 42 71 43 73 44 21 45
REMARK SMILES IDX 76 46 70 47 69 48 22 50 56 51 35 52 55 53 36 54 39 55 54 56
REMARK SMILES IDX 74 57 37 58 38 59 53 61 75 62 40 63 23 64 24 65 33 66 25 67
REMARK SMILES IDX 26 68 32 69 34 70 27 71 28 72 29 73 30 74 31 75 57 76 58 77
REMARK SMILES IDX 67 78 59 79 60 80 66 81 68 82 61 83 62 84 63 85 64 86 65 87
REMARK SMILES IDX 41 88 42 89 51 90 43 91 44 92 50 93 52 94 45 95 46 96 47 97
REMARK SMILES IDX 48 98 49 99
REMARK H PARENT 1 20 1 21 73 49 39 60
REMARK Flexibility Score: inf
ROOT
ATOM      1  C   UNL     1       4.350   1.227   1.290  1.00  0.00     0.274 C 
ENDROOT
BRANCH   1   2
ATOM      2  O   UNL     1       3.450   1.486   0.186  1.00  0.00    -0.461 OA
BRANCH   2   3
ATOM      3  C   UNL     1       3.244   0.424  -0.652  1.00  0.00     0.324 C 
ATOM      4  O   UNL     1       3.707  -0.684  -0.393  1.00  0.00    -0.251 OA
BRANCH   3   5
ATOM      5  C   UNL     1       2.580   0.783  -2.002  1.00  0.00     0.194 C 
BRANCH   5   6
ATOM      6  S   UNL     1       1.814   2.435  -2.054  1.00  0.00    -0.066 SA
BRANCH   6   7
ATOM      7  C   UNL     1       0.458   2.602  -0.951  1.00  0.00     0.191 A 
ATOM      8  N   UNL     1      -0.239   1.544  -0.380  1.00  0.00    -0.202 N 
ATOM      9  C   UNL     1      -1.329   1.730   0.480  1.00  0.00     0.280 A 
ATOM     10  N   UNL     1       0.098   3.836  -0.759  1.00  0.00    -0.222 NA
ATOM     11  C   UNL     1      -1.763   3.114   0.673  1.00  0.00     0.069 A 
ATOM     12  O   UNL     1      -1.933   0.804   1.021  1.00  0.00    -0.267 OA
ATOM     13  C   UNL     1      -1.038   4.107   0.018  1.00  0.00     0.079 A 
ATOM     14  C   UNL     1      -2.904   3.406   1.430  1.00  0.00     0.031 A 
ATOM     15  C   UNL     1      -1.495   5.424   0.105  1.00  0.00     0.030 A 
ATOM     16  C   UNL     1      -3.341   4.723   1.504  1.00  0.00     0.018 A 
ATOM     17  C   UNL     1      -2.647   5.733   0.839  1.00  0.00     0.018 A 
ATOM     18  Br  UNL     1      -4.896   5.145   2.490  1.00  0.00    -0.051 Br
BRANCH   8  19
ATOM     19  N   UNL     1       0.073   0.211  -0.640  1.00  0.00    -0.334 N 
ATOM     20  H   UNL     1       0.825  -0.012  -1.235  1.00  0.00     0.178 HD
ATOM     21  H   UNL     1      -0.459  -0.509  -0.229  1.00  0.00     0.178 HD
ENDBRANCH   8  19
ENDBRANCH   6   7
ENDBRANCH   5   6
BRANCH   5  22
ATOM     22  C   UNL     1       1.874  -0.366  -2.764  1.00  0.00    -0.023 A 
ATOM     23  C   UNL     1       2.356  -1.691  -2.700  1.00  0.00     0.005 A 
ATOM     24  C   UNL     1       0.732  -0.156  -3.562  1.00  0.00     0.005 A 
ATOM     25  C   UNL     1       1.663  -2.759  -3.280  1.00  0.00     0.000 A 
ATOM     26  C   UNL     1       0.037  -1.223  -4.144  1.00  0.00     0.000 A 
ATOM     27  C   UNL     1       0.490  -2.527  -3.983  1.00  0.00     0.000 A 
ENDBRANCH   5  22
ENDBRANCH   3   5
ENDBRANCH   2   3
ENDBRANCH   1   2
BRANCH   1  28
ATOM     28  C   UNL     1       3.607   0.880   2.579  1.00  0.00     0.275 C 
BRANCH  28  29
ATOM     29  O   UNL     1       2.813  -0.303   2.396  1.00  0.00    -0.458 OA
BRANCH  29  30
ATOM     30  C   UNL     1       1.520  -0.209   2.774  1.00  0.00     0.338 C 
ATOM     31  O   UNL     1       0.991   0.761   3.307  1.00  0.00    -0.246 OA
BRANCH  30  32
ATOM     32  C   UNL     1       0.760  -1.420   2.385  1.00  0.00     0.060 A 
ATOM     33  C   UNL     1      -0.401  -1.742   3.088  1.00  0.00     0.016 A 
ATOM     34  C   UNL     1       1.066  -2.116   1.211  1.00  0.00     0.016 A 
ATOM     35  C   UNL     1      -1.242  -2.758   2.621  1.00  0.00     0.010 A 
ATOM     36  C   UNL     1       0.142  -3.011   0.669  1.00  0.00     0.010 A 
ATOM     37  C   UNL     1      -1.002  -3.385   1.386  1.00  0.00    -0.014 A 
BRANCH  37  38
ATOM     38  C   UNL     1      -1.912  -4.457   0.881  1.00  0.00     0.031 A 
ATOM     39  C   UNL     1      -1.368  -5.830   0.555  1.00  0.00     0.074 A 
ATOM     40  C   UNL     1      -3.231  -4.217   0.715  1.00  0.00     0.049 A 
ATOM     41  N   UNL     1      -2.016  -6.910   0.193  1.00  0.00    -0.248 NA
ATOM     42  C   UNL     1       0.092  -6.009   0.599  1.00  0.00     0.031 C 
ATOM     43  C   UNL     1      -3.892  -2.919   0.882  1.00  0.00     0.029 A 
ATOM     44  N   UNL     1      -4.261  -5.069   0.392  1.00  0.00    -0.354 N 
ATOM     45  C   UNL     1      -1.043  -7.876  -0.043  1.00  0.00     0.074 A 
ATOM     46  C   UNL     1       0.239  -7.234   0.121  1.00  0.00     0.031 C 
ATOM     47  C   UNL     1      -5.218  -3.077   0.730  1.00  0.00     0.029 A 
ATOM     48  C   UNL     1      -5.504  -4.480   0.444  1.00  0.00     0.049 A 
ATOM     49  H   UNL     1      -4.123  -6.012   0.145  1.00  0.00     0.167 HD
ATOM     50  C   UNL     1      -1.190  -9.195  -0.308  1.00  0.00     0.037 A 
ATOM     51  C   UNL     1      -6.735  -5.014   0.316  1.00  0.00     0.037 A 
ATOM     52  C   UNL     1      -2.456  -9.865  -0.395  1.00  0.00     0.049 A 
ATOM     53  C   UNL     1      -6.885  -6.496   0.096  1.00  0.00     0.074 A 
ATOM     54  C   UNL     1      -2.707 -11.214  -0.568  1.00  0.00     0.029 A 
ATOM     55  N   UNL     1      -3.686  -9.235  -0.296  1.00  0.00    -0.354 N 
ATOM     56  N   UNL     1      -5.952  -7.409  -0.023  1.00  0.00    -0.248 NA
ATOM     57  C   UNL     1      -8.256  -7.022   0.009  1.00  0.00     0.031 C 
ATOM     58  C   UNL     1      -4.093 -11.400  -0.586  1.00  0.00     0.029 A 
ATOM     59  C   UNL     1      -4.702 -10.168  -0.404  1.00  0.00     0.049 A 
ATOM     60  H   UNL     1      -3.817  -8.268  -0.168  1.00  0.00     0.167 HD
ATOM     61  C   UNL     1      -6.622  -8.619  -0.173  1.00  0.00     0.074 A 
ATOM     62  C   UNL     1      -8.038  -8.324  -0.124  1.00  0.00     0.031 C 
ATOM     63  C   UNL     1      -6.107  -9.862  -0.335  1.00  0.00     0.037 A 
BRANCH  50  64
ATOM     64  C   UNL     1       0.066 -10.007  -0.459  1.00  0.00     0.058 A 
ATOM     65  C   UNL     1       0.877 -10.299   0.651  1.00  0.00     0.135 A 
ATOM     66  C   UNL     1       0.468 -10.492  -1.712  1.00  0.00     0.135 A 
ATOM     67  F   UNL     1       0.546  -9.841   1.869  1.00  0.00    -0.206 F 
ATOM     68  C   UNL     1       2.065 -11.006   0.517  1.00  0.00     0.059 A 
ATOM     69  C   UNL     1       1.641 -11.226  -1.865  1.00  0.00     0.059 A 
ATOM     70  F   UNL     1      -0.271 -10.241  -2.804  1.00  0.00    -0.206 F 
ATOM     71  C   UNL     1       2.443 -11.460  -0.747  1.00  0.00     0.060 A 
BRANCH  71  72
ATOM     72  S   UNL     1       3.998 -12.360  -0.908  1.00  0.00     0.124 S 
ATOM     73  O   UNL     1       4.970 -11.274  -0.834  1.00  0.00    -0.237 OA
ATOM     74  O   UNL     1       3.963 -13.257   0.242  1.00  0.00    -0.237 OA
ATOM     75  O   UNL     1       3.880 -13.011  -2.210  1.00  0.00    -0.744 OA
ENDBRANCH  71  72
ENDBRANCH  50  64
BRANCH  51  76
ATOM     76  C   UNL     1      -7.938  -4.156   0.484  1.00  0.00     0.058 A 
ATOM     77  C   UNL     1      -8.689  -4.205   1.669  1.00  0.00     0.135 A 
ATOM     78  C   UNL     1      -8.355  -3.273  -0.521  1.00  0.00     0.135 A 
ATOM     79  F   UNL     1      -8.331  -5.041   2.655  1.00  0.00    -0.206 F 
ATOM     80  C   UNL     1      -9.821  -3.418   1.847  1.00  0.00     0.059 A 
ATOM     81  C   UNL     1      -9.477  -2.463  -0.360  1.00  0.00     0.059 A 
ATOM     82  F   UNL     1      -7.663  -3.183  -1.667  1.00  0.00    -0.206 F 
ATOM     83  C   UNL     1     -10.208  -2.549   0.825  1.00  0.00     0.060 A 
BRANCH  83  84
ATOM     84  S   UNL     1     -11.657  -1.501   1.085  1.00  0.00     0.124 S 
ATOM     85  O   UNL     1     -12.744  -2.464   0.953  1.00  0.00    -0.237 OA
ATOM     86  O   UNL     1     -11.424  -0.981   2.429  1.00  0.00    -0.237 OA
ATOM     87  O   UNL     1     -11.553  -0.515   0.013  1.00  0.00    -0.744 OA
ENDBRANCH  83  84
ENDBRANCH  51  76
BRANCH  63  88
ATOM     88  C   UNL     1      -7.067 -11.009  -0.451  1.00  0.00     0.058 A 
ATOM     89  C   UNL     1      -7.750 -11.269  -1.648  1.00  0.00     0.135 A 
ATOM     90  C   UNL     1      -7.228 -11.912   0.612  1.00  0.00     0.135 A 
ATOM     91  F   UNL     1      -7.629 -10.431  -2.690  1.00  0.00    -0.206 F 
ATOM     92  C   UNL     1      -8.564 -12.387  -1.788  1.00  0.00     0.059 A 
ATOM     93  C   UNL     1      -8.024 -13.046   0.488  1.00  0.00     0.059 A 
ATOM     94  F   UNL     1      -6.587 -11.711   1.774  1.00  0.00    -0.206 F 
ATOM     95  C   UNL     1      -8.691 -13.274  -0.716  1.00  0.00     0.060 A 
BRANCH  95  96
ATOM     96  S   UNL     1      -9.694 -14.758  -0.934  1.00  0.00     0.124 S 
ATOM     97  O   UNL     1     -11.046 -14.216  -0.841  1.00  0.00    -0.237 OA
ATOM     98  O   UNL     1      -9.287 -15.222  -2.257  1.00  0.00    -0.237 OA
ATOM     99  O   UNL     1      -9.282 -15.613   0.175  1.00  0.00    -0.744 OA
ENDBRANCH  95  96
ENDBRANCH  63  88
ENDBRANCH  37  38
ENDBRANCH  30  32
ENDBRANCH  29  30
ENDBRANCH  28  29
ENDBRANCH   1  28
TORSDOF 18
