REMARK SMILES C[C@H]1[NH2+]CC[C@@H]1C(=O)N[C@@H](CC(=O)OCCOC(=O)c1ccc(-c2c3nc(c(-c4c(F)cc(S(=O)(=O)[O-])cc4F)c4ccc([nH]4)c(-c4c(F)cc(S(=O)(=O)[O-])cc4F)c4nc(c(-c5c(F)cc(S(=O)(=O)[O-])cc5F)c5ccc2[nH]5)C=C4)C=C3)cc1)c1cccs1
REMARK SMILES IDX 15 1 14 2 12 3 13 4 11 5 10 6 9 7 7 8 8 9 6 11 1 12 2 13
REMARK SMILES IDX 3 14 4 15 5 18 86 19 87 20 90 21 88 22 89 23 16 24 17 25
REMARK SMILES IDX 18 26 19 27 20 28 21 29 85 30 22 31 84 32 23 33 24 34 25 35
REMARK SMILES IDX 78 36 26 37 83 38 77 39 79 40 27 41 82 42 76 43 75 44 28 46
REMARK SMILES IDX 62 47 41 48 61 49 42 50 45 51 60 52 80 53 43 54 44 55 59 57
REMARK SMILES IDX 81 58 46 59 29 60 30 61 39 62 31 63 32 64 38 65 40 66 33 67
REMARK SMILES IDX 34 68 35 69 36 70 37 71 63 72 64 73 73 74 65 75 66 76 72 77
REMARK SMILES IDX 74 78 67 79 68 80 69 81 70 82 71 83 47 84 48 85 57 86 49 87
REMARK SMILES IDX 50 88 56 89 58 90 51 91 52 92 53 93 54 94 55 95
REMARK H PARENT 9 10 3 16 3 17 79 45 45 56
REMARK Flexibility Score: inf
ROOT
ATOM      1  C   UNL     1      -3.871   4.279  -4.700  1.00  0.00     0.274 C 
ENDROOT
BRANCH   1   2
ATOM      2  O   UNL     1      -3.188   3.751  -3.542  1.00  0.00    -0.462 OA
BRANCH   2   3
ATOM      3  C   UNL     1      -3.096   4.618  -2.504  1.00  0.00     0.308 C 
ATOM      4  O   UNL     1      -3.465   5.789  -2.539  1.00  0.00    -0.252 OA
BRANCH   3   5
ATOM      5  C   UNL     1      -2.409   4.069  -1.285  1.00  0.00     0.153 C 
BRANCH   5   6
ATOM      6  C   UNL     1      -2.321   2.565  -1.063  1.00  0.00     0.133 C 
BRANCH   6   7
ATOM      7  N   UNL     1      -1.427   1.903  -1.995  1.00  0.00    -0.347 N 
ATOM      8  C   UNL     1      -0.427   1.002  -1.781  1.00  0.00     0.229 C 
ATOM      9  O   UNL     1       0.131   0.558  -2.786  1.00  0.00    -0.275 OA
ATOM     10  H   UNL     1      -1.565   2.146  -2.939  1.00  0.00     0.164 HD
BRANCH   8  11
ATOM     11  C   UNL     1       0.050   0.678  -0.356  1.00  0.00     0.142 C 
ATOM     12  C   UNL     1       2.281  -0.047   0.620  1.00  0.00     0.076 C 
ATOM     13  C   UNL     1       1.156  -0.400  -0.357  1.00  0.00     0.192 C 
ATOM     14  N   UNL     1       0.531  -1.676   0.068  1.00  0.00    -0.343 N 
ATOM     15  C   UNL     1      -0.896  -1.423   0.253  1.00  0.00     0.261 C 
ATOM     16  H   UNL     1       0.946  -1.992   0.945  1.00  0.00     0.346 HD
ATOM     17  H   UNL     1       0.680  -2.401  -0.633  1.00  0.00     0.346 HD
ATOM     18  C   UNL     1      -0.985   0.051   0.567  1.00  0.00     0.081 C 
ENDBRANCH   8  11
ENDBRANCH   6   7
BRANCH   6  19
ATOM     19  C   UNL     1      -3.648   1.833  -0.973  1.00  0.00     0.027 A 
ATOM     20  C   UNL     1      -4.540   1.849   0.087  1.00  0.00     0.017 A 
ATOM     21  S   UNL     1      -4.177   0.729  -2.185  1.00  0.00    -0.147 S 
ATOM     22  C   UNL     1      -5.614   0.926  -0.075  1.00  0.00     0.012 A 
ATOM     23  C   UNL     1      -5.521   0.233  -1.259  1.00  0.00     0.065 A 
ENDBRANCH   6  19
ENDBRANCH   5   6
ENDBRANCH   3   5
ENDBRANCH   2   3
ENDBRANCH   1   2
BRANCH   1  24
ATOM     24  C   UNL     1      -5.369   3.978  -4.649  1.00  0.00     0.275 C 
BRANCH  24  25
ATOM     25  O   UNL     1      -5.913   4.409  -3.391  1.00  0.00    -0.458 OA
BRANCH  25  26
ATOM     26  C   UNL     1      -6.840   3.585  -2.850  1.00  0.00     0.338 C 
ATOM     27  O   UNL     1      -7.306   2.579  -3.357  1.00  0.00    -0.246 OA
BRANCH  26  28
ATOM     28  C   UNL     1      -7.280   4.106  -1.538  1.00  0.00     0.060 A 
ATOM     29  C   UNL     1      -6.378   4.625  -0.605  1.00  0.00     0.016 A 
ATOM     30  C   UNL     1      -8.634   4.006  -1.215  1.00  0.00     0.016 A 
ATOM     31  C   UNL     1      -6.819   4.986   0.671  1.00  0.00     0.010 A 
ATOM     32  C   UNL     1      -9.086   4.436   0.033  1.00  0.00     0.010 A 
ATOM     33  C   UNL     1      -8.181   4.908   0.997  1.00  0.00    -0.014 A 
BRANCH  33  34
ATOM     34  C   UNL     1      -8.685   5.331   2.330  1.00  0.00     0.031 A 
ATOM     35  C   UNL     1      -9.347   4.334   3.243  1.00  0.00     0.074 A 
ATOM     36  C   UNL     1      -8.601   6.625   2.695  1.00  0.00     0.049 A 
ATOM     37  N   UNL     1     -10.010   4.541   4.351  1.00  0.00    -0.248 NA
ATOM     38  C   UNL     1      -9.261   2.918   2.850  1.00  0.00     0.031 C 
ATOM     39  C   UNL     1      -7.972   7.687   1.908  1.00  0.00     0.029 A 
ATOM     40  N   UNL     1      -9.066   7.271   3.813  1.00  0.00    -0.354 N 
ATOM     41  C   UNL     1     -10.451   3.291   4.772  1.00  0.00     0.074 A 
ATOM     42  C   UNL     1      -9.984   2.330   3.794  1.00  0.00     0.031 C 
ATOM     43  C   UNL     1      -8.084   8.849   2.569  1.00  0.00     0.029 A 
ATOM     44  C   UNL     1      -8.848   8.628   3.792  1.00  0.00     0.049 A 
ATOM     45  H   UNL     1      -9.511   6.807   4.558  1.00  0.00     0.167 HD
ATOM     46  C   UNL     1     -11.181   2.977   5.869  1.00  0.00     0.037 A 
ATOM     47  C   UNL     1      -9.254   9.595   4.637  1.00  0.00     0.037 A 
ATOM     48  C   UNL     1     -11.627   3.936   6.848  1.00  0.00     0.049 A 
ATOM     49  C   UNL     1     -10.089   9.227   5.829  1.00  0.00     0.074 A 
ATOM     50  C   UNL     1     -12.352   3.713   8.006  1.00  0.00     0.029 A 
ATOM     51  N   UNL     1     -11.388   5.301   6.785  1.00  0.00    -0.354 N 
ATOM     52  N   UNL     1     -10.512   8.043   6.203  1.00  0.00    -0.248 NA
ATOM     53  C   UNL     1     -10.514  10.327   6.705  1.00  0.00     0.031 C 
ATOM     54  C   UNL     1     -12.578   4.947   8.627  1.00  0.00     0.029 A 
ATOM     55  C   UNL     1     -11.963   5.934   7.875  1.00  0.00     0.049 A 
ATOM     56  H   UNL     1     -10.884   5.753   6.071  1.00  0.00     0.167 HD
ATOM     57  C   UNL     1     -11.248   8.254   7.362  1.00  0.00     0.074 A 
ATOM     58  C   UNL     1     -11.197   9.676   7.638  1.00  0.00     0.031 C 
ATOM     59  C   UNL     1     -11.909   7.352   8.128  1.00  0.00     0.037 A 
BRANCH  46  60
ATOM     60  C   UNL     1     -11.567   1.537   6.060  1.00  0.00     0.058 A 
ATOM     61  C   UNL     1     -10.639   0.574   6.486  1.00  0.00     0.135 A 
ATOM     62  C   UNL     1     -12.892   1.122   5.848  1.00  0.00     0.135 A 
ATOM     63  F   UNL     1      -9.356   0.913   6.687  1.00  0.00    -0.206 F 
ATOM     64  C   UNL     1     -11.006  -0.756   6.673  1.00  0.00     0.059 A 
ATOM     65  C   UNL     1     -13.286  -0.198   6.048  1.00  0.00     0.059 A 
ATOM     66  F   UNL     1     -13.818   2.003   5.440  1.00  0.00    -0.206 F 
ATOM     67  C   UNL     1     -12.331  -1.133   6.447  1.00  0.00     0.060 A 
BRANCH  67  68
ATOM     68  S   UNL     1     -12.794  -2.862   6.688  1.00  0.00     0.124 S 
ATOM     69  O   UNL     1     -12.245  -3.479   5.485  1.00  0.00    -0.237 OA
ATOM     70  O   UNL     1     -12.117  -3.198   7.937  1.00  0.00    -0.237 OA
ATOM     71  O   UNL     1     -14.251  -2.816   6.762  1.00  0.00    -0.744 OA
ENDBRANCH  67  68
ENDBRANCH  46  60
BRANCH  47  72
ATOM     72  C   UNL     1      -8.892  11.008   4.361  1.00  0.00     0.058 A 
ATOM     73  C   UNL     1      -7.923  11.665   5.131  1.00  0.00     0.135 A 
ATOM     74  C   UNL     1      -9.475  11.714   3.297  1.00  0.00     0.135 A 
ATOM     75  F   UNL     1      -7.344  11.032   6.163  1.00  0.00    -0.206 F 
ATOM     76  C   UNL     1      -7.542  12.974   4.857  1.00  0.00     0.059 A 
ATOM     77  C   UNL     1      -9.095  13.016   2.989  1.00  0.00     0.059 A 
ATOM     78  F   UNL     1     -10.398  11.121   2.523  1.00  0.00    -0.206 F 
ATOM     79  C   UNL     1      -8.131  13.640   3.780  1.00  0.00     0.060 A 
BRANCH  79  80
ATOM     80  S   UNL     1      -7.576  15.312   3.381  1.00  0.00     0.124 S 
ATOM     81  O   UNL     1      -8.283  16.101   4.382  1.00  0.00    -0.237 OA
ATOM     82  O   UNL     1      -6.130  15.208   3.552  1.00  0.00    -0.237 OA
ATOM     83  O   UNL     1      -8.023  15.489   2.002  1.00  0.00    -0.744 OA
ENDBRANCH  79  80
ENDBRANCH  47  72
BRANCH  59  84
ATOM     84  C   UNL     1     -12.616   7.879   9.343  1.00  0.00     0.058 A 
ATOM     85  C   UNL     1     -13.834   8.568   9.240  1.00  0.00     0.135 A 
ATOM     86  C   UNL     1     -12.081   7.673  10.624  1.00  0.00     0.135 A 
ATOM     87  F   UNL     1     -14.380   8.797   8.035  1.00  0.00    -0.206 F 
ATOM     88  C   UNL     1     -14.487   9.057  10.366  1.00  0.00     0.059 A 
ATOM     89  C   UNL     1     -12.728   8.136  11.765  1.00  0.00     0.059 A 
ATOM     90  F   UNL     1     -10.922   7.013  10.775  1.00  0.00    -0.206 F 
ATOM     91  C   UNL     1     -13.924   8.840  11.625  1.00  0.00     0.060 A 
BRANCH  91  92
ATOM     92  S   UNL     1     -14.786   9.463  13.084  1.00  0.00     0.124 S 
ATOM     93  O   UNL     1     -14.432  10.878  13.050  1.00  0.00    -0.237 OA
ATOM     94  O   UNL     1     -16.181   9.151  12.784  1.00  0.00    -0.237 OA
ATOM     95  O   UNL     1     -14.200   8.692  14.176  1.00  0.00    -0.744 OA
ENDBRANCH  91  92
ENDBRANCH  59  84
ENDBRANCH  33  34
ENDBRANCH  26  28
ENDBRANCH  25  26
ENDBRANCH  24  25
ENDBRANCH   1  24
TORSDOF 18
