REMARK SMILES Cc1cccc(-c2noc(C[N@@H+](C)Cc3ncccc3C(=O)OCCOC(=O)c3ccc(-c4c5nc(c(-c6c(F)cc(S(=O)(=O)[O-])cc6F)c6ccc([nH]6)c(-c6c(F)cc(S(=O)(=O)[O-])cc6F)c6nc(c(-c7c(F)cc(S(=O)(=O)[O-])cc7F)c7ccc4[nH]7)C=C6)C=C5)cc3)n2)c1
REMARK SMILES IDX 24 1 23 2 21 3 22 4 20 5 15 6 16 7 17 8 19 9 18 10 14 11
REMARK SMILES IDX 12 12 13 13 11 15 10 16 7 17 8 18 95 19 9 20 6 21 1 22 2 23
REMARK SMILES IDX 3 24 96 25 4 26 5 27 25 28 26 29 27 30 28 31 29 32 30 33
REMARK SMILES IDX 94 34 31 35 93 36 32 37 33 38 34 39 87 40 35 41 92 42 86 43
REMARK SMILES IDX 88 44 36 45 91 46 85 47 84 48 37 50 71 51 50 52 70 53 51 54
REMARK SMILES IDX 54 55 69 56 89 57 52 58 53 59 68 61 90 62 55 63 38 64 39 65
REMARK SMILES IDX 48 66 40 67 41 68 47 69 49 70 42 71 43 72 44 73 45 74 46 75
REMARK SMILES IDX 72 76 73 77 82 78 74 79 75 80 81 81 83 82 76 83 77 84 78 85
REMARK SMILES IDX 79 86 80 87 56 88 57 89 66 90 58 91 59 92 65 93 67 94 60 95
REMARK SMILES IDX 61 96 62 97 63 98 64 99
REMARK H PARENT 12 14 88 49 54 60
REMARK Flexibility Score: inf
ROOT
ATOM      1  C   UNL     1      -1.399   0.162  -3.527  1.00  0.00     0.275 C 
ENDROOT
BRANCH   1   2
ATOM      2  O   UNL     1      -1.815   1.435  -4.086  1.00  0.00    -0.458 OA
BRANCH   2   3
ATOM      3  C   UNL     1      -1.240   2.567  -3.624  1.00  0.00     0.340 C 
ATOM      4  O   UNL     1      -0.303   2.607  -2.842  1.00  0.00    -0.246 OA
BRANCH   3   5
ATOM      5  C   UNL     1      -1.674   3.732  -4.439  1.00  0.00     0.087 A 
ATOM      6  C   UNL     1      -2.237   4.929  -3.950  1.00  0.00     0.109 A 
ATOM      7  N   UNL     1      -2.323   6.043  -4.744  1.00  0.00    -0.254 NA
ATOM      8  C   UNL     1      -1.915   5.954  -6.027  1.00  0.00     0.111 A 
ATOM      9  C   UNL     1      -1.310   3.672  -5.794  1.00  0.00     0.019 A 
ATOM     10  C   UNL     1      -1.445   4.792  -6.603  1.00  0.00     0.021 A 
BRANCH   6  11
ATOM     11  C   UNL     1      -3.108   4.977  -2.700  1.00  0.00     0.320 C 
BRANCH  11  12
ATOM     12  N   UNL     1      -3.011   6.070  -1.717  1.00  0.00    -0.325 N 
ATOM     13  C   UNL     1      -3.476   7.359  -2.195  1.00  0.00     0.333 C 
ATOM     14  H   UNL     1      -3.696   5.815  -1.004  1.00  0.00     0.348 HD
BRANCH  12  15
ATOM     15  C   UNL     1      -1.740   6.121  -0.995  1.00  0.00     0.364 C 
BRANCH  15  16
ATOM     16  C   UNL     1      -1.457   4.916  -0.154  1.00  0.00     0.282 A 
ATOM     17  C   UNL     1      -0.903   3.068   0.663  1.00  0.00     0.202 A 
ATOM     18  N   UNL     1      -1.682   3.605   1.616  1.00  0.00    -0.057 NA
ATOM     19  N   UNL     1      -0.623   3.928  -0.378  1.00  0.00    -0.186 NA
ATOM     20  O   UNL     1      -2.099   4.814   1.046  1.00  0.00    -0.333 OA
BRANCH  17  21
ATOM     21  C   UNL     1      -0.342   1.725   0.718  1.00  0.00     0.023 A 
ATOM     22  C   UNL     1       2.881  -0.042  -0.310  1.00  0.00     0.044 C 
ATOM     23  C   UNL     1       1.485   0.191   0.183  1.00  0.00    -0.050 A 
ATOM     24  C   UNL     1       0.680  -0.888   0.567  1.00  0.00     0.003 A 
ATOM     25  C   UNL     1       0.956   1.490   0.238  1.00  0.00     0.015 A 
ATOM     26  C   UNL     1      -0.614  -0.667   1.043  1.00  0.00     0.001 A 
ATOM     27  C   UNL     1      -1.117   0.635   1.137  1.00  0.00     0.012 A 
ENDBRANCH  17  21
ENDBRANCH  15  16
ENDBRANCH  12  15
ENDBRANCH  11  12
ENDBRANCH   6  11
ENDBRANCH   3   5
ENDBRANCH   2   3
ENDBRANCH   1   2
BRANCH   1  28
ATOM     28  C   UNL     1      -1.875  -0.119  -2.084  1.00  0.00     0.275 C 
BRANCH  28  29
ATOM     29  O   UNL     1      -3.290  -0.046  -1.868  1.00  0.00    -0.458 OA
BRANCH  29  30
ATOM     30  C   UNL     1      -3.782   1.214  -1.901  1.00  0.00     0.338 C 
ATOM     31  O   UNL     1      -3.360   2.169  -1.264  1.00  0.00    -0.246 OA
BRANCH  30  32
ATOM     32  C   UNL     1      -4.554   1.353  -3.147  1.00  0.00     0.060 A 
ATOM     33  C   UNL     1      -5.269   2.497  -3.520  1.00  0.00     0.016 A 
ATOM     34  C   UNL     1      -4.317   0.343  -4.081  1.00  0.00     0.016 A 
ATOM     35  C   UNL     1      -5.851   2.529  -4.783  1.00  0.00     0.010 A 
ATOM     36  C   UNL     1      -4.558   0.543  -5.394  1.00  0.00     0.010 A 
ATOM     37  C   UNL     1      -5.535   1.484  -5.660  1.00  0.00    -0.014 A 
BRANCH  37  38
ATOM     38  C   UNL     1      -6.534   0.803  -6.474  1.00  0.00     0.031 A 
ATOM     39  C   UNL     1      -6.365   0.947  -7.916  1.00  0.00     0.074 A 
ATOM     40  C   UNL     1      -7.277  -0.080  -5.758  1.00  0.00     0.049 A 
ATOM     41  N   UNL     1      -7.125   1.652  -8.687  1.00  0.00    -0.248 NA
ATOM     42  C   UNL     1      -5.149   0.454  -8.585  1.00  0.00     0.031 C 
ATOM     43  C   UNL     1      -8.173  -1.145  -6.150  1.00  0.00     0.029 A 
ATOM     44  N   UNL     1      -7.383  -0.086  -4.359  1.00  0.00    -0.354 N 
ATOM     45  C   UNL     1      -6.757   1.245  -9.953  1.00  0.00     0.074 A 
ATOM     46  C   UNL     1      -5.371   0.842  -9.841  1.00  0.00     0.031 C 
ATOM     47  C   UNL     1      -8.960  -1.451  -5.094  1.00  0.00     0.029 A 
ATOM     48  C   UNL     1      -8.598  -0.612  -3.949  1.00  0.00     0.049 A 
ATOM     49  H   UNL     1      -6.685   0.240  -3.747  1.00  0.00     0.167 HD
ATOM     50  C   UNL     1      -7.672   0.624 -10.761  1.00  0.00     0.037 A 
ATOM     51  C   UNL     1      -9.416   0.258  -3.287  1.00  0.00     0.037 A 
ATOM     52  C   UNL     1      -8.875   0.281  -9.989  1.00  0.00     0.049 A 
ATOM     53  C   UNL     1     -10.325   0.957  -4.272  1.00  0.00     0.074 A 
ATOM     54  C   UNL     1      -9.330  -0.925  -9.478  1.00  0.00     0.029 A 
ATOM     55  N   UNL     1      -9.588   1.269  -9.311  1.00  0.00    -0.354 N 
ATOM     56  N   UNL     1     -10.142   0.935  -5.567  1.00  0.00    -0.248 NA
ATOM     57  C   UNL     1     -11.561   1.635  -3.902  1.00  0.00     0.031 C 
ATOM     58  C   UNL     1     -10.297  -0.653  -8.475  1.00  0.00     0.029 A 
ATOM     59  C   UNL     1     -10.410   0.719  -8.342  1.00  0.00     0.049 A 
ATOM     60  H   UNL     1      -9.516   2.233  -9.498  1.00  0.00     0.167 HD
ATOM     61  C   UNL     1     -11.204   1.512  -6.202  1.00  0.00     0.074 A 
ATOM     62  C   UNL     1     -12.069   1.934  -5.112  1.00  0.00     0.031 C 
ATOM     63  C   UNL     1     -11.306   1.567  -7.564  1.00  0.00     0.037 A 
BRANCH  50  64
ATOM     64  C   UNL     1      -7.251  -0.034 -12.063  1.00  0.00     0.058 A 
ATOM     65  C   UNL     1      -7.957  -1.117 -12.620  1.00  0.00     0.135 A 
ATOM     66  C   UNL     1      -6.149   0.415 -12.830  1.00  0.00     0.135 A 
ATOM     67  F   UNL     1      -9.077  -1.588 -12.060  1.00  0.00    -0.206 F 
ATOM     68  C   UNL     1      -7.557  -1.756 -13.796  1.00  0.00     0.059 A 
ATOM     69  C   UNL     1      -5.701  -0.237 -13.982  1.00  0.00     0.059 A 
ATOM     70  F   UNL     1      -5.478   1.529 -12.493  1.00  0.00    -0.206 F 
ATOM     71  C   UNL     1      -6.420  -1.320 -14.464  1.00  0.00     0.060 A 
BRANCH  71  72
ATOM     72  S   UNL     1      -5.942  -2.145 -15.994  1.00  0.00     0.124 S 
ATOM     73  O   UNL     1      -5.879  -3.545 -15.584  1.00  0.00    -0.237 OA
ATOM     74  O   UNL     1      -7.045  -1.791 -16.881  1.00  0.00    -0.237 OA
ATOM     75  O   UNL     1      -4.655  -1.538 -16.320  1.00  0.00    -0.744 OA
ENDBRANCH  71  72
ENDBRANCH  50  64
BRANCH  51  76
ATOM     76  C   UNL     1      -8.800   0.787  -2.020  1.00  0.00     0.058 A 
ATOM     77  C   UNL     1      -8.522  -0.170  -1.016  1.00  0.00     0.135 A 
ATOM     78  C   UNL     1      -8.208   2.048  -1.845  1.00  0.00     0.135 A 
ATOM     79  F   UNL     1      -9.082  -1.389  -1.088  1.00  0.00    -0.206 F 
ATOM     80  C   UNL     1      -7.616   0.053   0.019  1.00  0.00     0.059 A 
ATOM     81  C   UNL     1      -7.300   2.304  -0.795  1.00  0.00     0.059 A 
ATOM     82  F   UNL     1      -8.424   3.026  -2.737  1.00  0.00    -0.206 F 
ATOM     83  C   UNL     1      -6.975   1.282   0.101  1.00  0.00     0.060 A 
BRANCH  83  84
ATOM     84  S   UNL     1      -5.642   1.446   1.322  1.00  0.00     0.124 S 
ATOM     85  O   UNL     1      -6.369   1.312   2.580  1.00  0.00    -0.237 OA
ATOM     86  O   UNL     1      -4.787   0.313   0.974  1.00  0.00    -0.237 OA
ATOM     87  O   UNL     1      -5.111   2.773   1.047  1.00  0.00    -0.744 OA
ENDBRANCH  83  84
ENDBRANCH  51  76
BRANCH  63  88
ATOM     88  C   UNL     1     -12.346   2.346  -8.324  1.00  0.00     0.058 A 
ATOM     89  C   UNL     1     -12.922   3.537  -7.860  1.00  0.00     0.135 A 
ATOM     90  C   UNL     1     -12.679   1.973  -9.652  1.00  0.00     0.135 A 
ATOM     91  F   UNL     1     -12.595   4.055  -6.668  1.00  0.00    -0.206 F 
ATOM     92  C   UNL     1     -13.826   4.266  -8.627  1.00  0.00     0.059 A 
ATOM     93  C   UNL     1     -13.511   2.730 -10.461  1.00  0.00     0.059 A 
ATOM     94  F   UNL     1     -12.193   0.859 -10.219  1.00  0.00    -0.206 F 
ATOM     95  C   UNL     1     -14.111   3.857  -9.927  1.00  0.00     0.060 A 
BRANCH  95  96
ATOM     96  S   UNL     1     -15.246   4.814 -10.938  1.00  0.00     0.124 S 
ATOM     97  O   UNL     1     -16.524   4.201 -10.590  1.00  0.00    -0.237 OA
ATOM     98  O   UNL     1     -15.043   6.175 -10.449  1.00  0.00    -0.237 OA
ATOM     99  O   UNL     1     -14.772   4.566 -12.296  1.00  0.00    -0.744 OA
ENDBRANCH  95  96
ENDBRANCH  63  88
ENDBRANCH  37  38
ENDBRANCH  30  32
ENDBRANCH  29  30
ENDBRANCH  28  29
ENDBRANCH   1  28
TORSDOF 19
