REMARK SMILES Cc1cc(Cl)c(C)c2c1O[C@H](C(F)(F)F)C(C(=O)OCCOC(=O)c1ccc(-c3c4nc(c(-c5c(F)cc(S(=O)(=O)[O-])cc5F)c5ccc([nH]5)c(-c5c(F)cc(S(=O)(=O)[O-])cc5F)c5nc(c(-c6c(F)cc(S(=O)(=O)[O-])cc6F)c6ccc3[nH]6)C=C5)C=C4)cc1)=C2
REMARK SMILES IDX 21 1 20 2 19 3 17 4 18 5 16 6 1 7 2 8 3 9 9 10 4 11 8 12
REMARK SMILES IDX 10 13 5 14 6 15 91 16 11 17 7 18 12 19 13 20 14 21 15 22
REMARK SMILES IDX 22 23 23 24 24 25 25 26 26 27 90 28 27 29 89 30 28 31 29 32
REMARK SMILES IDX 30 33 83 34 31 35 88 36 82 37 84 38 32 39 87 40 81 41 80 42
REMARK SMILES IDX 33 44 67 45 46 46 66 47 47 48 50 49 65 50 85 51 48 52 49 53
REMARK SMILES IDX 64 55 86 56 51 57 34 58 35 59 44 60 36 61 37 62 43 63 45 64
REMARK SMILES IDX 38 65 39 66 40 67 41 68 42 69 68 70 69 71 78 72 70 73 71 74
REMARK SMILES IDX 77 75 79 76 72 77 73 78 74 79 75 80 76 81 52 82 53 83 62 84
REMARK SMILES IDX 54 85 55 86 61 87 63 88 56 89 57 90 58 91 59 92 60 93
REMARK H PARENT 84 43 50 54
REMARK Flexibility Score: inf
ROOT
ATOM      1  C   UNL     1      -4.242   1.464   7.462  1.00  0.00     0.275 C 
ENDROOT
BRANCH   1   2
ATOM      2  C   UNL     1      -4.644   0.729   6.184  1.00  0.00     0.275 C 
BRANCH   2   3
ATOM      3  O   UNL     1      -3.549   0.673   5.245  1.00  0.00    -0.459 OA
BRANCH   3   4
ATOM      4  C   UNL     1      -3.636   1.517   4.190  1.00  0.00     0.338 C 
ATOM      5  O   UNL     1      -4.551   2.290   3.951  1.00  0.00    -0.246 OA
BRANCH   4   6
ATOM      6  C   UNL     1      -2.456   1.378   3.317  1.00  0.00     0.087 C 
ATOM      7  C   UNL     1       1.001  -0.411  -0.029  1.00  0.00     0.048 C 
ATOM      8  C   UNL     1       0.614   0.935   0.515  1.00  0.00    -0.007 A 
ATOM      9  C   UNL     1       1.231   2.071  -0.020  1.00  0.00     0.028 A 
ATOM     10  C   UNL     1      -0.381   1.097   1.488  1.00  0.00     0.131 A 
ATOM     11  C   UNL     1       0.897   3.351   0.428  1.00  0.00     0.045 A 
ATOM     12  C   UNL     1      -0.736   2.381   1.938  1.00  0.00     0.022 A 
ATOM     13  O   UNL     1      -0.946  -0.054   1.969  1.00  0.00    -0.475 OA
ATOM     14  Cl  UNL     1       1.735   4.668  -0.318  1.00  0.00    -0.084 Cl
ATOM     15  C   UNL     1      -0.080   3.532   1.421  1.00  0.00    -0.021 A 
ATOM     16  C   UNL     1      -1.814   2.483   2.921  1.00  0.00     0.027 C 
ATOM     17  C   UNL     1      -2.127   0.014   2.803  1.00  0.00     0.316 C 
ATOM     18  C   UNL     1      -0.426   4.911   1.930  1.00  0.00     0.047 C 
BRANCH  17  19
ATOM     19  C   UNL     1      -3.312  -0.604   2.044  1.00  0.00     0.430 C 
ATOM     20  F   UNL     1      -2.998  -1.825   1.548  1.00  0.00    -0.167 F 
ATOM     21  F   UNL     1      -4.382  -0.788   2.857  1.00  0.00    -0.167 F 
ATOM     22  F   UNL     1      -3.717   0.163   1.008  1.00  0.00    -0.167 F 
ENDBRANCH  17  19
ENDBRANCH   4   6
ENDBRANCH   3   4
ENDBRANCH   2   3
ENDBRANCH   1   2
BRANCH   1  23
ATOM     23  O   UNL     1      -3.994   2.852   7.179  1.00  0.00    -0.458 OA
BRANCH  23  24
ATOM     24  C   UNL     1      -2.688   3.200   7.134  1.00  0.00     0.338 C 
ATOM     25  O   UNL     1      -1.726   2.486   7.363  1.00  0.00    -0.246 OA
BRANCH  24  26
ATOM     26  C   UNL     1      -2.542   4.586   6.663  1.00  0.00     0.060 A 
ATOM     27  C   UNL     1      -2.915   4.888   5.361  1.00  0.00     0.016 A 
ATOM     28  C   UNL     1      -1.827   5.514   7.415  1.00  0.00     0.016 A 
ATOM     29  C   UNL     1      -2.412   6.029   4.745  1.00  0.00     0.010 A 
ATOM     30  C   UNL     1      -1.451   6.731   6.832  1.00  0.00     0.010 A 
ATOM     31  C   UNL     1      -1.668   6.975   5.462  1.00  0.00    -0.014 A 
BRANCH  31  32
ATOM     32  C   UNL     1      -1.051   8.156   4.777  1.00  0.00     0.031 A 
ATOM     33  C   UNL     1       0.418   8.466   4.980  1.00  0.00     0.074 A 
ATOM     34  C   UNL     1      -1.766   8.940   3.940  1.00  0.00     0.049 A 
ATOM     35  N   UNL     1       1.079   9.564   4.713  1.00  0.00    -0.248 NA
ATOM     36  C   UNL     1       1.248   7.407   5.579  1.00  0.00     0.031 C 
ATOM     37  C   UNL     1      -3.164   8.733   3.558  1.00  0.00     0.029 A 
ATOM     38  N   UNL     1      -1.406  10.071   3.244  1.00  0.00    -0.354 N 
ATOM     39  C   UNL     1       2.375   9.356   5.179  1.00  0.00     0.074 A 
ATOM     40  C   UNL     1       2.407   8.027   5.750  1.00  0.00     0.031 C 
ATOM     41  C   UNL     1      -3.522   9.658   2.656  1.00  0.00     0.029 A 
ATOM     42  C   UNL     1      -2.432  10.611   2.502  1.00  0.00     0.049 A 
ATOM     43  H   UNL     1      -0.501  10.458   3.274  1.00  0.00     0.167 HD
ATOM     44  C   UNL     1       3.438  10.196   5.135  1.00  0.00     0.037 A 
ATOM     45  C   UNL     1      -2.526  11.776   1.831  1.00  0.00     0.037 A 
ATOM     46  C   UNL     1       3.418  11.486   4.491  1.00  0.00     0.049 A 
ATOM     47  C   UNL     1      -1.365  12.728   1.859  1.00  0.00     0.074 A 
ATOM     48  C   UNL     1       4.441  12.413   4.388  1.00  0.00     0.029 A 
ATOM     49  N   UNL     1       2.330  12.018   3.815  1.00  0.00    -0.354 N 
ATOM     50  N   UNL     1      -0.183  12.570   2.405  1.00  0.00    -0.248 NA
ATOM     51  C   UNL     1      -1.562  14.032   1.211  1.00  0.00     0.031 C 
ATOM     52  C   UNL     1       3.958  13.524   3.690  1.00  0.00     0.029 A 
ATOM     53  C   UNL     1       2.650  13.269   3.312  1.00  0.00     0.049 A 
ATOM     54  H   UNL     1       1.458  11.573   3.709  1.00  0.00     0.167 HD
ATOM     55  C   UNL     1       0.507  13.753   2.163  1.00  0.00     0.074 A 
ATOM     56  C   UNL     1      -0.380  14.604   1.395  1.00  0.00     0.031 C 
ATOM     57  C   UNL     1       1.756  14.108   2.553  1.00  0.00     0.037 A 
BRANCH  44  58
ATOM     58  C   UNL     1       4.712   9.774   5.822  1.00  0.00     0.058 A 
ATOM     59  C   UNL     1       5.541   8.763   5.314  1.00  0.00     0.135 A 
ATOM     60  C   UNL     1       5.140  10.444   6.982  1.00  0.00     0.135 A 
ATOM     61  F   UNL     1       5.176   8.076   4.220  1.00  0.00    -0.206 F 
ATOM     62  C   UNL     1       6.739   8.420   5.937  1.00  0.00     0.059 A 
ATOM     63  C   UNL     1       6.347  10.139   7.605  1.00  0.00     0.059 A 
ATOM     64  F   UNL     1       4.388  11.420   7.515  1.00  0.00    -0.206 F 
ATOM     65  C   UNL     1       7.136   9.118   7.079  1.00  0.00     0.060 A 
BRANCH  65  66
ATOM     66  S   UNL     1       8.702   8.674   7.861  1.00  0.00     0.124 S 
ATOM     67  O   UNL     1       8.399   7.347   8.390  1.00  0.00    -0.237 OA
ATOM     68  O   UNL     1       9.631   8.710   6.737  1.00  0.00    -0.237 OA
ATOM     69  O   UNL     1       8.893   9.717   8.864  1.00  0.00    -0.744 OA
ENDBRANCH  65  66
ENDBRANCH  44  58
BRANCH  45  70
ATOM     70  C   UNL     1      -3.796  12.136   1.141  1.00  0.00     0.058 A 
ATOM     71  C   UNL     1      -3.855  12.233  -0.257  1.00  0.00     0.135 A 
ATOM     72  C   UNL     1      -4.982  12.364   1.860  1.00  0.00     0.135 A 
ATOM     73  F   UNL     1      -2.747  12.045  -0.990  1.00  0.00    -0.206 F 
ATOM     74  C   UNL     1      -5.042  12.538  -0.916  1.00  0.00     0.059 A 
ATOM     75  C   UNL     1      -6.187  12.635   1.222  1.00  0.00     0.059 A 
ATOM     76  F   UNL     1      -4.983  12.280   3.200  1.00  0.00    -0.206 F 
ATOM     77  C   UNL     1      -6.206  12.726  -0.168  1.00  0.00     0.060 A 
BRANCH  77  78
ATOM     78  S   UNL     1      -7.752  13.055  -1.039  1.00  0.00     0.124 S 
ATOM     79  O   UNL     1      -7.524  14.403  -1.546  1.00  0.00    -0.237 OA
ATOM     80  O   UNL     1      -7.770  11.991  -2.038  1.00  0.00    -0.237 OA
ATOM     81  O   UNL     1      -8.761  12.937   0.009  1.00  0.00    -0.744 OA
ENDBRANCH  77  78
ENDBRANCH  45  70
BRANCH  57  82
ATOM     82  C   UNL     1       2.244  15.470   2.146  1.00  0.00     0.058 A 
ATOM     83  C   UNL     1       1.738  16.637   2.740  1.00  0.00     0.135 A 
ATOM     84  C   UNL     1       3.255  15.610   1.182  1.00  0.00     0.135 A 
ATOM     85  F   UNL     1       0.764  16.559   3.661  1.00  0.00    -0.206 F 
ATOM     86  C   UNL     1       2.198  17.897   2.374  1.00  0.00     0.059 A 
ATOM     87  C   UNL     1       3.752  16.859   0.822  1.00  0.00     0.059 A 
ATOM     88  F   UNL     1       3.781  14.526   0.590  1.00  0.00    -0.206 F 
ATOM     89  C   UNL     1       3.208  17.997   1.415  1.00  0.00     0.060 A 
BRANCH  89  90
ATOM     90  S   UNL     1       3.807  19.639   0.966  1.00  0.00     0.124 S 
ATOM     91  O   UNL     1       2.665  20.181   0.238  1.00  0.00    -0.237 OA
ATOM     92  O   UNL     1       4.071  20.240   2.270  1.00  0.00    -0.237 OA
ATOM     93  O   UNL     1       4.991  19.362   0.159  1.00  0.00    -0.744 OA
ENDBRANCH  89  90
ENDBRANCH  57  82
ENDBRANCH  31  32
ENDBRANCH  24  26
ENDBRANCH  23  24
ENDBRANCH   1  23
TORSDOF 15
