REMARK SMILES Cc1c(CCC(=O)N2CCC(C(=O)OCCOC(=O)c3ccc(-c4c5nc(c(-c6c(F)cc(S(=O)(=O)[O-])cc6F)c6ccc([nH]6)c(-c6c(F)cc(S(=O)(=O)[O-])cc6F)c6nc(c(-c7c(F)cc(S(=O)(=O)[O-])cc7F)c7ccc4[nH]7)C=C6)C=C5)cc3)CC2)c(=O)oc2cc3oc4c(c3cc12)CCCC4
REMARK SMILES IDX 15 1 14 2 12 3 13 4 11 5 6 6 7 7 8 8 9 9 87 10 10 11 86 12
REMARK SMILES IDX 5 13 4 14 3 15 1 16 2 17 99 18 88 19 91 20 98 21 89 22 90 23
REMARK SMILES IDX 92 24 97 25 93 26 96 27 94 28 95 29 100 30 103 31 101 32
REMARK SMILES IDX 102 33 16 34 17 35 18 36 19 37 20 38 21 39 85 40 22 41 84 42
REMARK SMILES IDX 23 43 24 44 25 45 78 46 26 47 83 48 77 49 79 50 27 51 82 52
REMARK SMILES IDX 76 53 75 54 28 56 62 57 41 58 61 59 42 60 45 61 60 62 80 63
REMARK SMILES IDX 43 64 44 65 59 67 81 68 46 69 29 70 30 71 39 72 31 73 32 74
REMARK SMILES IDX 38 75 40 76 33 77 34 78 35 79 36 80 37 81 63 82 64 83 73 84
REMARK SMILES IDX 65 85 66 86 72 87 74 88 67 89 68 90 69 91 70 92 71 93 47 94
REMARK SMILES IDX 48 95 57 96 49 97 50 98 56 99 58 100 51 101 52 102 53 103
REMARK SMILES IDX 54 104 55 105
REMARK H PARENT 79 55 45 66
REMARK Flexibility Score: inf
ROOT
ATOM      1  C   UNL     1      -1.662  -4.345  -1.972  1.00  0.00     0.274 C 
ENDROOT
BRANCH   1   2
ATOM      2  O   UNL     1      -1.440  -3.239  -1.080  1.00  0.00    -0.462 OA
BRANCH   2   3
ATOM      3  C   UNL     1      -0.998  -3.536   0.178  1.00  0.00     0.309 C 
ATOM      4  O   UNL     1      -0.764  -4.666   0.581  1.00  0.00    -0.252 OA
BRANCH   3   5
ATOM      5  C   UNL     1      -0.889  -2.262   1.009  1.00  0.00     0.103 C 
ATOM      6  C   UNL     1       1.871   0.438   2.432  1.00  0.00     0.222 C 
ATOM      7  O   UNL     1       2.784  -0.236   2.916  1.00  0.00    -0.275 OA
ATOM      8  N   UNL     1       0.579  -0.082   2.315  1.00  0.00    -0.343 N 
ATOM      9  C   UNL     1       0.045  -1.158   3.161  1.00  0.00     0.120 C 
ATOM     10  C   UNL     1      -0.146   0.076   1.090  1.00  0.00     0.120 C 
ATOM     11  C   UNL     1      -0.299  -2.473   2.412  1.00  0.00     0.037 C 
ATOM     12  C   UNL     1      -0.008  -1.236   0.314  1.00  0.00     0.037 C 
BRANCH   6  13
ATOM     13  C   UNL     1       2.097   1.952   2.109  1.00  0.00     0.105 C 
BRANCH  13  14
ATOM     14  C   UNL     1       2.672   2.463   0.757  1.00  0.00     0.053 C 
BRANCH  14  15
ATOM     15  C   UNL     1       1.632   2.915  -0.252  1.00  0.00     0.042 A 
ATOM     16  C   UNL     1       1.841   0.823  -1.682  1.00  0.00     0.046 C 
ATOM     17  C   UNL     1       1.202   2.104  -1.225  1.00  0.00    -0.030 A 
ATOM     18  C   UNL     1      -0.152   2.394  -1.650  1.00  0.00     0.022 A 
ATOM     19  C   UNL     1       1.109   4.331  -0.273  1.00  0.00     0.339 A 
ATOM     20  C   UNL     1      -0.555   3.679  -1.911  1.00  0.00     0.142 A 
ATOM     21  C   UNL     1      -1.082   1.384  -1.704  1.00  0.00     0.024 A 
ATOM     22  O   UNL     1       1.527   5.161   0.528  1.00  0.00    -0.246 OA
ATOM     23  O   UNL     1       0.228   4.692  -1.328  1.00  0.00    -0.422 OA
ATOM     24  C   UNL     1      -1.700   3.926  -2.694  1.00  0.00     0.095 A 
ATOM     25  C   UNL     1      -2.254   1.566  -2.395  1.00  0.00     0.025 A 
ATOM     26  C   UNL     1      -2.456   2.783  -3.021  1.00  0.00     0.138 A 
ATOM     27  C   UNL     1      -3.118   0.607  -2.927  1.00  0.00     0.001 A 
ATOM     28  O   UNL     1      -3.334   2.564  -4.058  1.00  0.00    -0.461 OA
ATOM     29  C   UNL     1      -3.589   1.219  -4.061  1.00  0.00     0.108 A 
ATOM     30  C   UNL     1      -2.955  -0.870  -2.902  1.00  0.00     0.040 C 
ATOM     31  C   UNL     1      -3.647   0.400  -5.306  1.00  0.00     0.076 C 
ATOM     32  C   UNL     1      -2.108  -1.302  -4.109  1.00  0.00     0.005 C 
ATOM     33  C   UNL     1      -2.314  -0.399  -5.360  1.00  0.00     0.008 C 
ENDBRANCH  14  15
ENDBRANCH  13  14
ENDBRANCH   6  13
ENDBRANCH   3   5
ENDBRANCH   2   3
ENDBRANCH   1   2
BRANCH   1  34
ATOM     34  C   UNL     1      -3.019  -5.007  -1.730  1.00  0.00     0.275 C 
BRANCH  34  35
ATOM     35  O   UNL     1      -4.112  -4.127  -2.059  1.00  0.00    -0.458 OA
BRANCH  35  36
ATOM     36  C   UNL     1      -4.711  -3.467  -1.023  1.00  0.00     0.338 C 
ATOM     37  O   UNL     1      -4.389  -3.483   0.133  1.00  0.00    -0.246 OA
BRANCH  36  38
ATOM     38  C   UNL     1      -5.750  -2.578  -1.613  1.00  0.00     0.060 A 
ATOM     39  C   UNL     1      -6.593  -3.020  -2.635  1.00  0.00     0.016 A 
ATOM     40  C   UNL     1      -5.749  -1.231  -1.245  1.00  0.00     0.016 A 
ATOM     41  C   UNL     1      -7.352  -2.092  -3.358  1.00  0.00     0.010 A 
ATOM     42  C   UNL     1      -6.468  -0.304  -2.010  1.00  0.00     0.010 A 
ATOM     43  C   UNL     1      -7.252  -0.711  -3.103  1.00  0.00    -0.014 A 
BRANCH  43  44
ATOM     44  C   UNL     1      -8.054   0.259  -3.913  1.00  0.00     0.031 A 
ATOM     45  C   UNL     1      -8.153   1.673  -3.383  1.00  0.00     0.074 A 
ATOM     46  C   UNL     1      -8.229   0.089  -5.245  1.00  0.00     0.049 A 
ATOM     47  N   UNL     1      -7.328   2.651  -3.645  1.00  0.00    -0.248 NA
ATOM     48  C   UNL     1      -9.079   1.968  -2.286  1.00  0.00     0.031 C 
ATOM     49  C   UNL     1      -7.142  -0.251  -6.165  1.00  0.00     0.029 A 
ATOM     50  N   UNL     1      -9.271   0.409  -6.085  1.00  0.00    -0.354 N 
ATOM     51  C   UNL     1      -7.606   3.679  -2.746  1.00  0.00     0.074 A 
ATOM     52  C   UNL     1      -8.684   3.192  -1.911  1.00  0.00     0.031 C 
ATOM     53  C   UNL     1      -7.498   0.058  -7.424  1.00  0.00     0.029 A 
ATOM     54  C   UNL     1      -8.895   0.456  -7.429  1.00  0.00     0.049 A 
ATOM     55  H   UNL     1     -10.187   0.587  -5.771  1.00  0.00     0.167 HD
ATOM     56  C   UNL     1      -6.982   4.892  -2.708  1.00  0.00     0.037 A 
ATOM     57  C   UNL     1      -9.476   1.217  -8.398  1.00  0.00     0.037 A 
ATOM     58  C   UNL     1      -6.043   5.181  -3.749  1.00  0.00     0.049 A 
ATOM     59  C   UNL     1      -8.866   2.560  -8.071  1.00  0.00     0.074 A 
ATOM     60  C   UNL     1      -4.717   5.509  -3.911  1.00  0.00     0.029 A 
ATOM     61  N   UNL     1      -6.559   5.437  -4.992  1.00  0.00    -0.354 N 
ATOM     62  N   UNL     1      -7.672   2.992  -8.388  1.00  0.00    -0.248 NA
ATOM     63  C   UNL     1      -9.520   3.306  -6.998  1.00  0.00     0.031 C 
ATOM     64  C   UNL     1      -4.455   5.372  -5.317  1.00  0.00     0.029 A 
ATOM     65  C   UNL     1      -5.658   5.031  -5.935  1.00  0.00     0.049 A 
ATOM     66  H   UNL     1      -7.435   5.847  -5.175  1.00  0.00     0.167 HD
ATOM     67  C   UNL     1      -7.323   3.911  -7.389  1.00  0.00     0.074 A 
ATOM     68  C   UNL     1      -8.509   4.039  -6.563  1.00  0.00     0.031 C 
ATOM     69  C   UNL     1      -6.061   4.402  -7.182  1.00  0.00     0.037 A 
BRANCH  56  70
ATOM     70  C   UNL     1      -7.411   6.014  -1.835  1.00  0.00     0.058 A 
ATOM     71  C   UNL     1      -8.208   7.013  -2.417  1.00  0.00     0.135 A 
ATOM     72  C   UNL     1      -6.911   6.237  -0.546  1.00  0.00     0.135 A 
ATOM     73  F   UNL     1      -8.706   6.838  -3.653  1.00  0.00    -0.206 F 
ATOM     74  C   UNL     1      -8.465   8.213  -1.771  1.00  0.00     0.059 A 
ATOM     75  C   UNL     1      -7.169   7.433   0.130  1.00  0.00     0.059 A 
ATOM     76  F   UNL     1      -6.138   5.317   0.052  1.00  0.00    -0.206 F 
ATOM     77  C   UNL     1      -7.929   8.421  -0.502  1.00  0.00     0.060 A 
BRANCH  77  78
ATOM     78  S   UNL     1      -8.232  10.020   0.281  1.00  0.00     0.124 S 
ATOM     79  O   UNL     1      -7.572  10.938  -0.641  1.00  0.00    -0.237 OA
ATOM     80  O   UNL     1      -9.691  10.074   0.294  1.00  0.00    -0.237 OA
ATOM     81  O   UNL     1      -7.602   9.883   1.590  1.00  0.00    -0.744 OA
ENDBRANCH  77  78
ENDBRANCH  56  70
BRANCH  57  82
ATOM     82  C   UNL     1     -10.945   0.978  -8.580  1.00  0.00     0.058 A 
ATOM     83  C   UNL     1     -11.372  -0.354  -8.777  1.00  0.00     0.135 A 
ATOM     84  C   UNL     1     -11.958   1.947  -8.533  1.00  0.00     0.135 A 
ATOM     85  F   UNL     1     -10.472  -1.332  -8.974  1.00  0.00    -0.206 F 
ATOM     86  C   UNL     1     -12.713  -0.722  -8.738  1.00  0.00     0.059 A 
ATOM     87  C   UNL     1     -13.309   1.603  -8.462  1.00  0.00     0.059 A 
ATOM     88  F   UNL     1     -11.667   3.255  -8.517  1.00  0.00    -0.206 F 
ATOM     89  C   UNL     1     -13.672   0.261  -8.522  1.00  0.00     0.060 A 
BRANCH  89  90
ATOM     90  S   UNL     1     -15.376  -0.258  -8.239  1.00  0.00     0.124 S 
ATOM     91  O   UNL     1     -15.721  -0.874  -9.515  1.00  0.00    -0.237 OA
ATOM     92  O   UNL     1     -15.220  -1.174  -7.112  1.00  0.00    -0.237 OA
ATOM     93  O   UNL     1     -16.064   0.991  -7.933  1.00  0.00    -0.744 OA
ENDBRANCH  89  90
ENDBRANCH  57  82
BRANCH  69  94
ATOM     94  C   UNL     1      -5.024   4.072  -8.218  1.00  0.00     0.058 A 
ATOM     95  C   UNL     1      -5.120   4.542  -9.533  1.00  0.00     0.135 A 
ATOM     96  C   UNL     1      -3.867   3.347  -7.895  1.00  0.00     0.135 A 
ATOM     97  F   UNL     1      -6.159   5.307  -9.903  1.00  0.00    -0.206 F 
ATOM     98  C   UNL     1      -4.121   4.289 -10.477  1.00  0.00     0.059 A 
ATOM     99  C   UNL     1      -2.864   3.063  -8.817  1.00  0.00     0.059 A 
ATOM    100  F   UNL     1      -3.651   2.954  -6.639  1.00  0.00    -0.206 F 
ATOM    101  C   UNL     1      -2.994   3.550 -10.109  1.00  0.00     0.060 A 
BRANCH 101 102
ATOM    102  S   UNL     1      -1.671   3.301 -11.309  1.00  0.00     0.124 S 
ATOM    103  O   UNL     1      -2.357   2.597 -12.388  1.00  0.00    -0.237 OA
ATOM    104  O   UNL     1      -1.266   4.672 -11.604  1.00  0.00    -0.237 OA
ATOM    105  O   UNL     1      -0.685   2.507 -10.580  1.00  0.00    -0.744 OA
ENDBRANCH 101 102
ENDBRANCH  69  94
ENDBRANCH  43  44
ENDBRANCH  36  38
ENDBRANCH  35  36
ENDBRANCH  34  35
ENDBRANCH   1  34
TORSDOF 17
