REMARK SMILES CC(C)C[C@@H](NC(=O)Cn1nc(O)ccc1=O)C(=O)OCCOC(=O)c1ccc(-c2c3nc(c(-c4c(F)cc(S(=O)(=O)[O-])cc4F)c4ccc([nH]4)c(-c4c(F)cc(S(=O)(=O)[O-])cc4F)c4nc(c(-c5c(F)cc(S(=O)(=O)[O-])cc5F)c5ccc2[nH]5)C=C4)C=C3)cc1
REMARK SMILES IDX 21 1 20 2 18 3 19 4 5 5 4 6 2 7 1 8 3 9 6 10 7 11 8 13 9 14
REMARK SMILES IDX 10 15 11 16 16 17 12 18 15 19 17 20 14 21 13 22 22 24 23 25
REMARK SMILES IDX 24 26 25 27 26 28 27 29 91 30 28 31 90 32 29 33 30 34 31 35
REMARK SMILES IDX 84 36 32 37 89 38 83 39 85 40 33 41 88 42 82 43 81 44 34 46
REMARK SMILES IDX 68 47 47 48 67 49 48 50 51 51 66 52 86 53 49 54 50 55 65 57
REMARK SMILES IDX 87 58 52 59 35 60 36 61 45 62 37 63 38 64 44 65 46 66 39 67
REMARK SMILES IDX 40 68 41 69 42 70 43 71 69 72 70 73 79 74 71 75 72 76 78 77
REMARK SMILES IDX 80 78 73 79 74 80 75 81 76 82 77 83 53 84 54 85 63 86 55 87
REMARK SMILES IDX 56 88 62 89 64 90 57 91 58 92 59 93 60 94 61 95
REMARK H PARENT 6 12 13 23 85 45 51 56
REMARK Flexibility Score: inf
ROOT
ATOM      1  C   UNL     1      -5.222   0.155  -1.691  1.00  0.00     0.274 C 
ENDROOT
BRANCH   1   2
ATOM      2  O   UNL     1      -3.832  -0.165  -1.481  1.00  0.00    -0.461 OA
BRANCH   2   3
ATOM      3  C   UNL     1      -2.908   0.379  -2.299  1.00  0.00     0.328 C 
ATOM      4  O   UNL     1      -3.150   1.232  -3.144  1.00  0.00    -0.250 OA
BRANCH   3   5
ATOM      5  C   UNL     1      -1.537  -0.315  -2.153  1.00  0.00     0.192 C 
BRANCH   5   6
ATOM      6  C   UNL     1      -1.187  -0.970  -0.803  1.00  0.00     0.040 C 
BRANCH   6   7
ATOM      7  C   UNL     1       0.341  -1.060  -0.545  1.00  0.00    -0.015 C 
ATOM      8  C   UNL     1       0.957   0.297  -0.191  1.00  0.00     0.007 C 
ATOM      9  C   UNL     1       0.636  -2.053   0.582  1.00  0.00     0.007 C 
ENDBRANCH   6   7
ENDBRANCH   5   6
BRANCH   5  10
ATOM     10  N   UNL     1      -1.195  -1.207  -3.273  1.00  0.00    -0.341 N 
ATOM     11  C   UNL     1      -1.661  -2.453  -3.592  1.00  0.00     0.242 C 
ATOM     12  H   UNL     1      -0.520  -0.848  -3.893  1.00  0.00     0.164 HD
ATOM     13  O   UNL     1      -0.911  -3.171  -4.262  1.00  0.00    -0.273 OA
BRANCH  11  14
ATOM     14  C   UNL     1      -3.065  -2.922  -3.193  1.00  0.00     0.248 C 
BRANCH  14  15
ATOM     15  N   UNL     1      -3.190  -3.956  -2.161  1.00  0.00    -0.217 N 
ATOM     16  N   UNL     1      -2.807  -5.244  -2.501  1.00  0.00    -0.131 NA
ATOM     17  C   UNL     1      -3.829  -3.661  -0.963  1.00  0.00     0.267 A 
ATOM     18  C   UNL     1      -3.107  -6.157  -1.648  1.00  0.00     0.229 A 
ATOM     19  C   UNL     1      -4.131  -4.783  -0.052  1.00  0.00     0.079 A 
ATOM     20  O   UNL     1      -4.219  -2.553  -0.626  1.00  0.00    -0.268 OA
ATOM     21  C   UNL     1      -3.812  -6.032  -0.386  1.00  0.00     0.075 A 
BRANCH  18  22
ATOM     22  O   UNL     1      -2.756  -7.423  -1.891  1.00  0.00    -0.492 OA
ATOM     23  H   UNL     1      -2.294  -7.640  -2.676  1.00  0.00     0.295 HD
ENDBRANCH  18  22
ENDBRANCH  14  15
ENDBRANCH  11  14
ENDBRANCH   5  10
ENDBRANCH   3   5
ENDBRANCH   2   3
ENDBRANCH   1   2
BRANCH   1  24
ATOM     24  C   UNL     1      -5.972   0.001  -0.363  1.00  0.00     0.275 C 
BRANCH  24  25
ATOM     25  O   UNL     1      -5.630   1.100   0.490  1.00  0.00    -0.458 OA
BRANCH  25  26
ATOM     26  C   UNL     1      -4.432   0.992   1.127  1.00  0.00     0.338 C 
ATOM     27  O   UNL     1      -3.833  -0.010   1.440  1.00  0.00    -0.246 OA
BRANCH  26  28
ATOM     28  C   UNL     1      -3.858   2.350   1.098  1.00  0.00     0.060 A 
ATOM     29  C   UNL     1      -4.665   3.456   1.364  1.00  0.00     0.016 A 
ATOM     30  C   UNL     1      -2.536   2.510   0.664  1.00  0.00     0.016 A 
ATOM     31  C   UNL     1      -4.161   4.729   1.145  1.00  0.00     0.010 A 
ATOM     32  C   UNL     1      -2.030   3.785   0.442  1.00  0.00     0.010 A 
ATOM     33  C   UNL     1      -2.850   4.895   0.671  1.00  0.00    -0.014 A 
BRANCH  33  34
ATOM     34  C   UNL     1      -2.329   6.263   0.535  1.00  0.00     0.031 A 
ATOM     35  C   UNL     1      -2.390   6.979  -0.773  1.00  0.00     0.074 A 
ATOM     36  C   UNL     1      -1.892   6.860   1.657  1.00  0.00     0.049 A 
ATOM     37  N   UNL     1      -2.199   8.248  -1.016  1.00  0.00    -0.248 NA
ATOM     38  C   UNL     1      -2.707   6.174  -1.963  1.00  0.00     0.031 C 
ATOM     39  C   UNL     1      -1.791   6.205   2.965  1.00  0.00     0.029 A 
ATOM     40  N   UNL     1      -1.496   8.146   1.890  1.00  0.00    -0.354 N 
ATOM     41  C   UNL     1      -2.408   8.407  -2.379  1.00  0.00     0.074 A 
ATOM     42  C   UNL     1      -2.689   7.094  -2.921  1.00  0.00     0.031 C 
ATOM     43  C   UNL     1      -1.401   7.108   3.875  1.00  0.00     0.029 A 
ATOM     44  C   UNL     1      -1.223   8.396   3.213  1.00  0.00     0.049 A 
ATOM     45  H   UNL     1      -1.413   8.825   1.182  1.00  0.00     0.167 HD
ATOM     46  C   UNL     1      -2.382   9.556  -3.094  1.00  0.00     0.037 A 
ATOM     47  C   UNL     1      -0.897   9.547   3.824  1.00  0.00     0.037 A 
ATOM     48  C   UNL     1      -2.074  10.842  -2.519  1.00  0.00     0.049 A 
ATOM     49  C   UNL     1      -0.855  10.802   3.003  1.00  0.00     0.074 A 
ATOM     50  C   UNL     1      -2.036  12.078  -3.139  1.00  0.00     0.029 A 
ATOM     51  N   UNL     1      -1.738  11.053  -1.187  1.00  0.00    -0.354 N 
ATOM     52  N   UNL     1      -1.119  10.955   1.727  1.00  0.00    -0.248 NA
ATOM     53  C   UNL     1      -0.482  12.037   3.700  1.00  0.00     0.031 C 
ATOM     54  C   UNL     1      -1.637  13.029  -2.192  1.00  0.00     0.029 A 
ATOM     55  C   UNL     1      -1.465  12.393  -0.972  1.00  0.00     0.049 A 
ATOM     56  H   UNL     1      -1.700  10.352  -0.497  1.00  0.00     0.167 HD
ATOM     57  C   UNL     1      -0.949  12.307   1.465  1.00  0.00     0.074 A 
ATOM     58  C   UNL     1      -0.582  12.930   2.723  1.00  0.00     0.031 C 
ATOM     59  C   UNL     1      -1.081  12.975   0.292  1.00  0.00     0.037 A 
BRANCH  46  60
ATOM     60  C   UNL     1      -2.699   9.480  -4.561  1.00  0.00     0.058 A 
ATOM     61  C   UNL     1      -4.010   9.268  -5.015  1.00  0.00     0.135 A 
ATOM     62  C   UNL     1      -1.699   9.684  -5.525  1.00  0.00     0.135 A 
ATOM     63  F   UNL     1      -5.003   9.055  -4.137  1.00  0.00    -0.206 F 
ATOM     64  C   UNL     1      -4.318   9.249  -6.372  1.00  0.00     0.059 A 
ATOM     65  C   UNL     1      -1.987   9.688  -6.888  1.00  0.00     0.059 A 
ATOM     66  F   UNL     1      -0.427   9.888  -5.147  1.00  0.00    -0.206 F 
ATOM     67  C   UNL     1      -3.299   9.463  -7.302  1.00  0.00     0.060 A 
BRANCH  67  68
ATOM     68  S   UNL     1      -3.721   9.459  -9.059  1.00  0.00     0.124 S 
ATOM     69  O   UNL     1      -3.996   8.044  -9.290  1.00  0.00    -0.237 OA
ATOM     70  O   UNL     1      -4.881  10.344  -9.102  1.00  0.00    -0.237 OA
ATOM     71  O   UNL     1      -2.517   9.976  -9.700  1.00  0.00    -0.744 OA
ENDBRANCH  67  68
ENDBRANCH  46  60
BRANCH  47  72
ATOM     72  C   UNL     1      -0.648   9.547   5.286  1.00  0.00     0.058 A 
ATOM     73  C   UNL     1      -1.581  10.093   6.178  1.00  0.00     0.135 A 
ATOM     74  C   UNL     1       0.490   8.925   5.823  1.00  0.00     0.135 A 
ATOM     75  F   UNL     1      -2.686  10.691   5.710  1.00  0.00    -0.206 F 
ATOM     76  C   UNL     1      -1.395  10.023   7.555  1.00  0.00     0.059 A 
ATOM     77  C   UNL     1       0.688   8.824   7.196  1.00  0.00     0.059 A 
ATOM     78  F   UNL     1       1.399   8.366   5.008  1.00  0.00    -0.206 F 
ATOM     79  C   UNL     1      -0.260   9.380   8.054  1.00  0.00     0.060 A 
BRANCH  79  80
ATOM     80  S   UNL     1      -0.067   9.230   9.843  1.00  0.00     0.124 S 
ATOM     81  O   UNL     1       0.277  10.597  10.217  1.00  0.00    -0.237 OA
ATOM     82  O   UNL     1      -1.388   8.767  10.256  1.00  0.00    -0.237 OA
ATOM     83  O   UNL     1       1.005   8.248   9.983  1.00  0.00    -0.744 OA
ENDBRANCH  79  80
ENDBRANCH  47  72
BRANCH  59  84
ATOM     84  C   UNL     1      -0.803  14.450   0.319  1.00  0.00     0.058 A 
ATOM     85  C   UNL     1       0.510  14.939   0.394  1.00  0.00     0.135 A 
ATOM     86  C   UNL     1      -1.851  15.378   0.218  1.00  0.00     0.135 A 
ATOM     87  F   UNL     1       1.543  14.089   0.501  1.00  0.00    -0.206 F 
ATOM     88  C   UNL     1       0.775  16.303   0.384  1.00  0.00     0.059 A 
ATOM     89  C   UNL     1      -1.607  16.747   0.184  1.00  0.00     0.059 A 
ATOM     90  F   UNL     1      -3.123  14.957   0.138  1.00  0.00    -0.206 F 
ATOM     91  C   UNL     1      -0.290  17.199   0.276  1.00  0.00     0.060 A 
BRANCH  91  92
ATOM     92  S   UNL     1       0.073  18.966   0.227  1.00  0.00     0.124 S 
ATOM     93  O   UNL     1       0.426  19.232   1.617  1.00  0.00    -0.237 OA
ATOM     94  O   UNL     1       1.173  19.032  -0.731  1.00  0.00    -0.237 OA
ATOM     95  O   UNL     1      -1.182  19.558  -0.227  1.00  0.00    -0.744 OA
ENDBRANCH  91  92
ENDBRANCH  59  84
ENDBRANCH  33  34
ENDBRANCH  26  28
ENDBRANCH  25  26
ENDBRANCH  24  25
ENDBRANCH   1  24
TORSDOF 20
