REMARK SMILES CS(=O)(=O)Nc1ccc(-c2cc(Cl)cc3c2O[C@H](C(F)(F)F)C(C(=O)OCCOC(=O)c2ccc(-c4c5nc(c(-c6c(F)cc(S(=O)(=O)[O-])cc6F)c6ccc([nH]6)c(-c6c(F)cc(S(=O)(=O)[O-])cc6F)c6nc(c(-c7c(F)cc(S(=O)(=O)[O-])cc7F)c7ccc4[nH]7)C=C6)C=C5)cc2)=C3)cc1
REMARK SMILES IDX 27 1 26 2 24 3 25 4 23 5 10 6 11 7 16 8 12 9 15 10 17 11
REMARK SMILES IDX 13 12 14 13 98 14 18 15 9 16 6 17 7 18 100 19 8 20 99 21
REMARK SMILES IDX 5 22 2 24 1 25 3 26 4 27 19 28 20 29 21 30 22 31 28 32 29 33
REMARK SMILES IDX 30 34 31 35 32 36 33 37 97 38 34 39 96 40 35 41 36 42 37 43
REMARK SMILES IDX 90 44 38 45 95 46 89 47 91 48 39 49 94 50 88 51 87 52 40 54
REMARK SMILES IDX 74 55 53 56 73 57 54 58 57 59 72 60 92 61 55 62 56 63 71 65
REMARK SMILES IDX 93 66 58 67 41 68 42 69 51 70 43 71 44 72 50 73 52 74 45 75
REMARK SMILES IDX 46 76 47 77 48 78 49 79 75 80 76 81 85 82 77 83 78 84 84 85
REMARK SMILES IDX 86 86 79 87 80 88 81 89 82 90 83 91 59 92 60 93 69 94 61 95
REMARK SMILES IDX 62 96 68 97 70 98 63 99 64 100 65 101 66 102 67 103
REMARK H PARENT 5 23 91 53 57 64
REMARK Flexibility Score: inf
ROOT
ATOM      1  C   UNL     1       8.530   4.106  -9.209  1.00  0.00     0.275 C 
ENDROOT
BRANCH   1   2
ATOM      2  O   UNL     1       8.750   3.143  -8.148  1.00  0.00    -0.459 OA
BRANCH   2   3
ATOM      3  C   UNL     1       9.060   3.726  -6.962  1.00  0.00     0.338 C 
ATOM      4  O   UNL     1       9.188   4.935  -6.802  1.00  0.00    -0.246 OA
BRANCH   3   5
ATOM      5  C   UNL     1       9.183   2.777  -5.827  1.00  0.00     0.087 C 
ATOM      6  C   UNL     1       5.897   0.858  -4.386  1.00  0.00     0.026 A 
ATOM      7  C   UNL     1       4.865   1.760  -4.753  1.00  0.00     0.033 A 
ATOM      8  C   UNL     1       7.186   1.373  -4.556  1.00  0.00     0.135 A 
ATOM      9  C   UNL     1       5.086   3.103  -5.087  1.00  0.00     0.042 A 
ATOM     10  C   UNL     1       7.367   2.777  -4.623  1.00  0.00     0.019 A 
ATOM     11  O   UNL     1       8.306   0.608  -4.862  1.00  0.00    -0.475 OA
ATOM     12  Cl  UNL     1       3.893   4.154  -5.734  1.00  0.00    -0.084 Cl
ATOM     13  C   UNL     1       6.330   3.644  -4.904  1.00  0.00     0.032 A 
ATOM     14  C   UNL     1       8.741   3.304  -4.674  1.00  0.00     0.027 C 
ATOM     15  C   UNL     1       9.160   1.262  -5.929  1.00  0.00     0.316 C 
BRANCH   6  16
ATOM     16  C   UNL     1       5.439  -0.357  -3.627  1.00  0.00    -0.014 A 
ATOM     17  C   UNL     1       3.490  -1.755  -2.050  1.00  0.00     0.048 A 
ATOM     18  C   UNL     1       3.572  -1.960  -3.419  1.00  0.00     0.027 A 
ATOM     19  C   UNL     1       4.539  -1.066  -1.449  1.00  0.00     0.027 A 
ATOM     20  C   UNL     1       4.571  -1.315  -4.174  1.00  0.00     0.011 A 
ATOM     21  C   UNL     1       5.467  -0.334  -2.226  1.00  0.00     0.011 A 
BRANCH  17  22
ATOM     22  N   UNL     1       2.343  -2.272  -1.373  1.00  0.00    -0.284 N 
ATOM     23  H   UNL     1       1.708  -2.805  -1.904  1.00  0.00     0.180 HD
BRANCH  22  24
ATOM     24  S   UNL     1       1.988  -2.046   0.243  1.00  0.00     0.229 S 
ATOM     25  C   UNL     1       2.091  -0.282   0.472  1.00  0.00     0.183 C 
ATOM     26  O   UNL     1       3.035  -2.657   1.043  1.00  0.00    -0.207 OA
ATOM     27  O   UNL     1       0.608  -2.436   0.406  1.00  0.00    -0.207 OA
ENDBRANCH  22  24
ENDBRANCH  17  22
ENDBRANCH   6  16
BRANCH  15  28
ATOM     28  C   UNL     1      10.625   0.828  -5.796  1.00  0.00     0.430 C 
ATOM     29  F   UNL     1      11.115   1.086  -4.558  1.00  0.00    -0.167 F 
ATOM     30  F   UNL     1      10.804  -0.486  -6.044  1.00  0.00    -0.167 F 
ATOM     31  F   UNL     1      11.414   1.505  -6.673  1.00  0.00    -0.167 F 
ENDBRANCH  15  28
ENDBRANCH   3   5
ENDBRANCH   2   3
ENDBRANCH   1   2
BRANCH   1  32
ATOM     32  C   UNL     1       7.586   3.598 -10.303  1.00  0.00     0.275 C 
BRANCH  32  33
ATOM     33  O   UNL     1       6.327   3.158  -9.757  1.00  0.00    -0.458 OA
BRANCH  33  34
ATOM     34  C   UNL     1       6.290   1.831  -9.483  1.00  0.00     0.338 C 
ATOM     35  O   UNL     1       7.202   1.041  -9.690  1.00  0.00    -0.246 OA
BRANCH  34  36
ATOM     36  C   UNL     1       5.039   1.435  -8.785  1.00  0.00     0.060 A 
ATOM     37  C   UNL     1       5.105   0.260  -8.050  1.00  0.00     0.016 A 
ATOM     38  C   UNL     1       3.815   2.119  -8.839  1.00  0.00     0.016 A 
ATOM     39  C   UNL     1       3.980  -0.185  -7.355  1.00  0.00     0.010 A 
ATOM     40  C   UNL     1       2.694   1.677  -8.080  1.00  0.00     0.010 A 
ATOM     41  C   UNL     1       2.772   0.535  -7.275  1.00  0.00    -0.014 A 
BRANCH  41  42
ATOM     42  C   UNL     1       1.645  -0.049  -6.434  1.00  0.00     0.031 A 
ATOM     43  C   UNL     1       1.205  -1.450  -6.765  1.00  0.00     0.074 A 
ATOM     44  C   UNL     1       1.125   0.514  -5.309  1.00  0.00     0.049 A 
ATOM     45  N   UNL     1       0.511  -2.291  -6.045  1.00  0.00    -0.248 NA
ATOM     46  C   UNL     1       1.650  -1.984  -8.063  1.00  0.00     0.031 C 
ATOM     47  C   UNL     1       1.478   1.826  -4.806  1.00  0.00     0.029 A 
ATOM     48  N   UNL     1       0.252   0.054  -4.332  1.00  0.00    -0.354 N 
ATOM     49  C   UNL     1       0.444  -3.453  -6.799  1.00  0.00     0.074 A 
ATOM     50  C   UNL     1       1.215  -3.231  -8.002  1.00  0.00     0.031 C 
ATOM     51  C   UNL     1       0.989   2.012  -3.571  1.00  0.00     0.029 A 
ATOM     52  C   UNL     1       0.099   0.908  -3.240  1.00  0.00     0.049 A 
ATOM     53  H   UNL     1      -0.222  -0.806  -4.405  1.00  0.00     0.167 HD
ATOM     54  C   UNL     1      -0.242  -4.589  -6.549  1.00  0.00     0.037 A 
ATOM     55  C   UNL     1      -0.680   0.839  -2.127  1.00  0.00     0.037 A 
ATOM     56  C   UNL     1      -1.118  -4.783  -5.429  1.00  0.00     0.049 A 
ATOM     57  C   UNL     1      -1.550  -0.395  -1.987  1.00  0.00     0.074 A 
ATOM     58  C   UNL     1      -1.919  -5.877  -5.154  1.00  0.00     0.029 A 
ATOM     59  N   UNL     1      -1.356  -3.849  -4.434  1.00  0.00    -0.354 N 
ATOM     60  N   UNL     1      -1.487  -1.527  -2.652  1.00  0.00    -0.248 NA
ATOM     61  C   UNL     1      -2.597  -0.364  -0.957  1.00  0.00     0.031 C 
ATOM     62  C   UNL     1      -2.690  -5.578  -4.027  1.00  0.00     0.029 A 
ATOM     63  C   UNL     1      -2.317  -4.328  -3.560  1.00  0.00     0.049 A 
ATOM     64  H   UNL     1      -0.908  -2.976  -4.359  1.00  0.00     0.167 HD
ATOM     65  C   UNL     1      -2.438  -2.360  -2.063  1.00  0.00     0.074 A 
ATOM     66  C   UNL     1      -3.018  -1.620  -0.964  1.00  0.00     0.031 C 
ATOM     67  C   UNL     1      -2.821  -3.614  -2.414  1.00  0.00     0.037 A 
BRANCH  54  68
ATOM     68  C   UNL     1      -0.165  -5.658  -7.595  1.00  0.00     0.058 A 
ATOM     69  C   UNL     1       0.972  -6.465  -7.748  1.00  0.00     0.135 A 
ATOM     70  C   UNL     1      -1.238  -5.846  -8.480  1.00  0.00     0.135 A 
ATOM     71  F   UNL     1       2.039  -6.287  -6.953  1.00  0.00    -0.206 F 
ATOM     72  C   UNL     1       1.048  -7.416  -8.758  1.00  0.00     0.059 A 
ATOM     73  C   UNL     1      -1.193  -6.806  -9.482  1.00  0.00     0.059 A 
ATOM     74  F   UNL     1      -2.334  -5.076  -8.387  1.00  0.00    -0.206 F 
ATOM     75  C   UNL     1      -0.040  -7.577  -9.621  1.00  0.00     0.060 A 
BRANCH  75  76
ATOM     76  S   UNL     1       0.082  -8.799 -10.941  1.00  0.00     0.124 S 
ATOM     77  O   UNL     1       1.068  -8.178 -11.821  1.00  0.00    -0.237 OA
ATOM     78  O   UNL     1       0.531  -9.987 -10.222  1.00  0.00    -0.237 OA
ATOM     79  O   UNL     1      -1.276  -8.864 -11.471  1.00  0.00    -0.744 OA
ENDBRANCH  75  76
ENDBRANCH  54  68
BRANCH  55  80
ATOM     80  C   UNL     1      -0.684   1.903  -1.034  1.00  0.00     0.058 A 
ATOM     81  C   UNL     1      -0.598   1.563   0.334  1.00  0.00     0.135 A 
ATOM     82  C   UNL     1      -0.779   3.282  -1.293  1.00  0.00     0.135 A 
ATOM     83  F   UNL     1      -0.593   0.276   0.707  1.00  0.00    -0.206 F 
ATOM     84  C   UNL     1      -0.517   2.503   1.361  1.00  0.00     0.059 A 
ATOM     85  C   UNL     1      -0.662   4.252  -0.288  1.00  0.00     0.059 A 
ATOM     86  F   UNL     1      -0.975   3.723  -2.545  1.00  0.00    -0.206 F 
ATOM     87  C   UNL     1      -0.511   3.852   1.036  1.00  0.00     0.060 A 
BRANCH  87  88
ATOM     88  S   UNL     1      -0.284   5.058   2.362  1.00  0.00     0.124 S 
ATOM     89  O   UNL     1      -1.372   4.720   3.272  1.00  0.00    -0.237 OA
ATOM     90  O   UNL     1       1.061   4.733   2.825  1.00  0.00    -0.237 OA
ATOM     91  O   UNL     1      -0.415   6.340   1.675  1.00  0.00    -0.744 OA
ENDBRANCH  87  88
ENDBRANCH  55  80
BRANCH  67  92
ATOM     92  C   UNL     1      -3.843  -4.309  -1.549  1.00  0.00     0.058 A 
ATOM     93  C   UNL     1      -5.174  -3.868  -1.461  1.00  0.00     0.135 A 
ATOM     94  C   UNL     1      -3.495  -5.468  -0.834  1.00  0.00     0.135 A 
ATOM     95  F   UNL     1      -5.569  -2.771  -2.127  1.00  0.00    -0.206 F 
ATOM     96  C   UNL     1      -6.108  -4.522  -0.663  1.00  0.00     0.059 A 
ATOM     97  C   UNL     1      -4.423  -6.162  -0.063  1.00  0.00     0.059 A 
ATOM     98  F   UNL     1      -2.246  -5.956  -0.903  1.00  0.00    -0.206 F 
ATOM     99  C   UNL     1      -5.723  -5.670   0.031  1.00  0.00     0.060 A 
BRANCH  99 100
ATOM    100  S   UNL     1      -6.957  -6.532   1.028  1.00  0.00     0.124 S 
ATOM    101  O   UNL     1      -7.063  -5.656   2.189  1.00  0.00    -0.237 OA
ATOM    102  O   UNL     1      -8.117  -6.551   0.142  1.00  0.00    -0.237 OA
ATOM    103  O   UNL     1      -6.346  -7.835   1.274  1.00  0.00    -0.744 OA
ENDBRANCH  99 100
ENDBRANCH  67  92
ENDBRANCH  41  42
ENDBRANCH  34  36
ENDBRANCH  33  34
ENDBRANCH  32  33
ENDBRANCH   1  32
TORSDOF 18
