REMARK SMILES O=C(OCCOC(=O)c1cc(-c2ccccc2)nc(Nc2nc3ccccc3s2)n1)c1ccc(-c2c3nc(c(-c4c(F)cc(S(=O)(=O)[O-])cc4F)c4ccc([nH]4)c(-c4c(F)cc(S(=O)(=O)[O-])cc4F)c4nc(c(-c5c(F)cc(S(=O)(=O)[O-])cc5F)c5ccc2[nH]5)C=C4)C=C3)cc1
REMARK SMILES IDX 4 1 3 2 2 3 1 4 31 5 32 6 96 7 33 8 95 9 34 10 35 11 36 12
REMARK SMILES IDX 89 13 37 14 94 15 88 16 90 17 38 18 93 19 87 20 86 21 39 23
REMARK SMILES IDX 73 24 52 25 72 26 53 27 56 28 71 29 91 30 54 31 55 32 70 34
REMARK SMILES IDX 92 35 57 36 40 37 41 38 50 39 42 40 43 41 49 42 51 43 44 44
REMARK SMILES IDX 45 45 46 46 47 47 48 48 74 49 75 50 84 51 76 52 77 53 83 54
REMARK SMILES IDX 85 55 78 56 79 57 80 58 81 59 82 60 58 61 59 62 68 63 60 64
REMARK SMILES IDX 61 65 67 66 69 67 62 68 63 69 64 70 65 71 66 72 5 73 6 74
REMARK SMILES IDX 7 75 8 76 9 77 10 78 30 79 11 80 19 81 18 82 12 83 13 84
REMARK SMILES IDX 17 85 14 86 16 87 15 88 20 89 21 91 22 92 29 93 23 94 28 95
REMARK SMILES IDX 24 96 27 97 25 98 26 99
REMARK H PARENT 90 22 56 33 20 90
REMARK Flexibility Score: inf
ROOT
ATOM      1  C   UNL     1       4.514  -0.242  -1.592  1.00  0.00     0.275 C 
ENDROOT
BRANCH   1   2
ATOM      2  O   UNL     1       3.473  -0.907  -0.866  1.00  0.00    -0.458 OA
BRANCH   2   3
ATOM      3  C   UNL     1       3.110  -0.826   0.434  1.00  0.00     0.338 C 
ATOM      4  O   UNL     1       2.123  -1.468   0.779  1.00  0.00    -0.246 OA
BRANCH   3   5
ATOM      5  C   UNL     1       3.809   0.008   1.468  1.00  0.00     0.060 A 
ATOM      6  C   UNL     1       5.107   0.506   1.375  1.00  0.00     0.016 A 
ATOM      7  C   UNL     1       3.091   0.307   2.640  1.00  0.00     0.016 A 
ATOM      8  C   UNL     1       5.651   1.305   2.380  1.00  0.00     0.010 A 
ATOM      9  C   UNL     1       3.612   1.131   3.643  1.00  0.00     0.010 A 
ATOM     10  C   UNL     1       4.914   1.615   3.523  1.00  0.00    -0.014 A 
BRANCH  10  11
ATOM     11  C   UNL     1       5.614   2.272   4.646  1.00  0.00     0.031 A 
ATOM     12  C   UNL     1       6.049   1.415   5.800  1.00  0.00     0.074 A 
ATOM     13  C   UNL     1       5.976   3.566   4.559  1.00  0.00     0.049 A 
ATOM     14  N   UNL     1       6.815   1.723   6.812  1.00  0.00    -0.248 NA
ATOM     15  C   UNL     1       5.593   0.013   5.797  1.00  0.00     0.031 C 
ATOM     16  C   UNL     1       5.668   4.457   3.439  1.00  0.00     0.029 A 
ATOM     17  N   UNL     1       6.696   4.356   5.415  1.00  0.00    -0.354 N 
ATOM     18  C   UNL     1       6.959   0.549   7.542  1.00  0.00     0.074 A 
ATOM     19  C   UNL     1       6.150  -0.460   6.899  1.00  0.00     0.031 C 
ATOM     20  C   UNL     1       6.171   5.679   3.689  1.00  0.00     0.029 A 
ATOM     21  C   UNL     1       6.848   5.651   4.978  1.00  0.00     0.049 A 
ATOM     22  H   UNL     1       7.071   4.027   6.264  1.00  0.00     0.167 HD
ATOM     23  C   UNL     1       7.726   0.329   8.633  1.00  0.00     0.037 A 
ATOM     24  C   UNL     1       7.470   6.692   5.562  1.00  0.00     0.037 A 
ATOM     25  C   UNL     1       8.504   1.357   9.269  1.00  0.00     0.049 A 
ATOM     26  C   UNL     1       8.192   6.457   6.853  1.00  0.00     0.074 A 
ATOM     27  C   UNL     1       9.322   1.260  10.378  1.00  0.00     0.029 A 
ATOM     28  N   UNL     1       8.539   2.683   8.856  1.00  0.00    -0.354 N 
ATOM     29  N   UNL     1       8.329   5.339   7.525  1.00  0.00    -0.248 NA
ATOM     30  C   UNL     1       8.868   7.615   7.446  1.00  0.00     0.031 C 
ATOM     31  C   UNL     1       9.801   2.541  10.674  1.00  0.00     0.029 A 
ATOM     32  C   UNL     1       9.336   3.423   9.710  1.00  0.00     0.049 A 
ATOM     33  H   UNL     1       8.065   3.043   8.071  1.00  0.00     0.167 HD
ATOM     34  C   UNL     1       9.142   5.648   8.605  1.00  0.00     0.074 A 
ATOM     35  C   UNL     1       9.454   7.062   8.498  1.00  0.00     0.031 C 
ATOM     36  C   UNL     1       9.611   4.833   9.582  1.00  0.00     0.037 A 
BRANCH  23  37
ATOM     37  C   UNL     1       7.721  -1.059   9.210  1.00  0.00     0.058 A 
ATOM     38  C   UNL     1       8.314  -2.144   8.542  1.00  0.00     0.135 A 
ATOM     39  C   UNL     1       7.097  -1.312  10.441  1.00  0.00     0.135 A 
ATOM     40  F   UNL     1       8.902  -1.966   7.348  1.00  0.00    -0.206 F 
ATOM     41  C   UNL     1       8.261  -3.435   9.060  1.00  0.00     0.059 A 
ATOM     42  C   UNL     1       7.056  -2.590  10.991  1.00  0.00     0.059 A 
ATOM     43  F   UNL     1       6.505  -0.314  11.116  1.00  0.00    -0.206 F 
ATOM     44  C   UNL     1       7.626  -3.648  10.285  1.00  0.00     0.060 A 
BRANCH  44  45
ATOM     45  S   UNL     1       7.559  -5.328  10.942  1.00  0.00     0.124 S 
ATOM     46  O   UNL     1       6.596  -5.955  10.042  1.00  0.00    -0.237 OA
ATOM     47  O   UNL     1       8.941  -5.773  10.800  1.00  0.00    -0.237 OA
ATOM     48  O   UNL     1       7.102  -5.138  12.315  1.00  0.00    -0.744 OA
ENDBRANCH  44  45
ENDBRANCH  23  37
BRANCH  24  49
ATOM     49  C   UNL     1       7.432   8.042   4.950  1.00  0.00     0.058 A 
ATOM     50  C   UNL     1       8.486   8.537   4.170  1.00  0.00     0.135 A 
ATOM     51  C   UNL     1       6.326   8.875   5.160  1.00  0.00     0.135 A 
ATOM     52  F   UNL     1       9.586   7.793   3.980  1.00  0.00    -0.206 F 
ATOM     53  C   UNL     1       8.431   9.803   3.593  1.00  0.00     0.059 A 
ATOM     54  C   UNL     1       6.239  10.136   4.579  1.00  0.00     0.059 A 
ATOM     55  F   UNL     1       5.320   8.466   5.948  1.00  0.00    -0.206 F 
ATOM     56  C   UNL     1       7.295  10.591   3.793  1.00  0.00     0.060 A 
BRANCH  56  57
ATOM     57  S   UNL     1       7.160  12.189   2.961  1.00  0.00     0.124 S 
ATOM     58  O   UNL     1       7.854  13.067   3.895  1.00  0.00    -0.237 OA
ATOM     59  O   UNL     1       7.837  11.943   1.691  1.00  0.00    -0.237 OA
ATOM     60  O   UNL     1       5.716  12.381   2.860  1.00  0.00    -0.744 OA
ENDBRANCH  56  57
ENDBRANCH  24  49
BRANCH  36  61
ATOM     61  C   UNL     1      10.547   5.449  10.577  1.00  0.00     0.058 A 
ATOM     62  C   UNL     1      10.102   6.348  11.557  1.00  0.00     0.135 A 
ATOM     63  C   UNL     1      11.910   5.114  10.553  1.00  0.00     0.135 A 
ATOM     64  F   UNL     1       8.810   6.708  11.609  1.00  0.00    -0.206 F 
ATOM     65  C   UNL     1      10.986   6.920  12.463  1.00  0.00     0.059 A 
ATOM     66  C   UNL     1      12.805   5.648  11.470  1.00  0.00     0.059 A 
ATOM     67  F   UNL     1      12.380   4.253   9.636  1.00  0.00    -0.206 F 
ATOM     68  C   UNL     1      12.336   6.564  12.410  1.00  0.00     0.060 A 
BRANCH  68  69
ATOM     69  S   UNL     1      13.471   7.301  13.601  1.00  0.00     0.124 S 
ATOM     70  O   UNL     1      13.601   8.658  13.078  1.00  0.00    -0.237 OA
ATOM     71  O   UNL     1      12.736   7.172  14.855  1.00  0.00    -0.237 OA
ATOM     72  O   UNL     1      14.665   6.468  13.492  1.00  0.00    -0.744 OA
ENDBRANCH  68  69
ENDBRANCH  36  61
ENDBRANCH  10  11
ENDBRANCH   3   5
ENDBRANCH   2   3
ENDBRANCH   1   2
BRANCH   1  73
ATOM     73  C   UNL     1       4.223   1.224  -1.918  1.00  0.00     0.275 C 
BRANCH  73  74
ATOM     74  O   UNL     1       3.722   1.978  -0.799  1.00  0.00    -0.457 OA
BRANCH  74  75
ATOM     75  C   UNL     1       2.375   2.184  -0.781  1.00  0.00     0.357 C 
ATOM     76  O   UNL     1       1.595   1.888  -1.676  1.00  0.00    -0.244 OA
BRANCH  75  77
ATOM     77  C   UNL     1       1.964   2.791   0.515  1.00  0.00     0.154 A 
ATOM     78  C   UNL     1       2.579   3.927   0.980  1.00  0.00     0.065 A 
ATOM     79  N   UNL     1       0.928   2.191   1.137  1.00  0.00    -0.206 NA
ATOM     80  C   UNL     1       2.031   4.461   2.126  1.00  0.00     0.077 A 
ATOM     81  C   UNL     1       0.506   2.726   2.287  1.00  0.00     0.230 A 
ATOM     82  N   UNL     1       1.003   3.866   2.777  1.00  0.00    -0.213 NA
BRANCH  80  83
ATOM     83  C   UNL     1       2.455   5.755   2.690  1.00  0.00     0.000 A 
ATOM     84  C   UNL     1       2.492   5.957   4.082  1.00  0.00     0.010 A 
ATOM     85  C   UNL     1       2.790   6.843   1.862  1.00  0.00     0.010 A 
ATOM     86  C   UNL     1       2.815   7.202   4.622  1.00  0.00     0.001 A 
ATOM     87  C   UNL     1       3.112   8.090   2.402  1.00  0.00     0.001 A 
ATOM     88  C   UNL     1       3.104   8.271   3.780  1.00  0.00     0.000 A 
ENDBRANCH  80  83
BRANCH  81  89
ATOM     89  N   UNL     1      -0.550   2.166   2.995  1.00  0.00    -0.300 N 
ATOM     90  H   UNL     1      -1.016   2.731   3.653  1.00  0.00     0.172 HD
BRANCH  89  91
ATOM     91  C   UNL     1      -0.975   0.902   2.835  1.00  0.00     0.190 A 
ATOM     92  N   UNL     1      -0.189  -0.146   2.838  1.00  0.00    -0.220 NA
ATOM     93  S   UNL     1      -2.647   0.522   2.659  1.00  0.00    -0.097 S 
ATOM     94  C   UNL     1      -0.866  -1.273   2.429  1.00  0.00     0.084 A 
ATOM     95  C   UNL     1      -2.231  -1.096   2.220  1.00  0.00     0.056 A 
ATOM     96  C   UNL     1      -0.293  -2.535   2.178  1.00  0.00     0.030 A 
ATOM     97  C   UNL     1      -3.037  -2.133   1.723  1.00  0.00     0.021 A 
ATOM     98  C   UNL     1      -1.069  -3.555   1.631  1.00  0.00     0.002 A 
ATOM     99  C   UNL     1      -2.425  -3.353   1.402  1.00  0.00     0.002 A 
ENDBRANCH  89  91
ENDBRANCH  81  89
ENDBRANCH  75  77
ENDBRANCH  74  75
ENDBRANCH  73  74
ENDBRANCH   1  73
TORSDOF 17
