REMARK SMILES O=C(OCCOC(=O)c1ccc(-c2c3nc(c(-c4c(F)cc(S(=O)(=O)[O-])cc4F)c4ccc([nH]4)c(-c4c(F)cc(S(=O)(=O)[O-])cc4F)c4nc(c(-c5c(F)cc(S(=O)(=O)[O-])cc5F)c5ccc2[nH]5)C=C4)C=C3)cc1)c1ccc(NC(=O)[C@@H]2CCS(=O)(=O)C2)cc1
REMARK SMILES IDX 5 1 4 2 3 3 2 4 1 5 75 6 76 7 90 8 77 9 89 10 78 11 79 12
REMARK SMILES IDX 80 13 81 15 82 16 83 17 88 18 84 19 85 20 86 21 87 22 6 23
REMARK SMILES IDX 7 24 8 25 9 26 10 27 74 28 11 29 73 30 12 31 13 32 14 33
REMARK SMILES IDX 67 34 15 35 72 36 66 37 68 38 16 39 71 40 65 41 64 42 17 44
REMARK SMILES IDX 51 45 30 46 50 47 31 48 34 49 49 50 69 51 32 52 33 53 48 55
REMARK SMILES IDX 70 56 35 57 18 58 19 59 28 60 20 61 21 62 27 63 29 64 22 65
REMARK SMILES IDX 23 66 24 67 25 68 26 69 52 70 53 71 62 72 54 73 55 74 61 75
REMARK SMILES IDX 63 76 56 77 57 78 58 79 59 80 60 81 36 82 37 83 46 84 38 85
REMARK SMILES IDX 39 86 45 87 47 88 40 89 41 90 42 91 43 92 44 93
REMARK H PARENT 79 14 68 43 34 54
REMARK Flexibility Score: inf
ROOT
ATOM      1  C   UNL     1       3.853  -0.514   2.062  1.00  0.00     0.275 C 
ENDROOT
BRANCH   1   2
ATOM      2  C   UNL     1       3.824   0.856   1.365  1.00  0.00     0.275 C 
BRANCH   2   3
ATOM      3  O   UNL     1       2.773   1.026   0.393  1.00  0.00    -0.458 OA
BRANCH   3   4
ATOM      4  C   UNL     1       2.748   0.793  -0.945  1.00  0.00     0.338 C 
ATOM      5  O   UNL     1       1.815   1.252  -1.602  1.00  0.00    -0.246 OA
BRANCH   4   6
ATOM      6  C   UNL     1       3.709  -0.118  -1.647  1.00  0.00     0.060 A 
ATOM      7  C   UNL     1       4.934  -0.527  -1.147  1.00  0.00     0.018 A 
ATOM      8  C   UNL     1       3.327  -0.659  -2.885  1.00  0.00     0.018 A 
ATOM      9  C   UNL     1       5.623  -1.603  -1.707  1.00  0.00     0.027 A 
ATOM     10  C   UNL     1       4.075  -1.684  -3.492  1.00  0.00     0.027 A 
ATOM     11  C   UNL     1       5.164  -2.256  -2.836  1.00  0.00     0.041 A 
BRANCH  11  12
ATOM     12  N   UNL     1       5.700  -3.453  -3.349  1.00  0.00    -0.326 N 
ATOM     13  C   UNL     1       6.505  -4.423  -2.814  1.00  0.00     0.228 C 
ATOM     14  H   UNL     1       5.444  -3.628  -4.284  1.00  0.00     0.169 HD
ATOM     15  O   UNL     1       6.840  -5.368  -3.530  1.00  0.00    -0.274 OA
BRANCH  13  16
ATOM     16  C   UNL     1       6.985  -4.370  -1.373  1.00  0.00     0.095 C 
ATOM     17  C   UNL     1       8.282  -3.551  -1.270  1.00  0.00     0.030 C 
ATOM     18  C   UNL     1       7.288  -5.762  -0.796  1.00  0.00     0.150 C 
ATOM     19  C   UNL     1       9.430  -4.453  -1.687  1.00  0.00     0.138 C 
ATOM     20  S   UNL     1       9.044  -6.033  -0.982  1.00  0.00     0.151 S 
ATOM     21  O   UNL     1       9.305  -7.064  -1.956  1.00  0.00    -0.229 OA
ATOM     22  O   UNL     1       9.634  -6.065   0.346  1.00  0.00    -0.229 OA
ENDBRANCH  13  16
ENDBRANCH  11  12
ENDBRANCH   4   6
ENDBRANCH   3   4
ENDBRANCH   2   3
ENDBRANCH   1   2
BRANCH   1  23
ATOM     23  O   UNL     1       3.626  -1.622   1.175  1.00  0.00    -0.458 OA
BRANCH  23  24
ATOM     24  C   UNL     1       2.322  -1.984   1.031  1.00  0.00     0.338 C 
ATOM     25  O   UNL     1       1.379  -1.521   1.649  1.00  0.00    -0.246 OA
BRANCH  24  26
ATOM     26  C   UNL     1       2.177  -2.933  -0.100  1.00  0.00     0.060 A 
ATOM     27  C   UNL     1       1.097  -2.760  -0.975  1.00  0.00     0.016 A 
ATOM     28  C   UNL     1       3.073  -3.985  -0.307  1.00  0.00     0.016 A 
ATOM     29  C   UNL     1       0.906  -3.637  -2.052  1.00  0.00     0.010 A 
ATOM     30  C   UNL     1       2.886  -4.854  -1.393  1.00  0.00     0.010 A 
ATOM     31  C   UNL     1       1.791  -4.701  -2.268  1.00  0.00    -0.014 A 
BRANCH  31  32
ATOM     32  C   UNL     1       1.533  -5.735  -3.316  1.00  0.00     0.031 A 
ATOM     33  C   UNL     1       1.096  -7.111  -2.895  1.00  0.00     0.074 A 
ATOM     34  C   UNL     1       1.718  -5.496  -4.630  1.00  0.00     0.049 A 
ATOM     35  N   UNL     1       0.914  -8.182  -3.624  1.00  0.00    -0.248 NA
ATOM     36  C   UNL     1       0.820  -7.297  -1.464  1.00  0.00     0.031 C 
ATOM     37  C   UNL     1       2.050  -4.204  -5.212  1.00  0.00     0.029 A 
ATOM     38  N   UNL     1       1.685  -6.345  -5.713  1.00  0.00    -0.354 N 
ATOM     39  C   UNL     1       0.502  -9.172  -2.743  1.00  0.00     0.074 A 
ATOM     40  C   UNL     1       0.512  -8.584  -1.418  1.00  0.00     0.031 C 
ATOM     41  C   UNL     1       2.287  -4.353  -6.526  1.00  0.00     0.029 A 
ATOM     42  C   UNL     1       2.097  -5.758  -6.888  1.00  0.00     0.049 A 
ATOM     43  H   UNL     1       1.394  -7.283  -5.653  1.00  0.00     0.167 HD
ATOM     44  C   UNL     1       0.127 -10.446  -3.008  1.00  0.00     0.037 A 
ATOM     45  C   UNL     1       2.304  -6.280  -8.116  1.00  0.00     0.037 A 
ATOM     46  C   UNL     1       0.119 -11.041  -4.319  1.00  0.00     0.049 A 
ATOM     47  C   UNL     1       1.977  -7.726  -8.383  1.00  0.00     0.074 A 
ATOM     48  C   UNL     1      -0.285 -12.315  -4.679  1.00  0.00     0.029 A 
ATOM     49  N   UNL     1       0.557 -10.421  -5.480  1.00  0.00    -0.354 N 
ATOM     50  N   UNL     1       1.526  -8.633  -7.550  1.00  0.00    -0.248 NA
ATOM     51  C   UNL     1       2.152  -8.214  -9.759  1.00  0.00     0.031 C 
ATOM     52  C   UNL     1      -0.030 -12.488  -6.043  1.00  0.00     0.029 A 
ATOM     53  C   UNL     1       0.467 -11.298  -6.550  1.00  0.00     0.049 A 
ATOM     54  H   UNL     1       0.883  -9.493  -5.536  1.00  0.00     0.167 HD
ATOM     55  C   UNL     1       1.322  -9.783  -8.309  1.00  0.00     0.074 A 
ATOM     56  C   UNL     1       1.708  -9.461  -9.666  1.00  0.00     0.031 C 
ATOM     57  C   UNL     1       0.839 -10.986  -7.910  1.00  0.00     0.037 A 
BRANCH  44  58
ATOM     58  C   UNL     1      -0.271 -11.294  -1.833  1.00  0.00     0.058 A 
ATOM     59  C   UNL     1      -1.445 -11.047  -1.103  1.00  0.00     0.135 A 
ATOM     60  C   UNL     1       0.550 -12.355  -1.417  1.00  0.00     0.135 A 
ATOM     61  F   UNL     1      -2.259 -10.037  -1.450  1.00  0.00    -0.206 F 
ATOM     62  C   UNL     1      -1.758 -11.781   0.036  1.00  0.00     0.059 A 
ATOM     63  C   UNL     1       0.237 -13.125  -0.302  1.00  0.00     0.059 A 
ATOM     64  F   UNL     1       1.679 -12.639  -2.084  1.00  0.00    -0.206 F 
ATOM     65  C   UNL     1      -0.903 -12.810   0.435  1.00  0.00     0.060 A 
BRANCH  65  66
ATOM     66  S   UNL     1      -1.288 -13.711   1.950  1.00  0.00     0.124 S 
ATOM     67  O   UNL     1      -0.950 -12.720   2.967  1.00  0.00    -0.237 OA
ATOM     68  O   UNL     1      -2.710 -13.996   1.792  1.00  0.00    -0.237 OA
ATOM     69  O   UNL     1      -0.407 -14.873   1.888  1.00  0.00    -0.744 OA
ENDBRANCH  65  66
ENDBRANCH  44  58
BRANCH  45  70
ATOM     70  C   UNL     1       2.842  -5.410  -9.198  1.00  0.00     0.058 A 
ATOM     71  C   UNL     1       2.031  -4.972 -10.255  1.00  0.00     0.135 A 
ATOM     72  C   UNL     1       4.176  -4.973  -9.174  1.00  0.00     0.135 A 
ATOM     73  F   UNL     1       0.753  -5.374 -10.330  1.00  0.00    -0.206 F 
ATOM     74  C   UNL     1       2.520  -4.126 -11.246  1.00  0.00     0.059 A 
ATOM     75  C   UNL     1       4.683  -4.113 -10.143  1.00  0.00     0.059 A 
ATOM     76  F   UNL     1       4.990  -5.354  -8.177  1.00  0.00    -0.206 F 
ATOM     77  C   UNL     1       3.845  -3.692 -11.174  1.00  0.00     0.060 A 
BRANCH  77  78
ATOM     78  S   UNL     1       4.436  -2.512 -12.409  1.00  0.00     0.124 S 
ATOM     79  O   UNL     1       4.485  -3.338 -13.610  1.00  0.00    -0.237 OA
ATOM     80  O   UNL     1       3.392  -1.493 -12.376  1.00  0.00    -0.237 OA
ATOM     81  O   UNL     1       5.729  -2.090 -11.878  1.00  0.00    -0.744 OA
ENDBRANCH  77  78
ENDBRANCH  45  70
BRANCH  57  82
ATOM     82  C   UNL     1       0.637 -12.059  -8.949  1.00  0.00     0.058 A 
ATOM     83  C   UNL     1       1.712 -12.747  -9.531  1.00  0.00     0.135 A 
ATOM     84  C   UNL     1      -0.662 -12.474  -9.289  1.00  0.00     0.135 A 
ATOM     85  F   UNL     1       2.975 -12.389  -9.252  1.00  0.00    -0.206 F 
ATOM     86  C   UNL     1       1.508 -13.807 -10.413  1.00  0.00     0.059 A 
ATOM     87  C   UNL     1      -0.890 -13.547 -10.146  1.00  0.00     0.059 A 
ATOM     88  F   UNL     1      -1.729 -11.856  -8.759  1.00  0.00    -0.206 F 
ATOM     89  C   UNL     1       0.202 -14.207 -10.707  1.00  0.00     0.060 A 
BRANCH  89  90
ATOM     90  S   UNL     1      -0.049 -15.628 -11.793  1.00  0.00     0.124 S 
ATOM     91  O   UNL     1       0.332 -15.079 -13.091  1.00  0.00    -0.237 OA
ATOM     92  O   UNL     1       0.865 -16.617 -11.230  1.00  0.00    -0.237 OA
ATOM     93  O   UNL     1      -1.468 -15.933 -11.634  1.00  0.00    -0.744 OA
ENDBRANCH  89  90
ENDBRANCH  57  82
ENDBRANCH  31  32
ENDBRANCH  24  26
ENDBRANCH  23  24
ENDBRANCH   1  23
TORSDOF 16
