REMARK SMILES O=C(OCCOC(=O)c1cc(S(=O)(=O)Cc2cccc(O)c2)ccc1F)c1ccc(-c2c3nc(c(-c4c(F)cc(S(=O)(=O)[O-])cc4F)c4ccc([nH]4)c(-c4c(F)cc(S(=O)(=O)[O-])cc4F)c4nc(c(-c5c(F)cc(S(=O)(=O)[O-])cc5F)c5ccc2[nH]5)C=C4)C=C3)cc1
REMARK SMILES IDX 5 1 4 2 3 3 2 4 1 5 27 6 28 7 92 8 29 9 91 10 30 11 31 12
REMARK SMILES IDX 32 13 85 14 33 15 90 16 84 17 86 18 34 19 89 20 83 21 82 22
REMARK SMILES IDX 35 24 69 25 48 26 68 27 49 28 52 29 67 30 87 31 50 32 51 33
REMARK SMILES IDX 66 35 88 36 53 37 36 38 37 39 46 40 38 41 39 42 45 43 47 44
REMARK SMILES IDX 40 45 41 46 42 47 43 48 44 49 70 50 71 51 80 52 72 53 73 54
REMARK SMILES IDX 79 55 81 56 74 57 75 58 76 59 77 60 78 61 54 62 55 63 64 64
REMARK SMILES IDX 56 65 57 66 63 67 65 68 58 69 59 70 60 71 61 72 62 73 6 74
REMARK SMILES IDX 7 75 8 76 9 77 10 78 25 79 11 80 24 81 26 82 23 83 12 84
REMARK SMILES IDX 13 85 14 86 15 87 16 88 17 89 22 90 18 91 20 92 19 93 21 94
REMARK H PARENT 86 23 52 34 21 95
REMARK Flexibility Score: inf
ROOT
ATOM      1  C   UNL     1       3.716   0.745  -2.281  1.00  0.00     0.275 C 
ENDROOT
BRANCH   1   2
ATOM      2  C   UNL     1       4.085  -0.603  -1.667  1.00  0.00     0.275 C 
BRANCH   2   3
ATOM      3  O   UNL     1       3.138  -1.109  -0.711  1.00  0.00    -0.458 OA
BRANCH   3   4
ATOM      4  C   UNL     1       3.057  -0.904   0.624  1.00  0.00     0.338 C 
ATOM      5  O   UNL     1       2.253  -1.565   1.278  1.00  0.00    -0.246 OA
BRANCH   4   6
ATOM      6  C   UNL     1       3.808   0.173   1.334  1.00  0.00     0.060 A 
ATOM      7  C   UNL     1       5.128   0.554   1.081  1.00  0.00     0.016 A 
ATOM      8  C   UNL     1       3.134   0.802   2.392  1.00  0.00     0.016 A 
ATOM      9  C   UNL     1       5.735   1.584   1.812  1.00  0.00     0.010 A 
ATOM     10  C   UNL     1       3.734   1.832   3.122  1.00  0.00     0.010 A 
ATOM     11  C   UNL     1       5.046   2.224   2.845  1.00  0.00    -0.014 A 
BRANCH  11  12
ATOM     12  C   UNL     1       5.756   3.162   3.746  1.00  0.00     0.031 A 
ATOM     13  C   UNL     1       6.179   2.668   5.100  1.00  0.00     0.074 A 
ATOM     14  C   UNL     1       6.050   4.415   3.353  1.00  0.00     0.049 A 
ATOM     15  N   UNL     1       6.873   3.280   6.024  1.00  0.00    -0.248 NA
ATOM     16  C   UNL     1       5.772   1.299   5.460  1.00  0.00     0.031 C 
ATOM     17  C   UNL     1       5.715   4.989   2.052  1.00  0.00     0.029 A 
ATOM     18  N   UNL     1       6.701   5.431   4.006  1.00  0.00    -0.354 N 
ATOM     19  C   UNL     1       7.022   2.356   7.050  1.00  0.00     0.074 A 
ATOM     20  C   UNL     1       6.272   1.178   6.679  1.00  0.00     0.031 C 
ATOM     21  C   UNL     1       6.133   6.266   2.011  1.00  0.00     0.029 A 
ATOM     22  C   UNL     1       6.789   6.592   3.273  1.00  0.00     0.049 A 
ATOM     23  H   UNL     1       7.070   5.338   4.914  1.00  0.00     0.167 HD
ATOM     24  C   UNL     1       7.755   2.463   8.182  1.00  0.00     0.037 A 
ATOM     25  C   UNL     1       7.360   7.774   3.577  1.00  0.00     0.037 A 
ATOM     26  C   UNL     1       8.479   3.646   8.553  1.00  0.00     0.049 A 
ATOM     27  C   UNL     1       8.117   7.900   4.871  1.00  0.00     0.074 A 
ATOM     28  C   UNL     1       9.227   3.881   9.691  1.00  0.00     0.029 A 
ATOM     29  N   UNL     1       8.545   4.798   7.782  1.00  0.00    -0.354 N 
ATOM     30  N   UNL     1       8.261   7.011   5.827  1.00  0.00    -0.248 NA
ATOM     31  C   UNL     1       8.817   9.168   5.117  1.00  0.00     0.031 C 
ATOM     32  C   UNL     1       9.719   5.190   9.624  1.00  0.00     0.029 A 
ATOM     33  C   UNL     1       9.309   5.754   8.425  1.00  0.00     0.049 A 
ATOM     34  H   UNL     1       8.112   4.917   6.906  1.00  0.00     0.167 HD
ATOM     35  C   UNL     1       9.120   7.588   6.756  1.00  0.00     0.074 A 
ATOM     36  C   UNL     1       9.438   8.914   6.262  1.00  0.00     0.031 C 
ATOM     37  C   UNL     1       9.614   7.063   7.904  1.00  0.00     0.037 A 
BRANCH  24  38
ATOM     38  C   UNL     1       7.798   1.258   9.077  1.00  0.00     0.058 A 
ATOM     39  C   UNL     1       7.107   1.240  10.296  1.00  0.00     0.135 A 
ATOM     40  C   UNL     1       8.500   0.099   8.701  1.00  0.00     0.135 A 
ATOM     41  F   UNL     1       6.410   2.316  10.695  1.00  0.00    -0.206 F 
ATOM     42  C   UNL     1       7.101   0.111  11.109  1.00  0.00     0.059 A 
ATOM     43  C   UNL     1       8.488  -1.049   9.487  1.00  0.00     0.059 A 
ATOM     44  F   UNL     1       9.153   0.056   7.529  1.00  0.00    -0.206 F 
ATOM     45  C   UNL     1       7.788  -1.031  10.693  1.00  0.00     0.060 A 
BRANCH  45  46
ATOM     46  S   UNL     1       7.692  -2.519  11.711  1.00  0.00     0.124 S 
ATOM     47  O   UNL     1       8.578  -2.179  12.819  1.00  0.00    -0.237 OA
ATOM     48  O   UNL     1       6.269  -2.584  12.029  1.00  0.00    -0.237 OA
ATOM     49  O   UNL     1       8.173  -3.569  10.817  1.00  0.00    -0.744 OA
ENDBRANCH  45  46
ENDBRANCH  24  38
BRANCH  25  50
ATOM     50  C   UNL     1       7.300   8.897   2.603  1.00  0.00     0.058 A 
ATOM     51  C   UNL     1       6.106   9.599   2.381  1.00  0.00     0.135 A 
ATOM     52  C   UNL     1       8.425   9.266   1.849  1.00  0.00     0.135 A 
ATOM     53  F   UNL     1       5.000   9.277   3.069  1.00  0.00    -0.206 F 
ATOM     54  C   UNL     1       6.024  10.617   1.437  1.00  0.00     0.059 A 
ATOM     55  C   UNL     1       8.372  10.293   0.910  1.00  0.00     0.059 A 
ATOM     56  F   UNL     1       9.591   8.629   2.033  1.00  0.00    -0.206 F 
ATOM     57  C   UNL     1       7.162  10.953   0.702  1.00  0.00     0.060 A 
BRANCH  57  58
ATOM     58  S   UNL     1       7.026  12.261  -0.538  1.00  0.00     0.124 S 
ATOM     59  O   UNL     1       6.156  11.633  -1.527  1.00  0.00    -0.237 OA
ATOM     60  O   UNL     1       6.433  13.349   0.232  1.00  0.00    -0.237 OA
ATOM     61  O   UNL     1       8.408  12.471  -0.959  1.00  0.00    -0.744 OA
ENDBRANCH  57  58
ENDBRANCH  25  50
BRANCH  37  62
ATOM     62  C   UNL     1      10.574   7.903   8.696  1.00  0.00     0.058 A 
ATOM     63  C   UNL     1      11.937   7.569   8.737  1.00  0.00     0.135 A 
ATOM     64  C   UNL     1      10.131   8.975   9.484  1.00  0.00     0.135 A 
ATOM     65  F   UNL     1      12.406   6.548   8.002  1.00  0.00    -0.206 F 
ATOM     66  C   UNL     1      12.826   8.258   9.551  1.00  0.00     0.059 A 
ATOM     67  C   UNL     1      11.008   9.693  10.290  1.00  0.00     0.059 A 
ATOM     68  F   UNL     1       8.838   9.335   9.468  1.00  0.00    -0.206 F 
ATOM     69  C   UNL     1      12.351   9.314  10.331  1.00  0.00     0.060 A 
BRANCH  69  70
ATOM     70  S   UNL     1      13.517  10.200  11.386  1.00  0.00     0.124 S 
ATOM     71  O   UNL     1      13.723   9.244  12.468  1.00  0.00    -0.237 OA
ATOM     72  O   UNL     1      14.653  10.403  10.492  1.00  0.00    -0.237 OA
ATOM     73  O   UNL     1      12.789  11.413  11.747  1.00  0.00    -0.744 OA
ENDBRANCH  69  70
ENDBRANCH  37  62
ENDBRANCH  11  12
ENDBRANCH   4   6
ENDBRANCH   3   4
ENDBRANCH   2   3
ENDBRANCH   1   2
BRANCH   1  74
ATOM     74  O   UNL     1       3.439   1.760  -1.306  1.00  0.00    -0.458 OA
BRANCH  74  75
ATOM     75  C   UNL     1       2.126   2.035  -1.105  1.00  0.00     0.341 C 
ATOM     76  O   UNL     1       1.173   1.456  -1.599  1.00  0.00    -0.246 OA
BRANCH  75  77
ATOM     77  C   UNL     1       1.978   3.099  -0.100  1.00  0.00     0.097 A 
ATOM     78  C   UNL     1       1.109   2.906   0.980  1.00  0.00     0.039 A 
ATOM     79  C   UNL     1       2.672   4.297  -0.219  1.00  0.00     0.137 A 
ATOM     80  C   UNL     1       0.998   3.891   1.978  1.00  0.00     0.068 A 
ATOM     81  C   UNL     1       2.517   5.297   0.741  1.00  0.00     0.041 A 
ATOM     82  F   UNL     1       3.488   4.521  -1.258  1.00  0.00    -0.206 F 
ATOM     83  C   UNL     1       1.691   5.093   1.852  1.00  0.00     0.023 A 
BRANCH  80  84
ATOM     84  S   UNL     1      -0.049   3.506   3.367  1.00  0.00     0.182 S 
ATOM     85  O   UNL     1      -1.395   3.529   2.818  1.00  0.00    -0.223 OA
ATOM     86  O   UNL     1       0.466   2.270   3.930  1.00  0.00    -0.223 OA
BRANCH  84  87
ATOM     87  C   UNL     1       0.011   4.782   4.600  1.00  0.00     0.177 C 
BRANCH  87  88
ATOM     88  C   UNL     1       1.353   5.031   5.241  1.00  0.00    -0.029 A 
ATOM     89  C   UNL     1       2.082   4.036   5.908  1.00  0.00     0.005 A 
ATOM     90  C   UNL     1       1.835   6.350   5.305  1.00  0.00     0.051 A 
ATOM     91  C   UNL     1       3.287   4.341   6.553  1.00  0.00     0.004 A 
ATOM     92  C   UNL     1       3.032   6.645   5.953  1.00  0.00     0.115 A 
ATOM     93  C   UNL     1       3.772   5.647   6.567  1.00  0.00     0.046 A 
BRANCH  92  94
ATOM     94  O   UNL     1       3.432   7.947   5.976  1.00  0.00    -0.508 OA
ATOM     95  H   UNL     1       4.232   8.184   6.403  1.00  0.00     0.293 HD
ENDBRANCH  92  94
ENDBRANCH  87  88
ENDBRANCH  84  87
ENDBRANCH  80  84
ENDBRANCH  75  77
ENDBRANCH  74  75
ENDBRANCH   1  74
TORSDOF 18
