REMARK SMILES C=C[C@@H]1[C@@H](O)C[C@H]2[C@]3(CC[C@]4(C)[C@@H]([C@H](C)CCC=C(C)C)CC[C@]24C)C[C@]13CCC(=O)OCCOC(=O)c1ccc(-c2c3nc(c(-c4c(F)cc(S(=O)(=O)[O-])cc4F)c4ccc([nH]4)c(-c4c(F)cc(S(=O)(=O)[O-])cc4F)c4nc(c(-c5c(F)cc(S(=O)(=O)[O-])cc5F)c5ccc2[nH]5)C=C4)C=C3)cc1
REMARK SMILES IDX 32 1 30 2 31 3 29 4 28 5 27 6 3 7 4 8 6 9 8 10 26 11 7 12
REMARK SMILES IDX 9 13 24 14 10 15 11 16 23 17 25 18 13 19 12 20 22 21 2 22
REMARK SMILES IDX 1 23 5 24 14 26 15 27 16 28 17 29 18 30 19 31 20 32 21 33
REMARK SMILES IDX 33 34 34 35 35 36 36 37 37 38 38 39 39 40 103 41 40 42
REMARK SMILES IDX 102 43 41 44 42 45 43 46 96 47 44 48 101 49 95 50 97 51
REMARK SMILES IDX 45 52 100 53 94 54 93 55 46 57 80 58 59 59 79 60 60 61 63 62
REMARK SMILES IDX 78 63 98 64 61 65 62 66 77 68 99 69 64 70 47 71 48 72 57 73
REMARK SMILES IDX 49 74 50 75 56 76 58 77 51 78 52 79 53 80 54 81 55 82 81 83
REMARK SMILES IDX 82 84 91 85 83 86 84 87 90 88 92 89 85 90 86 91 87 92 88 93
REMARK SMILES IDX 89 94 65 95 66 96 75 97 67 98 68 99 74 100 76 101 69 102
REMARK SMILES IDX 70 103 71 104 72 105 73 106
REMARK H PARENT 5 25 97 56 63 67
REMARK Flexibility Score: inf
ROOT
ATOM      1  O   UNL     1       0.930   1.687   1.079  1.00  0.00    -0.462 OA
ENDROOT
BRANCH   1   2
ATOM      2  C   UNL     1       0.693   0.507   1.694  1.00  0.00     0.305 C 
ATOM      3  O   UNL     1       1.497  -0.092   2.398  1.00  0.00    -0.252 OA
BRANCH   2   4
ATOM      4  C   UNL     1      -0.694  -0.028   1.425  1.00  0.00     0.123 C 
BRANCH   4   5
ATOM      5  C   UNL     1      -1.662   0.937   0.743  1.00  0.00     0.020 C 
BRANCH   5   6
ATOM      6  C   UNL     1      -1.452   1.199  -0.755  1.00  0.00    -0.014 C 
ATOM      7  C   UNL     1      -1.127  -0.074  -1.580  1.00  0.00     0.047 C 
ATOM      8  C   UNL     1      -2.010  -0.256  -2.834  1.00  0.00     0.122 C 
ATOM      9  C   UNL     1      -2.344   1.059  -3.526  1.00  0.00     0.037 C 
ATOM     10  C   UNL     1      -2.325   2.353  -1.334  1.00  0.00    -0.019 C 
ATOM     11  C   UNL     1      -0.831   2.496  -1.276  1.00  0.00     0.016 C 
ATOM     12  C   UNL     1      -3.130   1.999  -2.586  1.00  0.00     0.005 C 
ATOM     13  C   UNL     1      -3.048   3.315  -0.405  1.00  0.00     0.008 C 
ATOM     14  C   UNL     1      -3.783   3.246  -3.315  1.00  0.00    -0.023 C 
ATOM     15  C   UNL     1      -3.503   4.551  -1.162  1.00  0.00     0.008 C 
ATOM     16  C   UNL     1      -4.489   4.245  -2.296  1.00  0.00    -0.024 C 
ATOM     17  C   UNL     1      -4.998   2.763  -4.145  1.00  0.00     0.008 C 
ATOM     18  C   UNL     1      -2.760   3.949  -4.236  1.00  0.00     0.012 C 
ATOM     19  C   UNL     1      -5.766   3.436  -1.869  1.00  0.00    -0.002 C 
ATOM     20  C   UNL     1      -4.857   5.591  -2.962  1.00  0.00     0.012 C 
ATOM     21  C   UNL     1      -6.207   2.773  -3.203  1.00  0.00     0.005 C 
BRANCH   7  22
ATOM     22  C   UNL     1       0.352  -0.175  -1.936  1.00  0.00    -0.028 C 
ATOM     23  C   UNL     1       1.226  -1.030  -1.388  1.00  0.00     0.004 C 
ENDBRANCH   7  22
BRANCH   8  24
ATOM     24  O   UNL     1      -3.237  -0.926  -2.507  1.00  0.00    -0.392 OA
ATOM     25  H   UNL     1      -3.752  -0.377  -1.895  1.00  0.00     0.210 HD
ENDBRANCH   8  24
BRANCH  19  26
ATOM     26  C   UNL     1      -6.998   4.008  -1.093  1.00  0.00    -0.010 C 
ATOM     27  C   UNL     1      -7.769   5.168  -1.725  1.00  0.00     0.008 C 
BRANCH  26  28
ATOM     28  C   UNL     1      -6.915   4.106   0.459  1.00  0.00     0.008 C 
BRANCH  28  29
ATOM     29  C   UNL     1      -5.950   5.010   1.241  1.00  0.00     0.027 C 
BRANCH  29  30
ATOM     30  C   UNL     1      -5.790   6.441   0.814  1.00  0.00    -0.028 C 
ATOM     31  C   UNL     1      -4.857   7.288   1.298  1.00  0.00    -0.080 C 
ATOM     32  C   UNL     1      -4.641   8.641   0.678  1.00  0.00     0.039 C 
ATOM     33  C   UNL     1      -3.948   6.965   2.453  1.00  0.00     0.039 C 
ENDBRANCH  29  30
ENDBRANCH  28  29
ENDBRANCH  26  28
ENDBRANCH  19  26
ENDBRANCH   5   6
ENDBRANCH   4   5
ENDBRANCH   2   4
ENDBRANCH   1   2
BRANCH   1  34
ATOM     34  C   UNL     1       2.198   2.320   1.307  1.00  0.00     0.274 C 
BRANCH  34  35
ATOM     35  C   UNL     1       1.989   3.632   2.061  1.00  0.00     0.275 C 
BRANCH  35  36
ATOM     36  O   UNL     1       1.492   3.368   3.385  1.00  0.00    -0.458 OA
BRANCH  36  37
ATOM     37  C   UNL     1       0.157   3.529   3.547  1.00  0.00     0.338 C 
ATOM     38  O   UNL     1      -0.645   3.969   2.743  1.00  0.00    -0.246 OA
BRANCH  37  39
ATOM     39  C   UNL     1      -0.235   2.919   4.825  1.00  0.00     0.060 A 
ATOM     40  C   UNL     1      -0.868   1.677   4.782  1.00  0.00     0.016 A 
ATOM     41  C   UNL     1      -0.044   3.575   6.038  1.00  0.00     0.016 A 
ATOM     42  C   UNL     1      -1.310   1.069   5.950  1.00  0.00     0.010 A 
ATOM     43  C   UNL     1      -0.486   2.963   7.217  1.00  0.00     0.010 A 
ATOM     44  C   UNL     1      -1.126   1.710   7.179  1.00  0.00    -0.014 A 
BRANCH  44  45
ATOM     45  C   UNL     1      -1.668   1.098   8.415  1.00  0.00     0.031 A 
ATOM     46  C   UNL     1      -2.850   1.732   9.090  1.00  0.00     0.074 A 
ATOM     47  C   UNL     1      -1.114  -0.024   8.914  1.00  0.00     0.049 A 
ATOM     48  N   UNL     1      -3.373   1.471  10.258  1.00  0.00    -0.248 NA
ATOM     49  C   UNL     1      -3.530   2.811   8.353  1.00  0.00     0.031 C 
ATOM     50  C   UNL     1      -0.006  -0.764   8.306  1.00  0.00     0.029 A 
ATOM     51  N   UNL     1      -1.400  -0.733  10.053  1.00  0.00    -0.354 N 
ATOM     52  C   UNL     1      -4.412   2.380  10.418  1.00  0.00     0.074 A 
ATOM     53  C   UNL     1      -4.451   3.197   9.225  1.00  0.00     0.031 C 
ATOM     54  C   UNL     1       0.298  -1.816   9.082  1.00  0.00     0.029 A 
ATOM     55  C   UNL     1      -0.548  -1.790  10.271  1.00  0.00     0.049 A 
ATOM     56  H   UNL     1      -2.144  -0.506  10.657  1.00  0.00     0.167 HD
ATOM     57  C   UNL     1      -5.250   2.518  11.472  1.00  0.00     0.037 A 
ATOM     58  C   UNL     1      -0.433  -2.613  11.332  1.00  0.00     0.037 A 
ATOM     59  C   UNL     1      -5.222   1.668  12.634  1.00  0.00     0.049 A 
ATOM     60  C   UNL     1      -1.354  -2.416  12.506  1.00  0.00     0.074 A 
ATOM     61  C   UNL     1      -6.033   1.714  13.755  1.00  0.00     0.029 A 
ATOM     62  N   UNL     1      -4.342   0.611  12.819  1.00  0.00    -0.354 N 
ATOM     63  N   UNL     1      -2.309  -1.529  12.664  1.00  0.00    -0.248 NA
ATOM     64  C   UNL     1      -1.177  -3.319  13.651  1.00  0.00     0.031 C 
ATOM     65  C   UNL     1      -5.621   0.706  14.632  1.00  0.00     0.029 A 
ATOM     66  C   UNL     1      -4.582   0.005  14.040  1.00  0.00     0.049 A 
ATOM     67  H   UNL     1      -3.650   0.333  12.177  1.00  0.00     0.167 HD
ATOM     68  C   UNL     1      -2.857  -1.779  13.916  1.00  0.00     0.074 A 
ATOM     69  C   UNL     1      -2.139  -2.910  14.467  1.00  0.00     0.031 C 
ATOM     70  C   UNL     1      -3.861  -1.130  14.557  1.00  0.00     0.037 A 
BRANCH  57  71
ATOM     71  C   UNL     1      -6.244   3.644  11.439  1.00  0.00     0.058 A 
ATOM     72  C   UNL     1      -7.391   3.602  10.632  1.00  0.00     0.135 A 
ATOM     73  C   UNL     1      -6.069   4.761  12.273  1.00  0.00     0.135 A 
ATOM     74  F   UNL     1      -7.594   2.569   9.800  1.00  0.00    -0.206 F 
ATOM     75  C   UNL     1      -8.326   4.633  10.646  1.00  0.00     0.059 A 
ATOM     76  C   UNL     1      -7.002   5.792  12.320  1.00  0.00     0.059 A 
ATOM     77  F   UNL     1      -4.985   4.854  13.059  1.00  0.00    -0.206 F 
ATOM     78  C   UNL     1      -8.125   5.722  11.497  1.00  0.00     0.060 A 
BRANCH  78  79
ATOM     79  S   UNL     1      -9.363   7.037  11.528  1.00  0.00     0.124 S 
ATOM     80  O   UNL     1      -9.105   7.710  10.260  1.00  0.00    -0.237 OA
ATOM     81  O   UNL     1     -10.613   6.287  11.605  1.00  0.00    -0.237 OA
ATOM     82  O   UNL     1      -9.019   7.799  12.725  1.00  0.00    -0.744 OA
ENDBRANCH  78  79
ENDBRANCH  57  71
BRANCH  58  83
ATOM     83  C   UNL     1       0.625  -3.659  11.360  1.00  0.00     0.058 A 
ATOM     84  C   UNL     1       0.302  -5.023  11.318  1.00  0.00     0.135 A 
ATOM     85  C   UNL     1       1.984  -3.313  11.447  1.00  0.00     0.135 A 
ATOM     86  F   UNL     1      -0.981  -5.406  11.245  1.00  0.00    -0.206 F 
ATOM     87  C   UNL     1       1.284  -6.008  11.384  1.00  0.00     0.059 A 
ATOM     88  C   UNL     1       2.985  -4.278  11.486  1.00  0.00     0.059 A 
ATOM     89  F   UNL     1       2.349  -2.022  11.479  1.00  0.00    -0.206 F 
ATOM     90  C   UNL     1       2.624  -5.624  11.470  1.00  0.00     0.060 A 
BRANCH  90  91
ATOM     91  S   UNL     1       3.896  -6.905  11.531  1.00  0.00     0.124 S 
ATOM     92  O   UNL     1       3.787  -7.360  12.912  1.00  0.00    -0.237 OA
ATOM     93  O   UNL     1       3.439  -7.845  10.511  1.00  0.00    -0.237 OA
ATOM     94  O   UNL     1       5.118  -6.178  11.198  1.00  0.00    -0.744 OA
ENDBRANCH  90  91
ENDBRANCH  58  83
BRANCH  70  95
ATOM     95  C   UNL     1      -4.265  -1.654  15.905  1.00  0.00     0.058 A 
ATOM     96  C   UNL     1      -3.482  -1.429  17.047  1.00  0.00     0.135 A 
ATOM     97  C   UNL     1      -5.478  -2.343  16.062  1.00  0.00     0.135 A 
ATOM     98  F   UNL     1      -2.311  -0.781  16.946  1.00  0.00    -0.206 F 
ATOM     99  C   UNL     1      -3.877  -1.890  18.298  1.00  0.00     0.059 A 
ATOM    100  C   UNL     1      -5.904  -2.791  17.307  1.00  0.00     0.059 A 
ATOM    101  F   UNL     1      -6.268  -2.573  15.001  1.00  0.00    -0.206 F 
ATOM    102  C   UNL     1      -5.091  -2.570  18.418  1.00  0.00     0.060 A 
BRANCH 102 103
ATOM    103  S   UNL     1      -5.611  -3.133  20.052  1.00  0.00     0.124 S 
ATOM    104  O   UNL     1      -4.762  -4.304  20.243  1.00  0.00    -0.237 OA
ATOM    105  O   UNL     1      -5.303  -1.982  20.895  1.00  0.00    -0.237 OA
ATOM    106  O   UNL     1      -7.034  -3.410  19.877  1.00  0.00    -0.744 OA
ENDBRANCH 102 103
ENDBRANCH  70  95
ENDBRANCH  44  45
ENDBRANCH  37  39
ENDBRANCH  36  37
ENDBRANCH  35  36
ENDBRANCH  34  35
ENDBRANCH   1  34
TORSDOF 22
