REMARK SMILES Cc1coc2c(C)c3oc(=O)c(CC(=O)NCC(=O)N[C@H](C(=O)OCCOC(=O)c4ccc(-c5c6nc(c(-c7c(F)cc(S(=O)(=O)[O-])cc7F)c7ccc([nH]7)c(-c7c(F)cc(S(=O)(=O)[O-])cc7F)c7nc(c(-c8c(F)cc(S(=O)(=O)[O-])cc8F)c8ccc5[nH]8)C=C7)C=C6)cc4)C(C)C)c(C)c3cc12
REMARK SMILES IDX 25 1 24 2 22 3 23 4 21 5 20 6 18 7 19 8 17 10 16 11 14 12
REMARK SMILES IDX 15 13 13 15 12 16 1 17 2 18 3 19 103 20 4 21 5 22 102 23
REMARK SMILES IDX 6 24 101 25 7 26 8 27 99 28 9 29 100 30 10 31 11 32 96 33
REMARK SMILES IDX 97 34 98 35 26 36 27 37 28 38 29 39 30 40 31 41 95 42 32 43
REMARK SMILES IDX 94 44 33 45 34 46 35 47 88 48 36 49 93 50 87 51 89 52 37 53
REMARK SMILES IDX 92 54 86 55 85 56 38 58 72 59 51 60 71 61 52 62 55 63 70 64
REMARK SMILES IDX 90 65 53 66 54 67 69 69 91 70 56 71 39 72 40 73 49 74 41 75
REMARK SMILES IDX 42 76 48 77 50 78 43 79 44 80 45 81 46 82 47 83 73 84 74 85
REMARK SMILES IDX 83 86 75 87 76 88 82 89 84 90 77 91 78 92 79 93 80 94 81 95
REMARK SMILES IDX 57 96 58 97 67 98 59 99 60 100 66 101 68 102 61 103 62 104
REMARK SMILES IDX 63 105 64 106 65 107
REMARK H PARENT 20 9 16 14 89 57 55 68
REMARK Flexibility Score: inf
ROOT
ATOM      1  C   UNL     1       1.935   5.341   6.888  1.00  0.00     0.274 C 
ENDROOT
BRANCH   1   2
ATOM      2  O   UNL     1       2.665   4.420   6.006  1.00  0.00    -0.461 OA
BRANCH   2   3
ATOM      3  C   UNL     1       2.545   4.728   4.689  1.00  0.00     0.329 C 
ATOM      4  O   UNL     1       2.165   5.850   4.425  1.00  0.00    -0.250 OA
BRANCH   3   5
ATOM      5  C   UNL     1       2.941   3.591   3.604  1.00  0.00     0.194 C 
BRANCH   5   6
ATOM      6  N   UNL     1       2.366   2.375   4.218  1.00  0.00    -0.341 N 
ATOM      7  C   UNL     1       1.065   1.969   4.272  1.00  0.00     0.240 C 
ATOM      8  O   UNL     1       0.856   0.807   4.636  1.00  0.00    -0.273 OA
ATOM      9  H   UNL     1       3.015   1.772   4.649  1.00  0.00     0.164 HD
BRANCH   7  10
ATOM     10  C   UNL     1      -0.102   2.854   3.776  1.00  0.00     0.216 C 
BRANCH  10  11
ATOM     11  N   UNL     1      -0.257   4.155   4.397  1.00  0.00    -0.347 N 
ATOM     12  C   UNL     1      -0.278   5.433   3.932  1.00  0.00     0.225 C 
ATOM     13  O   UNL     1      -0.852   6.237   4.683  1.00  0.00    -0.275 OA
ATOM     14  H   UNL     1      -0.372   4.101   5.373  1.00  0.00     0.164 HD
BRANCH  12  15
ATOM     15  C   UNL     1       0.335   5.940   2.595  1.00  0.00     0.143 C 
BRANCH  15  16
ATOM     16  C   UNL     1       1.600   5.323   1.992  1.00  0.00     0.051 A 
ATOM     17  C   UNL     1       8.755   5.688   1.148  1.00  0.00     0.048 C 
ATOM     18  C   UNL     1       8.024   4.689   0.315  1.00  0.00    -0.005 A 
ATOM     19  C   UNL     1       8.414   4.017  -0.817  1.00  0.00     0.199 A 
ATOM     20  C   UNL     1       6.666   4.310   0.523  1.00  0.00     0.024 A 
ATOM     21  O   UNL     1       7.391   3.275  -1.329  1.00  0.00    -0.464 OA
ATOM     22  C   UNL     1       6.272   3.492  -0.558  1.00  0.00     0.140 A 
ATOM     23  C   UNL     1       5.809   4.744   1.546  1.00  0.00     0.024 A 
ATOM     24  C   UNL     1       4.978   2.975  -0.868  1.00  0.00     0.036 A 
ATOM     25  C   UNL     1       4.484   4.530   1.306  1.00  0.00     0.022 A 
ATOM     26  C   UNL     1       4.641   2.016  -1.940  1.00  0.00     0.052 C 
ATOM     27  C   UNL     1       4.089   3.526   0.027  1.00  0.00     0.145 A 
ATOM     28  C   UNL     1       3.195   5.568   2.176  1.00  0.00    -0.029 A 
ATOM     29  O   UNL     1       2.297   3.261  -0.199  1.00  0.00    -0.422 OA
ATOM     30  C   UNL     1       4.083   6.535   2.909  1.00  0.00     0.046 C 
ATOM     31  C   UNL     1       0.948   4.132   0.587  1.00  0.00     0.340 A 
ATOM     32  O   UNL     1      -0.222   3.894   0.320  1.00  0.00    -0.246 OA
ENDBRANCH  15  16
ENDBRANCH  12  15
ENDBRANCH  10  11
ENDBRANCH   7  10
ENDBRANCH   5   6
BRANCH   5  33
ATOM     33  C   UNL     1       2.652   3.520   1.754  1.00  0.00     0.017 C 
ATOM     34  C   UNL     1       2.704   5.085   0.243  1.00  0.00     0.010 C 
ATOM     35  C   UNL     1       3.210   1.887   1.558  1.00  0.00     0.010 C 
ENDBRANCH   5  33
ENDBRANCH   3   5
ENDBRANCH   2   3
ENDBRANCH   1   2
BRANCH   1  36
ATOM     36  C   UNL     1       2.257   6.874   6.962  1.00  0.00     0.275 C 
BRANCH  36  37
ATOM     37  O   UNL     1       1.796   7.759   5.901  1.00  0.00    -0.458 OA
BRANCH  37  38
ATOM     38  C   UNL     1       2.801   8.406   5.257  1.00  0.00     0.338 C 
ATOM     39  O   UNL     1       3.998   8.234   5.474  1.00  0.00    -0.246 OA
BRANCH  38  40
ATOM     40  C   UNL     1       2.393   9.454   4.268  1.00  0.00     0.060 A 
ATOM     41  C   UNL     1       2.693   9.267   2.907  1.00  0.00     0.016 A 
ATOM     42  C   UNL     1       2.520  10.735   4.790  1.00  0.00     0.016 A 
ATOM     43  C   UNL     1       3.537  10.159   2.261  1.00  0.00     0.010 A 
ATOM     44  C   UNL     1       3.140  11.725   4.042  1.00  0.00     0.010 A 
ATOM     45  C   UNL     1       3.805  11.391   2.862  1.00  0.00    -0.014 A 
BRANCH  45  46
ATOM     46  C   UNL     1       4.544  12.424   2.114  1.00  0.00     0.031 A 
ATOM     47  C   UNL     1       4.015  12.538   0.720  1.00  0.00     0.074 A 
ATOM     48  C   UNL     1       5.443  13.262   2.699  1.00  0.00     0.049 A 
ATOM     49  N   UNL     1       4.654  12.338  -0.386  1.00  0.00    -0.248 NA
ATOM     50  C   UNL     1       2.548  12.603   0.528  1.00  0.00     0.031 C 
ATOM     51  C   UNL     1       5.914  13.224   4.091  1.00  0.00     0.029 A 
ATOM     52  N   UNL     1       6.036  14.414   2.235  1.00  0.00    -0.354 N 
ATOM     53  C   UNL     1       3.727  12.589  -1.400  1.00  0.00     0.074 A 
ATOM     54  C   UNL     1       2.434  12.482  -0.795  1.00  0.00     0.031 C 
ATOM     55  C   UNL     1       6.461  14.414   4.434  1.00  0.00     0.029 A 
ATOM     56  C   UNL     1       6.519  15.262   3.261  1.00  0.00     0.049 A 
ATOM     57  H   UNL     1       6.117  14.629   1.277  1.00  0.00     0.167 HD
ATOM     58  C   UNL     1       4.124  13.251  -2.522  1.00  0.00     0.037 A 
ATOM     59  C   UNL     1       6.911  16.567   3.140  1.00  0.00     0.037 A 
ATOM     60  C   UNL     1       5.556  13.164  -2.653  1.00  0.00     0.049 A 
ATOM     61  C   UNL     1       7.238  16.752   1.711  1.00  0.00     0.074 A 
ATOM     62  C   UNL     1       6.488  12.179  -2.896  1.00  0.00     0.029 A 
ATOM     63  N   UNL     1       6.206  14.209  -2.056  1.00  0.00    -0.354 N 
ATOM     64  N   UNL     1       8.245  16.162   1.128  1.00  0.00    -0.248 NA
ATOM     65  C   UNL     1       6.180  17.226   0.836  1.00  0.00     0.031 C 
ATOM     66  C   UNL     1       7.668  12.589  -2.208  1.00  0.00     0.029 A 
ATOM     67  C   UNL     1       7.453  13.851  -1.652  1.00  0.00     0.049 A 
ATOM     68  H   UNL     1       5.819  15.106  -1.935  1.00  0.00     0.167 HD
ATOM     69  C   UNL     1       7.744  15.787  -0.106  1.00  0.00     0.074 A 
ATOM     70  C   UNL     1       6.521  16.575  -0.278  1.00  0.00     0.031 C 
ATOM     71  C   UNL     1       8.197  14.647  -0.704  1.00  0.00     0.037 A 
BRANCH  58  72
ATOM     72  C   UNL     1       3.374  14.454  -3.097  1.00  0.00     0.058 A 
ATOM     73  C   UNL     1       3.930  15.111  -4.219  1.00  0.00     0.135 A 
ATOM     74  C   UNL     1       2.366  15.180  -2.421  1.00  0.00     0.135 A 
ATOM     75  F   UNL     1       4.901  14.527  -4.941  1.00  0.00    -0.206 F 
ATOM     76  C   UNL     1       3.574  16.411  -4.585  1.00  0.00     0.059 A 
ATOM     77  C   UNL     1       1.967  16.459  -2.795  1.00  0.00     0.059 A 
ATOM     78  F   UNL     1       1.767  14.733  -1.313  1.00  0.00    -0.206 F 
ATOM     79  C   UNL     1       2.595  17.080  -3.859  1.00  0.00     0.060 A 
BRANCH  79  80
ATOM     80  S   UNL     1       2.156  18.767  -4.309  1.00  0.00     0.124 S 
ATOM     81  O   UNL     1       3.390  19.482  -4.010  1.00  0.00    -0.237 OA
ATOM     82  O   UNL     1       1.827  18.618  -5.723  1.00  0.00    -0.237 OA
ATOM     83  O   UNL     1       1.024  19.063  -3.437  1.00  0.00    -0.744 OA
ENDBRANCH  79  80
ENDBRANCH  58  72
BRANCH  59  84
ATOM     84  C   UNL     1       6.718  17.756   4.038  1.00  0.00     0.058 A 
ATOM     85  C   UNL     1       7.313  19.010   3.755  1.00  0.00     0.135 A 
ATOM     86  C   UNL     1       5.685  17.785   4.991  1.00  0.00     0.135 A 
ATOM     87  F   UNL     1       8.308  19.097   2.858  1.00  0.00    -0.206 F 
ATOM     88  C   UNL     1       6.859  20.216   4.319  1.00  0.00     0.059 A 
ATOM     89  C   UNL     1       5.216  18.973   5.567  1.00  0.00     0.059 A 
ATOM     90  F   UNL     1       5.030  16.663   5.322  1.00  0.00    -0.206 F 
ATOM     91  C   UNL     1       5.784  20.190   5.205  1.00  0.00     0.060 A 
BRANCH  91  92
ATOM     92  S   UNL     1       5.058  21.747   5.792  1.00  0.00     0.124 S 
ATOM     93  O   UNL     1       6.130  22.296   6.616  1.00  0.00    -0.237 OA
ATOM     94  O   UNL     1       4.788  22.456   4.546  1.00  0.00    -0.237 OA
ATOM     95  O   UNL     1       3.873  21.311   6.527  1.00  0.00    -0.744 OA
ENDBRANCH  91  92
ENDBRANCH  59  84
BRANCH  71  96
ATOM     96  C   UNL     1       9.525  14.091  -0.288  1.00  0.00     0.058 A 
ATOM     97  C   UNL     1       9.784  13.403   0.909  1.00  0.00     0.135 A 
ATOM     98  C   UNL     1      10.521  14.080  -1.276  1.00  0.00     0.135 A 
ATOM     99  F   UNL     1       8.850  13.314   1.869  1.00  0.00    -0.206 F 
ATOM    100  C   UNL     1      10.989  12.721   1.104  1.00  0.00     0.059 A 
ATOM    101  C   UNL     1      11.708  13.383  -1.116  1.00  0.00     0.059 A 
ATOM    102  F   UNL     1      10.300  14.682  -2.457  1.00  0.00    -0.206 F 
ATOM    103  C   UNL     1      11.937  12.704   0.077  1.00  0.00     0.060 A 
BRANCH 103 104
ATOM    104  S   UNL     1      13.444  11.727   0.269  1.00  0.00     0.124 S 
ATOM    105  O   UNL     1      14.146  12.448   1.325  1.00  0.00    -0.237 OA
ATOM    106  O   UNL     1      12.922  10.413   0.635  1.00  0.00    -0.237 OA
ATOM    107  O   UNL     1      14.067  11.793  -1.051  1.00  0.00    -0.744 OA
ENDBRANCH 103 104
ENDBRANCH  71  96
ENDBRANCH  45  46
ENDBRANCH  38  40
ENDBRANCH  37  38
ENDBRANCH  36  37
ENDBRANCH   1  36
TORSDOF 20
