REMARK SMILES C[C@H](CNC(=O)c1ccc(Br)nc1)C(=O)OCCOC(=O)c1ccc(-c2c3nc(c(-c4c(F)cc(S(=O)(=O)[O-])cc4F)c4ccc([nH]4)c(-c4c(F)cc(S(=O)(=O)[O-])cc4F)c4nc(c(-c5c(F)cc(S(=O)(=O)[O-])cc5F)c5ccc2[nH]5)C=C4)C=C3)cc1
REMARK SMILES IDX 17 1 16 2 14 3 15 4 2 5 1 6 3 7 4 8 5 9 6 11 7 12 8 13 13 14
REMARK SMILES IDX 9 15 12 16 10 17 11 18 18 19 19 20 20 21 21 22 22 23 23 24
REMARK SMILES IDX 87 25 24 26 86 27 25 28 26 29 27 30 80 31 28 32 85 33 79 34
REMARK SMILES IDX 81 35 29 36 84 37 78 38 77 39 30 41 64 42 43 43 63 44 44 45
REMARK SMILES IDX 47 46 62 47 82 48 45 49 46 50 61 52 83 53 48 54 31 55 32 56
REMARK SMILES IDX 41 57 33 58 34 59 40 60 42 61 35 62 36 63 37 64 38 65 39 66
REMARK SMILES IDX 65 67 66 68 75 69 67 70 68 71 74 72 76 73 69 74 70 75 71 76
REMARK SMILES IDX 72 77 73 78 49 79 50 80 59 81 51 82 52 83 58 84 60 85 53 86
REMARK SMILES IDX 54 87 55 88 56 89 57 90
REMARK H PARENT 4 10 81 40 47 51
REMARK Flexibility Score: inf
ROOT
ATOM      1  C   UNL     1      -2.986   0.469   1.055  1.00  0.00     0.274 C 
ENDROOT
BRANCH   1   2
ATOM      2  O   UNL     1      -1.547   0.558   0.994  1.00  0.00    -0.462 OA
BRANCH   2   3
ATOM      3  C   UNL     1      -0.875  -0.159   1.932  1.00  0.00     0.310 C 
ATOM      4  O   UNL     1      -1.408  -0.787   2.839  1.00  0.00    -0.252 OA
BRANCH   3   5
ATOM      5  C   UNL     1       0.633  -0.103   1.774  1.00  0.00     0.115 C 
ATOM      6  C   UNL     1       1.254   0.789   2.844  1.00  0.00     0.022 C 
BRANCH   5   7
ATOM      7  C   UNL     1       1.130   0.182   0.352  1.00  0.00     0.131 C 
BRANCH   7   8
ATOM      8  N   UNL     1       1.286   1.596   0.044  1.00  0.00    -0.351 N 
ATOM      9  C   UNL     1       2.420   2.275  -0.329  1.00  0.00     0.252 C 
ATOM     10  H   UNL     1       0.468   2.140   0.112  1.00  0.00     0.163 HD
ATOM     11  O   UNL     1       2.437   3.502  -0.348  1.00  0.00    -0.269 OA
BRANCH   9  12
ATOM     12  C   UNL     1       3.635   1.532  -0.700  1.00  0.00     0.058 A 
ATOM     13  C   UNL     1       3.634   0.545  -1.685  1.00  0.00     0.018 A 
ATOM     14  C   UNL     1       4.838   1.858  -0.092  1.00  0.00     0.126 A 
ATOM     15  C   UNL     1       4.827  -0.113  -1.986  1.00  0.00     0.037 A 
ATOM     16  N   UNL     1       6.010   1.234  -0.365  1.00  0.00    -0.249 NA
ATOM     17  C   UNL     1       5.978   0.258  -1.302  1.00  0.00     0.106 A 
ATOM     18  Br  UNL     1       7.604  -0.634  -1.697  1.00  0.00    -0.029 Br
ENDBRANCH   9  12
ENDBRANCH   7   8
ENDBRANCH   5   7
ENDBRANCH   3   5
ENDBRANCH   2   3
ENDBRANCH   1   2
BRANCH   1  19
ATOM     19  C   UNL     1      -3.542  -0.459  -0.029  1.00  0.00     0.275 C 
BRANCH  19  20
ATOM     20  O   UNL     1      -3.097  -1.817   0.145  1.00  0.00    -0.458 OA
BRANCH  20  21
ATOM     21  C   UNL     1      -2.032  -2.173  -0.612  1.00  0.00     0.338 C 
ATOM     22  O   UNL     1      -1.428  -1.477  -1.409  1.00  0.00    -0.246 OA
BRANCH  21  23
ATOM     23  C   UNL     1      -1.592  -3.530  -0.256  1.00  0.00     0.060 A 
ATOM     24  C   UNL     1      -0.365  -3.671   0.396  1.00  0.00     0.016 A 
ATOM     25  C   UNL     1      -2.319  -4.653  -0.654  1.00  0.00     0.016 A 
ATOM     26  C   UNL     1       0.148  -4.940   0.650  1.00  0.00     0.010 A 
ATOM     27  C   UNL     1      -1.803  -5.928  -0.395  1.00  0.00     0.010 A 
ATOM     28  C   UNL     1      -0.561  -6.079   0.247  1.00  0.00    -0.014 A 
BRANCH  28  29
ATOM     29  C   UNL     1       0.025  -7.424   0.465  1.00  0.00     0.031 A 
ATOM     30  C   UNL     1       0.612  -8.185  -0.690  1.00  0.00     0.074 A 
ATOM     31  C   UNL     1       0.052  -7.948   1.705  1.00  0.00     0.049 A 
ATOM     32  N   UNL     1       1.109  -9.395  -0.714  1.00  0.00    -0.248 NA
ATOM     33  C   UNL     1       0.646  -7.493  -1.988  1.00  0.00     0.031 C 
ATOM     34  C   UNL     1      -0.452  -7.288   2.910  1.00  0.00     0.029 A 
ATOM     35  N   UNL     1       0.520  -9.156   2.155  1.00  0.00    -0.354 N 
ATOM     36  C   UNL     1       1.497  -9.619  -2.029  1.00  0.00     0.074 A 
ATOM     37  C   UNL     1       1.169  -8.422  -2.776  1.00  0.00     0.031 C 
ATOM     38  C   UNL     1      -0.265  -8.101   3.963  1.00  0.00     0.029 A 
ATOM     39  C   UNL     1       0.332  -9.351   3.502  1.00  0.00     0.049 A 
ATOM     40  H   UNL     1       0.950  -9.820   1.569  1.00  0.00     0.167 HD
ATOM     41  C   UNL     1       2.075 -10.722  -2.563  1.00  0.00     0.037 A 
ATOM     42  C   UNL     1       0.588 -10.426   4.273  1.00  0.00     0.037 A 
ATOM     43  C   UNL     1       2.411 -11.905  -1.815  1.00  0.00     0.049 A 
ATOM     44  C   UNL     1       1.192 -11.653   3.649  1.00  0.00     0.074 A 
ATOM     45  C   UNL     1       3.004 -13.072  -2.266  1.00  0.00     0.029 A 
ATOM     46  N   UNL     1       2.186 -12.073  -0.456  1.00  0.00    -0.354 N 
ATOM     47  N   UNL     1       1.540 -11.855   2.401  1.00  0.00    -0.248 NA
ATOM     48  C   UNL     1       1.430 -12.801   4.535  1.00  0.00     0.031 C 
ATOM     49  C   UNL     1       3.110 -13.956  -1.186  1.00  0.00     0.029 A 
ATOM     50  C   UNL     1       2.615 -13.328  -0.056  1.00  0.00     0.049 A 
ATOM     51  H   UNL     1       1.781 -11.399   0.136  1.00  0.00     0.167 HD
ATOM     52  C   UNL     1       2.051 -13.148   2.354  1.00  0.00     0.074 A 
ATOM     53  C   UNL     1       1.978 -13.675   3.701  1.00  0.00     0.031 C 
ATOM     54  C   UNL     1       2.534 -13.836   1.290  1.00  0.00     0.037 A 
BRANCH  41  55
ATOM     55  C   UNL     1       2.356 -10.710  -4.039  1.00  0.00     0.058 A 
ATOM     56  C   UNL     1       3.426  -9.982  -4.580  1.00  0.00     0.135 A 
ATOM     57  C   UNL     1       1.556 -11.456  -4.920  1.00  0.00     0.135 A 
ATOM     58  F   UNL     1       4.208  -9.237  -3.783  1.00  0.00    -0.206 F 
ATOM     59  C   UNL     1       3.681  -9.974  -5.948  1.00  0.00     0.059 A 
ATOM     60  C   UNL     1       1.804 -11.479  -6.289  1.00  0.00     0.059 A 
ATOM     61  F   UNL     1       0.519 -12.168  -4.452  1.00  0.00    -0.206 F 
ATOM     62  C   UNL     1       2.860 -10.722  -6.795  1.00  0.00     0.060 A 
BRANCH  62  63
ATOM     63  S   UNL     1       3.192 -10.696  -8.570  1.00  0.00     0.124 S 
ATOM     64  O   UNL     1       2.653  -9.393  -8.945  1.00  0.00    -0.237 OA
ATOM     65  O   UNL     1       4.646 -10.818  -8.620  1.00  0.00    -0.237 OA
ATOM     66  O   UNL     1       2.452 -11.850  -9.070  1.00  0.00    -0.744 OA
ENDBRANCH  62  63
ENDBRANCH  41  55
BRANCH  42  67
ATOM     67  C   UNL     1       0.249 -10.393   5.718  1.00  0.00     0.058 A 
ATOM     68  C   UNL     1       1.251 -10.312   6.695  1.00  0.00     0.135 A 
ATOM     69  C   UNL     1      -1.086 -10.423   6.149  1.00  0.00     0.135 A 
ATOM     70  F   UNL     1       2.542 -10.290   6.331  1.00  0.00    -0.206 F 
ATOM     71  C   UNL     1       0.943 -10.267   8.051  1.00  0.00     0.059 A 
ATOM     72  C   UNL     1      -1.420 -10.358   7.497  1.00  0.00     0.059 A 
ATOM     73  F   UNL     1      -2.081 -10.490   5.250  1.00  0.00    -0.206 F 
ATOM     74  C   UNL     1      -0.397 -10.288   8.442  1.00  0.00     0.060 A 
BRANCH  74  75
ATOM     75  S   UNL     1      -0.796 -10.166  10.199  1.00  0.00     0.124 S 
ATOM     76  O   UNL     1      -0.543 -11.529  10.651  1.00  0.00    -0.237 OA
ATOM     77  O   UNL     1       0.148  -9.154  10.663  1.00  0.00    -0.237 OA
ATOM     78  O   UNL     1      -2.195  -9.750  10.194  1.00  0.00    -0.744 OA
ENDBRANCH  74  75
ENDBRANCH  42  67
BRANCH  54  79
ATOM     79  C   UNL     1       3.040 -15.226   1.545  1.00  0.00     0.058 A 
ATOM     80  C   UNL     1       2.160 -16.304   1.724  1.00  0.00     0.135 A 
ATOM     81  C   UNL     1       4.418 -15.490   1.567  1.00  0.00     0.135 A 
ATOM     82  F   UNL     1       0.833 -16.100   1.718  1.00  0.00    -0.206 F 
ATOM     83  C   UNL     1       2.629 -17.596   1.934  1.00  0.00     0.059 A 
ATOM     84  C   UNL     1       4.910 -16.778   1.757  1.00  0.00     0.059 A 
ATOM     85  F   UNL     1       5.300 -14.493   1.393  1.00  0.00    -0.206 F 
ATOM     86  C   UNL     1       4.007 -17.823   1.950  1.00  0.00     0.060 A 
BRANCH  86  87
ATOM     87  S   UNL     1       4.609 -19.508   2.191  1.00  0.00     0.124 S 
ATOM     88  O   UNL     1       4.463 -19.669   3.633  1.00  0.00    -0.237 OA
ATOM     89  O   UNL     1       3.692 -20.293   1.369  1.00  0.00    -0.237 OA
ATOM     90  O   UNL     1       5.983 -19.449   1.700  1.00  0.00    -0.744 OA
ENDBRANCH  86  87
ENDBRANCH  54  79
ENDBRANCH  28  29
ENDBRANCH  21  23
ENDBRANCH  20  21
ENDBRANCH  19  20
ENDBRANCH   1  19
TORSDOF 17
