REMARK SMILES N#CCOc1ccc2[nH]cc([C@H](C(=O)OCCOC(=O)c3ccc(-c4c5nc(c(-c6c(F)cc(S(=O)(=O)[O-])cc6F)c6ccc([nH]6)c(-c6c(F)cc(S(=O)(=O)[O-])cc6F)c6nc(c(-c7c(F)cc(S(=O)(=O)[O-])cc7F)c7ccc4[nH]7)C=C6)C=C5)cc3)[NH+]3CC[NH+]([C@@H]4CCS(=O)(=O)C4)CC3)c2c1
REMARK SMILES IDX 16 1 15 2 13 3 14 4 12 5 11 6 5 7 6 8 101 9 7 10 100 11 8 12
REMARK SMILES IDX 9 13 10 14 4 16 3 17 2 18 1 19 87 20 88 21 99 22 89 24 98 25
REMARK SMILES IDX 90 26 91 28 92 29 97 30 93 31 94 32 95 33 96 34 17 35 18 36
REMARK SMILES IDX 19 37 20 38 21 39 22 40 86 41 23 42 85 43 24 44 25 45 26 46
REMARK SMILES IDX 79 47 27 48 84 49 78 50 80 51 28 52 83 53 77 54 76 55 29 57
REMARK SMILES IDX 63 58 42 59 62 60 43 61 46 62 61 63 81 64 44 65 45 66 60 68
REMARK SMILES IDX 82 69 47 70 30 71 31 72 40 73 32 74 33 75 39 76 41 77 34 78
REMARK SMILES IDX 35 79 36 80 37 81 38 82 64 83 65 84 74 85 66 86 67 87 73 88
REMARK SMILES IDX 75 89 68 90 69 91 70 92 71 93 72 94 48 95 49 96 58 97 50 98
REMARK SMILES IDX 51 99 57 100 59 101 52 102 53 103 54 104 55 105 56 106
REMARK H PARENT 9 15 87 23 90 27 80 56 46 67
REMARK Flexibility Score: inf
ROOT
ATOM      1  C   UNL     1       3.259   1.199   4.581  1.00  0.00     0.274 C 
ENDROOT
BRANCH   1   2
ATOM      2  O   UNL     1       4.588   1.001   5.090  1.00  0.00    -0.457 OA
BRANCH   2   3
ATOM      3  C   UNL     1       5.595   1.320   4.226  1.00  0.00     0.370 C 
ATOM      4  O   UNL     1       5.395   1.722   3.081  1.00  0.00    -0.245 OA
BRANCH   3   5
ATOM      5  C   UNL     1       7.000   1.168   4.838  1.00  0.00     0.328 C 
BRANCH   5   6
ATOM      6  C   UNL     1       7.589   2.483   5.317  1.00  0.00     0.046 A 
ATOM      7  C   UNL     1       5.252   5.485   5.920  1.00  0.00     0.121 A 
ATOM      8  C   UNL     1       6.189   6.228   6.636  1.00  0.00     0.048 A 
ATOM      9  C   UNL     1       5.607   4.232   5.422  1.00  0.00     0.057 A 
ATOM     10  C   UNL     1       7.521   5.817   6.737  1.00  0.00     0.030 A 
ATOM     11  C   UNL     1       6.924   3.736   5.584  1.00  0.00     0.013 A 
ATOM     12  C   UNL     1       7.857   4.573   6.199  1.00  0.00     0.046 A 
ATOM     13  N   UNL     1       9.068   3.927   6.186  1.00  0.00    -0.361 N 
ATOM     14  C   UNL     1       8.926   2.681   5.645  1.00  0.00     0.094 A 
ATOM     15  H   UNL     1       9.914   4.305   6.518  1.00  0.00     0.166 HD
BRANCH   7  16
ATOM     16  O   UNL     1       3.928   5.850   5.812  1.00  0.00    -0.479 OA
BRANCH  16  17
ATOM     17  C   UNL     1       3.670   6.969   4.922  1.00  0.00     0.349 C 
BRANCH  17  18
ATOM     18  C   UNL     1       4.393   8.204   5.434  1.00  0.00     0.104 C 
ATOM     19  N   UNL     1       4.993   9.229   5.858  1.00  0.00    -0.195 NA
ENDBRANCH  17  18
ENDBRANCH  16  17
ENDBRANCH   7  16
ENDBRANCH   5   6
BRANCH   5  20
ATOM     20  N   UNL     1       7.138   0.082   5.834  1.00  0.00    -0.310 N 
ATOM     21  C   UNL     1       7.327   0.343   7.259  1.00  0.00     0.325 C 
ATOM     22  C   UNL     1       6.508  -1.207   5.534  1.00  0.00     0.325 C 
ATOM     23  H   UNL     1       8.125   0.000   5.588  1.00  0.00     0.349 HD
ATOM     24  C   UNL     1       6.173  -0.127   8.150  1.00  0.00     0.324 C 
ATOM     25  C   UNL     1       5.364  -1.629   6.500  1.00  0.00     0.324 C 
ATOM     26  N   UNL     1       5.830  -1.527   7.881  1.00  0.00    -0.322 N 
ATOM     27  H   UNL     1       6.637  -2.151   7.902  1.00  0.00     0.348 HD
BRANCH  26  28
ATOM     28  C   UNL     1       5.073  -2.138   8.972  1.00  0.00     0.200 C 
ATOM     29  C   UNL     1       6.149  -2.757   9.895  1.00  0.00     0.082 C 
ATOM     30  C   UNL     1       4.160  -3.323   8.634  1.00  0.00     0.201 C 
ATOM     31  C   UNL     1       6.704  -3.956   9.121  1.00  0.00     0.143 C 
ATOM     32  S   UNL     1       5.250  -4.719   8.408  1.00  0.00     0.156 S 
ATOM     33  O   UNL     1       5.458  -4.940   6.990  1.00  0.00    -0.229 OA
ATOM     34  O   UNL     1       4.803  -5.789   9.276  1.00  0.00    -0.229 OA
ENDBRANCH  26  28
ENDBRANCH   5  20
ENDBRANCH   3   5
ENDBRANCH   2   3
ENDBRANCH   1   2
BRANCH   1  35
ATOM     35  C   UNL     1       2.221   0.621   5.553  1.00  0.00     0.275 C 
BRANCH  35  36
ATOM     36  O   UNL     1       2.532   0.832   6.942  1.00  0.00    -0.458 OA
BRANCH  36  37
ATOM     37  C   UNL     1       2.615   2.120   7.349  1.00  0.00     0.338 C 
ATOM     38  O   UNL     1       2.341   3.108   6.690  1.00  0.00    -0.246 OA
BRANCH  37  39
ATOM     39  C   UNL     1       3.273   2.132   8.671  1.00  0.00     0.060 A 
ATOM     40  C   UNL     1       4.522   2.738   8.769  1.00  0.00     0.016 A 
ATOM     41  C   UNL     1       2.722   1.492   9.786  1.00  0.00     0.016 A 
ATOM     42  C   UNL     1       5.244   2.654   9.961  1.00  0.00     0.010 A 
ATOM     43  C   UNL     1       3.401   1.524  11.018  1.00  0.00     0.010 A 
ATOM     44  C   UNL     1       4.670   2.119  11.131  1.00  0.00    -0.014 A 
BRANCH  44  45
ATOM     45  C   UNL     1       5.357   2.305  12.454  1.00  0.00     0.031 A 
ATOM     46  C   UNL     1       5.625   1.167  13.413  1.00  0.00     0.074 A 
ATOM     47  C   UNL     1       5.747   3.549  12.816  1.00  0.00     0.049 A 
ATOM     48  N   UNL     1       6.073   1.214  14.646  1.00  0.00    -0.248 NA
ATOM     49  C   UNL     1       5.356  -0.198  12.937  1.00  0.00     0.031 C 
ATOM     50  C   UNL     1       5.567   4.760  12.009  1.00  0.00     0.029 A 
ATOM     51  N   UNL     1       6.390   4.009  13.942  1.00  0.00    -0.354 N 
ATOM     52  C   UNL     1       6.099  -0.098  15.108  1.00  0.00     0.074 A 
ATOM     53  C   UNL     1       5.626  -0.926  14.016  1.00  0.00     0.031 C 
ATOM     54  C   UNL     1       6.155   5.795  12.617  1.00  0.00     0.029 A 
ATOM     55  C   UNL     1       6.625   5.365  13.926  1.00  0.00     0.049 A 
ATOM     56  H   UNL     1       6.655   3.424  14.688  1.00  0.00     0.167 HD
ATOM     57  C   UNL     1       6.472  -0.566  16.328  1.00  0.00     0.037 A 
ATOM     58  C   UNL     1       7.099   6.205  14.866  1.00  0.00     0.037 A 
ATOM     59  C   UNL     1       6.978   0.255  17.406  1.00  0.00     0.049 A 
ATOM     60  C   UNL     1       7.453   5.674  16.219  1.00  0.00     0.074 A 
ATOM     61  C   UNL     1       7.397  -0.145  18.666  1.00  0.00     0.029 A 
ATOM     62  N   UNL     1       7.139   1.632  17.360  1.00  0.00    -0.354 N 
ATOM     63  N   UNL     1       7.410   4.438  16.651  1.00  0.00    -0.248 NA
ATOM     64  C   UNL     1       7.890   6.654  17.222  1.00  0.00     0.031 C 
ATOM     65  C   UNL     1       7.764   0.992  19.395  1.00  0.00     0.029 A 
ATOM     66  C   UNL     1       7.628   2.097  18.573  1.00  0.00     0.049 A 
ATOM     67  H   UNL     1       6.936   2.198  16.580  1.00  0.00     0.167 HD
ATOM     68  C   UNL     1       7.816   4.490  17.978  1.00  0.00     0.074 A 
ATOM     69  C   UNL     1       8.122   5.876  18.270  1.00  0.00     0.031 C 
ATOM     70  C   UNL     1       7.920   3.476  18.871  1.00  0.00     0.037 A 
BRANCH  57  71
ATOM     71  C   UNL     1       6.321  -2.041  16.605  1.00  0.00     0.058 A 
ATOM     72  C   UNL     1       7.191  -2.999  16.061  1.00  0.00     0.135 A 
ATOM     73  C   UNL     1       5.345  -2.490  17.512  1.00  0.00     0.135 A 
ATOM     74  F   UNL     1       8.136  -2.630  15.181  1.00  0.00    -0.206 F 
ATOM     75  C   UNL     1       7.089  -4.348  16.394  1.00  0.00     0.059 A 
ATOM     76  C   UNL     1       5.240  -3.829  17.879  1.00  0.00     0.059 A 
ATOM     77  F   UNL     1       4.490  -1.618  18.070  1.00  0.00    -0.206 F 
ATOM     78  C   UNL     1       6.112  -4.753  17.306  1.00  0.00     0.060 A 
BRANCH  78  79
ATOM     79  S   UNL     1       6.002  -6.503  17.741  1.00  0.00     0.124 S 
ATOM     80  O   UNL     1       5.432  -7.068  16.522  1.00  0.00    -0.237 OA
ATOM     81  O   UNL     1       7.395  -6.847  18.009  1.00  0.00    -0.237 OA
ATOM     82  O   UNL     1       5.122  -6.511  18.906  1.00  0.00    -0.744 OA
ENDBRANCH  78  79
ENDBRANCH  57  71
BRANCH  58  83
ATOM     83  C   UNL     1       7.184   7.659  14.563  1.00  0.00     0.058 A 
ATOM     84  C   UNL     1       8.422   8.297  14.409  1.00  0.00     0.135 A 
ATOM     85  C   UNL     1       6.022   8.421  14.357  1.00  0.00     0.135 A 
ATOM     86  F   UNL     1       9.559   7.614  14.611  1.00  0.00    -0.206 F 
ATOM     87  C   UNL     1       8.506   9.638  14.050  1.00  0.00     0.059 A 
ATOM     88  C   UNL     1       6.081   9.751  13.962  1.00  0.00     0.059 A 
ATOM     89  F   UNL     1       4.813   7.850  14.481  1.00  0.00    -0.206 F 
ATOM     90  C   UNL     1       7.329  10.353  13.816  1.00  0.00     0.060 A 
BRANCH  90  91
ATOM     91  S   UNL     1       7.446  12.066  13.259  1.00  0.00     0.124 S 
ATOM     92  O   UNL     1       7.779  12.753  14.502  1.00  0.00    -0.237 OA
ATOM     93  O   UNL     1       8.511  11.994  12.264  1.00  0.00    -0.237 OA
ATOM     94  O   UNL     1       6.114  12.334  12.725  1.00  0.00    -0.744 OA
ENDBRANCH  90  91
ENDBRANCH  58  83
BRANCH  70  95
ATOM     95  C   UNL     1       8.415   3.828  20.247  1.00  0.00     0.058 A 
ATOM     96  C   UNL     1       7.610   4.517  21.167  1.00  0.00     0.135 A 
ATOM     97  C   UNL     1       9.711   3.470  20.650  1.00  0.00     0.135 A 
ATOM     98  F   UNL     1       6.367   4.894  20.828  1.00  0.00    -0.206 F 
ATOM     99  C   UNL     1       8.083   4.867  22.428  1.00  0.00     0.059 A 
ATOM    100  C   UNL     1      10.197   3.788  21.914  1.00  0.00     0.059 A 
ATOM    101  F   UNL     1      10.521   2.806  19.810  1.00  0.00    -0.206 F 
ATOM    102  C   UNL     1       9.381   4.501  22.791  1.00  0.00     0.060 A 
BRANCH 102 103
ATOM    103  S   UNL     1       9.984   4.956  24.431  1.00  0.00     0.124 S 
ATOM    104  O   UNL     1      10.229   6.385  24.268  1.00  0.00    -0.237 OA
ATOM    105  O   UNL     1       8.858   4.600  25.289  1.00  0.00    -0.237 OA
ATOM    106  O   UNL     1      11.176   4.130  24.596  1.00  0.00    -0.744 OA
ENDBRANCH 102 103
ENDBRANCH  70  95
ENDBRANCH  44  45
ENDBRANCH  37  39
ENDBRANCH  36  37
ENDBRANCH  35  36
ENDBRANCH   1  35
TORSDOF 20
