REMARK SMILES COc1cc(/C=C2/S/C(=[NH+]\C(C)=O)NC2=O)cc(Br)c1OCC(=O)OCCOC(=O)c1ccc(-c2c3nc(c(-c4c(F)cc(S(=O)(=O)[O-])cc4F)c4ccc([nH]4)c(-c4c(F)cc(S(=O)(=O)[O-])cc4F)c4nc(c(-c5c(F)cc(S(=O)(=O)[O-])cc5F)c5ccc2[nH]5)C=C4)C=C3)cc1
REMARK SMILES IDX 26 1 25 2 23 3 24 4 22 5 21 6 20 7 3 8 4 9 5 10 18 11 17 12
REMARK SMILES IDX 19 13 2 14 1 15 6 16 7 17 8 18 15 19 9 20 14 21 16 22 10 23
REMARK SMILES IDX 11 25 12 27 13 28 27 29 28 30 29 31 30 32 31 33 32 34 96 35
REMARK SMILES IDX 33 36 95 37 34 38 35 39 36 40 89 41 37 42 94 43 88 44 90 45
REMARK SMILES IDX 38 46 93 47 87 48 86 49 39 51 73 52 52 53 72 54 53 55 56 56
REMARK SMILES IDX 71 57 91 58 54 59 55 60 70 62 92 63 57 64 40 65 41 66 50 67
REMARK SMILES IDX 42 68 43 69 49 70 51 71 44 72 45 73 46 74 47 75 48 76 74 77
REMARK SMILES IDX 75 78 84 79 76 80 77 81 83 82 85 83 78 84 79 85 80 86 81 87
REMARK SMILES IDX 82 88 58 89 59 90 68 91 60 92 61 93 67 94 69 95 62 96 63 97
REMARK SMILES IDX 64 98 65 99 66 100
REMARK H PARENT 14 24 10 26 90 50 56 61
REMARK Flexibility Score: inf
ROOT
ATOM      1  C   UNL     1      -3.260  -4.872   1.490  1.00  0.00     0.274 C 
ENDROOT
BRANCH   1   2
ATOM      2  O   UNL     1      -2.716  -3.558   1.770  1.00  0.00    -0.460 OA
BRANCH   2   3
ATOM      3  C   UNL     1      -3.106  -3.008   2.947  1.00  0.00     0.344 C 
ATOM      4  O   UNL     1      -3.914  -3.539   3.709  1.00  0.00    -0.248 OA
BRANCH   3   5
ATOM      5  C   UNL     1      -2.525  -1.614   3.264  1.00  0.00     0.352 C 
BRANCH   5   6
ATOM      6  O   UNL     1      -1.458  -0.920   2.645  1.00  0.00    -0.477 OA
BRANCH   6   7
ATOM      7  C   UNL     1      -0.195  -1.440   2.745  1.00  0.00     0.176 A 
ATOM      8  C   UNL     1       0.556  -1.445   1.556  1.00  0.00     0.162 A 
ATOM      9  C   UNL     1       1.792  -2.107   1.496  1.00  0.00     0.058 A 
ATOM     10  C   UNL     1       2.324  -2.717   2.634  1.00  0.00    -0.019 A 
ATOM     11  C   UNL     1       0.457  -1.836   3.919  1.00  0.00     0.064 A 
ATOM     12  C   UNL     1       1.681  -2.526   3.860  1.00  0.00     0.028 A 
ATOM     13  Br  UNL     1      -0.065  -1.210   5.639  1.00  0.00    -0.047 Br
BRANCH   8  14
ATOM     14  O   UNL     1       0.019  -0.765   0.487  1.00  0.00    -0.493 OA
ATOM     15  C   UNL     1       0.964  -0.147  -0.382  1.00  0.00     0.278 C 
ENDBRANCH   8  14
BRANCH  10  16
ATOM     16  C   UNL     1       3.599  -3.440   2.566  1.00  0.00     0.032 C 
ATOM     17  C   UNL     1       3.775  -4.721   2.203  1.00  0.00     0.110 C 
ATOM     18  S   UNL     1       5.336  -5.490   2.211  1.00  0.00     0.007 SA
ATOM     19  C   UNL     1       2.769  -5.730   1.780  1.00  0.00     0.346 C 
ATOM     20  C   UNL     1       4.679  -7.076   1.965  1.00  0.00     0.324 C 
ATOM     21  N   UNL     1       3.334  -6.970   1.793  1.00  0.00    -0.199 N 
ATOM     22  O   UNL     1       1.633  -5.520   1.372  1.00  0.00    -0.240 OA
ATOM     23  N   UNL     1       5.183  -8.247   1.879  1.00  0.00    -0.204 N 
ATOM     24  H   UNL     1       2.779  -7.775   1.680  1.00  0.00     0.316 HD
ATOM     25  C   UNL     1       6.490  -8.655   1.891  1.00  0.00     0.304 C 
ATOM     26  H   UNL     1       4.525  -8.973   1.788  1.00  0.00     0.316 HD
ATOM     27  C   UNL     1       7.602  -7.892   2.556  1.00  0.00     0.144 C 
ATOM     28  O   UNL     1       6.778  -9.747   1.398  1.00  0.00    -0.247 OA
ENDBRANCH  10  16
ENDBRANCH   6   7
ENDBRANCH   5   6
ENDBRANCH   3   5
ENDBRANCH   2   3
ENDBRANCH   1   2
BRANCH   1  29
ATOM     29  C   UNL     1      -2.285  -6.016   1.806  1.00  0.00     0.275 C 
BRANCH  29  30
ATOM     30  O   UNL     1      -2.027  -6.157   3.218  1.00  0.00    -0.458 OA
BRANCH  30  31
ATOM     31  C   UNL     1      -1.027  -5.363   3.647  1.00  0.00     0.338 C 
ATOM     32  O   UNL     1      -0.389  -4.568   2.969  1.00  0.00    -0.246 OA
BRANCH  31  33
ATOM     33  C   UNL     1      -0.805  -5.425   5.087  1.00  0.00     0.060 A 
ATOM     34  C   UNL     1      -1.434  -4.464   5.873  1.00  0.00     0.016 A 
ATOM     35  C   UNL     1       0.231  -6.201   5.609  1.00  0.00     0.016 A 
ATOM     36  C   UNL     1      -0.978  -4.225   7.163  1.00  0.00     0.010 A 
ATOM     37  C   UNL     1       0.628  -6.014   6.939  1.00  0.00     0.010 A 
ATOM     38  C   UNL     1       0.046  -5.004   7.724  1.00  0.00    -0.014 A 
BRANCH  38  39
ATOM     39  C   UNL     1       0.463  -4.770   9.136  1.00  0.00     0.031 A 
ATOM     40  C   UNL     1       1.887  -4.423   9.490  1.00  0.00     0.074 A 
ATOM     41  C   UNL     1      -0.461  -4.872  10.113  1.00  0.00     0.049 A 
ATOM     42  N   UNL     1       2.446  -4.343  10.672  1.00  0.00    -0.248 NA
ATOM     43  C   UNL     1       2.804  -4.137   8.377  1.00  0.00     0.031 C 
ATOM     44  C   UNL     1      -1.883  -5.163   9.904  1.00  0.00     0.029 A 
ATOM     45  N   UNL     1      -0.350  -4.744  11.474  1.00  0.00    -0.354 N 
ATOM     46  C   UNL     1       3.785  -4.039  10.447  1.00  0.00     0.074 A 
ATOM     47  C   UNL     1       3.957  -3.956   9.011  1.00  0.00     0.031 C 
ATOM     48  C   UNL     1      -2.513  -5.161  11.085  1.00  0.00     0.029 A 
ATOM     49  C   UNL     1      -1.529  -4.975  12.142  1.00  0.00     0.049 A 
ATOM     50  H   UNL     1       0.492  -4.511  11.928  1.00  0.00     0.167 HD
ATOM     51  C   UNL     1       4.774  -3.851  11.357  1.00  0.00     0.037 A 
ATOM     52  C   UNL     1      -1.792  -5.085  13.457  1.00  0.00     0.037 A 
ATOM     53  C   UNL     1       4.580  -3.903  12.787  1.00  0.00     0.049 A 
ATOM     54  C   UNL     1      -0.671  -4.931  14.441  1.00  0.00     0.074 A 
ATOM     55  C   UNL     1       5.514  -3.702  13.790  1.00  0.00     0.029 A 
ATOM     56  N   UNL     1       3.373  -4.171  13.420  1.00  0.00    -0.354 N 
ATOM     57  N   UNL     1       0.595  -4.675  14.212  1.00  0.00    -0.248 NA
ATOM     58  C   UNL     1      -1.009  -5.090  15.860  1.00  0.00     0.031 C 
ATOM     59  C   UNL     1       4.887  -3.903  15.024  1.00  0.00     0.029 A 
ATOM     60  C   UNL     1       3.546  -4.167  14.796  1.00  0.00     0.049 A 
ATOM     61  H   UNL     1       2.520  -4.340  12.960  1.00  0.00     0.167 HD
ATOM     62  C   UNL     1       1.201  -4.622  15.460  1.00  0.00     0.074 A 
ATOM     63  C   UNL     1       0.160  -4.856  16.440  1.00  0.00     0.031 C 
ATOM     64  C   UNL     1       2.503  -4.400  15.765  1.00  0.00     0.037 A 
BRANCH  51  65
ATOM     65  C   UNL     1       6.173  -3.607  10.849  1.00  0.00     0.058 A 
ATOM     66  C   UNL     1       6.547  -2.403  10.233  1.00  0.00     0.135 A 
ATOM     67  C   UNL     1       7.174  -4.575  11.044  1.00  0.00     0.135 A 
ATOM     68  F   UNL     1       5.634  -1.445  10.009  1.00  0.00    -0.206 F 
ATOM     69  C   UNL     1       7.854  -2.178   9.805  1.00  0.00     0.059 A 
ATOM     70  C   UNL     1       8.493  -4.361  10.651  1.00  0.00     0.059 A 
ATOM     71  F   UNL     1       6.878  -5.745  11.633  1.00  0.00    -0.206 F 
ATOM     72  C   UNL     1       8.820  -3.164  10.018  1.00  0.00     0.060 A 
BRANCH  72  73
ATOM     73  S   UNL     1      10.507  -2.860   9.449  1.00  0.00     0.124 S 
ATOM     74  O   UNL     1      10.345  -2.952   8.001  1.00  0.00    -0.237 OA
ATOM     75  O   UNL     1      10.777  -1.524   9.972  1.00  0.00    -0.237 OA
ATOM     76  O   UNL     1      11.274  -3.938  10.063  1.00  0.00    -0.744 OA
ENDBRANCH  72  73
ENDBRANCH  51  65
BRANCH  52  77
ATOM     77  C   UNL     1      -3.174  -5.405  13.904  1.00  0.00     0.058 A 
ATOM     78  C   UNL     1      -3.947  -4.462  14.594  1.00  0.00     0.135 A 
ATOM     79  C   UNL     1      -3.760  -6.649  13.616  1.00  0.00     0.135 A 
ATOM     80  F   UNL     1      -3.429  -3.263  14.898  1.00  0.00    -0.206 F 
ATOM     81  C   UNL     1      -5.250  -4.743  14.992  1.00  0.00     0.059 A 
ATOM     82  C   UNL     1      -5.071  -6.941  13.973  1.00  0.00     0.059 A 
ATOM     83  F   UNL     1      -3.067  -7.580  12.942  1.00  0.00    -0.206 F 
ATOM     84  C   UNL     1      -5.804  -5.984  14.672  1.00  0.00     0.060 A 
BRANCH  84  85
ATOM     85  S   UNL     1      -7.513  -6.317  15.147  1.00  0.00     0.124 S 
ATOM     86  O   UNL     1      -7.386  -6.493  16.589  1.00  0.00    -0.237 OA
ATOM     87  O   UNL     1      -8.196  -5.104  14.708  1.00  0.00    -0.237 OA
ATOM     88  O   UNL     1      -7.843  -7.522  14.391  1.00  0.00    -0.744 OA
ENDBRANCH  84  85
ENDBRANCH  52  77
BRANCH  64  89
ATOM     89  C   UNL     1       2.869  -4.359  17.224  1.00  0.00     0.058 A 
ATOM     90  C   UNL     1       2.889  -5.517  18.016  1.00  0.00     0.135 A 
ATOM     91  C   UNL     1       3.233  -3.145  17.830  1.00  0.00     0.135 A 
ATOM     92  F   UNL     1       2.539  -6.702  17.490  1.00  0.00    -0.206 F 
ATOM     93  C   UNL     1       3.230  -5.470  19.364  1.00  0.00     0.059 A 
ATOM     94  C   UNL     1       3.607  -3.079  19.168  1.00  0.00     0.059 A 
ATOM     95  F   UNL     1       3.238  -2.007  17.116  1.00  0.00    -0.206 F 
ATOM     96  C   UNL     1       3.590  -4.245  19.930  1.00  0.00     0.060 A 
BRANCH  96  97
ATOM     97  S   UNL     1       4.058  -4.203  21.673  1.00  0.00     0.124 S 
ATOM     98  O   UNL     1       2.768  -4.390  22.329  1.00  0.00    -0.237 OA
ATOM     99  O   UNL     1       4.989  -5.323  21.773  1.00  0.00    -0.237 OA
ATOM    100  O   UNL     1       4.658  -2.882  21.833  1.00  0.00    -0.744 OA
ENDBRANCH  96  97
ENDBRANCH  64  89
ENDBRANCH  38  39
ENDBRANCH  31  33
ENDBRANCH  30  31
ENDBRANCH  29  30
ENDBRANCH   1  29
TORSDOF 18
