REMARK SMILES O=C(OCCOC(=O)c1ccc(-c2c3nc(c(-c4c(F)cc(S(=O)(=O)[O-])cc4F)c4ccc([nH]4)c(-c4c(F)cc(S(=O)(=O)[O-])cc4F)c4nc(c(-c5c(F)cc(S(=O)(=O)[O-])cc5F)c5ccc2[nH]5)C=C4)C=C3)cc1)C1=Cc2cc(C(F)(F)F)ccc2O[C@@H]1C(F)(F)F
REMARK SMILES IDX 5 1 4 2 3 3 2 4 1 5 75 6 76 7 88 8 77 9 87 10 78 11 86 12
REMARK SMILES IDX 79 13 85 14 84 15 89 16 90 17 91 18 92 19 80 20 81 21 82 22
REMARK SMILES IDX 83 23 6 24 7 25 8 26 9 27 10 28 74 29 11 30 73 31 12 32
REMARK SMILES IDX 13 33 14 34 67 35 15 36 72 37 66 38 68 39 16 40 71 41 65 42
REMARK SMILES IDX 64 43 17 45 51 46 30 47 50 48 31 49 34 50 49 51 69 52 32 53
REMARK SMILES IDX 33 54 48 56 70 57 35 58 18 59 19 60 28 61 20 62 21 63 27 64
REMARK SMILES IDX 29 65 22 66 23 67 24 68 25 69 26 70 52 71 53 72 62 73 54 74
REMARK SMILES IDX 55 75 61 76 63 77 56 78 57 79 58 80 59 81 60 82 36 83 37 84
REMARK SMILES IDX 46 85 38 86 39 87 45 88 47 89 40 90 41 91 42 92 43 93 44 94
REMARK H PARENT 68 44 34 55
REMARK Flexibility Score: inf
ROOT
ATOM      1  C   UNL     1       4.739   0.312  -0.780  1.00  0.00     0.275 C 
ENDROOT
BRANCH   1   2
ATOM      2  C   UNL     1       3.824  -0.057   1.157  1.00  0.00     0.275 C 
BRANCH   2   3
ATOM      3  O   UNL     1       2.793   0.838   1.888  1.00  0.00    -0.459 OA
BRANCH   3   4
ATOM      4  C   UNL     1       2.979   2.141   1.644  1.00  0.00     0.338 C 
ATOM      5  O   UNL     1       2.313   3.092   1.962  1.00  0.00    -0.246 OA
BRANCH   4   6
ATOM      6  C   UNL     1       3.934   1.936   0.585  1.00  0.00     0.087 C 
ATOM      7  C   UNL     1       5.275   1.704   1.028  1.00  0.00     0.027 C 
ATOM      8  C   UNL     1       2.854   0.728  -0.431  1.00  0.00     0.316 C 
ATOM      9  C   UNL     1       6.057   0.135   0.939  1.00  0.00     0.018 A 
ATOM     10  O   UNL     1       3.629  -1.069  -0.405  1.00  0.00    -0.475 OA
ATOM     11  C   UNL     1       7.338   0.082   1.385  1.00  0.00     0.025 A 
ATOM     12  C   UNL     1       5.268  -1.304   0.406  1.00  0.00     0.128 A 
ATOM     13  C   UNL     1       7.923  -1.193   1.388  1.00  0.00     0.056 A 
ATOM     14  C   UNL     1       5.881  -2.524   0.446  1.00  0.00     0.048 A 
ATOM     15  C   UNL     1       7.217  -2.425   0.962  1.00  0.00     0.017 A 
BRANCH   8  16
ATOM     16  C   UNL     1       2.814   2.018  -1.482  1.00  0.00     0.430 C 
ATOM     17  F   UNL     1       2.482   1.834  -2.729  1.00  0.00    -0.167 F 
ATOM     18  F   UNL     1       1.901   2.906  -0.997  1.00  0.00    -0.167 F 
ATOM     19  F   UNL     1       3.973   2.730  -1.589  1.00  0.00    -0.167 F 
ENDBRANCH   8  16
BRANCH  13  20
ATOM     20  C   UNL     1       9.389  -1.191   1.803  1.00  0.00     0.416 C 
ATOM     21  F   UNL     1      10.201  -0.775   0.792  1.00  0.00    -0.166 F 
ATOM     22  F   UNL     1       9.632  -0.332   2.837  1.00  0.00    -0.166 F 
ATOM     23  F   UNL     1       9.858  -2.399   2.205  1.00  0.00    -0.166 F 
ENDBRANCH  13  20
ENDBRANCH   4   6
ENDBRANCH   3   4
ENDBRANCH   2   3
ENDBRANCH   1   2
BRANCH   1  24
ATOM     24  O   UNL     1       3.887  -0.001  -2.311  1.00  0.00    -0.458 OA
BRANCH  24  25
ATOM     25  C   UNL     1       2.944  -0.891  -2.849  1.00  0.00     0.338 C 
ATOM     26  O   UNL     1       2.555  -1.959  -2.405  1.00  0.00    -0.246 OA
BRANCH  25  27
ATOM     27  C   UNL     1       2.145  -0.171  -3.911  1.00  0.00     0.060 A 
ATOM     28  C   UNL     1       0.860   0.335  -3.565  1.00  0.00     0.016 A 
ATOM     29  C   UNL     1       2.846   0.405  -4.970  1.00  0.00     0.016 A 
ATOM     30  C   UNL     1       0.435   1.586  -4.088  1.00  0.00     0.010 A 
ATOM     31  C   UNL     1       2.410   1.632  -5.491  1.00  0.00     0.010 A 
ATOM     32  C   UNL     1       1.266   2.291  -4.983  1.00  0.00    -0.014 A 
BRANCH  32  33
ATOM     33  C   UNL     1       0.924   3.638  -5.545  1.00  0.00     0.031 A 
ATOM     34  C   UNL     1       0.273   3.606  -6.893  1.00  0.00     0.074 A 
ATOM     35  C   UNL     1       1.279   4.833  -5.007  1.00  0.00     0.049 A 
ATOM     36  N   UNL     1       0.060   4.572  -7.741  1.00  0.00    -0.248 NA
ATOM     37  C   UNL     1      -0.148   2.274  -7.361  1.00  0.00     0.031 C 
ATOM     38  C   UNL     1       1.923   5.044  -3.711  1.00  0.00     0.029 A 
ATOM     39  N   UNL     1       1.172   6.120  -5.511  1.00  0.00    -0.354 N 
ATOM     40  C   UNL     1      -0.485   3.957  -8.857  1.00  0.00     0.074 A 
ATOM     41  C   UNL     1      -0.533   2.538  -8.596  1.00  0.00     0.031 C 
ATOM     42  C   UNL     1       2.165   6.359  -3.529  1.00  0.00     0.029 A 
ATOM     43  C   UNL     1       1.730   7.103  -4.709  1.00  0.00     0.049 A 
ATOM     44  H   UNL     1       0.734   6.320  -6.370  1.00  0.00     0.167 HD
ATOM     45  C   UNL     1      -0.922   4.522 -10.001  1.00  0.00     0.037 A 
ATOM     46  C   UNL     1       1.891   8.435  -4.913  1.00  0.00     0.037 A 
ATOM     47  C   UNL     1      -0.900   5.930 -10.263  1.00  0.00     0.049 A 
ATOM     48  C   UNL     1       1.415   9.038  -6.225  1.00  0.00     0.074 A 
ATOM     49  C   UNL     1      -1.378   6.596 -11.375  1.00  0.00     0.029 A 
ATOM     50  N   UNL     1      -0.365   6.883  -9.413  1.00  0.00    -0.354 N 
ATOM     51  N   UNL     1       0.815   8.451  -7.235  1.00  0.00    -0.248 NA
ATOM     52  C   UNL     1       1.645  10.480  -6.433  1.00  0.00     0.031 C 
ATOM     53  C   UNL     1      -1.081   7.952 -11.224  1.00  0.00     0.029 A 
ATOM     54  C   UNL     1      -0.471   8.134  -9.992  1.00  0.00     0.049 A 
ATOM     55  H   UNL     1       0.031   6.699  -8.531  1.00  0.00     0.167 HD
ATOM     56  C   UNL     1       0.572   9.453  -8.174  1.00  0.00     0.074 A 
ATOM     57  C   UNL     1       1.069  10.687  -7.609  1.00  0.00     0.031 C 
ATOM     58  C   UNL     1      -0.002   9.359  -9.398  1.00  0.00     0.037 A 
BRANCH  45  59
ATOM     59  C   UNL     1      -1.449   3.599 -11.052  1.00  0.00     0.058 A 
ATOM     60  C   UNL     1      -2.674   2.933 -10.895  1.00  0.00     0.135 A 
ATOM     61  C   UNL     1      -0.719   3.382 -12.229  1.00  0.00     0.135 A 
ATOM     62  F   UNL     1      -3.384   3.076  -9.764  1.00  0.00    -0.206 F 
ATOM     63  C   UNL     1      -3.155   2.071 -11.870  1.00  0.00     0.059 A 
ATOM     64  C   UNL     1      -1.197   2.548 -13.232  1.00  0.00     0.059 A 
ATOM     65  F   UNL     1       0.471   3.977 -12.408  1.00  0.00    -0.206 F 
ATOM     66  C   UNL     1      -2.413   1.894 -13.039  1.00  0.00     0.060 A 
BRANCH  66  67
ATOM     67  S   UNL     1      -3.083   0.816 -14.318  1.00  0.00     0.124 S 
ATOM     68  O   UNL     1      -2.922  -0.499 -13.705  1.00  0.00    -0.237 OA
ATOM     69  O   UNL     1      -4.457   1.295 -14.436  1.00  0.00    -0.237 OA
ATOM     70  O   UNL     1      -2.227   1.081 -15.470  1.00  0.00    -0.744 OA
ENDBRANCH  66  67
ENDBRANCH  45  59
BRANCH  46  71
ATOM     71  C   UNL     1       2.559   9.333  -3.907  1.00  0.00     0.058 A 
ATOM     72  C   UNL     1       1.865  10.400  -3.304  1.00  0.00     0.135 A 
ATOM     73  C   UNL     1       3.930   9.230  -3.622  1.00  0.00     0.135 A 
ATOM     74  F   UNL     1       0.558  10.574  -3.556  1.00  0.00    -0.206 F 
ATOM     75  C   UNL     1       2.507  11.347  -2.503  1.00  0.00     0.059 A 
ATOM     76  C   UNL     1       4.589  10.148  -2.798  1.00  0.00     0.059 A 
ATOM     77  F   UNL     1       4.658   8.242  -4.165  1.00  0.00    -0.206 F 
ATOM     78  C   UNL     1       3.873  11.217  -2.261  1.00  0.00     0.060 A 
BRANCH  78  79
ATOM     79  S   UNL     1       4.702  12.456  -1.233  1.00  0.00     0.124 S 
ATOM     80  O   UNL     1       4.718  13.615  -2.119  1.00  0.00    -0.237 OA
ATOM     81  O   UNL     1       3.809  12.548  -0.081  1.00  0.00    -0.237 OA
ATOM     82  O   UNL     1       6.003  11.853  -0.961  1.00  0.00    -0.744 OA
ENDBRANCH  78  79
ENDBRANCH  46  71
BRANCH  58  83
ATOM     83  C   UNL     1      -0.170  10.615 -10.211  1.00  0.00     0.058 A 
ATOM     84  C   UNL     1       0.920  11.238 -10.836  1.00  0.00     0.135 A 
ATOM     85  C   UNL     1      -1.455  11.120 -10.474  1.00  0.00     0.135 A 
ATOM     86  F   UNL     1       2.168  10.796 -10.617  1.00  0.00    -0.206 F 
ATOM     87  C   UNL     1       0.743  12.319 -11.693  1.00  0.00     0.059 A 
ATOM     88  C   UNL     1      -1.657  12.180 -11.352  1.00  0.00     0.059 A 
ATOM     89  F   UNL     1      -2.534  10.550  -9.914  1.00  0.00    -0.206 F 
ATOM     90  C   UNL     1      -0.551  12.775 -11.956  1.00  0.00     0.060 A 
BRANCH  90  91
ATOM     91  S   UNL     1      -0.769  14.124 -13.134  1.00  0.00     0.124 S 
ATOM     92  O   UNL     1      -0.254  15.262 -12.380  1.00  0.00    -0.237 OA
ATOM     93  O   UNL     1       0.048  13.688 -14.262  1.00  0.00    -0.237 OA
ATOM     94  O   UNL     1      -2.209  14.134 -13.379  1.00  0.00    -0.744 OA
ENDBRANCH  90  91
ENDBRANCH  58  83
ENDBRANCH  32  33
ENDBRANCH  25  27
ENDBRANCH  24  25
ENDBRANCH   1  24
TORSDOF 16
