REMARK SMILES CCCCCCNC(=O)Oc1cccc(-c2ccc([C@@H](C)C(=O)OCCOC(=O)c3ccc(-c4c5nc(c(-c6c(F)cc(S(=O)(=O)[O-])cc6F)c6ccc([nH]6)c(-c6c(F)cc(S(=O)(=O)[O-])cc6F)c6nc(c(-c7c(F)cc(S(=O)(=O)[O-])cc7F)c7ccc4[nH]7)C=C6)C=C5)cc3)cc2[N+](=O)[O-])c1
REMARK SMILES IDX 20 1 21 2 19 3 16 4 17 5 97 6 18 7 96 8 15 9 11 10 12 11
REMARK SMILES IDX 101 12 13 13 14 14 10 15 8 16 7 17 9 19 6 20 5 21 4 22 3 23
REMARK SMILES IDX 2 24 1 25 98 26 99 27 100 28 22 29 23 30 24 31 25 32 26 33
REMARK SMILES IDX 27 34 28 35 29 36 30 37 31 38 95 39 32 40 94 41 33 42 34 43
REMARK SMILES IDX 35 44 88 45 36 46 93 47 87 48 89 49 37 50 92 51 86 52 85 53
REMARK SMILES IDX 38 55 72 56 51 57 71 58 52 59 55 60 70 61 90 62 53 63 54 64
REMARK SMILES IDX 69 66 91 67 56 68 39 69 40 70 49 71 41 72 42 73 48 74 50 75
REMARK SMILES IDX 43 76 44 77 45 78 46 79 47 80 73 81 74 82 83 83 75 84 76 85
REMARK SMILES IDX 82 86 84 87 77 88 78 89 79 90 80 91 81 92 57 93 58 94 67 95
REMARK SMILES IDX 59 96 60 97 66 98 68 99 61 100 62 101 63 102 64 103 65 104
REMARK H PARENT 7 18 89 54 55 65
REMARK Flexibility Score: inf
ROOT
ATOM      1  C   UNL     1      -5.176  13.198   4.055  1.00  0.00     0.126 C 
ATOM      2  C   UNL     1      -6.504  13.807   4.499  1.00  0.00     0.025 C 
ENDROOT
BRANCH   1   3
ATOM      3  C   UNL     1      -5.132  11.690   4.264  1.00  0.00    -0.027 A 
ATOM      4  C   UNL     1      -5.088   8.843   4.611  1.00  0.00     0.060 A 
ATOM      5  C   UNL     1      -5.253   9.720   5.699  1.00  0.00     0.016 A 
ATOM      6  C   UNL     1      -4.935   9.439   3.346  1.00  0.00     0.277 A 
ATOM      7  C   UNL     1      -5.287  11.111   5.530  1.00  0.00     0.006 A 
ATOM      8  C   UNL     1      -4.950  10.835   3.167  1.00  0.00     0.091 A 
BRANCH   4   9
ATOM      9  C   UNL     1      -5.126   7.388   4.855  1.00  0.00    -0.008 A 
ATOM     10  C   UNL     1      -4.173   5.165   4.701  1.00  0.00     0.133 A 
ATOM     11  C   UNL     1      -5.310   4.605   5.279  1.00  0.00     0.047 A 
ATOM     12  C   UNL     1      -4.067   6.542   4.489  1.00  0.00     0.056 A 
ATOM     13  C   UNL     1      -6.357   5.434   5.666  1.00  0.00     0.004 A 
ATOM     14  C   UNL     1      -6.265   6.811   5.450  1.00  0.00     0.009 A 
BRANCH  10  15
ATOM     15  O   UNL     1      -3.220   4.256   4.205  1.00  0.00    -0.410 OA
BRANCH  15  16
ATOM     16  C   UNL     1      -1.872   4.456   4.461  1.00  0.00     0.412 C 
ATOM     17  N   UNL     1      -1.070   3.556   3.813  1.00  0.00    -0.321 N 
ATOM     18  H   UNL     1      -0.100   3.646   3.956  1.00  0.00     0.167 HD
ATOM     19  O   UNL     1      -1.402   5.312   5.200  1.00  0.00    -0.224 OA
BRANCH  17  20
ATOM     20  C   UNL     1      -1.501   2.482   2.938  1.00  0.00     0.119 C 
BRANCH  20  21
ATOM     21  C   UNL     1      -0.896   2.588   1.539  1.00  0.00     0.021 C 
BRANCH  21  22
ATOM     22  C   UNL     1       0.631   2.459   1.482  1.00  0.00     0.002 C 
BRANCH  22  23
ATOM     23  C   UNL     1       1.208   1.158   2.052  1.00  0.00    -0.000 C 
BRANCH  23  24
ATOM     24  C   UNL     1       0.714  -0.130   1.388  1.00  0.00    -0.003 C 
ATOM     25  C   UNL     1       1.090  -0.234  -0.082  1.00  0.00     0.004 C 
ENDBRANCH  23  24
ENDBRANCH  22  23
ENDBRANCH  21  22
ENDBRANCH  20  21
ENDBRANCH  17  20
ENDBRANCH  15  16
ENDBRANCH  10  15
ENDBRANCH   4   9
BRANCH   6  26
ATOM     26  N   UNL     1      -4.829   8.629   2.141  1.00  0.00     0.063 N 
ATOM     27  O   UNL     1      -3.866   8.854   1.395  1.00  0.00    -0.258 OA
ATOM     28  O   UNL     1      -5.737   7.817   1.916  1.00  0.00    -0.258 OA
ENDBRANCH   6  26
ENDBRANCH   1   3
BRANCH   1  29
ATOM     29  C   UNL     1      -4.016  13.995   4.643  1.00  0.00     0.313 C 
ATOM     30  O   UNL     1      -3.654  15.065   4.164  1.00  0.00    -0.252 OA
BRANCH  29  31
ATOM     31  O   UNL     1      -3.471  13.432   5.752  1.00  0.00    -0.462 OA
BRANCH  31  32
ATOM     32  C   UNL     1      -2.309  14.079   6.305  1.00  0.00     0.274 C 
BRANCH  32  33
ATOM     33  C   UNL     1      -1.027  13.338   5.919  1.00  0.00     0.275 C 
BRANCH  33  34
ATOM     34  O   UNL     1      -0.735  13.484   4.518  1.00  0.00    -0.458 OA
BRANCH  34  35
ATOM     35  C   UNL     1      -1.208  12.493   3.727  1.00  0.00     0.338 C 
ATOM     36  O   UNL     1      -1.816  11.496   4.075  1.00  0.00    -0.246 OA
BRANCH  35  37
ATOM     37  C   UNL     1      -1.000  12.853   2.317  1.00  0.00     0.060 A 
ATOM     38  C   UNL     1      -2.123  13.127   1.534  1.00  0.00     0.016 A 
ATOM     39  C   UNL     1       0.276  12.845   1.754  1.00  0.00     0.016 A 
ATOM     40  C   UNL     1      -1.981  13.381   0.173  1.00  0.00     0.010 A 
ATOM     41  C   UNL     1       0.419  13.111   0.389  1.00  0.00     0.010 A 
ATOM     42  C   UNL     1      -0.709  13.369  -0.410  1.00  0.00    -0.014 A 
BRANCH  42  43
ATOM     43  C   UNL     1      -0.563  13.586  -1.869  1.00  0.00     0.031 A 
ATOM     44  C   UNL     1      -0.219  12.430  -2.764  1.00  0.00     0.074 A 
ATOM     45  C   UNL     1      -0.748  14.816  -2.384  1.00  0.00     0.049 A 
ATOM     46  N   UNL     1       0.068  12.430  -4.039  1.00  0.00    -0.248 NA
ATOM     47  C   UNL     1      -0.190  11.098  -2.137  1.00  0.00     0.031 C 
ATOM     48  C   UNL     1      -1.130  16.003  -1.617  1.00  0.00     0.029 A 
ATOM     49  N   UNL     1      -0.629  15.273  -3.672  1.00  0.00    -0.354 N 
ATOM     50  C   UNL     1       0.337  11.106  -4.366  1.00  0.00     0.074 A 
ATOM     51  C   UNL     1       0.190  10.332  -3.151  1.00  0.00     0.031 C 
ATOM     52  C   UNL     1      -1.212  17.054  -2.450  1.00  0.00     0.029 A 
ATOM     53  C   UNL     1      -0.839  16.626  -3.795  1.00  0.00     0.049 A 
ATOM     54  H   UNL     1      -0.415  14.688  -4.434  1.00  0.00     0.167 HD
ATOM     55  C   UNL     1       0.674  10.588  -5.571  1.00  0.00     0.037 A 
ATOM     56  C   UNL     1      -0.711  17.434  -4.866  1.00  0.00     0.037 A 
ATOM     57  C   UNL     1       0.796  11.365  -6.777  1.00  0.00     0.049 A 
ATOM     58  C   UNL     1      -0.288  16.843  -6.183  1.00  0.00     0.074 A 
ATOM     59  C   UNL     1       1.123  10.934  -8.051  1.00  0.00     0.029 A 
ATOM     60  N   UNL     1       0.593  12.736  -6.859  1.00  0.00    -0.354 N 
ATOM     61  N   UNL     1      -0.018  15.593  -6.475  1.00  0.00    -0.248 NA
ATOM     62  C   UNL     1      -0.144  17.771  -7.313  1.00  0.00     0.031 C 
ATOM     63  C   UNL     1       1.150  12.049  -8.896  1.00  0.00     0.029 A 
ATOM     64  C   UNL     1       0.802  13.169  -8.158  1.00  0.00     0.049 A 
ATOM     65  H   UNL     1       0.337  13.315  -6.105  1.00  0.00     0.167 HD
ATOM     66  C   UNL     1       0.310  15.581  -7.826  1.00  0.00     0.074 A 
ATOM     67  C   UNL     1       0.196  16.947  -8.296  1.00  0.00     0.031 C 
ATOM     68  C   UNL     1       0.675  14.534  -8.606  1.00  0.00     0.037 A 
BRANCH  55  69
ATOM     69  C   UNL     1       0.965   9.115  -5.636  1.00  0.00     0.058 A 
ATOM     70  C   UNL     1      -0.055   8.154  -5.566  1.00  0.00     0.135 A 
ATOM     71  C   UNL     1       2.284   8.659  -5.797  1.00  0.00     0.135 A 
ATOM     72  F   UNL     1      -1.331   8.534  -5.398  1.00  0.00    -0.206 F 
ATOM     73  C   UNL     1       0.224   6.791  -5.625  1.00  0.00     0.059 A 
ATOM     74  C   UNL     1       2.584   7.303  -5.881  1.00  0.00     0.059 A 
ATOM     75  F   UNL     1       3.298   9.536  -5.870  1.00  0.00    -0.206 F 
ATOM     76  C   UNL     1       1.548   6.375  -5.778  1.00  0.00     0.060 A 
BRANCH  76  77
ATOM     77  S   UNL     1       1.899   4.605  -5.852  1.00  0.00     0.124 S 
ATOM     78  O   UNL     1       1.756   4.221  -4.451  1.00  0.00    -0.237 OA
ATOM     79  O   UNL     1       0.860   4.114  -6.751  1.00  0.00    -0.237 OA
ATOM     80  O   UNL     1       3.258   4.550  -6.381  1.00  0.00    -0.744 OA
ENDBRANCH  76  77
ENDBRANCH  55  69
BRANCH  56  81
ATOM     81  C   UNL     1      -0.962  18.892  -4.725  1.00  0.00     0.058 A 
ATOM     82  C   UNL     1      -2.092  19.491  -5.299  1.00  0.00     0.135 A 
ATOM     83  C   UNL     1      -0.085  19.712  -3.997  1.00  0.00     0.135 A 
ATOM     84  F   UNL     1      -2.954  18.751  -6.013  1.00  0.00    -0.206 F 
ATOM     85  C   UNL     1      -2.341  20.854  -5.164  1.00  0.00     0.059 A 
ATOM     86  C   UNL     1      -0.325  21.072  -3.828  1.00  0.00     0.059 A 
ATOM     87  F   UNL     1       1.006  19.184  -3.419  1.00  0.00    -0.206 F 
ATOM     88  C   UNL     1      -1.452  21.635  -4.423  1.00  0.00     0.060 A 
BRANCH  88  89
ATOM     89  S   UNL     1      -1.812  23.392  -4.204  1.00  0.00     0.124 S 
ATOM     90  O   UNL     1      -1.441  23.932  -5.507  1.00  0.00    -0.237 OA
ATOM     91  O   UNL     1      -3.241  23.379  -3.902  1.00  0.00    -0.237 OA
ATOM     92  O   UNL     1      -0.949  23.774  -3.091  1.00  0.00    -0.744 OA
ENDBRANCH  88  89
ENDBRANCH  56  81
BRANCH  68  93
ATOM     93  C   UNL     1       0.949  14.817 -10.056  1.00  0.00     0.058 A 
ATOM     94  C   UNL     1       2.137  15.436 -10.472  1.00  0.00     0.135 A 
ATOM     95  C   UNL     1       0.036  14.411 -11.043  1.00  0.00     0.135 A 
ATOM     96  F   UNL     1       3.037  15.849  -9.566  1.00  0.00    -0.206 F 
ATOM     97  C   UNL     1       2.407  15.655 -11.819  1.00  0.00     0.059 A 
ATOM     98  C   UNL     1       0.295  14.601 -12.397  1.00  0.00     0.059 A 
ATOM     99  F   UNL     1      -1.111  13.808 -10.696  1.00  0.00    -0.206 F 
ATOM    100  C   UNL     1       1.480  15.232 -12.774  1.00  0.00     0.060 A 
BRANCH 100 101
ATOM    101  S   UNL     1       1.860  15.482 -14.522  1.00  0.00     0.124 S 
ATOM    102  O   UNL     1       1.598  16.908 -14.679  1.00  0.00    -0.237 OA
ATOM    103  O   UNL     1       3.263  15.083 -14.599  1.00  0.00    -0.237 OA
ATOM    104  O   UNL     1       0.925  14.591 -15.203  1.00  0.00    -0.744 OA
ENDBRANCH 100 101
ENDBRANCH  68  93
ENDBRANCH  42  43
ENDBRANCH  35  37
ENDBRANCH  34  35
ENDBRANCH  33  34
ENDBRANCH  32  33
ENDBRANCH  31  32
ENDBRANCH  29  31
ENDBRANCH   1  29
TORSDOF 24
