REMARK SMILES Cc1[nH]c(=O)sc1S(=O)(=O)N[C@@H]1CCCCC[C@@H]1C(=O)OCCOC(=O)c1ccc(-c2c3nc(c(-c4c(F)cc(S(=O)(=O)[O-])cc4F)c4ccc([nH]4)c(-c4c(F)cc(S(=O)(=O)[O-])cc4F)c4nc(c(-c5c(F)cc(S(=O)(=O)[O-])cc5F)c5ccc2[nH]5)C=C4)C=C3)cc1
REMARK SMILES IDX 22 1 21 2 19 3 20 4 18 5 12 6 11 7 8 9 9 10 10 11 7 12 1 13
REMARK SMILES IDX 2 14 3 15 4 16 6 18 5 19 13 20 14 21 17 23 16 24 15 25 23 27
REMARK SMILES IDX 24 28 25 29 26 30 27 31 28 32 92 33 29 34 91 35 30 36 31 37
REMARK SMILES IDX 32 38 85 39 33 40 90 41 84 42 86 43 34 44 89 45 83 46 82 47
REMARK SMILES IDX 35 49 69 50 48 51 68 52 49 53 52 54 67 55 87 56 50 57 51 58
REMARK SMILES IDX 66 60 88 61 53 62 36 63 37 64 46 65 38 66 39 67 45 68 47 69
REMARK SMILES IDX 40 70 41 71 42 72 43 73 44 74 70 75 71 76 80 77 72 78 73 79
REMARK SMILES IDX 79 80 81 81 74 82 75 83 76 84 77 85 78 86 54 87 55 88 64 89
REMARK SMILES IDX 56 90 57 91 63 92 65 93 58 94 59 95 60 96 61 97 62 98
REMARK H PARENT 11 8 3 17 86 48 52 59
REMARK Flexibility Score: 100.00
ROOT
ATOM      1  C   UNL     1       4.483   5.615   0.983  1.00  0.00     0.274 C 
ENDROOT
BRANCH   1   2
ATOM      2  O   UNL     1       4.916   5.304   2.282  1.00  0.00    -0.462 OA
BRANCH   2   3
ATOM      3  C   UNL     1       3.893   4.668   2.901  1.00  0.00     0.310 C 
ATOM      4  O   UNL     1       3.011   5.190   3.557  1.00  0.00    -0.252 OA
BRANCH   3   5
ATOM      5  C   UNL     1       4.050   3.246   2.590  1.00  0.00     0.117 C 
BRANCH   5   6
ATOM      6  C   UNL     1       2.931   2.725   1.683  1.00  0.00     0.084 C 
BRANCH   6   7
ATOM      7  N   UNL     1       2.134   3.821   0.340  1.00  0.00    -0.206 NA
ATOM      8  H   UNL     1       1.137   3.720   0.526  1.00  0.00     0.141 HD
BRANCH   7   9
ATOM      9  S   UNL     1       2.221   3.877  -1.907  1.00  0.00     0.252 S 
ATOM     10  O   UNL     1       3.506   4.349  -2.407  1.00  0.00    -0.206 OA
ATOM     11  O   UNL     1       1.140   4.818  -2.181  1.00  0.00    -0.206 OA
BRANCH   9  12
ATOM     12  C   UNL     1       2.036   2.243  -3.093  1.00  0.00     0.158 A 
ATOM     13  C   UNL     1       2.162  -0.476  -2.239  1.00  0.00     0.067 C 
ATOM     14  C   UNL     1       2.057   0.842  -3.072  1.00  0.00     0.046 A 
ATOM     15  N   UNL     1       1.784   0.328  -4.333  1.00  0.00    -0.315 N 
ATOM     16  C   UNL     1       1.654   1.147  -5.386  1.00  0.00     0.305 A 
ATOM     17  H   UNL     1       1.685  -0.644  -4.455  1.00  0.00     0.170 HD
ATOM     18  S   UNL     1       1.988   2.755  -4.846  1.00  0.00    -0.061 S 
ATOM     19  O   UNL     1       1.389   0.779  -6.519  1.00  0.00    -0.257 OA
ENDBRANCH   9  12
ENDBRANCH   7   9
ENDBRANCH   6   7
BRANCH   6  20
ATOM     20  C   UNL     1       2.180   1.467   2.288  1.00  0.00     0.021 C 
BRANCH  20  21
ATOM     21  C   UNL     1       3.099   0.155   2.308  1.00  0.00     0.002 CG0
ATOM     22  G   UNL     1       4.163  -0.018   3.392  1.00  0.00     0.000 G0
ENDBRANCH  20  21
ENDBRANCH   6  20
ENDBRANCH   5   6
BRANCH   5  23
ATOM     23  C   UNL     1       4.450   2.465   3.857  1.00  0.00     0.017 C 
BRANCH  23  24
ATOM     24  C   UNL     1       5.141   1.136   3.547  1.00  0.00     0.001 C 
BRANCH  24  25
ATOM     25  C   UNL     1       4.163  -0.018   3.392  1.00  0.00     0.000 CG0
ATOM     26  G   UNL     1       3.099   0.155   2.308  1.00  0.00     0.000 G0
ENDBRANCH  24  25
ENDBRANCH  23  24
ENDBRANCH   5  23
ENDBRANCH   3   5
ENDBRANCH   2   3
ENDBRANCH   1   2
BRANCH   1  27
ATOM     27  C   UNL     1       4.443   4.582  -0.210  1.00  0.00     0.275 C 
BRANCH  27  28
ATOM     28  O   UNL     1       3.941   2.945  -0.448  1.00  0.00    -0.458 OA
BRANCH  28  29
ATOM     29  C   UNL     1       2.728   1.851  -0.517  1.00  0.00     0.338 C 
ATOM     30  O   UNL     1       3.289   0.758  -0.521  1.00  0.00    -0.246 OA
BRANCH  29  31
ATOM     31  C   UNL     1       0.850   1.934  -0.504  1.00  0.00     0.060 A 
ATOM     32  C   UNL     1       0.108   0.849  -0.921  1.00  0.00     0.016 A 
ATOM     33  C   UNL     1      -0.064   3.040  -0.602  1.00  0.00     0.016 A 
ATOM     34  C   UNL     1      -0.739   0.987  -2.065  1.00  0.00     0.010 A 
ATOM     35  C   UNL     1      -0.955   3.233  -1.719  1.00  0.00     0.010 A 
ATOM     36  C   UNL     1      -1.071   2.235  -2.645  1.00  0.00    -0.014 A 
BRANCH  36  37
ATOM     37  C   UNL     1      -1.771   2.283  -3.985  1.00  0.00     0.031 A 
ATOM     38  C   UNL     1      -2.863   1.292  -3.920  1.00  0.00     0.074 A 
ATOM     39  C   UNL     1      -1.686   2.974  -5.166  1.00  0.00     0.049 A 
ATOM     40  N   UNL     1      -2.842   0.094  -4.403  1.00  0.00    -0.248 NA
ATOM     41  C   UNL     1      -3.899   1.551  -2.908  1.00  0.00     0.031 C 
ATOM     42  C   UNL     1      -0.930   4.183  -5.512  1.00  0.00     0.029 A 
ATOM     43  N   UNL     1      -2.310   2.693  -6.387  1.00  0.00    -0.354 N 
ATOM     44  C   UNL     1      -3.981  -0.495  -3.893  1.00  0.00     0.074 A 
ATOM     45  C   UNL     1      -4.441   0.340  -2.808  1.00  0.00     0.031 C 
ATOM     46  C   UNL     1      -1.244   4.600  -6.766  1.00  0.00     0.029 A 
ATOM     47  C   UNL     1      -2.202   3.692  -7.373  1.00  0.00     0.049 A 
ATOM     48  H   UNL     1      -2.793   1.851  -6.547  1.00  0.00     0.167 HD
ATOM     49  C   UNL     1      -4.642  -1.463  -4.572  1.00  0.00     0.037 A 
ATOM     50  C   UNL     1      -2.875   3.813  -8.565  1.00  0.00     0.037 A 
ATOM     51  C   UNL     1      -3.811  -2.135  -5.531  1.00  0.00     0.049 A 
ATOM     52  C   UNL     1      -3.401   2.476  -8.939  1.00  0.00     0.074 A 
ATOM     53  C   UNL     1      -2.612  -2.822  -5.446  1.00  0.00     0.029 A 
ATOM     54  N   UNL     1      -3.965  -1.829  -6.861  1.00  0.00    -0.354 N 
ATOM     55  N   UNL     1      -2.673   1.488  -9.375  1.00  0.00    -0.248 NA
ATOM     56  C   UNL     1      -4.696   2.107  -8.395  1.00  0.00     0.031 C 
ATOM     57  C   UNL     1      -1.890  -2.469  -6.622  1.00  0.00     0.029 A 
ATOM     58  C   UNL     1      -2.710  -1.647  -7.393  1.00  0.00     0.049 A 
ATOM     59  H   UNL     1      -4.819  -1.753  -7.345  1.00  0.00     0.167 HD
ATOM     60  C   UNL     1      -3.185   0.375  -8.730  1.00  0.00     0.074 A 
ATOM     61  C   UNL     1      -4.465   0.812  -8.176  1.00  0.00     0.031 C 
ATOM     62  C   UNL     1      -2.416  -0.720  -8.468  1.00  0.00     0.037 A 
BRANCH  49  63
ATOM     63  C   UNL     1      -6.138  -1.465  -4.555  1.00  0.00     0.058 A 
ATOM     64  C   UNL     1      -6.864  -2.620  -4.860  1.00  0.00     0.135 A 
ATOM     65  C   UNL     1      -6.892  -0.273  -4.410  1.00  0.00     0.135 A 
ATOM     66  F   UNL     1      -6.229  -3.780  -5.093  1.00  0.00    -0.206 F 
ATOM     67  C   UNL     1      -8.254  -2.597  -4.979  1.00  0.00     0.059 A 
ATOM     68  C   UNL     1      -8.271  -0.241  -4.436  1.00  0.00     0.059 A 
ATOM     69  F   UNL     1      -6.309   0.931  -4.315  1.00  0.00    -0.206 F 
ATOM     70  C   UNL     1      -8.946  -1.405  -4.749  1.00  0.00     0.060 A 
BRANCH  70  71
ATOM     71  S   UNL     1     -10.735  -1.357  -4.915  1.00  0.00     0.124 S 
ATOM     72  O   UNL     1     -10.891  -1.447  -6.362  1.00  0.00    -0.237 OA
ATOM     73  O   UNL     1     -11.140  -2.531  -4.150  1.00  0.00    -0.237 OA
ATOM     74  O   UNL     1     -11.092  -0.074  -4.316  1.00  0.00    -0.744 OA
ENDBRANCH  70  71
ENDBRANCH  49  63
BRANCH  50  75
ATOM     75  C   UNL     1      -3.415   5.052  -9.242  1.00  0.00     0.058 A 
ATOM     76  C   UNL     1      -4.070   5.017 -10.501  1.00  0.00     0.135 A 
ATOM     77  C   UNL     1      -3.575   6.253  -8.529  1.00  0.00     0.135 A 
ATOM     78  F   UNL     1      -4.006   3.919 -11.271  1.00  0.00    -0.206 F 
ATOM     79  C   UNL     1      -4.877   6.073 -10.973  1.00  0.00     0.059 A 
ATOM     80  C   UNL     1      -4.359   7.317  -8.982  1.00  0.00     0.059 A 
ATOM     81  F   UNL     1      -3.054   6.407  -7.305  1.00  0.00    -0.206 F 
ATOM     82  C   UNL     1      -5.036   7.213 -10.189  1.00  0.00     0.060 A 
BRANCH  82  83
ATOM     83  S   UNL     1      -6.225   8.498 -10.661  1.00  0.00     0.124 S 
ATOM     84  O   UNL     1      -5.579   9.106 -11.819  1.00  0.00    -0.237 OA
ATOM     85  O   UNL     1      -7.431   7.724 -10.937  1.00  0.00    -0.237 OA
ATOM     86  O   UNL     1      -6.296   9.346  -9.473  1.00  0.00    -0.744 OA
ENDBRANCH  82  83
ENDBRANCH  50  75
BRANCH  62  87
ATOM     87  C   UNL     1      -1.086  -0.874  -9.172  1.00  0.00     0.058 A 
ATOM     88  C   UNL     1      -0.033   0.057  -9.138  1.00  0.00     0.135 A 
ATOM     89  C   UNL     1      -0.824  -2.100  -9.808  1.00  0.00     0.135 A 
ATOM     90  F   UNL     1      -0.183   1.244  -8.530  1.00  0.00    -0.206 F 
ATOM     91  C   UNL     1       1.222  -0.225  -9.694  1.00  0.00     0.059 A 
ATOM     92  C   UNL     1       0.417  -2.405 -10.360  1.00  0.00     0.059 A 
ATOM     93  F   UNL     1      -1.778  -3.044  -9.868  1.00  0.00    -0.206 F 
ATOM     94  C   UNL     1       1.439  -1.462 -10.301  1.00  0.00     0.060 A 
BRANCH  94  95
ATOM     95  S   UNL     1       3.065  -1.854 -10.986  1.00  0.00     0.124 S 
ATOM     96  O   UNL     1       3.166  -0.921 -12.104  1.00  0.00    -0.237 OA
ATOM     97  O   UNL     1       3.961  -1.600  -9.862  1.00  0.00    -0.237 OA
ATOM     98  O   UNL     1       2.947  -3.261 -11.365  1.00  0.00    -0.744 OA
ENDBRANCH  94  95
ENDBRANCH  62  87
ENDBRANCH  36  37
ENDBRANCH  29  31
ENDBRANCH  28  29
ENDBRANCH  27  28
ENDBRANCH   1  27
TORSDOF 17
