REMARK SMILES Cc1coc2c(C)c3oc(=O)c(CCC(=O)N[C@H](CC(C)C)C(=O)OCCOC(=O)c4ccc(-c5c6nc(c(-c7c(F)cc(S(=O)(=O)[O-])cc7F)c7ccc([nH]7)c(-c7c(F)cc(S(=O)(=O)[O-])cc7F)c7nc(c(-c8c(F)cc(S(=O)(=O)[O-])cc8F)c8ccc5[nH]8)C=C7)C=C6)cc4)c(C)c3cc12
REMARK SMILES IDX 26 1 25 2 23 3 24 4 18 5 17 6 15 7 16 8 14 10 13 11 12 12
REMARK SMILES IDX 1 13 2 14 3 15 101 16 4 17 5 18 100 19 6 20 99 21 7 22 8 23
REMARK SMILES IDX 97 24 9 25 98 26 10 27 11 28 19 29 20 30 21 31 22 32 27 33
REMARK SMILES IDX 28 34 29 35 30 36 31 37 32 38 96 39 33 40 95 41 34 42 35 43
REMARK SMILES IDX 36 44 89 45 37 46 94 47 88 48 90 49 38 50 93 51 87 52 86 53
REMARK SMILES IDX 39 55 73 56 52 57 72 58 53 59 56 60 71 61 91 62 54 63 55 64
REMARK SMILES IDX 70 66 92 67 57 68 40 69 41 70 50 71 42 72 43 73 49 74 51 75
REMARK SMILES IDX 44 76 45 77 46 78 47 79 48 80 74 81 75 82 84 83 76 84 77 85
REMARK SMILES IDX 83 86 85 87 78 88 79 89 80 90 81 91 82 92 58 93 59 94 68 95
REMARK SMILES IDX 60 96 61 97 67 98 69 99 62 100 63 101 64 102 65 103 66 104
REMARK H PARENT 17 9 90 54 56 65
REMARK Flexibility Score: inf
ROOT
ATOM      1  C   UNL     1       2.958   2.794   4.152  1.00  0.00     0.274 C 
ENDROOT
BRANCH   1   2
ATOM      2  O   UNL     1       3.418   2.185   2.918  1.00  0.00    -0.461 OA
BRANCH   2   3
ATOM      3  C   UNL     1       3.326   2.939   1.794  1.00  0.00     0.328 C 
ATOM      4  O   UNL     1       2.598   3.929   1.694  1.00  0.00    -0.250 OA
BRANCH   3   5
ATOM      5  C   UNL     1       4.280   2.513   0.636  1.00  0.00     0.192 C 
BRANCH   5   6
ATOM      6  N   UNL     1       3.361   2.543  -0.525  1.00  0.00    -0.343 N 
ATOM      7  C   UNL     1       3.487   2.275  -1.841  1.00  0.00     0.221 C 
ATOM      8  O   UNL     1       2.545   2.591  -2.573  1.00  0.00    -0.275 OA
ATOM      9  H   UNL     1       2.449   2.824  -0.280  1.00  0.00     0.164 HD
BRANCH   7  10
ATOM     10  C   UNL     1       4.679   1.544  -2.405  1.00  0.00     0.105 C 
BRANCH  10  11
ATOM     11  C   UNL     1       5.960   2.337  -2.764  1.00  0.00     0.053 C 
BRANCH  11  12
ATOM     12  C   UNL     1       6.689   3.328  -1.835  1.00  0.00     0.042 A 
ATOM     13  C   UNL     1       4.945   9.548   0.634  1.00  0.00     0.048 C 
ATOM     14  C   UNL     1       6.147   9.057   1.373  1.00  0.00    -0.005 A 
ATOM     15  C   UNL     1       6.533   9.275   2.687  1.00  0.00     0.199 A 
ATOM     16  C   UNL     1       6.996   8.035   0.890  1.00  0.00     0.024 A 
ATOM     17  O   UNL     1       7.302   8.294   3.278  1.00  0.00    -0.464 OA
ATOM     18  C   UNL     1       7.475   7.191   2.380  1.00  0.00     0.140 A 
ATOM     19  C   UNL     1       6.945   7.148  -0.611  1.00  0.00     0.024 A 
ATOM     20  C   UNL     1       7.908   5.210   2.250  1.00  0.00     0.036 A 
ATOM     21  C   UNL     1       7.263   5.478  -0.784  1.00  0.00     0.022 A 
ATOM     22  C   UNL     1       8.545   4.041   3.059  1.00  0.00     0.052 C 
ATOM     23  C   UNL     1       7.795   4.539   0.526  1.00  0.00     0.145 A 
ATOM     24  C   UNL     1       6.412   4.647  -1.726  1.00  0.00    -0.030 A 
ATOM     25  O   UNL     1       8.251   3.273   0.109  1.00  0.00    -0.422 OA
ATOM     26  C   UNL     1       5.164   5.265  -2.315  1.00  0.00     0.046 C 
ATOM     27  C   UNL     1       7.984   2.879  -1.219  1.00  0.00     0.339 A 
ATOM     28  O   UNL     1       8.711   2.101  -1.829  1.00  0.00    -0.246 OA
ENDBRANCH  11  12
ENDBRANCH  10  11
ENDBRANCH   7  10
ENDBRANCH   5   6
BRANCH   5  29
ATOM     29  C   UNL     1       5.133   1.223   0.787  1.00  0.00     0.040 C 
BRANCH  29  30
ATOM     30  C   UNL     1       6.451   1.281   1.595  1.00  0.00    -0.015 C 
ATOM     31  C   UNL     1       6.350   0.864   3.053  1.00  0.00     0.007 C 
ATOM     32  C   UNL     1       7.575   0.438   0.965  1.00  0.00     0.007 C 
ENDBRANCH  29  30
ENDBRANCH   5  29
ENDBRANCH   3   5
ENDBRANCH   2   3
ENDBRANCH   1   2
BRANCH   1  33
ATOM     33  C   UNL     1       4.095   3.478   4.928  1.00  0.00     0.275 C 
BRANCH  33  34
ATOM     34  O   UNL     1       4.391   4.781   4.391  1.00  0.00    -0.458 OA
BRANCH  34  35
ATOM     35  C   UNL     1       5.144   4.689   3.282  1.00  0.00     0.338 C 
ATOM     36  O   UNL     1       5.481   3.666   2.719  1.00  0.00    -0.246 OA
BRANCH  35  37
ATOM     37  C   UNL     1       5.927   5.846   2.974  1.00  0.00     0.060 A 
ATOM     38  C   UNL     1       6.544   6.024   1.292  1.00  0.00     0.016 A 
ATOM     39  C   UNL     1       6.988   6.062   4.294  1.00  0.00     0.016 A 
ATOM     40  C   UNL     1       8.522   6.471   1.037  1.00  0.00     0.010 A 
ATOM     41  C   UNL     1       8.646   6.408   4.133  1.00  0.00     0.010 A 
ATOM     42  C   UNL     1       9.508   6.543   2.615  1.00  0.00    -0.014 A 
BRANCH  42  43
ATOM     43  C   UNL     1      10.963   6.651   3.102  1.00  0.00     0.031 A 
ATOM     44  C   UNL     1      11.391   8.014   2.773  1.00  0.00     0.074 A 
ATOM     45  C   UNL     1      11.655   5.966   4.129  1.00  0.00     0.049 A 
ATOM     46  N   UNL     1      12.183   8.344   1.815  1.00  0.00    -0.248 NA
ATOM     47  C   UNL     1      10.698   9.157   3.405  1.00  0.00     0.031 C 
ATOM     48  C   UNL     1      11.226   4.776   4.912  1.00  0.00     0.029 A 
ATOM     49  N   UNL     1      12.875   6.218   4.814  1.00  0.00    -0.354 N 
ATOM     50  C   UNL     1      12.388   9.693   2.027  1.00  0.00     0.074 A 
ATOM     51  C   UNL     1      11.245  10.183   2.748  1.00  0.00     0.031 C 
ATOM     52  C   UNL     1      11.979   4.564   6.021  1.00  0.00     0.029 A 
ATOM     53  C   UNL     1      13.090   5.487   6.044  1.00  0.00     0.049 A 
ATOM     54  H   UNL     1      13.539   6.858   4.469  1.00  0.00     0.167 HD
ATOM     55  C   UNL     1      13.655  10.176   2.022  1.00  0.00     0.037 A 
ATOM     56  C   UNL     1      14.110   5.537   6.982  1.00  0.00     0.037 A 
ATOM     57  C   UNL     1      14.594   9.159   1.625  1.00  0.00     0.049 A 
ATOM     58  C   UNL     1      15.264   6.123   6.287  1.00  0.00     0.074 A 
ATOM     59  C   UNL     1      14.839   8.445   0.472  1.00  0.00     0.029 A 
ATOM     60  N   UNL     1      15.102   8.430   2.668  1.00  0.00    -0.354 N 
ATOM     61  N   UNL     1      15.940   5.500   5.370  1.00  0.00    -0.248 NA
ATOM     62  C   UNL     1      15.509   7.550   6.417  1.00  0.00     0.031 C 
ATOM     63  C   UNL     1      15.469   7.235   0.865  1.00  0.00     0.029 A 
ATOM     64  C   UNL     1      15.688   7.269   2.236  1.00  0.00     0.049 A 
ATOM     65  H   UNL     1      15.053   8.706   3.612  1.00  0.00     0.167 HD
ATOM     66  C   UNL     1      16.265   6.510   4.500  1.00  0.00     0.074 A 
ATOM     67  C   UNL     1      16.138   7.749   5.259  1.00  0.00     0.031 C 
ATOM     68  C   UNL     1      16.169   6.278   3.165  1.00  0.00     0.037 A 
BRANCH  55  69
ATOM     69  C   UNL     1      14.090  11.383   2.786  1.00  0.00     0.058 A 
ATOM     70  C   UNL     1      15.158  12.144   2.292  1.00  0.00     0.135 A 
ATOM     71  C   UNL     1      13.616  11.719   4.073  1.00  0.00     0.135 A 
ATOM     72  F   UNL     1      15.714  11.842   1.108  1.00  0.00    -0.206 F 
ATOM     73  C   UNL     1      15.691  13.211   3.007  1.00  0.00     0.059 A 
ATOM     74  C   UNL     1      14.095  12.813   4.783  1.00  0.00     0.059 A 
ATOM     75  F   UNL     1      12.713  10.958   4.708  1.00  0.00    -0.206 F 
ATOM     76  C   UNL     1      15.136  13.553   4.239  1.00  0.00     0.060 A 
BRANCH  76  77
ATOM     77  S   UNL     1      15.790  14.985   5.112  1.00  0.00     0.124 S 
ATOM     78  O   UNL     1      17.145  14.548   5.425  1.00  0.00    -0.237 OA
ATOM     79  O   UNL     1      15.672  16.028   4.097  1.00  0.00    -0.237 OA
ATOM     80  O   UNL     1      14.890  15.126   6.252  1.00  0.00    -0.744 OA
ENDBRANCH  76  77
ENDBRANCH  55  69
BRANCH  56  81
ATOM     81  C   UNL     1      14.325   5.236   8.472  1.00  0.00     0.058 A 
ATOM     82  C   UNL     1      15.621   5.314   9.073  1.00  0.00     0.135 A 
ATOM     83  C   UNL     1      13.268   5.261   9.394  1.00  0.00     0.135 A 
ATOM     84  F   UNL     1      16.728   5.232   8.318  1.00  0.00    -0.206 F 
ATOM     85  C   UNL     1      15.837   5.569  10.443  1.00  0.00     0.059 A 
ATOM     86  C   UNL     1      13.460   5.505  10.773  1.00  0.00     0.059 A 
ATOM     87  F   UNL     1      12.003   5.140   8.968  1.00  0.00    -0.206 F 
ATOM     88  C   UNL     1      14.741   5.719  11.281  1.00  0.00     0.060 A 
BRANCH  88  89
ATOM     89  S   UNL     1      14.983   6.361  12.971  1.00  0.00     0.124 S 
ATOM     90  O   UNL     1      15.657   5.253  13.638  1.00  0.00    -0.237 OA
ATOM     91  O   UNL     1      15.797   7.550  12.739  1.00  0.00    -0.237 OA
ATOM     92  O   UNL     1      13.621   6.627  13.427  1.00  0.00    -0.744 OA
ENDBRANCH  88  89
ENDBRANCH  56  81
BRANCH  68  93
ATOM     93  C   UNL     1      16.528   4.912   2.662  1.00  0.00     0.058 A 
ATOM     94  C   UNL     1      15.845   3.711   2.921  1.00  0.00     0.135 A 
ATOM     95  C   UNL     1      17.635   4.850   1.800  1.00  0.00     0.135 A 
ATOM     96  F   UNL     1      14.741   3.690   3.685  1.00  0.00    -0.206 F 
ATOM     97  C   UNL     1      16.265   2.501   2.358  1.00  0.00     0.059 A 
ATOM     98  C   UNL     1      18.045   3.669   1.201  1.00  0.00     0.059 A 
ATOM     99  F   UNL     1      18.318   5.969   1.503  1.00  0.00    -0.206 F 
ATOM    100  C   UNL     1      17.364   2.493   1.495  1.00  0.00     0.060 A 
BRANCH 100 101
ATOM    101  S   UNL     1      17.889   0.946   0.728  1.00  0.00     0.124 S 
ATOM    102  O   UNL     1      18.354   0.175   1.876  1.00  0.00    -0.237 OA
ATOM    103  O   UNL     1      16.659   0.474   0.100  1.00  0.00    -0.237 OA
ATOM    104  O   UNL     1      18.935   1.363  -0.204  1.00  0.00    -0.744 OA
ENDBRANCH 100 101
ENDBRANCH  68  93
ENDBRANCH  42  43
ENDBRANCH  35  37
ENDBRANCH  34  35
ENDBRANCH  33  34
ENDBRANCH   1  33
TORSDOF 20
