REMARK SMILES Cn1cc2cc(C(=O)OCCOC(=O)c3ccc(-c4c5nc(c(-c6c(F)cc(S(=O)(=O)[O-])cc6F)c6ccc([nH]6)c(-c6c(F)cc(S(=O)(=O)[O-])cc6F)c6nc(c(-c7c(F)cc(S(=O)(=O)[O-])cc7F)c7ccc4[nH]7)C=C6)C=C5)cc3)ccc2n1
REMARK SMILES IDX 12 1 11 2 10 3 9 4 7 5 8 6 6 7 1 8 2 9 3 10 84 11 4 12 83 13
REMARK SMILES IDX 5 14 82 15 81 16 13 17 14 18 15 19 16 20 80 21 17 22 79 23
REMARK SMILES IDX 18 24 19 25 20 26 73 27 21 28 78 29 72 30 74 31 22 32 77 33
REMARK SMILES IDX 71 34 70 35 23 37 57 38 36 39 56 40 37 41 40 42 55 43 75 44
REMARK SMILES IDX 38 45 39 46 54 48 76 49 41 50 24 51 25 52 34 53 26 54 27 55
REMARK SMILES IDX 33 56 35 57 28 58 29 59 30 60 31 61 32 62 58 63 59 64 68 65
REMARK SMILES IDX 60 66 61 67 67 68 69 69 62 70 63 71 64 72 65 73 66 74 42 75
REMARK SMILES IDX 43 76 52 77 44 78 45 79 51 80 53 81 46 82 47 83 48 84 49 85
REMARK SMILES IDX 50 86
REMARK H PARENT 74 36 40 47
REMARK Flexibility Score: inf
ROOT
ATOM      1  O   UNL     1       5.289  -2.996   1.052  1.00  0.00    -0.458 OA
ENDROOT
BRANCH   1   2
ATOM      2  C   UNL     1       6.235  -1.917   1.144  1.00  0.00     0.275 C 
BRANCH   2   3
ATOM      3  C   UNL     1       6.024  -0.938  -0.010  1.00  0.00     0.275 C 
BRANCH   3   4
ATOM      4  O   UNL     1       4.743  -0.279   0.091  1.00  0.00    -0.458 OA
BRANCH   4   5
ATOM      5  C   UNL     1       3.780  -0.743  -0.748  1.00  0.00     0.338 C 
ATOM      6  O   UNL     1       3.903  -1.632  -1.568  1.00  0.00    -0.246 OA
BRANCH   5   7
ATOM      7  C   UNL     1       2.478  -0.079  -0.474  1.00  0.00     0.060 A 
ATOM      8  C   UNL     1      -3.330   0.294   0.160  1.00  0.00     0.173 C 
ATOM      9  N   UNL     1      -1.892   0.334   0.044  1.00  0.00    -0.275 N 
ATOM     10  C   UNL     1      -1.086  -0.717  -0.282  1.00  0.00     0.117 A 
ATOM     11  N   UNL     1      -1.235   1.504   0.237  1.00  0.00    -0.173 NA
ATOM     12  C   UNL     1       0.171  -0.185  -0.308  1.00  0.00     0.021 A 
ATOM     13  C   UNL     1       0.062   1.203   0.049  1.00  0.00     0.092 A 
ATOM     14  C   UNL     1       1.325  -0.887  -0.616  1.00  0.00     0.027 A 
ATOM     15  C   UNL     1       1.214   2.006   0.138  1.00  0.00     0.032 A 
ATOM     16  C   UNL     1       2.425   1.311  -0.118  1.00  0.00     0.018 A 
ENDBRANCH   5   7
ENDBRANCH   4   5
ENDBRANCH   3   4
ENDBRANCH   2   3
ENDBRANCH   1   2
BRANCH   1  17
ATOM     17  C   UNL     1       4.446  -3.128   2.101  1.00  0.00     0.338 C 
ATOM     18  O   UNL     1       4.439  -2.480   3.134  1.00  0.00    -0.246 OA
BRANCH  17  19
ATOM     19  C   UNL     1       3.462  -4.186   1.817  1.00  0.00     0.060 A 
ATOM     20  C   UNL     1       2.562  -4.004   0.773  1.00  0.00     0.016 A 
ATOM     21  C   UNL     1       3.330  -5.280   2.669  1.00  0.00     0.016 A 
ATOM     22  C   UNL     1       1.458  -4.845   0.643  1.00  0.00     0.010 A 
ATOM     23  C   UNL     1       2.285  -6.191   2.464  1.00  0.00     0.010 A 
ATOM     24  C   UNL     1       1.306  -5.961   1.478  1.00  0.00    -0.014 A 
BRANCH  24  25
ATOM     25  C   UNL     1       0.114  -6.854   1.351  1.00  0.00     0.031 A 
ATOM     26  C   UNL     1      -0.777  -7.110   2.545  1.00  0.00     0.074 A 
ATOM     27  C   UNL     1      -0.191  -7.434   0.171  1.00  0.00     0.049 A 
ATOM     28  N   UNL     1      -1.741  -7.984   2.689  1.00  0.00    -0.248 NA
ATOM     29  C   UNL     1      -0.542  -6.282   3.739  1.00  0.00     0.031 C 
ATOM     30  C   UNL     1       0.548  -7.253  -1.081  1.00  0.00     0.029 A 
ATOM     31  N   UNL     1      -1.209  -8.292  -0.172  1.00  0.00    -0.354 N 
ATOM     32  C   UNL     1      -2.179  -7.860   4.004  1.00  0.00     0.074 A 
ATOM     33  C   UNL     1      -1.374  -6.825   4.616  1.00  0.00     0.031 C 
ATOM     34  C   UNL     1      -0.064  -7.937  -2.059  1.00  0.00     0.029 A 
ATOM     35  C   UNL     1      -1.179  -8.685  -1.491  1.00  0.00     0.049 A 
ATOM     36  H   UNL     1      -1.895  -8.597   0.465  1.00  0.00     0.167 HD
ATOM     37  C   UNL     1      -3.160  -8.545   4.642  1.00  0.00     0.037 A 
ATOM     38  C   UNL     1      -1.928  -9.581  -2.164  1.00  0.00     0.037 A 
ATOM     39  C   UNL     1      -4.003  -9.529   4.011  1.00  0.00     0.049 A 
ATOM     40  C   UNL     1      -2.997 -10.344  -1.435  1.00  0.00     0.074 A 
ATOM     41  C   UNL     1      -5.041 -10.258   4.567  1.00  0.00     0.029 A 
ATOM     42  N   UNL     1      -3.917  -9.912   2.680  1.00  0.00    -0.354 N 
ATOM     43  N   UNL     1      -3.359 -10.254  -0.177  1.00  0.00    -0.248 NA
ATOM     44  C   UNL     1      -3.743 -11.345  -2.208  1.00  0.00     0.031 C 
ATOM     45  C   UNL     1      -5.559 -11.107   3.582  1.00  0.00     0.029 A 
ATOM     46  C   UNL     1      -4.874 -10.875   2.401  1.00  0.00     0.049 A 
ATOM     47  H   UNL     1      -3.271  -9.552   2.030  1.00  0.00     0.167 HD
ATOM     48  C   UNL     1      -4.381 -11.181  -0.010  1.00  0.00     0.074 A 
ATOM     49  C   UNL     1      -4.593 -11.807  -1.300  1.00  0.00     0.031 C 
ATOM     50  C   UNL     1      -5.076 -11.489   1.112  1.00  0.00     0.037 A 
BRANCH  37  51
ATOM     51  C   UNL     1      -3.355  -8.281   6.112  1.00  0.00     0.058 A 
ATOM     52  C   UNL     1      -3.920  -7.088   6.591  1.00  0.00     0.135 A 
ATOM     53  C   UNL     1      -2.990  -9.255   7.057  1.00  0.00     0.135 A 
ATOM     54  F   UNL     1      -4.275  -6.117   5.734  1.00  0.00    -0.206 F 
ATOM     55  C   UNL     1      -4.082  -6.856   7.954  1.00  0.00     0.059 A 
ATOM     56  C   UNL     1      -3.169  -9.056   8.423  1.00  0.00     0.059 A 
ATOM     57  F   UNL     1      -2.450 -10.417   6.656  1.00  0.00    -0.206 F 
ATOM     58  C   UNL     1      -3.699  -7.844   8.863  1.00  0.00     0.060 A 
BRANCH  58  59
ATOM     59  S   UNL     1      -3.904  -7.526  10.629  1.00  0.00     0.124 S 
ATOM     60  O   UNL     1      -2.807  -6.597  10.884  1.00  0.00    -0.237 OA
ATOM     61  O   UNL     1      -5.245  -6.954  10.692  1.00  0.00    -0.237 OA
ATOM     62  O   UNL     1      -3.760  -8.847  11.232  1.00  0.00    -0.744 OA
ENDBRANCH  58  59
ENDBRANCH  37  51
BRANCH  38  63
ATOM     63  C   UNL     1      -1.658  -9.831  -3.606  1.00  0.00     0.058 A 
ATOM     64  C   UNL     1      -2.563  -9.417  -4.593  1.00  0.00     0.135 A 
ATOM     65  C   UNL     1      -0.472 -10.456  -4.027  1.00  0.00     0.135 A 
ATOM     66  F   UNL     1      -3.717  -8.829  -4.242  1.00  0.00    -0.206 F 
ATOM     67  C   UNL     1      -2.303  -9.610  -5.947  1.00  0.00     0.059 A 
ATOM     68  C   UNL     1      -0.177 -10.633  -5.374  1.00  0.00     0.059 A 
ATOM     69  F   UNL     1       0.431 -10.862  -3.121  1.00  0.00    -0.206 F 
ATOM     70  C   UNL     1      -1.102 -10.212  -6.327  1.00  0.00     0.060 A 
BRANCH  70  71
ATOM     71  S   UNL     1      -0.736 -10.387  -8.087  1.00  0.00     0.124 S 
ATOM     72  O   UNL     1      -1.601 -11.501  -8.457  1.00  0.00    -0.237 OA
ATOM     73  O   UNL     1      -1.118  -9.080  -8.613  1.00  0.00    -0.237 OA
ATOM     74  O   UNL     1       0.697 -10.665  -8.104  1.00  0.00    -0.744 OA
ENDBRANCH  70  71
ENDBRANCH  38  63
BRANCH  50  75
ATOM     75  C   UNL     1      -6.152 -12.531   0.990  1.00  0.00     0.058 A 
ATOM     76  C   UNL     1      -5.846 -13.895   0.869  1.00  0.00     0.135 A 
ATOM     77  C   UNL     1      -7.506 -12.162   1.032  1.00  0.00     0.135 A 
ATOM     78  F   UNL     1      -4.566 -14.298   0.815  1.00  0.00    -0.206 F 
ATOM     79  C   UNL     1      -6.846 -14.857   0.771  1.00  0.00     0.059 A 
ATOM     80  C   UNL     1      -8.522 -13.110   0.959  1.00  0.00     0.059 A 
ATOM     81  F   UNL     1      -7.852 -10.871   1.154  1.00  0.00    -0.206 F 
ATOM     82  C   UNL     1      -8.182 -14.454   0.817  1.00  0.00     0.060 A 
BRANCH  82  83
ATOM     83  S   UNL     1      -9.472 -15.714   0.717  1.00  0.00     0.124 S 
ATOM     84  O   UNL     1      -9.442 -16.052  -0.703  1.00  0.00    -0.237 OA
ATOM     85  O   UNL     1      -8.976 -16.744   1.624  1.00  0.00    -0.237 OA
ATOM     86  O   UNL     1     -10.668 -15.011   1.170  1.00  0.00    -0.744 OA
ENDBRANCH  82  83
ENDBRANCH  50  75
ENDBRANCH  24  25
ENDBRANCH  17  19
ENDBRANCH   1  17
TORSDOF 14
