REMARK SMILES O=C(CCc1nc(-c2ccccc2)c(-c2ccccc2)o1)OCCOC(=O)c1ccc(-c2c3nc(c(-c4c(F)cc(S(=O)(=O)[O-])cc4F)c4ccc([nH]4)c(-c4c(F)cc(S(=O)(=O)[O-])cc4F)c4nc(c(-c5c(F)cc(S(=O)(=O)[O-])cc5F)c5ccc2[nH]5)C=C4)C=C3)cc1
REMARK SMILES IDX 23 1 22 2 2 3 1 4 3 5 4 6 5 7 6 8 21 9 7 10 14 11 8 12 9 13
REMARK SMILES IDX 13 14 10 15 12 16 11 17 15 18 16 19 20 20 17 21 19 22 18 23
REMARK SMILES IDX 24 24 25 25 26 26 27 27 28 28 29 29 93 30 30 31 92 32 31 33
REMARK SMILES IDX 32 34 33 35 86 36 34 37 91 38 85 39 87 40 35 41 90 42 84 43
REMARK SMILES IDX 83 44 36 46 70 47 49 48 69 49 50 50 53 51 68 52 88 53 51 54
REMARK SMILES IDX 52 55 67 57 89 58 54 59 37 60 38 61 47 62 39 63 40 64 46 65
REMARK SMILES IDX 48 66 41 67 42 68 43 69 44 70 45 71 71 72 72 73 81 74 73 75
REMARK SMILES IDX 74 76 80 77 82 78 75 79 76 80 77 81 78 82 79 83 55 84 56 85
REMARK SMILES IDX 65 86 57 87 58 88 64 89 66 90 59 91 60 92 61 93 62 94 63 95
REMARK H PARENT 87 45 53 56
REMARK Flexibility Score: inf
ROOT
ATOM      1  C   UNL     1       3.879  -0.319  -1.427  1.00  0.00     0.274 C 
ENDROOT
BRANCH   1   2
ATOM      2  O   UNL     1       2.610  -0.414  -0.756  1.00  0.00    -0.462 OA
BRANCH   2   3
ATOM      3  C   UNL     1       2.509  -0.459   0.599  1.00  0.00     0.306 C 
ATOM      4  O   UNL     1       1.610  -1.102   1.134  1.00  0.00    -0.252 OA
BRANCH   3   5
ATOM      5  C   UNL     1       3.438   0.416   1.415  1.00  0.00     0.132 C 
BRANCH   5   6
ATOM      6  C   UNL     1       4.261  -0.372   2.428  1.00  0.00     0.109 C 
BRANCH   6   7
ATOM      7  C   UNL     1       5.208  -1.293   1.749  1.00  0.00     0.196 A 
ATOM      8  N   UNL     1       5.061  -2.583   1.546  1.00  0.00    -0.213 NA
ATOM      9  O   UNL     1       6.267  -0.724   1.080  1.00  0.00    -0.440 OA
ATOM     10  C   UNL     1       6.070  -2.895   0.674  1.00  0.00     0.117 A 
ATOM     11  C   UNL     1       6.783  -1.760   0.339  1.00  0.00     0.162 A 
BRANCH  10  12
ATOM     12  C   UNL     1       6.247  -4.202   0.093  1.00  0.00     0.004 A 
ATOM     13  C   UNL     1       7.489  -4.845   0.156  1.00  0.00     0.010 A 
ATOM     14  C   UNL     1       5.179  -4.815  -0.570  1.00  0.00     0.010 A 
ATOM     15  C   UNL     1       7.663  -6.088  -0.451  1.00  0.00     0.001 A 
ATOM     16  C   UNL     1       5.359  -6.052  -1.187  1.00  0.00     0.001 A 
ATOM     17  C   UNL     1       6.600  -6.687  -1.127  1.00  0.00     0.000 A 
ENDBRANCH  10  12
BRANCH  11  18
ATOM     18  C   UNL     1       7.767  -1.432  -0.680  1.00  0.00     0.020 A 
ATOM     19  C   UNL     1       8.917  -0.697  -0.383  1.00  0.00     0.012 A 
ATOM     20  C   UNL     1       7.577  -1.887  -1.997  1.00  0.00     0.012 A 
ATOM     21  C   UNL     1       9.878  -0.462  -1.372  1.00  0.00     0.001 A 
ATOM     22  C   UNL     1       8.531  -1.646  -2.986  1.00  0.00     0.001 A 
ATOM     23  C   UNL     1       9.688  -0.942  -2.669  1.00  0.00     0.000 A 
ENDBRANCH  11  18
ENDBRANCH   6   7
ENDBRANCH   5   6
ENDBRANCH   3   5
ENDBRANCH   2   3
ENDBRANCH   1   2
BRANCH   1  24
ATOM     24  C   UNL     1       4.101   1.004  -2.160  1.00  0.00     0.275 C 
BRANCH  24  25
ATOM     25  O   UNL     1       3.752   2.118  -1.328  1.00  0.00    -0.458 OA
BRANCH  25  26
ATOM     26  C   UNL     1       2.454   2.493  -1.447  1.00  0.00     0.338 C 
ATOM     27  O   UNL     1       1.661   2.105  -2.289  1.00  0.00    -0.246 OA
BRANCH  26  28
ATOM     28  C   UNL     1       2.066   3.326  -0.292  1.00  0.00     0.060 A 
ATOM     29  C   UNL     1       0.794   3.112   0.248  1.00  0.00     0.016 A 
ATOM     30  C   UNL     1       2.904   4.314   0.237  1.00  0.00     0.016 A 
ATOM     31  C   UNL     1       0.328   3.932   1.272  1.00  0.00     0.010 A 
ATOM     32  C   UNL     1       2.436   5.131   1.272  1.00  0.00     0.010 A 
ATOM     33  C   UNL     1       1.129   4.972   1.764  1.00  0.00    -0.014 A 
BRANCH  33  34
ATOM     34  C   UNL     1       0.526   5.958   2.693  1.00  0.00     0.031 A 
ATOM     35  C   UNL     1       0.057   7.283   2.155  1.00  0.00     0.074 A 
ATOM     36  C   UNL     1       0.324   5.643   3.986  1.00  0.00     0.049 A 
ATOM     37  N   UNL     1      -0.593   8.241   2.764  1.00  0.00    -0.248 NA
ATOM     38  C   UNL     1       0.358   7.567   0.742  1.00  0.00     0.031 C 
ATOM     39  C   UNL     1       0.733   4.393   4.625  1.00  0.00     0.029 A 
ATOM     40  N   UNL     1      -0.286   6.351   4.990  1.00  0.00    -0.354 N 
ATOM     41  C   UNL     1      -0.803   9.226   1.807  1.00  0.00     0.074 A 
ATOM     42  C   UNL     1      -0.158   8.778   0.592  1.00  0.00     0.031 C 
ATOM     43  C   UNL     1       0.361   4.421   5.916  1.00  0.00     0.029 A 
ATOM     44  C   UNL     1      -0.305   5.692   6.196  1.00  0.00     0.049 A 
ATOM     45  H   UNL     1      -0.675   7.246   4.860  1.00  0.00     0.167 HD
ATOM     46  C   UNL     1      -1.493  10.386   1.920  1.00  0.00     0.037 A 
ATOM     47  C   UNL     1      -0.804   6.071   7.389  1.00  0.00     0.037 A 
ATOM     48  C   UNL     1      -2.123  10.838   3.133  1.00  0.00     0.049 A 
ATOM     49  C   UNL     1      -1.531   7.386   7.501  1.00  0.00     0.074 A 
ATOM     50  C   UNL     1      -2.847  11.999   3.347  1.00  0.00     0.029 A 
ATOM     51  N   UNL     1      -2.102  10.154   4.340  1.00  0.00    -0.354 N 
ATOM     52  N   UNL     1      -1.760   8.287   6.573  1.00  0.00    -0.248 NA
ATOM     53  C   UNL     1      -2.086   7.728   8.818  1.00  0.00     0.031 C 
ATOM     54  C   UNL     1      -3.229  12.036   4.694  1.00  0.00     0.029 A 
ATOM     55  C   UNL     1      -2.784  10.876   5.306  1.00  0.00     0.049 A 
ATOM     56  H   UNL     1      -1.667   9.284   4.487  1.00  0.00     0.167 HD
ATOM     57  C   UNL     1      -2.501   9.290   7.191  1.00  0.00     0.074 A 
ATOM     58  C   UNL     1      -2.703   8.873   8.563  1.00  0.00     0.031 C 
ATOM     59  C   UNL     1      -2.970  10.453   6.672  1.00  0.00     0.037 A 
BRANCH  46  60
ATOM     60  C   UNL     1      -1.606  11.249   0.693  1.00  0.00     0.058 A 
ATOM     61  C   UNL     1      -2.424  10.879  -0.387  1.00  0.00     0.135 A 
ATOM     62  C   UNL     1      -0.928  12.475   0.612  1.00  0.00     0.135 A 
ATOM     63  F   UNL     1      -3.079   9.707  -0.369  1.00  0.00    -0.206 F 
ATOM     64  C   UNL     1      -2.551  11.686  -1.513  1.00  0.00     0.059 A 
ATOM     65  C   UNL     1      -1.060  13.310  -0.494  1.00  0.00     0.059 A 
ATOM     66  F   UNL     1      -0.130  12.874   1.614  1.00  0.00    -0.206 F 
ATOM     67  C   UNL     1      -1.866  12.901  -1.556  1.00  0.00     0.060 A 
BRANCH  67  68
ATOM     68  S   UNL     1      -2.056  13.945  -3.017  1.00  0.00     0.124 S 
ATOM     69  O   UNL     1      -1.288  13.200  -4.010  1.00  0.00    -0.237 OA
ATOM     70  O   UNL     1      -3.502  13.952  -3.210  1.00  0.00    -0.237 OA
ATOM     71  O   UNL     1      -1.476  15.219  -2.603  1.00  0.00    -0.744 OA
ENDBRANCH  67  68
ENDBRANCH  46  60
BRANCH  47  72
ATOM     72  C   UNL     1      -0.634   5.195   8.579  1.00  0.00     0.058 A 
ATOM     73  C   UNL     1      -1.726   4.545   9.173  1.00  0.00     0.135 A 
ATOM     74  C   UNL     1       0.630   5.011   9.159  1.00  0.00     0.135 A 
ATOM     75  F   UNL     1      -2.957   4.698   8.661  1.00  0.00    -0.206 F 
ATOM     76  C   UNL     1      -1.576   3.766  10.316  1.00  0.00     0.059 A 
ATOM     77  C   UNL     1       0.810   4.215  10.285  1.00  0.00     0.059 A 
ATOM     78  F   UNL     1       1.710   5.599   8.620  1.00  0.00    -0.206 F 
ATOM     79  C   UNL     1      -0.302   3.609  10.867  1.00  0.00     0.060 A 
BRANCH  79  80
ATOM     80  S   UNL     1      -0.110   2.576  12.335  1.00  0.00     0.124 S 
ATOM     81  O   UNL     1      -0.649   3.444  13.376  1.00  0.00    -0.237 OA
ATOM     82  O   UNL     1      -0.914   1.407  11.997  1.00  0.00    -0.237 OA
ATOM     83  O   UNL     1       1.331   2.342  12.392  1.00  0.00    -0.744 OA
ENDBRANCH  79  80
ENDBRANCH  47  72
BRANCH  59  84
ATOM     84  C   UNL     1      -3.760  11.346   7.590  1.00  0.00     0.058 A 
ATOM     85  C   UNL     1      -3.148  12.050   8.640  1.00  0.00     0.135 A 
ATOM     86  C   UNL     1      -5.144  11.510   7.412  1.00  0.00     0.135 A 
ATOM     87  F   UNL     1      -1.829  11.928   8.856  1.00  0.00    -0.206 F 
ATOM     88  C   UNL     1      -3.886  12.848   9.508  1.00  0.00     0.059 A 
ATOM     89  C   UNL     1      -5.897  12.327   8.250  1.00  0.00     0.059 A 
ATOM     90  F   UNL     1      -5.778  10.874   6.414  1.00  0.00    -0.206 F 
ATOM     91  C   UNL     1      -5.262  12.975   9.309  1.00  0.00     0.060 A 
BRANCH  91  92
ATOM     92  S   UNL     1      -6.212  14.007  10.447  1.00  0.00     0.124 S 
ATOM     93  O   UNL     1      -6.291  13.149  11.624  1.00  0.00    -0.237 OA
ATOM     94  O   UNL     1      -5.365  15.189  10.580  1.00  0.00    -0.237 OA
ATOM     95  O   UNL     1      -7.470  14.222   9.739  1.00  0.00    -0.744 OA
ENDBRANCH  91  92
ENDBRANCH  59  84
ENDBRANCH  33  34
ENDBRANCH  26  28
ENDBRANCH  25  26
ENDBRANCH  24  25
ENDBRANCH   1  24
TORSDOF 18
