REMARK SMILES O=C(OCCOC(=O)[C@H]1C[C@](O)(c2ccccc2Cl)[C@@H](c2ccccc2Cl)O1)c1ccc(-c2c3nc(c(-c4c(F)cc(S(=O)(=O)[O-])cc4F)c4ccc([nH]4)c(-c4c(F)cc(S(=O)(=O)[O-])cc4F)c4nc(c(-c5c(F)cc(S(=O)(=O)[O-])cc5F)c5ccc2[nH]5)C=C4)C=C3)cc1
REMARK SMILES IDX 4 1 3 2 2 3 1 4 29 5 30 6 94 7 31 8 93 9 32 10 33 11 34 12
REMARK SMILES IDX 87 13 35 14 92 15 86 16 88 17 36 18 91 19 85 20 84 21 37 23
REMARK SMILES IDX 71 24 50 25 70 26 51 27 54 28 69 29 89 30 52 31 53 32 68 34
REMARK SMILES IDX 90 35 55 36 38 37 39 38 48 39 40 40 41 41 47 42 49 43 42 44
REMARK SMILES IDX 43 45 44 46 45 47 46 48 72 49 73 50 82 51 74 52 75 53 81 54
REMARK SMILES IDX 83 55 76 56 77 57 78 58 79 59 80 60 56 61 57 62 66 63 58 64
REMARK SMILES IDX 59 65 65 66 67 67 60 68 61 69 62 70 63 71 64 72 5 73 6 74
REMARK SMILES IDX 7 75 8 76 9 77 10 78 28 79 11 80 20 81 13 82 14 83 18 84
REMARK SMILES IDX 15 85 17 86 19 87 16 88 12 89 21 91 22 92 26 93 23 94 25 95
REMARK SMILES IDX 27 96 24 97
REMARK H PARENT 88 22 54 33 12 90
REMARK Flexibility Score: inf
ROOT
ATOM      1  C   UNL     1      -1.766   2.451   1.848  1.00  0.00     0.275 C 
ENDROOT
BRANCH   1   2
ATOM      2  O   UNL     1      -1.060   3.469   1.140  1.00  0.00    -0.458 OA
BRANCH   2   3
ATOM      3  C   UNL     1       0.174   3.946   1.407  1.00  0.00     0.338 C 
ATOM      4  O   UNL     1       0.856   4.309   0.447  1.00  0.00    -0.246 OA
BRANCH   3   5
ATOM      5  C   UNL     1       0.735   4.136   2.798  1.00  0.00     0.060 A 
ATOM      6  C   UNL     1       0.218   3.724   4.038  1.00  0.00     0.016 A 
ATOM      7  C   UNL     1       1.980   4.769   2.830  1.00  0.00     0.016 A 
ATOM      8  C   UNL     1       0.990   3.775   5.238  1.00  0.00     0.010 A 
ATOM      9  C   UNL     1       2.732   4.823   4.008  1.00  0.00     0.010 A 
ATOM     10  C   UNL     1       2.299   4.253   5.224  1.00  0.00    -0.014 A 
BRANCH  10  11
ATOM     11  C   UNL     1       3.287   4.236   6.368  1.00  0.00     0.031 A 
ATOM     12  C   UNL     1       3.862   5.568   6.747  1.00  0.00     0.074 A 
ATOM     13  C   UNL     1       3.846   3.130   6.931  1.00  0.00     0.049 A 
ATOM     14  N   UNL     1       4.888   5.835   7.506  1.00  0.00    -0.248 NA
ATOM     15  C   UNL     1       3.207   6.754   6.163  1.00  0.00     0.031 C 
ATOM     16  C   UNL     1       3.392   1.758   6.770  1.00  0.00     0.029 A 
ATOM     17  N   UNL     1       4.983   2.965   7.712  1.00  0.00    -0.354 N 
ATOM     18  C   UNL     1       4.946   7.215   7.538  1.00  0.00     0.074 A 
ATOM     19  C   UNL     1       4.024   7.716   6.546  1.00  0.00     0.031 C 
ATOM     20  C   UNL     1       4.309   0.897   7.252  1.00  0.00     0.029 A 
ATOM     21  C   UNL     1       5.388   1.644   7.869  1.00  0.00     0.049 A 
ATOM     22  H   UNL     1       5.462   3.722   8.121  1.00  0.00     0.167 HD
ATOM     23  C   UNL     1       5.586   8.004   8.426  1.00  0.00     0.037 A 
ATOM     24  C   UNL     1       6.467   1.083   8.470  1.00  0.00     0.037 A 
ATOM     25  C   UNL     1       6.475   7.515   9.433  1.00  0.00     0.049 A 
ATOM     26  C   UNL     1       7.337   1.987   9.297  1.00  0.00     0.074 A 
ATOM     27  C   UNL     1       7.113   8.221  10.433  1.00  0.00     0.029 A 
ATOM     28  N   UNL     1       6.865   6.190   9.557  1.00  0.00    -0.354 N 
ATOM     29  N   UNL     1       7.279   3.291   9.415  1.00  0.00    -0.248 NA
ATOM     30  C   UNL     1       8.344   1.345  10.156  1.00  0.00     0.031 C 
ATOM     31  C   UNL     1       7.934   7.330  11.131  1.00  0.00     0.029 A 
ATOM     32  C   UNL     1       7.767   6.061  10.597  1.00  0.00     0.049 A 
ATOM     33  H   UNL     1       6.546   5.451   8.990  1.00  0.00     0.167 HD
ATOM     34  C   UNL     1       8.164   3.616  10.434  1.00  0.00     0.074 A 
ATOM     35  C   UNL     1       8.792   2.380  10.855  1.00  0.00     0.031 C 
ATOM     36  C   UNL     1       8.385   4.824  11.005  1.00  0.00     0.037 A 
BRANCH  23  37
ATOM     37  C   UNL     1       5.238   9.457   8.352  1.00  0.00     0.058 A 
ATOM     38  C   UNL     1       3.945   9.900   8.691  1.00  0.00     0.135 A 
ATOM     39  C   UNL     1       6.142  10.384   7.824  1.00  0.00     0.135 A 
ATOM     40  F   UNL     1       3.030   9.032   9.158  1.00  0.00    -0.206 F 
ATOM     41  C   UNL     1       3.541  11.203   8.447  1.00  0.00     0.059 A 
ATOM     42  C   UNL     1       5.768  11.704   7.604  1.00  0.00     0.059 A 
ATOM     43  F   UNL     1       7.376   9.998   7.468  1.00  0.00    -0.206 F 
ATOM     44  C   UNL     1       4.459  12.095   7.893  1.00  0.00     0.060 A 
BRANCH  44  45
ATOM     45  S   UNL     1       3.903  13.773   7.539  1.00  0.00     0.124 S 
ATOM     46  O   UNL     1       3.081  13.559   6.349  1.00  0.00    -0.237 OA
ATOM     47  O   UNL     1       3.188  14.129   8.750  1.00  0.00    -0.237 OA
ATOM     48  O   UNL     1       5.155  14.498   7.310  1.00  0.00    -0.744 OA
ENDBRANCH  44  45
ENDBRANCH  23  37
BRANCH  24  49
ATOM     49  C   UNL     1       6.763  -0.393   8.442  1.00  0.00     0.058 A 
ATOM     50  C   UNL     1       6.352  -1.267   9.460  1.00  0.00     0.135 A 
ATOM     51  C   UNL     1       7.585  -0.948   7.449  1.00  0.00     0.135 A 
ATOM     52  F   UNL     1       5.653  -0.791  10.501  1.00  0.00    -0.206 F 
ATOM     53  C   UNL     1       6.709  -2.622   9.467  1.00  0.00     0.059 A 
ATOM     54  C   UNL     1       7.913  -2.305   7.398  1.00  0.00     0.059 A 
ATOM     55  F   UNL     1       8.166  -0.148   6.552  1.00  0.00    -0.206 F 
ATOM     56  C   UNL     1       7.479  -3.137   8.422  1.00  0.00     0.060 A 
BRANCH  56  57
ATOM     57  S   UNL     1       7.923  -4.893   8.418  1.00  0.00     0.124 S 
ATOM     58  O   UNL     1       8.978  -4.933   9.424  1.00  0.00    -0.237 OA
ATOM     59  O   UNL     1       6.666  -5.534   8.789  1.00  0.00    -0.237 OA
ATOM     60  O   UNL     1       8.358  -5.128   7.043  1.00  0.00    -0.744 OA
ENDBRANCH  56  57
ENDBRANCH  24  49
BRANCH  36  61
ATOM     61  C   UNL     1       9.296   4.871  12.193  1.00  0.00     0.058 A 
ATOM     62  C   UNL     1      10.686   4.751  12.068  1.00  0.00     0.135 A 
ATOM     63  C   UNL     1       8.763   5.122  13.468  1.00  0.00     0.135 A 
ATOM     64  F   UNL     1      11.239   4.498  10.871  1.00  0.00    -0.206 F 
ATOM     65  C   UNL     1      11.521   4.875  13.172  1.00  0.00     0.059 A 
ATOM     66  C   UNL     1       9.580   5.278  14.580  1.00  0.00     0.059 A 
ATOM     67  F   UNL     1       7.436   5.247  13.635  1.00  0.00    -0.206 F 
ATOM     68  C   UNL     1      10.959   5.148  14.421  1.00  0.00     0.060 A 
BRANCH  68  69
ATOM     69  S   UNL     1      12.058   5.382  15.832  1.00  0.00     0.124 S 
ATOM     70  O   UNL     1      12.467   4.010  16.116  1.00  0.00    -0.237 OA
ATOM     71  O   UNL     1      13.092   6.252  15.281  1.00  0.00    -0.237 OA
ATOM     72  O   UNL     1      11.196   6.002  16.834  1.00  0.00    -0.744 OA
ENDBRANCH  68  69
ENDBRANCH  36  61
ENDBRANCH  10  11
ENDBRANCH   3   5
ENDBRANCH   2   3
ENDBRANCH   1   2
BRANCH   1  73
ATOM     73  C   UNL     1      -1.142   1.053   1.809  1.00  0.00     0.274 C 
BRANCH  73  74
ATOM     74  O   UNL     1       0.297   1.009   1.866  1.00  0.00    -0.460 OA
BRANCH  74  75
ATOM     75  C   UNL     1       0.882   0.049   1.091  1.00  0.00     0.335 C 
ATOM     76  O   UNL     1       0.305  -0.501   0.154  1.00  0.00    -0.249 OA
BRANCH  75  77
ATOM     77  C   UNL     1       2.273  -0.426   1.568  1.00  0.00     0.232 C 
ATOM     78  C   UNL     1       3.365   0.603   1.760  1.00  0.00     0.087 C 
ATOM     79  O   UNL     1       2.191  -1.233   2.742  1.00  0.00    -0.355 OA
ATOM     80  C   UNL     1       3.493   0.753   3.268  1.00  0.00     0.124 C 
ATOM     81  C   UNL     1       2.875  -0.590   3.850  1.00  0.00     0.187 C 
BRANCH  80  82
ATOM     82  C   UNL     1       4.882   1.329   3.624  1.00  0.00     0.005 A 
ATOM     83  C   UNL     1       5.070   2.728   3.473  1.00  0.00     0.008 A 
ATOM     84  C   UNL     1       6.028   0.642   4.028  1.00  0.00     0.047 A 
ATOM     85  C   UNL     1       6.181   3.434   3.950  1.00  0.00     0.001 A 
ATOM     86  C   UNL     1       7.191   1.343   4.424  1.00  0.00     0.021 A 
ATOM     87  Cl  UNL     1       6.173  -1.070   3.955  1.00  0.00    -0.084 Cl
ATOM     88  C   UNL     1       7.242   2.732   4.471  1.00  0.00     0.002 A 
ENDBRANCH  80  82
BRANCH  80  89
ATOM     89  O   UNL     1       2.552   1.788   3.542  1.00  0.00    -0.382 OA
ATOM     90  H   UNL     1       1.658   1.476   3.334  1.00  0.00     0.212 HD
ENDBRANCH  80  89
BRANCH  81  91
ATOM     91  C   UNL     1       1.812  -0.601   4.972  1.00  0.00     0.003 A 
ATOM     92  C   UNL     1       0.654   0.202   4.886  1.00  0.00     0.008 A 
ATOM     93  C   UNL     1       1.865  -1.457   6.088  1.00  0.00     0.046 A 
ATOM     94  C   UNL     1      -0.366   0.207   5.844  1.00  0.00     0.000 A 
ATOM     95  C   UNL     1       0.856  -1.436   7.076  1.00  0.00     0.021 A 
ATOM     96  Cl  UNL     1       3.143  -2.593   6.330  1.00  0.00    -0.084 Cl
ATOM     97  C   UNL     1      -0.258  -0.608   6.955  1.00  0.00     0.002 A 
ENDBRANCH  81  91
ENDBRANCH  75  77
ENDBRANCH  74  75
ENDBRANCH  73  74
ENDBRANCH   1  73
TORSDOF 17
