REMARK SMILES C[C@@H]1CCC[C@](C#N)([C@H](O)C(=O)OCCOC(=O)c2ccc(-c3c4nc(c(-c5c(F)cc(S(=O)(=O)[O-])cc5F)c5ccc([nH]5)c(-c5c(F)cc(S(=O)(=O)[O-])cc5F)c5nc(c(-c6c(F)cc(S(=O)(=O)[O-])cc6F)c6ccc3[nH]6)C=C5)C=C4)cc2)C1
REMARK SMILES IDX 15 1 14 2 13 3 11 4 12 5 9 6 6 7 1 8 2 9 3 10 85 11 4 12
REMARK SMILES IDX 5 13 7 14 8 15 10 16 16 18 17 19 18 20 19 21 20 22 84 23
REMARK SMILES IDX 21 24 83 25 22 26 23 27 24 28 77 29 25 30 82 31 76 32 78 33
REMARK SMILES IDX 26 34 81 35 75 36 74 37 27 39 61 40 40 41 60 42 41 43 44 44
REMARK SMILES IDX 59 45 79 46 42 47 43 48 58 50 80 51 45 52 28 53 29 54 38 55
REMARK SMILES IDX 30 56 31 57 37 58 39 59 32 60 33 61 34 62 35 63 36 64 62 65
REMARK SMILES IDX 63 66 72 67 64 68 65 69 71 70 73 71 66 72 67 73 68 74 69 75
REMARK SMILES IDX 70 76 46 77 47 78 56 79 48 80 49 81 55 82 57 83 50 84 51 85
REMARK SMILES IDX 52 86 53 87 54 88
REMARK H PARENT 10 17 78 38 44 49
REMARK Flexibility Score: inf
ROOT
ATOM      1  C   UNL     1      -1.673  -3.854  -0.512  1.00  0.00     0.275 C 
ENDROOT
BRANCH   1   2
ATOM      2  C   UNL     1      -0.879  -2.562  -0.277  1.00  0.00     0.274 C 
BRANCH   2   3
ATOM      3  O   UNL     1      -1.484  -1.455  -0.975  1.00  0.00    -0.460 OA
BRANCH   3   4
ATOM      4  C   UNL     1      -0.859  -1.024  -2.103  1.00  0.00     0.336 C 
ATOM      5  O   UNL     1       0.234  -1.416  -2.487  1.00  0.00    -0.249 OA
BRANCH   4   6
ATOM      6  C   UNL     1      -1.762  -0.082  -2.926  1.00  0.00     0.244 C 
BRANCH   6   7
ATOM      7  C   UNL     1      -1.508   1.431  -2.734  1.00  0.00     0.094 C 
ATOM      8  C   UNL     1      -3.976   0.825  -0.375  1.00  0.00     0.008 C 
ATOM      9  C   UNL     1      -3.423   2.081  -1.061  1.00  0.00    -0.013 C 
ATOM     10  C   UNL     1      -4.278   2.566  -2.248  1.00  0.00     0.003 C 
ATOM     11  C   UNL     1      -1.917   1.993  -1.357  1.00  0.00     0.029 C 
ATOM     12  C   UNL     1      -3.788   2.236  -3.658  1.00  0.00     0.002 C 
ATOM     13  C   UNL     1      -2.271   2.246  -3.814  1.00  0.00     0.026 C 
BRANCH   7  14
ATOM     14  C   UNL     1      -0.054   1.686  -2.926  1.00  0.00     0.072 C 
ATOM     15  N   UNL     1       1.074   1.904  -3.054  1.00  0.00    -0.198 NA
ENDBRANCH   7  14
ENDBRANCH   6   7
BRANCH   6  16
ATOM     16  O   UNL     1      -3.145  -0.400  -2.805  1.00  0.00    -0.380 OA
ATOM     17  H   UNL     1      -3.438  -0.229  -1.897  1.00  0.00     0.211 HD
ENDBRANCH   6  16
ENDBRANCH   4   6
ENDBRANCH   3   4
ENDBRANCH   2   3
ENDBRANCH   1   2
BRANCH   1  18
ATOM     18  O   UNL     1      -1.552  -4.329  -1.869  1.00  0.00    -0.458 OA
BRANCH  18  19
ATOM     19  C   UNL     1      -2.468  -3.826  -2.729  1.00  0.00     0.338 C 
ATOM     20  O   UNL     1      -3.368  -3.045  -2.459  1.00  0.00    -0.246 OA
BRANCH  19  21
ATOM     21  C   UNL     1      -2.115  -4.146  -4.119  1.00  0.00     0.060 A 
ATOM     22  C   UNL     1      -1.963  -3.066  -4.991  1.00  0.00     0.016 A 
ATOM     23  C   UNL     1      -2.015  -5.450  -4.594  1.00  0.00     0.016 A 
ATOM     24  C   UNL     1      -1.694  -3.264  -6.334  1.00  0.00     0.010 A 
ATOM     25  C   UNL     1      -1.745  -5.655  -5.953  1.00  0.00     0.010 A 
ATOM     26  C   UNL     1      -1.583  -4.563  -6.826  1.00  0.00    -0.014 A 
BRANCH  26  27
ATOM     27  C   UNL     1      -1.366  -4.753  -8.276  1.00  0.00     0.031 A 
ATOM     28  C   UNL     1      -2.480  -5.296  -9.119  1.00  0.00     0.074 A 
ATOM     29  C   UNL     1      -0.193  -4.390  -8.826  1.00  0.00     0.049 A 
ATOM     30  N   UNL     1      -2.468  -5.643 -10.378  1.00  0.00    -0.248 NA
ATOM     31  C   UNL     1      -3.781  -5.477  -8.455  1.00  0.00     0.031 C 
ATOM     32  C   UNL     1       0.923  -3.772  -8.104  1.00  0.00     0.029 A 
ATOM     33  N   UNL     1       0.258  -4.486 -10.116  1.00  0.00    -0.354 N 
ATOM     34  C   UNL     1      -3.746  -6.113 -10.651  1.00  0.00     0.074 A 
ATOM     35  C   UNL     1      -4.503  -6.027  -9.421  1.00  0.00     0.031 C 
ATOM     36  C   UNL     1       1.930  -3.548  -8.963  1.00  0.00     0.029 A 
ATOM     37  C   UNL     1       1.557  -4.066 -10.274  1.00  0.00     0.049 A 
ATOM     38  H   UNL     1      -0.295  -4.823 -10.858  1.00  0.00     0.167 HD
ATOM     39  C   UNL     1      -4.235  -6.573 -11.826  1.00  0.00     0.037 A 
ATOM     40  C   UNL     1       2.368  -4.134 -11.347  1.00  0.00     0.037 A 
ATOM     41  C   UNL     1      -3.460  -6.639 -13.039  1.00  0.00     0.049 A 
ATOM     42  C   UNL     1       1.827  -4.732 -12.618  1.00  0.00     0.074 A 
ATOM     43  C   UNL     1      -3.851  -7.089 -14.287  1.00  0.00     0.029 A 
ATOM     44  N   UNL     1      -2.133  -6.244 -13.153  1.00  0.00    -0.354 N 
ATOM     45  N   UNL     1       0.625  -5.199 -12.863  1.00  0.00    -0.248 NA
ATOM     46  C   UNL     1       2.751  -4.820 -13.755  1.00  0.00     0.031 C 
ATOM     47  C   UNL     1      -2.744  -7.024 -15.139  1.00  0.00     0.029 A 
ATOM     48  C   UNL     1      -1.682  -6.467 -14.444  1.00  0.00     0.049 A 
ATOM     49  H   UNL     1      -1.593  -5.862 -12.425  1.00  0.00     0.167 HD
ATOM     50  C   UNL     1       0.638  -5.605 -14.193  1.00  0.00     0.074 A 
ATOM     51  C   UNL     1       1.965  -5.318 -14.700  1.00  0.00     0.031 C 
ATOM     52  C   UNL     1      -0.356  -6.163 -14.928  1.00  0.00     0.037 A 
BRANCH  39  53
ATOM     53  C   UNL     1      -5.651  -7.082 -11.843  1.00  0.00     0.058 A 
ATOM     54  C   UNL     1      -6.755  -6.228 -11.694  1.00  0.00     0.135 A 
ATOM     55  C   UNL     1      -5.907  -8.451 -12.029  1.00  0.00     0.135 A 
ATOM     56  F   UNL     1      -6.571  -4.913 -11.490  1.00  0.00    -0.206 F 
ATOM     57  C   UNL     1      -8.059  -6.715 -11.700  1.00  0.00     0.059 A 
ATOM     58  C   UNL     1      -7.203  -8.956 -12.072  1.00  0.00     0.059 A 
ATOM     59  F   UNL     1      -4.890  -9.316 -12.170  1.00  0.00    -0.206 F 
ATOM     60  C   UNL     1      -8.273  -8.081 -11.892  1.00  0.00     0.060 A 
BRANCH  60  61
ATOM     61  S   UNL     1      -9.970  -8.695 -11.900  1.00  0.00     0.124 S 
ATOM     62  O   UNL     1     -10.344  -8.537 -10.498  1.00  0.00    -0.237 OA
ATOM     63  O   UNL     1     -10.624  -7.786 -12.836  1.00  0.00    -0.237 OA
ATOM     64  O   UNL     1      -9.833 -10.073 -12.360  1.00  0.00    -0.744 OA
ENDBRANCH  60  61
ENDBRANCH  39  53
BRANCH  40  65
ATOM     65  C   UNL     1       3.773  -3.654 -11.254  1.00  0.00     0.058 A 
ATOM     66  C   UNL     1       4.207  -2.538 -11.983  1.00  0.00     0.135 A 
ATOM     67  C   UNL     1       4.710  -4.298 -10.429  1.00  0.00     0.135 A 
ATOM     68  F   UNL     1       3.354  -1.892 -12.793  1.00  0.00    -0.206 F 
ATOM     69  C   UNL     1       5.522  -2.088 -11.914  1.00  0.00     0.059 A 
ATOM     70  C   UNL     1       6.022  -3.848 -10.318  1.00  0.00     0.059 A 
ATOM     71  F   UNL     1       4.346  -5.365  -9.701  1.00  0.00    -0.206 F 
ATOM     72  C   UNL     1       6.422  -2.748 -11.075  1.00  0.00     0.060 A 
BRANCH  72  73
ATOM     73  S   UNL     1       8.116  -2.134 -10.970  1.00  0.00     0.124 S 
ATOM     74  O   UNL     1       8.641  -2.493 -12.282  1.00  0.00    -0.237 OA
ATOM     75  O   UNL     1       7.909  -0.709 -10.732  1.00  0.00    -0.237 OA
ATOM     76  O   UNL     1       8.674  -2.876  -9.843  1.00  0.00    -0.744 OA
ENDBRANCH  72  73
ENDBRANCH  40  65
BRANCH  52  77
ATOM     77  C   UNL     1      -0.063  -6.454 -16.375  1.00  0.00     0.058 A 
ATOM     78  C   UNL     1       0.804  -7.485 -16.766  1.00  0.00     0.135 A 
ATOM     79  C   UNL     1      -0.706  -5.720 -17.386  1.00  0.00     0.135 A 
ATOM     80  F   UNL     1       1.451  -8.212 -15.840  1.00  0.00    -0.206 F 
ATOM     81  C   UNL     1       1.045  -7.762 -18.107  1.00  0.00     0.059 A 
ATOM     82  C   UNL     1      -0.508  -6.003 -18.733  1.00  0.00     0.059 A 
ATOM     83  F   UNL     1      -1.554  -4.729 -17.068  1.00  0.00    -0.206 F 
ATOM     84  C   UNL     1       0.379  -7.018 -19.084  1.00  0.00     0.060 A 
BRANCH  84  85
ATOM     85  S   UNL     1       0.671  -7.415 -20.820  1.00  0.00     0.124 S 
ATOM     86  O   UNL     1       2.034  -6.930 -21.008  1.00  0.00    -0.237 OA
ATOM     87  O   UNL     1       0.506  -8.866 -20.838  1.00  0.00    -0.237 OA
ATOM     88  O   UNL     1      -0.365  -6.663 -21.521  1.00  0.00    -0.744 OA
ENDBRANCH  84  85
ENDBRANCH  52  77
ENDBRANCH  26  27
ENDBRANCH  19  21
ENDBRANCH  18  19
ENDBRANCH   1  18
TORSDOF 17
