REMARK SMILES Cc1c(C(=O)OCCOC(=O)c2ccc(-c3c4nc(c(-c5c(F)cc(S(=O)(=O)[O-])cc5F)c5ccc([nH]5)c(-c5c(F)cc(S(=O)(=O)[O-])cc5F)c5nc(c(-c6c(F)cc(S(=O)(=O)[O-])cc6F)c6ccc3[nH]6)C=C5)C=C4)cc2)oc2c1/C(=N/NC(=O)C(c1ccccc1)c1ccccc1)CCC2
REMARK SMILES IDX 7 1 6 2 4 3 5 4 3 5 1 6 2 7 80 8 78 9 79 10 81 11 101 12
REMARK SMILES IDX 82 13 99 14 100 15 83 16 84 17 85 19 86 20 87 21 88 22 92 23
REMARK SMILES IDX 89 24 91 25 90 26 93 27 94 28 98 29 95 30 97 31 96 32 8 33
REMARK SMILES IDX 9 34 10 35 11 36 12 37 13 38 77 39 14 40 76 41 15 42 16 43
REMARK SMILES IDX 17 44 70 45 18 46 75 47 69 48 71 49 19 50 74 51 68 52 67 53
REMARK SMILES IDX 20 55 54 56 33 57 53 58 34 59 37 60 52 61 72 62 35 63 36 64
REMARK SMILES IDX 51 66 73 67 38 68 21 69 22 70 31 71 23 72 24 73 30 74 32 75
REMARK SMILES IDX 25 76 26 77 27 78 28 79 29 80 55 81 56 82 65 83 57 84 58 85
REMARK SMILES IDX 64 86 66 87 59 88 60 89 61 90 62 91 63 92 39 93 40 94 49 95
REMARK SMILES IDX 41 96 42 97 48 98 50 99 43 100 44 101 45 102 46 103 47 104
REMARK H PARENT 83 18 71 54 37 65
REMARK Flexibility Score: inf
ROOT
ATOM      1  C   UNL     1       3.506  -5.171  -1.070  1.00  0.00     0.275 C 
ENDROOT
BRANCH   1   2
ATOM      2  O   UNL     1       2.916  -4.301  -0.101  1.00  0.00    -0.456 OA
BRANCH   2   3
ATOM      3  C   UNL     1       2.820  -2.948  -0.337  1.00  0.00     0.374 C 
ATOM      4  O   UNL     1       3.482  -2.326  -1.143  1.00  0.00    -0.242 OA
BRANCH   3   5
ATOM      5  C   UNL     1       1.745  -2.456   0.502  1.00  0.00     0.215 A 
ATOM      6  C   UNL     1       1.279   0.057   0.040  1.00  0.00     0.049 C 
ATOM      7  C   UNL     1       1.054  -1.250   0.705  1.00  0.00     0.012 A 
ATOM      8  C   UNL     1       0.098  -1.529   1.742  1.00  0.00     0.043 A 
ATOM      9  O   UNL     1       1.224  -3.423   1.301  1.00  0.00    -0.453 OA
ATOM     10  C   UNL     1       0.248  -2.881   2.001  1.00  0.00     0.114 A 
ATOM     11  C   UNL     1      -0.833  -0.789   2.600  1.00  0.00     0.072 C 
ATOM     12  C   UNL     1      -0.375  -3.771   2.993  1.00  0.00     0.076 C 
ATOM     13  N   UNL     1      -1.188   0.441   2.386  1.00  0.00    -0.177 NA
ATOM     14  C   UNL     1      -1.180  -1.608   3.788  1.00  0.00     0.059 C 
ATOM     15  C   UNL     1      -1.570  -3.050   3.553  1.00  0.00     0.014 C 
BRANCH  13  16
ATOM     16  N   UNL     1      -1.990   1.297   3.146  1.00  0.00    -0.246 N 
ATOM     17  C   UNL     1      -2.654   1.454   4.351  1.00  0.00     0.252 C 
ATOM     18  H   UNL     1      -2.144   2.110   2.614  1.00  0.00     0.193 HD
ATOM     19  O   UNL     1      -3.212   2.564   4.485  1.00  0.00    -0.272 OA
BRANCH  17  20
ATOM     20  C   UNL     1      -2.803   0.455   5.572  1.00  0.00     0.140 C 
BRANCH  20  21
ATOM     21  C   UNL     1      -3.826  -0.677   5.173  1.00  0.00    -0.031 A 
ATOM     22  C   UNL     1      -4.592  -0.516   3.988  1.00  0.00     0.005 A 
ATOM     23  C   UNL     1      -3.935  -1.924   5.811  1.00  0.00     0.005 A 
ATOM     24  C   UNL     1      -5.210  -1.593   3.347  1.00  0.00     0.000 A 
ATOM     25  C   UNL     1      -4.566  -3.008   5.168  1.00  0.00     0.000 A 
ATOM     26  C   UNL     1      -5.159  -2.853   3.917  1.00  0.00     0.000 A 
ENDBRANCH  20  21
BRANCH  20  27
ATOM     27  C   UNL     1      -1.364   0.223   6.159  1.00  0.00    -0.031 A 
ATOM     28  C   UNL     1      -0.856  -0.973   6.694  1.00  0.00     0.005 A 
ATOM     29  C   UNL     1      -0.429   1.278   6.010  1.00  0.00     0.005 A 
ATOM     30  C   UNL     1       0.536  -1.181   6.805  1.00  0.00     0.000 A 
ATOM     31  C   UNL     1       0.950   1.070   6.105  1.00  0.00     0.000 A 
ATOM     32  C   UNL     1       1.436  -0.179   6.453  1.00  0.00     0.000 A 
ENDBRANCH  20  27
ENDBRANCH  17  20
ENDBRANCH  13  16
ENDBRANCH   3   5
ENDBRANCH   2   3
ENDBRANCH   1   2
BRANCH   1  33
ATOM     33  C   UNL     1       2.510  -5.536  -2.159  1.00  0.00     0.275 C 
BRANCH  33  34
ATOM     34  O   UNL     1       2.196  -4.381  -2.923  1.00  0.00    -0.458 OA
BRANCH  34  35
ATOM     35  C   UNL     1       1.042  -3.756  -2.603  1.00  0.00     0.338 C 
ATOM     36  O   UNL     1       0.304  -3.997  -1.664  1.00  0.00    -0.246 OA
BRANCH  35  37
ATOM     37  C   UNL     1       0.743  -2.792  -3.660  1.00  0.00     0.060 A 
ATOM     38  C   UNL     1      -0.337  -1.926  -3.471  1.00  0.00     0.016 A 
ATOM     39  C   UNL     1       1.374  -2.945  -4.903  1.00  0.00     0.016 A 
ATOM     40  C   UNL     1      -0.915  -1.365  -4.587  1.00  0.00     0.010 A 
ATOM     41  C   UNL     1       0.794  -2.392  -6.011  1.00  0.00     0.010 A 
ATOM     42  C   UNL     1      -0.394  -1.689  -5.845  1.00  0.00    -0.014 A 
BRANCH  42  43
ATOM     43  C   UNL     1      -1.061  -1.191  -7.024  1.00  0.00     0.031 A 
ATOM     44  C   UNL     1      -0.928   0.276  -7.165  1.00  0.00     0.074 A 
ATOM     45  C   UNL     1      -1.600  -2.028  -7.932  1.00  0.00     0.049 A 
ATOM     46  N   UNL     1      -1.867   1.157  -7.089  1.00  0.00    -0.248 NA
ATOM     47  C   UNL     1       0.431   0.849  -7.170  1.00  0.00     0.031 C 
ATOM     48  C   UNL     1      -1.541  -3.493  -7.973  1.00  0.00     0.029 A 
ATOM     49  N   UNL     1      -2.229  -1.719  -9.095  1.00  0.00    -0.354 N 
ATOM     50  C   UNL     1      -1.243   2.379  -7.301  1.00  0.00     0.074 A 
ATOM     51  C   UNL     1       0.167   2.155  -7.123  1.00  0.00     0.031 C 
ATOM     52  C   UNL     1      -1.889  -3.920  -9.209  1.00  0.00     0.029 A 
ATOM     53  C   UNL     1      -2.313  -2.779  -9.998  1.00  0.00     0.049 A 
ATOM     54  H   UNL     1      -2.594  -0.825  -9.285  1.00  0.00     0.167 HD
ATOM     55  C   UNL     1      -1.911   3.410  -7.882  1.00  0.00     0.037 A 
ATOM     56  C   UNL     1      -2.604  -2.655 -11.321  1.00  0.00     0.037 A 
ATOM     57  C   UNL     1      -3.338   3.220  -7.797  1.00  0.00     0.049 A 
ATOM     58  C   UNL     1      -3.312  -1.346 -11.473  1.00  0.00     0.074 A 
ATOM     59  C   UNL     1      -4.212   3.036  -6.741  1.00  0.00     0.029 A 
ATOM     60  N   UNL     1      -3.995   2.755  -8.913  1.00  0.00    -0.354 N 
ATOM     61  N   UNL     1      -4.485  -1.102 -10.944  1.00  0.00    -0.248 NA
ATOM     62  C   UNL     1      -2.491  -0.169 -11.731  1.00  0.00     0.031 C 
ATOM     63  C   UNL     1      -5.109   2.019  -7.182  1.00  0.00     0.029 A 
ATOM     64  C   UNL     1      -4.798   1.715  -8.508  1.00  0.00     0.049 A 
ATOM     65  H   UNL     1      -3.906   3.101  -9.830  1.00  0.00     0.167 HD
ATOM     66  C   UNL     1      -4.381   0.179 -10.416  1.00  0.00     0.074 A 
ATOM     67  C   UNL     1      -3.140   0.720 -10.971  1.00  0.00     0.031 C 
ATOM     68  C   UNL     1      -5.132   0.583  -9.346  1.00  0.00     0.037 A 
BRANCH  55  69
ATOM     69  C   UNL     1      -1.261   4.373  -8.839  1.00  0.00     0.058 A 
ATOM     70  C   UNL     1      -1.952   5.532  -9.234  1.00  0.00     0.135 A 
ATOM     71  C   UNL     1      -0.097   4.070  -9.583  1.00  0.00     0.135 A 
ATOM     72  F   UNL     1      -3.086   5.896  -8.614  1.00  0.00    -0.206 F 
ATOM     73  C   UNL     1      -1.540   6.310 -10.316  1.00  0.00     0.059 A 
ATOM     74  C   UNL     1       0.363   4.861 -10.625  1.00  0.00     0.059 A 
ATOM     75  F   UNL     1       0.599   2.940  -9.401  1.00  0.00    -0.206 F 
ATOM     76  C   UNL     1      -0.383   5.960 -11.009  1.00  0.00     0.060 A 
BRANCH  76  77
ATOM     77  S   UNL     1       0.115   6.921 -12.447  1.00  0.00     0.124 S 
ATOM     78  O   UNL     1      -0.942   6.593 -13.396  1.00  0.00    -0.237 OA
ATOM     79  O   UNL     1       0.102   8.280 -11.918  1.00  0.00    -0.237 OA
ATOM     80  O   UNL     1       1.437   6.390 -12.764  1.00  0.00    -0.744 OA
ENDBRANCH  76  77
ENDBRANCH  55  69
BRANCH  56  81
ATOM     81  C   UNL     1      -1.929  -3.360 -12.450  1.00  0.00     0.058 A 
ATOM     82  C   UNL     1      -2.415  -3.285 -13.769  1.00  0.00     0.135 A 
ATOM     83  C   UNL     1      -0.638  -3.914 -12.307  1.00  0.00     0.135 A 
ATOM     84  F   UNL     1      -3.623  -2.751 -14.012  1.00  0.00    -0.206 F 
ATOM     85  C   UNL     1      -1.655  -3.696 -14.876  1.00  0.00     0.059 A 
ATOM     86  C   UNL     1       0.131  -4.338 -13.389  1.00  0.00     0.059 A 
ATOM     87  F   UNL     1      -0.038  -3.979 -11.110  1.00  0.00    -0.206 F 
ATOM     88  C   UNL     1      -0.372  -4.205 -14.675  1.00  0.00     0.060 A 
BRANCH  88  89
ATOM     89  S   UNL     1       0.686  -4.581 -16.095  1.00  0.00     0.124 S 
ATOM     90  O   UNL     1       0.022  -5.747 -16.668  1.00  0.00    -0.237 OA
ATOM     91  O   UNL     1       0.605  -3.352 -16.876  1.00  0.00    -0.237 OA
ATOM     92  O   UNL     1       1.989  -4.844 -15.487  1.00  0.00    -0.744 OA
ENDBRANCH  88  89
ENDBRANCH  56  81
BRANCH  68  93
ATOM     93  C   UNL     1      -6.256  -0.302  -8.862  1.00  0.00     0.058 A 
ATOM     94  C   UNL     1      -6.090  -1.603  -8.348  1.00  0.00     0.135 A 
ATOM     95  C   UNL     1      -7.534   0.267  -8.743  1.00  0.00     0.135 A 
ATOM     96  F   UNL     1      -4.882  -2.181  -8.317  1.00  0.00    -0.206 F 
ATOM     97  C   UNL     1      -7.153  -2.317  -7.785  1.00  0.00     0.059 A 
ATOM     98  C   UNL     1      -8.598  -0.412  -8.156  1.00  0.00     0.059 A 
ATOM     99  F   UNL     1      -7.747   1.528  -9.151  1.00  0.00    -0.206 F 
ATOM    100  C   UNL     1      -8.405  -1.711  -7.693  1.00  0.00     0.060 A 
BRANCH 100 101
ATOM    101  S   UNL     1      -9.769  -2.606  -6.917  1.00  0.00     0.124 S 
ATOM    102  O   UNL     1     -10.040  -3.657  -7.893  1.00  0.00    -0.237 OA
ATOM    103  O   UNL     1      -9.183  -3.049  -5.656  1.00  0.00    -0.237 OA
ATOM    104  O   UNL     1     -10.814  -1.593  -6.787  1.00  0.00    -0.744 OA
ENDBRANCH 100 101
ENDBRANCH  68  93
ENDBRANCH  42  43
ENDBRANCH  35  37
ENDBRANCH  34  35
ENDBRANCH  33  34
ENDBRANCH   1  33
TORSDOF 18
