REMARK SMILES NC(=O)[C@@H]1CCC[N@@H+]1[C@@H](C(=O)OCCOC(=O)c1ccc(-c2c3nc(c(-c4c(F)cc(S(=O)(=O)[O-])cc4F)c4ccc([nH]4)c(-c4c(F)cc(S(=O)(=O)[O-])cc4F)c4nc(c(-c5c(F)cc(S(=O)(=O)[O-])cc5F)c5ccc2[nH]5)C=C4)C=C3)cc1)c1c[nH]c2cc(OCc3ccccc3)ccc12
REMARK SMILES IDX 13 1 12 2 10 3 11 4 9 5 8 6 4 7 5 8 6 9 7 10 2 12 1 13 3 16
REMARK SMILES IDX 84 17 85 18 100 19 86 20 87 21 99 22 88 24 98 25 89 26 90 27
REMARK SMILES IDX 91 28 92 29 93 30 97 31 94 32 96 33 95 34 14 35 15 36 16 37
REMARK SMILES IDX 17 38 18 39 19 40 83 41 20 42 82 43 21 44 22 45 23 46 76 47
REMARK SMILES IDX 24 48 81 49 75 50 77 51 25 52 80 53 74 54 73 55 26 57 60 58
REMARK SMILES IDX 39 59 59 60 40 61 43 62 58 63 78 64 41 65 42 66 57 68 79 69
REMARK SMILES IDX 44 70 27 71 28 72 37 73 29 74 30 75 36 76 38 77 31 78 32 79
REMARK SMILES IDX 33 80 34 81 35 82 61 83 62 84 71 85 63 86 64 87 70 88 72 89
REMARK SMILES IDX 65 90 66 91 67 92 68 93 69 94 45 95 46 96 55 97 47 98 48 99
REMARK SMILES IDX 54 100 56 101 49 102 50 103 51 104 52 105 53 106
REMARK H PARENT 8 11 1 14 1 15 86 23 77 56 43 67
REMARK Flexibility Score: inf
ROOT
ATOM      1  C   UNL     1       4.042   1.279   0.232  1.00  0.00     0.274 C 
ENDROOT
BRANCH   1   2
ATOM      2  O   UNL     1       3.523   2.042  -0.888  1.00  0.00    -0.457 OA
BRANCH   2   3
ATOM      3  C   UNL     1       2.501   2.894  -0.586  1.00  0.00     0.370 C 
ATOM      4  O   UNL     1       2.202   3.167   0.577  1.00  0.00    -0.245 OA
BRANCH   3   5
ATOM      5  C   UNL     1       1.648   3.370  -1.767  1.00  0.00     0.329 C 
BRANCH   5   6
ATOM      6  N   UNL     1       1.088   2.337  -2.714  1.00  0.00    -0.309 N 
ATOM      7  C   UNL     1       0.878   0.948  -2.249  1.00  0.00     0.275 C 
ATOM      8  C   UNL     1       2.099   0.169  -2.758  1.00  0.00     0.081 C 
ATOM      9  C   UNL     1       2.769   1.082  -3.780  1.00  0.00     0.068 C 
ATOM     10  C   UNL     1       1.745   2.165  -4.012  1.00  0.00     0.264 C 
ATOM     11  H   UNL     1       0.196   2.826  -2.786  1.00  0.00     0.349 HD
BRANCH   7  12
ATOM     12  C   UNL     1       0.413   0.790  -0.798  1.00  0.00     0.275 C 
ATOM     13  N   UNL     1       1.000  -0.183  -0.046  1.00  0.00    -0.365 N 
ATOM     14  H   UNL     1       0.726  -0.314   0.891  1.00  0.00     0.159 HD
ATOM     15  H   UNL     1       1.697  -0.756  -0.439  1.00  0.00     0.159 HD
ATOM     16  O   UNL     1      -0.488   1.463  -0.302  1.00  0.00    -0.268 OA
ENDBRANCH   7  12
ENDBRANCH   5   6
BRANCH   5  17
ATOM     17  C   UNL     1       2.092   4.591  -2.564  1.00  0.00     0.046 A 
ATOM     18  C   UNL     1       1.165   5.436  -3.170  1.00  0.00     0.094 A 
ATOM     19  C   UNL     1       3.372   4.958  -3.120  1.00  0.00     0.009 A 
ATOM     20  N   UNL     1       1.760   6.012  -4.254  1.00  0.00    -0.361 N 
ATOM     21  C   UNL     1       3.079   5.641  -4.305  1.00  0.00     0.050 A 
ATOM     22  C   UNL     1       4.726   4.642  -2.885  1.00  0.00     0.015 A 
ATOM     23  H   UNL     1       1.312   6.604  -4.901  1.00  0.00     0.166 HD
ATOM     24  C   UNL     1       4.007   5.795  -5.338  1.00  0.00     0.073 A 
ATOM     25  C   UNL     1       5.707   4.937  -3.851  1.00  0.00     0.047 A 
ATOM     26  C   UNL     1       5.331   5.430  -5.094  1.00  0.00     0.121 A 
BRANCH  26  27
ATOM     27  O   UNL     1       6.152   5.440  -6.189  1.00  0.00    -0.489 OA
BRANCH  27  28
ATOM     28  C   UNL     1       7.393   6.136  -6.050  1.00  0.00     0.265 C 
BRANCH  28  29
ATOM     29  C   UNL     1       7.285   7.623  -6.299  1.00  0.00    -0.011 A 
ATOM     30  C   UNL     1       8.379   8.445  -5.988  1.00  0.00     0.007 A 
ATOM     31  C   UNL     1       6.162   8.199  -6.911  1.00  0.00     0.007 A 
ATOM     32  C   UNL     1       8.345   9.807  -6.278  1.00  0.00     0.000 A 
ATOM     33  C   UNL     1       6.123   9.562  -7.191  1.00  0.00     0.000 A 
ATOM     34  C   UNL     1       7.223  10.355  -6.888  1.00  0.00     0.000 A 
ENDBRANCH  28  29
ENDBRANCH  27  28
ENDBRANCH  26  27
ENDBRANCH   5  17
ENDBRANCH   3   5
ENDBRANCH   2   3
ENDBRANCH   1   2
BRANCH   1  35
ATOM     35  C   UNL     1       5.419   1.754   0.677  1.00  0.00     0.275 C 
BRANCH  35  36
ATOM     36  O   UNL     1       5.317   3.127   1.064  1.00  0.00    -0.458 OA
BRANCH  36  37
ATOM     37  C   UNL     1       6.209   3.959   0.480  1.00  0.00     0.338 C 
ATOM     38  O   UNL     1       7.222   3.630  -0.111  1.00  0.00    -0.246 OA
BRANCH  37  39
ATOM     39  C   UNL     1       5.707   5.353   0.517  1.00  0.00     0.060 A 
ATOM     40  C   UNL     1       4.344   5.637   0.655  1.00  0.00     0.016 A 
ATOM     41  C   UNL     1       6.604   6.387   0.252  1.00  0.00     0.016 A 
ATOM     42  C   UNL     1       3.864   6.926   0.447  1.00  0.00     0.010 A 
ATOM     43  C   UNL     1       6.136   7.695   0.130  1.00  0.00     0.010 A 
ATOM     44  C   UNL     1       4.762   7.972   0.214  1.00  0.00    -0.014 A 
BRANCH  44  45
ATOM     45  C   UNL     1       4.308   9.380   0.196  1.00  0.00     0.031 A 
ATOM     46  C   UNL     1       4.450  10.217  -1.040  1.00  0.00     0.074 A 
ATOM     47  C   UNL     1       3.869   9.919   1.349  1.00  0.00     0.049 A 
ATOM     48  N   UNL     1       4.430  11.519  -1.151  1.00  0.00    -0.248 NA
ATOM     49  C   UNL     1       4.644   9.504  -2.313  1.00  0.00     0.031 C 
ATOM     50  C   UNL     1       3.641   9.181   2.596  1.00  0.00     0.029 A 
ATOM     51  N   UNL     1       3.578  11.219   1.675  1.00  0.00    -0.354 N 
ATOM     52  C   UNL     1       4.637  11.791  -2.498  1.00  0.00     0.074 A 
ATOM     53  C   UNL     1       4.775  10.514  -3.169  1.00  0.00     0.031 C 
ATOM     54  C   UNL     1       3.276  10.041   3.556  1.00  0.00     0.029 A 
ATOM     55  C   UNL     1       3.330  11.393   3.016  1.00  0.00     0.049 A 
ATOM     56  H   UNL     1       3.551  11.951   1.018  1.00  0.00     0.167 HD
ATOM     57  C   UNL     1       4.712  13.004  -3.096  1.00  0.00     0.037 A 
ATOM     58  C   UNL     1       3.236  12.514   3.753  1.00  0.00     0.037 A 
ATOM     59  C   UNL     1       4.557  14.258  -2.396  1.00  0.00     0.049 A 
ATOM     60  C   UNL     1       3.401  13.841   3.081  1.00  0.00     0.074 A 
ATOM     61  C   UNL     1       4.605  15.542  -2.913  1.00  0.00     0.029 A 
ATOM     62  N   UNL     1       4.322  14.387  -1.035  1.00  0.00    -0.354 N 
ATOM     63  N   UNL     1       3.673  14.092   1.823  1.00  0.00    -0.248 NA
ATOM     64  C   UNL     1       3.259  15.034   3.923  1.00  0.00     0.031 C 
ATOM     65  C   UNL     1       4.443  16.447  -1.861  1.00  0.00     0.029 A 
ATOM     66  C   UNL     1       4.237  15.728  -0.696  1.00  0.00     0.049 A 
ATOM     67  H   UNL     1       4.229  13.638  -0.404  1.00  0.00     0.167 HD
ATOM     68  C   UNL     1       3.726  15.474   1.719  1.00  0.00     0.074 A 
ATOM     69  C   UNL     1       3.447  16.005   3.039  1.00  0.00     0.031 C 
ATOM     70  C   UNL     1       3.978  16.235   0.627  1.00  0.00     0.037 A 
BRANCH  57  71
ATOM     71  C   UNL     1       4.994  13.078  -4.571  1.00  0.00     0.058 A 
ATOM     72  C   UNL     1       4.014  12.786  -5.530  1.00  0.00     0.135 A 
ATOM     73  C   UNL     1       6.216  13.606  -5.023  1.00  0.00     0.135 A 
ATOM     74  F   UNL     1       2.831  12.274  -5.156  1.00  0.00    -0.206 F 
ATOM     75  C   UNL     1       4.234  13.016  -6.886  1.00  0.00     0.059 A 
ATOM     76  C   UNL     1       6.445  13.877  -6.369  1.00  0.00     0.059 A 
ATOM     77  F   UNL     1       7.195  13.891  -4.149  1.00  0.00    -0.206 F 
ATOM     78  C   UNL     1       5.449  13.569  -7.295  1.00  0.00     0.060 A 
BRANCH  78  79
ATOM     79  S   UNL     1       5.737  13.810  -9.061  1.00  0.00     0.124 S 
ATOM     80  O   UNL     1       5.769  12.431  -9.539  1.00  0.00    -0.237 OA
ATOM     81  O   UNL     1       4.573  14.592  -9.462  1.00  0.00    -0.237 OA
ATOM     82  O   UNL     1       7.014  14.515  -9.105  1.00  0.00    -0.744 OA
ENDBRANCH  78  79
ENDBRANCH  57  71
BRANCH  58  83
ATOM     83  C   UNL     1       3.038  12.400   5.219  1.00  0.00     0.058 A 
ATOM     84  C   UNL     1       1.797  12.683   5.803  1.00  0.00     0.135 A 
ATOM     85  C   UNL     1       4.064  11.920   6.050  1.00  0.00     0.135 A 
ATOM     86  F   UNL     1       0.792  13.150   5.048  1.00  0.00    -0.206 F 
ATOM     87  C   UNL     1       1.574  12.484   7.161  1.00  0.00     0.059 A 
ATOM     88  C   UNL     1       3.858  11.690   7.404  1.00  0.00     0.059 A 
ATOM     89  F   UNL     1       5.265  11.619   5.530  1.00  0.00    -0.206 F 
ATOM     90  C   UNL     1       2.608  11.977   7.952  1.00  0.00     0.060 A 
BRANCH  90  91
ATOM     91  S   UNL     1       2.282  11.623   9.692  1.00  0.00     0.124 S 
ATOM     92  O   UNL     1       2.363  12.954  10.282  1.00  0.00    -0.237 OA
ATOM     93  O   UNL     1       0.951  11.025   9.644  1.00  0.00    -0.237 OA
ATOM     94  O   UNL     1       3.358  10.704  10.053  1.00  0.00    -0.744 OA
ENDBRANCH  90  91
ENDBRANCH  58  83
BRANCH  70  95
ATOM     95  C   UNL     1       3.936  17.722   0.814  1.00  0.00     0.058 A 
ATOM     96  C   UNL     1       4.985  18.413   1.440  1.00  0.00     0.135 A 
ATOM     97  C   UNL     1       2.843  18.465   0.343  1.00  0.00     0.135 A 
ATOM     98  F   UNL     1       6.048  17.743   1.912  1.00  0.00    -0.206 F 
ATOM     99  C   UNL     1       4.936  19.790   1.620  1.00  0.00     0.059 A 
ATOM    100  C   UNL     1       2.783  19.846   0.493  1.00  0.00     0.059 A 
ATOM    101  F   UNL     1       1.821  17.849  -0.272  1.00  0.00    -0.206 F 
ATOM    102  C   UNL     1       3.828  20.497   1.148  1.00  0.00     0.060 A 
BRANCH 102 103
ATOM    103  S   UNL     1       3.774  22.285   1.385  1.00  0.00     0.124 S 
ATOM    104  O   UNL     1       3.413  22.382   2.796  1.00  0.00    -0.237 OA
ATOM    105  O   UNL     1       5.135  22.690   1.050  1.00  0.00    -0.237 OA
ATOM    106  O   UNL     1       2.747  22.721   0.443  1.00  0.00    -0.744 OA
ENDBRANCH 102 103
ENDBRANCH  70  95
ENDBRANCH  44  45
ENDBRANCH  37  39
ENDBRANCH  36  37
ENDBRANCH  35  36
ENDBRANCH   1  35
TORSDOF 20
