REMARK SMILES CC(=O)N/N=C/c1ccc(O[C@H](C)C(=O)OCCOC(=O)c2ccc(-c3c4nc(c(-c5c(F)cc(S(=O)(=O)[O-])cc5F)c5ccc([nH]5)c(-c5c(F)cc(S(=O)(=O)[O-])cc5F)c5nc(c(-c6c(F)cc(S(=O)(=O)[O-])cc6F)c6ccc3[nH]6)C=C5)C=C4)cc2)cc1
REMARK SMILES IDX 17 1 16 2 14 3 15 4 12 5 13 6 11 7 10 8 7 9 8 10 89 11 9 12
REMARK SMILES IDX 88 13 6 14 5 15 4 16 1 17 2 18 3 19 18 21 19 22 20 23 21 24
REMARK SMILES IDX 22 25 23 26 87 27 24 28 86 29 25 30 26 31 27 32 80 33 28 34
REMARK SMILES IDX 85 35 79 36 81 37 29 38 84 39 78 40 77 41 30 43 64 44 43 45
REMARK SMILES IDX 63 46 44 47 47 48 62 49 82 50 45 51 46 52 61 54 83 55 48 56
REMARK SMILES IDX 31 57 32 58 41 59 33 60 34 61 40 62 42 63 35 64 36 65 37 66
REMARK SMILES IDX 38 67 39 68 65 69 66 70 75 71 67 72 68 73 74 74 76 75 69 76
REMARK SMILES IDX 70 77 71 78 72 79 73 80 49 81 50 82 59 83 51 84 52 85 58 86
REMARK SMILES IDX 60 87 53 88 54 89 55 90 56 91 57 92
REMARK H PARENT 4 20 81 42 47 53
REMARK Flexibility Score: inf
ROOT
ATOM      1  C   UNL     1       0.983   0.104   8.155  1.00  0.00     0.274 C 
ENDROOT
BRANCH   1   2
ATOM      2  O   UNL     1       2.093   0.582   7.374  1.00  0.00    -0.459 OA
BRANCH   2   3
ATOM      3  C   UNL     1       3.121   1.151   8.059  1.00  0.00     0.347 C 
ATOM      4  O   UNL     1       3.068   1.457   9.247  1.00  0.00    -0.248 OA
BRANCH   3   5
ATOM      5  C   UNL     1       4.378   1.347   7.204  1.00  0.00     0.279 C 
ATOM      6  C   UNL     1       4.436   0.481   5.941  1.00  0.00     0.066 C 
BRANCH   5   7
ATOM      7  O   UNL     1       4.441   2.743   6.896  1.00  0.00    -0.479 OA
BRANCH   7   8
ATOM      8  C   UNL     1       5.630   3.275   6.480  1.00  0.00     0.120 A 
ATOM      9  C   UNL     1       7.877   4.595   5.452  1.00  0.00    -0.005 A 
ATOM     10  C   UNL     1       7.954   3.242   5.788  1.00  0.00     0.013 A 
ATOM     11  C   UNL     1       6.691   5.301   5.662  1.00  0.00     0.013 A 
ATOM     12  C   UNL     1       6.833   2.587   6.308  1.00  0.00     0.047 A 
ATOM     13  C   UNL     1       5.575   4.638   6.177  1.00  0.00     0.047 A 
BRANCH   9  14
ATOM     14  C   UNL     1       9.059   5.251   4.862  1.00  0.00     0.141 C 
ATOM     15  N   UNL     1       9.020   6.476   4.439  1.00  0.00    -0.181 NA
BRANCH  15  16
ATOM     16  N   UNL     1      10.169   6.962   3.891  1.00  0.00    -0.247 N 
ATOM     17  C   UNL     1      10.271   5.303   2.051  1.00  0.00     0.116 C 
ATOM     18  C   UNL     1      10.814   6.513   2.764  1.00  0.00     0.236 C 
ATOM     19  O   UNL     1      11.819   7.095   2.352  1.00  0.00    -0.274 OA
ATOM     20  H   UNL     1      10.586   7.722   4.357  1.00  0.00     0.193 HD
ENDBRANCH  15  16
ENDBRANCH   9  14
ENDBRANCH   7   8
ENDBRANCH   5   7
ENDBRANCH   3   5
ENDBRANCH   2   3
ENDBRANCH   1   2
BRANCH   1  21
ATOM     21  C   UNL     1       1.136  -1.391   8.455  1.00  0.00     0.275 C 
BRANCH  21  22
ATOM     22  O   UNL     1       2.088  -1.638   9.507  1.00  0.00    -0.458 OA
BRANCH  22  23
ATOM     23  C   UNL     1       3.372  -1.804   9.114  1.00  0.00     0.338 C 
ATOM     24  O   UNL     1       3.809  -1.772   7.977  1.00  0.00    -0.246 OA
BRANCH  23  25
ATOM     25  C   UNL     1       4.238  -1.931  10.293  1.00  0.00     0.060 A 
ATOM     26  C   UNL     1       5.224  -0.963  10.510  1.00  0.00     0.016 A 
ATOM     27  C   UNL     1       4.131  -3.043  11.127  1.00  0.00     0.016 A 
ATOM     28  C   UNL     1       6.123  -1.111  11.563  1.00  0.00     0.010 A 
ATOM     29  C   UNL     1       5.027  -3.184  12.187  1.00  0.00     0.010 A 
ATOM     30  C   UNL     1       6.033  -2.227  12.404  1.00  0.00    -0.014 A 
BRANCH  30  31
ATOM     31  C   UNL     1       7.002  -2.433  13.505  1.00  0.00     0.031 A 
ATOM     32  C   UNL     1       8.036  -3.513  13.384  1.00  0.00     0.074 A 
ATOM     33  C   UNL     1       6.910  -1.693  14.625  1.00  0.00     0.049 A 
ATOM     34  N   UNL     1       8.825  -4.008  14.299  1.00  0.00    -0.248 NA
ATOM     35  C   UNL     1       8.195  -4.122  12.053  1.00  0.00     0.031 C 
ATOM     36  C   UNL     1       5.978  -0.584  14.831  1.00  0.00     0.029 A 
ATOM     37  N   UNL     1       7.592  -1.784  15.811  1.00  0.00    -0.354 N 
ATOM     38  C   UNL     1       9.551  -5.011  13.670  1.00  0.00     0.074 A 
ATOM     39  C   UNL     1       9.109  -5.053  12.292  1.00  0.00     0.031 C 
ATOM     40  C   UNL     1       6.132  -0.110  16.078  1.00  0.00     0.029 A 
ATOM     41  C   UNL     1       7.130  -0.919  16.773  1.00  0.00     0.049 A 
ATOM     42  H   UNL     1       8.339  -2.408  15.958  1.00  0.00     0.167 HD
ATOM     43  C   UNL     1      10.494  -5.825  14.201  1.00  0.00     0.037 A 
ATOM     44  C   UNL     1       7.442  -0.823  18.080  1.00  0.00     0.037 A 
ATOM     45  C   UNL     1      10.931  -5.759  15.571  1.00  0.00     0.049 A 
ATOM     46  C   UNL     1       8.454  -1.772  18.662  1.00  0.00     0.074 A 
ATOM     47  C   UNL     1      11.883  -6.533  16.210  1.00  0.00     0.029 A 
ATOM     48  N   UNL     1      10.445  -4.863  16.513  1.00  0.00    -0.354 N 
ATOM     49  N   UNL     1       9.117  -2.735  18.067  1.00  0.00    -0.248 NA
ATOM     50  C   UNL     1       8.752  -1.632  20.094  1.00  0.00     0.031 C 
ATOM     51  C   UNL     1      11.950  -6.127  17.547  1.00  0.00     0.029 A 
ATOM     52  C   UNL     1      11.069  -5.072  17.731  1.00  0.00     0.049 A 
ATOM     53  H   UNL     1       9.758  -4.180  16.340  1.00  0.00     0.167 HD
ATOM     54  C   UNL     1       9.932  -3.295  19.043  1.00  0.00     0.074 A 
ATOM     55  C   UNL     1       9.678  -2.567  20.269  1.00  0.00     0.031 C 
ATOM     56  C   UNL     1      10.816  -4.318  18.933  1.00  0.00     0.037 A 
BRANCH  43  57
ATOM     57  C   UNL     1      11.086  -6.878  13.310  1.00  0.00     0.058 A 
ATOM     58  C   UNL     1      12.009  -6.562  12.301  1.00  0.00     0.135 A 
ATOM     59  C   UNL     1      10.744  -8.229  13.486  1.00  0.00     0.135 A 
ATOM     60  F   UNL     1      12.355  -5.285  12.078  1.00  0.00    -0.206 F 
ATOM     61  C   UNL     1      12.553  -7.546  11.481  1.00  0.00     0.059 A 
ATOM     62  C   UNL     1      11.293  -9.232  12.692  1.00  0.00     0.059 A 
ATOM     63  F   UNL     1       9.864  -8.585  14.435  1.00  0.00    -0.206 F 
ATOM     64  C   UNL     1      12.186  -8.878  11.681  1.00  0.00     0.060 A 
BRANCH  64  65
ATOM     65  S   UNL     1      12.893 -10.144  10.606  1.00  0.00     0.124 S 
ATOM     66  O   UNL     1      12.133  -9.936   9.377  1.00  0.00    -0.237 OA
ATOM     67  O   UNL     1      14.300  -9.761  10.552  1.00  0.00    -0.237 OA
ATOM     68  O   UNL     1      12.612 -11.388  11.315  1.00  0.00    -0.744 OA
ENDBRANCH  64  65
ENDBRANCH  43  57
BRANCH  44  69
ATOM     69  C   UNL     1       6.769   0.195  18.928  1.00  0.00     0.058 A 
ATOM     70  C   UNL     1       7.465   1.320  19.391  1.00  0.00     0.135 A 
ATOM     71  C   UNL     1       5.413   0.075  19.271  1.00  0.00     0.135 A 
ATOM     72  F   UNL     1       8.765   1.472  19.096  1.00  0.00    -0.206 F 
ATOM     73  C   UNL     1       6.844   2.289  20.172  1.00  0.00     0.059 A 
ATOM     74  C   UNL     1       4.764   1.042  20.032  1.00  0.00     0.059 A 
ATOM     75  F   UNL     1       4.700  -0.978  18.842  1.00  0.00    -0.206 F 
ATOM     76  C   UNL     1       5.491   2.142  20.485  1.00  0.00     0.060 A 
BRANCH  76  77
ATOM     77  S   UNL     1       4.679   3.433  21.452  1.00  0.00     0.124 S 
ATOM     78  O   UNL     1       5.180   3.154  22.792  1.00  0.00    -0.237 OA
ATOM     79  O   UNL     1       5.180   4.652  20.823  1.00  0.00    -0.237 OA
ATOM     80  O   UNL     1       3.259   3.167  21.239  1.00  0.00    -0.744 OA
ENDBRANCH  76  77
ENDBRANCH  44  69
BRANCH  56  81
ATOM     81  C   UNL     1      11.616  -4.677  20.151  1.00  0.00     0.058 A 
ATOM     82  C   UNL     1      11.065  -5.424  21.201  1.00  0.00     0.135 A 
ATOM     83  C   UNL     1      12.976  -4.335  20.226  1.00  0.00     0.135 A 
ATOM     84  F   UNL     1       9.767  -5.767  21.179  1.00  0.00    -0.206 F 
ATOM     85  C   UNL     1      11.835  -5.818  22.291  1.00  0.00     0.059 A 
ATOM     86  C   UNL     1      13.769  -4.735  21.295  1.00  0.00     0.059 A 
ATOM     87  F   UNL     1      13.550  -3.626  19.240  1.00  0.00    -0.206 F 
ATOM     88  C   UNL     1      13.188  -5.473  22.326  1.00  0.00     0.060 A 
BRANCH  88  89
ATOM     89  S   UNL     1      14.195  -6.044  23.712  1.00  0.00     0.124 S 
ATOM     90  O   UNL     1      13.788  -5.125  24.769  1.00  0.00    -0.237 OA
ATOM     91  O   UNL     1      13.756  -7.428  23.870  1.00  0.00    -0.237 OA
ATOM     92  O   UNL     1      15.562  -5.880  23.227  1.00  0.00    -0.744 OA
ENDBRANCH  88  89
ENDBRANCH  56  81
ENDBRANCH  30  31
ENDBRANCH  23  25
ENDBRANCH  22  23
ENDBRANCH  21  22
ENDBRANCH   1  21
TORSDOF 18
