REMARK SMILES C=C1c2ccccc2C(=O)N1[C@](C)(C(=O)OCCOC(=O)c1ccc(-c2c3nc(c(-c4c(F)cc(S(=O)(=O)[O-])cc4F)c4ccc([nH]4)c(-c4c(F)cc(S(=O)(=O)[O-])cc4F)c4nc(c(-c5c(F)cc(S(=O)(=O)[O-])cc5F)c5ccc2[nH]5)C=C4)C=C3)cc1)C(F)(F)F
REMARK SMILES IDX 18 1 17 2 16 3 14 4 15 5 12 6 13 7 11 8 1 9 2 10 3 11 4 12
REMARK SMILES IDX 8 13 9 14 5 15 7 16 10 17 6 18 88 19 89 20 90 21 91 22 19 23
REMARK SMILES IDX 20 24 21 25 22 26 23 27 87 28 24 29 86 30 25 31 26 32 27 33
REMARK SMILES IDX 80 34 28 35 85 36 79 37 81 38 29 39 84 40 78 41 77 42 30 44
REMARK SMILES IDX 64 45 43 46 63 47 44 48 47 49 62 50 82 51 45 52 46 53 61 55
REMARK SMILES IDX 83 56 48 57 31 58 32 59 41 60 33 61 34 62 40 63 42 64 35 65
REMARK SMILES IDX 36 66 37 67 38 68 39 69 65 70 66 71 75 72 67 73 68 74 74 75
REMARK SMILES IDX 76 76 69 77 70 78 71 79 72 80 73 81 49 82 50 83 59 84 51 85
REMARK SMILES IDX 52 86 58 87 60 88 53 89 54 90 55 91 56 92 57 93
REMARK H PARENT 81 43 47 54
REMARK Flexibility Score: inf
ROOT
ATOM      1  C   UNL     1       3.120  -2.140  -4.196  1.00  0.00     0.275 C 
ENDROOT
BRANCH   1   2
ATOM      2  C   UNL     1       3.479  -2.655  -2.804  1.00  0.00     0.274 C 
BRANCH   2   3
ATOM      3  O   UNL     1       2.905  -1.806  -1.787  1.00  0.00    -0.460 OA
BRANCH   3   4
ATOM      4  C   UNL     1       3.771  -1.145  -0.969  1.00  0.00     0.341 C 
ATOM      5  O   UNL     1       4.989  -1.170  -1.120  1.00  0.00    -0.249 OA
BRANCH   4   6
ATOM      6  C   UNL     1       3.081  -0.469   0.225  1.00  0.00     0.238 C 
ATOM      7  C   UNL     1       1.549  -0.665   0.255  1.00  0.00     0.058 C 
BRANCH   6   8
ATOM      8  N   UNL     1       3.718  -1.120   1.407  1.00  0.00    -0.283 N 
ATOM      9  C   UNL     1       5.125   0.597   2.536  1.00  0.00     0.038 C 
ATOM     10  C   UNL     1       4.631  -0.628   2.341  1.00  0.00     0.046 C 
ATOM     11  C   UNL     1       5.029  -1.761   3.187  1.00  0.00     0.010 A 
ATOM     12  C   UNL     1       5.902  -1.881   4.256  1.00  0.00     0.011 A 
ATOM     13  C   UNL     1       4.344  -2.885   2.739  1.00  0.00     0.049 A 
ATOM     14  C   UNL     1       3.519  -2.491   1.604  1.00  0.00     0.260 C 
ATOM     15  C   UNL     1       6.060  -3.139   4.854  1.00  0.00     0.001 A 
ATOM     16  C   UNL     1       4.484  -4.140   3.302  1.00  0.00     0.014 A 
ATOM     17  O   UNL     1       2.837  -3.273   0.962  1.00  0.00    -0.269 OA
ATOM     18  C   UNL     1       5.356  -4.260   4.380  1.00  0.00     0.001 A 
ENDBRANCH   6   8
BRANCH   6  19
ATOM     19  C   UNL     1       3.303   1.028   0.015  1.00  0.00     0.422 C 
ATOM     20  F   UNL     1       2.657   1.480  -1.086  1.00  0.00    -0.168 F 
ATOM     21  F   UNL     1       2.803   1.746   1.054  1.00  0.00    -0.168 F 
ATOM     22  F   UNL     1       4.598   1.379  -0.127  1.00  0.00    -0.168 F 
ENDBRANCH   6  19
ENDBRANCH   4   6
ENDBRANCH   3   4
ENDBRANCH   2   3
ENDBRANCH   1   2
BRANCH   1  23
ATOM     23  O   UNL     1       3.773  -0.881  -4.431  1.00  0.00    -0.458 OA
BRANCH  23  24
ATOM     24  C   UNL     1       3.017   0.200  -4.136  1.00  0.00     0.338 C 
ATOM     25  O   UNL     1       1.847   0.213  -3.791  1.00  0.00    -0.246 OA
BRANCH  24  26
ATOM     26  C   UNL     1       3.845   1.411  -4.157  1.00  0.00     0.060 A 
ATOM     27  C   UNL     1       4.671   1.653  -3.067  1.00  0.00     0.016 A 
ATOM     28  C   UNL     1       3.634   2.400  -5.111  1.00  0.00     0.016 A 
ATOM     29  C   UNL     1       5.143   2.937  -2.827  1.00  0.00     0.010 A 
ATOM     30  C   UNL     1       4.255   3.644  -4.951  1.00  0.00     0.010 A 
ATOM     31  C   UNL     1       4.975   3.948  -3.779  1.00  0.00    -0.014 A 
BRANCH  31  32
ATOM     32  C   UNL     1       5.535   5.311  -3.542  1.00  0.00     0.031 A 
ATOM     33  C   UNL     1       4.654   6.529  -3.668  1.00  0.00     0.074 A 
ATOM     34  C   UNL     1       6.837   5.463  -3.215  1.00  0.00     0.049 A 
ATOM     35  N   UNL     1       4.992   7.792  -3.738  1.00  0.00    -0.248 NA
ATOM     36  C   UNL     1       3.202   6.297  -3.748  1.00  0.00     0.031 C 
ATOM     37  C   UNL     1       7.795   4.374  -2.999  1.00  0.00     0.029 A 
ATOM     38  N   UNL     1       7.585   6.596  -3.009  1.00  0.00    -0.354 N 
ATOM     39  C   UNL     1       3.808   8.496  -3.935  1.00  0.00     0.074 A 
ATOM     40  C   UNL     1       2.742   7.519  -3.982  1.00  0.00     0.031 C 
ATOM     41  C   UNL     1       8.983   4.887  -2.654  1.00  0.00     0.029 A 
ATOM     42  C   UNL     1       8.911   6.337  -2.747  1.00  0.00     0.049 A 
ATOM     43  H   UNL     1       7.210   7.506  -3.045  1.00  0.00     0.167 HD
ATOM     44  C   UNL     1       3.632   9.834  -4.065  1.00  0.00     0.037 A 
ATOM     45  C   UNL     1       9.973   7.160  -2.660  1.00  0.00     0.037 A 
ATOM     46  C   UNL     1       4.701  10.796  -3.962  1.00  0.00     0.049 A 
ATOM     47  C   UNL     1       9.765   8.632  -2.869  1.00  0.00     0.074 A 
ATOM     48  C   UNL     1       4.630  12.175  -4.060  1.00  0.00     0.029 A 
ATOM     49  N   UNL     1       6.033  10.483  -3.726  1.00  0.00    -0.354 N 
ATOM     50  N   UNL     1       8.650   9.280  -3.109  1.00  0.00    -0.248 NA
ATOM     51  C   UNL     1      10.959   9.483  -2.813  1.00  0.00     0.031 C 
ATOM     52  C   UNL     1       5.925  12.691  -3.939  1.00  0.00     0.029 A 
ATOM     53  C   UNL     1       6.796  11.640  -3.700  1.00  0.00     0.049 A 
ATOM     54  H   UNL     1       6.384   9.572  -3.597  1.00  0.00     0.167 HD
ATOM     55  C   UNL     1       9.005  10.619  -3.211  1.00  0.00     0.074 A 
ATOM     56  C   UNL     1      10.435  10.688  -2.988  1.00  0.00     0.031 C 
ATOM     57  C   UNL     1       8.219  11.693  -3.468  1.00  0.00     0.037 A 
BRANCH  44  58
ATOM     58  C   UNL     1       2.246  10.340  -4.374  1.00  0.00     0.058 A 
ATOM     59  C   UNL     1       1.203  10.298  -3.436  1.00  0.00     0.135 A 
ATOM     60  C   UNL     1       1.971  10.920  -5.625  1.00  0.00     0.135 A 
ATOM     61  F   UNL     1       1.400   9.745  -2.229  1.00  0.00    -0.206 F 
ATOM     62  C   UNL     1      -0.068  10.784  -3.736  1.00  0.00     0.059 A 
ATOM     63  C   UNL     1       0.717  11.441  -5.936  1.00  0.00     0.059 A 
ATOM     64  F   UNL     1       2.929  10.991  -6.563  1.00  0.00    -0.206 F 
ATOM     65  C   UNL     1      -0.301  11.355  -4.989  1.00  0.00     0.060 A 
BRANCH  65  66
ATOM     66  S   UNL     1      -1.952  11.986  -5.359  1.00  0.00     0.124 S 
ATOM     67  O   UNL     1      -2.717  10.748  -5.476  1.00  0.00    -0.237 OA
ATOM     68  O   UNL     1      -2.244  12.802  -4.185  1.00  0.00    -0.237 OA
ATOM     69  O   UNL     1      -1.765  12.725  -6.603  1.00  0.00    -0.744 OA
ENDBRANCH  65  66
ENDBRANCH  44  58
BRANCH  45  70
ATOM     70  C   UNL     1      11.331   6.599  -2.419  1.00  0.00     0.058 A 
ATOM     71  C   UNL     1      12.019   6.859  -1.226  1.00  0.00     0.135 A 
ATOM     72  C   UNL     1      11.959   5.773  -3.367  1.00  0.00     0.135 A 
ATOM     73  F   UNL     1      11.468   7.649  -0.292  1.00  0.00    -0.206 F 
ATOM     74  C   UNL     1      13.284   6.332  -0.985  1.00  0.00     0.059 A 
ATOM     75  C   UNL     1      13.207   5.205  -3.134  1.00  0.00     0.059 A 
ATOM     76  F   UNL     1      11.340   5.480  -4.521  1.00  0.00    -0.206 F 
ATOM     77  C   UNL     1      13.867   5.501  -1.943  1.00  0.00     0.060 A 
BRANCH  77  78
ATOM     78  S   UNL     1      15.489   4.786  -1.598  1.00  0.00     0.124 S 
ATOM     79  O   UNL     1      16.355   5.954  -1.715  1.00  0.00    -0.237 OA
ATOM     80  O   UNL     1      15.308   4.257  -0.249  1.00  0.00    -0.237 OA
ATOM     81  O   UNL     1      15.642   3.779  -2.643  1.00  0.00    -0.744 OA
ENDBRANCH  77  78
ENDBRANCH  45  70
BRANCH  57  82
ATOM     82  C   UNL     1       8.882  13.043  -3.476  1.00  0.00     0.058 A 
ATOM     83  C   UNL     1       9.750  13.437  -4.505  1.00  0.00     0.135 A 
ATOM     84  C   UNL     1       8.612  13.968  -2.454  1.00  0.00     0.135 A 
ATOM     85  F   UNL     1      10.050  12.586  -5.500  1.00  0.00    -0.206 F 
ATOM     86  C   UNL     1      10.349  14.692  -4.508  1.00  0.00     0.059 A 
ATOM     87  C   UNL     1       9.174  15.240  -2.454  1.00  0.00     0.059 A 
ATOM     88  F   UNL     1       7.784  13.644  -1.449  1.00  0.00    -0.206 F 
ATOM     89  C   UNL     1      10.051  15.588  -3.480  1.00  0.00     0.060 A 
BRANCH  89  90
ATOM     90  S   UNL     1      10.809  17.226  -3.515  1.00  0.00     0.124 S 
ATOM     91  O   UNL     1      12.195  16.916  -3.180  1.00  0.00    -0.237 OA
ATOM     92  O   UNL     1      10.569  17.650  -4.891  1.00  0.00    -0.237 OA
ATOM     93  O   UNL     1      10.068  17.966  -2.499  1.00  0.00    -0.744 OA
ENDBRANCH  89  90
ENDBRANCH  57  82
ENDBRANCH  31  32
ENDBRANCH  24  26
ENDBRANCH  23  24
ENDBRANCH   1  23
TORSDOF 16
