REMARK SMILES O=C(CCNC(=O)C1CCCC1)OCCOC(=O)c1ccc(-c2c3nc(c(-c4c(F)cc(S(=O)(=O)[O-])cc4F)c4ccc([nH]4)c(-c4c(F)cc(S(=O)(=O)[O-])cc4F)c4nc(c(-c5c(F)cc(S(=O)(=O)[O-])cc5F)c5ccc2[nH]5)C=C4)C=C3)cc1
REMARK SMILES IDX 14 1 13 2 2 3 1 4 3 5 4 6 5 7 6 8 7 10 8 11 9 12 12 13 10 14
REMARK SMILES IDX 11 15 15 16 16 17 17 18 18 19 19 20 20 21 84 22 21 23 83 24
REMARK SMILES IDX 22 25 23 26 24 27 77 28 25 29 82 30 76 31 78 32 26 33 81 34
REMARK SMILES IDX 75 35 74 36 27 38 61 39 40 40 60 41 41 42 44 43 59 44 79 45
REMARK SMILES IDX 42 46 43 47 58 49 80 50 45 51 28 52 29 53 38 54 30 55 31 56
REMARK SMILES IDX 37 57 39 58 32 59 33 60 34 61 35 62 36 63 62 64 63 65 72 66
REMARK SMILES IDX 64 67 65 68 71 69 73 70 66 71 67 72 68 73 69 74 70 75 46 76
REMARK SMILES IDX 47 77 56 78 48 79 49 80 55 81 57 82 50 83 51 84 52 85 53 86
REMARK SMILES IDX 54 87
REMARK H PARENT 5 9 78 37 44 48
REMARK Flexibility Score: inf
ROOT
ATOM      1  C   UNL     1       4.349  -0.645  -1.021  1.00  0.00     0.274 C 
ENDROOT
BRANCH   1   2
ATOM      2  O   UNL     1       3.019  -0.900  -0.519  1.00  0.00    -0.462 OA
BRANCH   2   3
ATOM      3  C   UNL     1       2.619  -0.672   0.756  1.00  0.00     0.307 C 
ATOM      4  O   UNL     1       1.660  -1.282   1.224  1.00  0.00    -0.252 OA
BRANCH   3   5
ATOM      5  C   UNL     1       3.335   0.374   1.571  1.00  0.00     0.144 C 
BRANCH   5   6
ATOM      6  C   UNL     1       4.151  -0.229   2.707  1.00  0.00     0.127 C 
BRANCH   6   7
ATOM      7  N   UNL     1       5.357  -0.878   2.225  1.00  0.00    -0.355 N 
ATOM      8  C   UNL     1       6.594  -0.366   1.971  1.00  0.00     0.223 C 
ATOM      9  H   UNL     1       5.267  -1.843   2.054  1.00  0.00     0.163 HD
ATOM     10  O   UNL     1       7.394  -1.102   1.387  1.00  0.00    -0.275 OA
BRANCH   8  11
ATOM     11  C   UNL     1       6.969   1.035   2.440  1.00  0.00     0.078 C 
ATOM     12  C   UNL     1       8.417   1.372   2.063  1.00  0.00     0.013 C 
ATOM     13  C   UNL     1       6.217   2.193   1.790  1.00  0.00     0.013 C 
ATOM     14  C   UNL     1       8.517   2.877   2.246  1.00  0.00     0.001 C 
ATOM     15  C   UNL     1       7.116   3.414   1.976  1.00  0.00     0.001 C 
ENDBRANCH   8  11
ENDBRANCH   6   7
ENDBRANCH   5   6
ENDBRANCH   3   5
ENDBRANCH   2   3
ENDBRANCH   1   2
BRANCH   1  16
ATOM     16  C   UNL     1       4.399   0.518  -2.011  1.00  0.00     0.275 C 
BRANCH  16  17
ATOM     17  O   UNL     1       3.966   1.736  -1.384  1.00  0.00    -0.458 OA
BRANCH  17  18
ATOM     18  C   UNL     1       2.653   2.026  -1.569  1.00  0.00     0.338 C 
ATOM     19  O   UNL     1       1.878   1.436  -2.297  1.00  0.00    -0.246 OA
BRANCH  18  20
ATOM     20  C   UNL     1       2.234   3.083  -0.621  1.00  0.00     0.060 A 
ATOM     21  C   UNL     1       0.938   2.997  -0.100  1.00  0.00     0.016 A 
ATOM     22  C   UNL     1       3.071   4.143  -0.252  1.00  0.00     0.016 A 
ATOM     23  C   UNL     1       0.461   3.991   0.752  1.00  0.00     0.010 A 
ATOM     24  C   UNL     1       2.590   5.139   0.607  1.00  0.00     0.010 A 
ATOM     25  C   UNL     1       1.272   5.083   1.089  1.00  0.00    -0.014 A 
BRANCH  25  26
ATOM     26  C   UNL     1       0.686   6.203   1.866  1.00  0.00     0.031 A 
ATOM     27  C   UNL     1       0.203   7.432   1.145  1.00  0.00     0.074 A 
ATOM     28  C   UNL     1       0.528   6.098   3.199  1.00  0.00     0.049 A 
ATOM     29  N   UNL     1      -0.420   8.478   1.621  1.00  0.00    -0.248 NA
ATOM     30  C   UNL     1       0.454   7.489  -0.304  1.00  0.00     0.031 C 
ATOM     31  C   UNL     1       0.955   4.961   4.014  1.00  0.00     0.029 A 
ATOM     32  N   UNL     1      -0.041   6.962   4.099  1.00  0.00    -0.354 N 
ATOM     33  C   UNL     1      -0.661   9.305   0.531  1.00  0.00     0.074 A 
ATOM     34  C   UNL     1      -0.069   8.664  -0.624  1.00  0.00     0.031 C 
ATOM     35  C   UNL     1       0.636   5.200   5.298  1.00  0.00     0.029 A 
ATOM     36  C   UNL     1      -0.012   6.507   5.396  1.00  0.00     0.049 A 
ATOM     37  H   UNL     1      -0.433   7.827   3.841  1.00  0.00     0.167 HD
ATOM     38  C   UNL     1      -1.336  10.479   0.490  1.00  0.00     0.037 A 
ATOM     39  C   UNL     1      -0.459   7.078   6.531  1.00  0.00     0.037 A 
ATOM     40  C   UNL     1      -1.915  11.127   1.638  1.00  0.00     0.049 A 
ATOM     41  C   UNL     1      -1.168   8.406   6.465  1.00  0.00     0.074 A 
ATOM     42  C   UNL     1      -2.622  12.316   1.692  1.00  0.00     0.029 A 
ATOM     43  N   UNL     1      -1.850  10.643   2.936  1.00  0.00    -0.354 N 
ATOM     44  N   UNL     1      -1.431   9.151   5.417  1.00  0.00    -0.248 NA
ATOM     45  C   UNL     1      -1.658   8.962   7.734  1.00  0.00     0.031 C 
ATOM     46  C   UNL     1      -2.954  12.569   3.028  1.00  0.00     0.029 A 
ATOM     47  C   UNL     1      -2.489  11.518   3.800  1.00  0.00     0.049 A 
ATOM     48  H   UNL     1      -1.413   9.803   3.204  1.00  0.00     0.167 HD
ATOM     49  C   UNL     1      -2.133  10.251   5.899  1.00  0.00     0.074 A 
ATOM     50  C   UNL     1      -2.272  10.064   7.329  1.00  0.00     0.031 C 
ATOM     51  C   UNL     1      -2.618  11.322   5.222  1.00  0.00     0.037 A 
BRANCH  38  52
ATOM     52  C   UNL     1      -1.493  11.140  -0.850  1.00  0.00     0.058 A 
ATOM     53  C   UNL     1      -2.386  10.637  -1.810  1.00  0.00     0.135 A 
ATOM     54  C   UNL     1      -0.786  12.312  -1.162  1.00  0.00     0.135 A 
ATOM     55  F   UNL     1      -3.072   9.509  -1.568  1.00  0.00    -0.206 F 
ATOM     56  C   UNL     1      -2.562  11.264  -3.038  1.00  0.00     0.059 A 
ATOM     57  C   UNL     1      -0.962  12.969  -2.376  1.00  0.00     0.059 A 
ATOM     58  F   UNL     1       0.083  12.831  -0.280  1.00  0.00    -0.206 F 
ATOM     59  C   UNL     1      -1.846  12.431  -3.312  1.00  0.00     0.060 A 
BRANCH  59  60
ATOM     60  S   UNL     1      -2.100  13.245  -4.903  1.00  0.00     0.124 S 
ATOM     61  O   UNL     1      -1.392  12.342  -5.807  1.00  0.00    -0.237 OA
ATOM     62  O   UNL     1      -3.554  13.250  -5.024  1.00  0.00    -0.237 OA
ATOM     63  O   UNL     1      -1.484  14.555  -4.717  1.00  0.00    -0.744 OA
ENDBRANCH  59  60
ENDBRANCH  38  52
BRANCH  39  64
ATOM     64  C   UNL     1      -0.251   6.402   7.838  1.00  0.00     0.058 A 
ATOM     65  C   UNL     1      -1.323   5.854   8.556  1.00  0.00     0.135 A 
ATOM     66  C   UNL     1       1.029   6.320   8.407  1.00  0.00     0.135 A 
ATOM     67  F   UNL     1      -2.567   5.916   8.055  1.00  0.00    -0.206 F 
ATOM     68  C   UNL     1      -1.141   5.272   9.806  1.00  0.00     0.059 A 
ATOM     69  C   UNL     1       1.241   5.723   9.645  1.00  0.00     0.059 A 
ATOM     70  F   UNL     1       2.091   6.816   7.752  1.00  0.00    -0.206 F 
ATOM     71  C   UNL     1       0.146   5.216  10.345  1.00  0.00     0.060 A 
BRANCH  71  72
ATOM     72  S   UNL     1       0.384   4.439  11.957  1.00  0.00     0.124 S 
ATOM     73  O   UNL     1      -0.090   5.483  12.857  1.00  0.00    -0.237 OA
ATOM     74  O   UNL     1      -0.458   3.251  11.855  1.00  0.00    -0.237 OA
ATOM     75  O   UNL     1       1.820   4.177  11.991  1.00  0.00    -0.744 OA
ENDBRANCH  71  72
ENDBRANCH  39  64
BRANCH  51  76
ATOM     76  C   UNL     1      -3.358  12.361   6.017  1.00  0.00     0.058 A 
ATOM     77  C   UNL     1      -2.689  13.237   6.886  1.00  0.00     0.135 A 
ATOM     78  C   UNL     1      -4.751  12.495   5.898  1.00  0.00     0.135 A 
ATOM     79  F   UNL     1      -1.358  13.150   7.040  1.00  0.00    -0.206 F 
ATOM     80  C   UNL     1      -3.378  14.183   7.638  1.00  0.00     0.059 A 
ATOM     81  C   UNL     1      -5.458  13.451   6.621  1.00  0.00     0.059 A 
ATOM     82  F   UNL     1      -5.439  11.692   5.070  1.00  0.00    -0.206 F 
ATOM     83  C   UNL     1      -4.764  14.278   7.503  1.00  0.00     0.060 A 
BRANCH  83  84
ATOM     84  S   UNL     1      -5.651  15.509   8.483  1.00  0.00     0.124 S 
ATOM     85  O   UNL     1      -5.692  14.867   9.792  1.00  0.00    -0.237 OA
ATOM     86  O   UNL     1      -4.785  16.680   8.378  1.00  0.00    -0.237 OA
ATOM     87  O   UNL     1      -6.935  15.625   7.798  1.00  0.00    -0.744 OA
ENDBRANCH  83  84
ENDBRANCH  51  76
ENDBRANCH  25  26
ENDBRANCH  18  20
ENDBRANCH  17  18
ENDBRANCH  16  17
ENDBRANCH   1  16
TORSDOF 17
