REMARK SMILES O=C(OCCOC(=O)[C@H](O)Cc1ccc(O)cc1)c1ccc(-c2c3nc(c(-c4c(F)cc(S(=O)(=O)[O-])cc4F)c4ccc([nH]4)c(-c4c(F)cc(S(=O)(=O)[O-])cc4F)c4nc(c(-c5c(F)cc(S(=O)(=O)[O-])cc5F)c5ccc2[nH]5)C=C4)C=C3)cc1
REMARK SMILES IDX 4 1 3 2 2 3 1 4 19 5 20 6 84 7 21 8 83 9 22 10 23 11 24 12
REMARK SMILES IDX 77 13 25 14 82 15 76 16 78 17 26 18 81 19 75 20 74 21 27 23
REMARK SMILES IDX 61 24 40 25 60 26 41 27 44 28 59 29 79 30 42 31 43 32 58 34
REMARK SMILES IDX 80 35 45 36 28 37 29 38 38 39 30 40 31 41 37 42 39 43 32 44
REMARK SMILES IDX 33 45 34 46 35 47 36 48 62 49 63 50 72 51 64 52 65 53 71 54
REMARK SMILES IDX 73 55 66 56 67 57 68 58 69 59 70 60 46 61 47 62 56 63 48 64
REMARK SMILES IDX 49 65 55 66 57 67 50 68 51 69 52 70 53 71 54 72 5 73 6 74
REMARK SMILES IDX 7 75 8 76 9 77 11 78 12 79 13 80 18 81 14 82 17 83 15 84
REMARK SMILES IDX 16 85 10 87
REMARK H PARENT 78 22 44 33 16 86 10 88
REMARK Flexibility Score: inf
ROOT
ATOM      1  C   UNL     1       3.234  -2.361  -4.618  1.00  0.00     0.275 C 
ENDROOT
BRANCH   1   2
ATOM      2  O   UNL     1       2.289  -1.390  -4.130  1.00  0.00    -0.458 OA
BRANCH   2   3
ATOM      3  C   UNL     1       1.163  -1.607  -3.403  1.00  0.00     0.338 C 
ATOM      4  O   UNL     1       0.369  -0.688  -3.225  1.00  0.00    -0.246 OA
BRANCH   3   5
ATOM      5  C   UNL     1       0.941  -2.885  -2.670  1.00  0.00     0.060 A 
ATOM      6  C   UNL     1       1.116  -4.159  -3.221  1.00  0.00     0.016 A 
ATOM      7  C   UNL     1       0.503  -2.779  -1.341  1.00  0.00     0.016 A 
ATOM      8  C   UNL     1       0.969  -5.306  -2.431  1.00  0.00     0.010 A 
ATOM      9  C   UNL     1       0.329  -3.921  -0.558  1.00  0.00     0.010 A 
ATOM     10  C   UNL     1       0.579  -5.194  -1.095  1.00  0.00    -0.014 A 
BRANCH  10  11
ATOM     11  C   UNL     1       0.262  -6.392  -0.285  1.00  0.00     0.031 A 
ATOM     12  C   UNL     1      -1.183  -6.780  -0.145  1.00  0.00     0.074 A 
ATOM     13  C   UNL     1       1.228  -7.079   0.357  1.00  0.00     0.049 A 
ATOM     14  N   UNL     1      -1.714  -7.717   0.592  1.00  0.00    -0.248 NA
ATOM     15  C   UNL     1      -2.153  -6.044  -0.977  1.00  0.00     0.031 C 
ATOM     16  C   UNL     1       2.670  -6.857   0.232  1.00  0.00     0.029 A 
ATOM     17  N   UNL     1       1.131  -8.048   1.329  1.00  0.00    -0.354 N 
ATOM     18  C   UNL     1      -3.059  -7.741   0.250  1.00  0.00     0.074 A 
ATOM     19  C   UNL     1      -3.287  -6.663  -0.685  1.00  0.00     0.031 C 
ATOM     20  C   UNL     1       3.304  -7.532   1.210  1.00  0.00     0.029 A 
ATOM     21  C   UNL     1       2.313  -8.238   2.014  1.00  0.00     0.049 A 
ATOM     22  H   UNL     1       0.306  -8.552   1.515  1.00  0.00     0.167 HD
ATOM     23  C   UNL     1      -4.000  -8.630   0.639  1.00  0.00     0.037 A 
ATOM     24  C   UNL     1       2.534  -8.845   3.198  1.00  0.00     0.037 A 
ATOM     25  C   UNL     1      -3.752  -9.667   1.603  1.00  0.00     0.049 A 
ATOM     26  C   UNL     1       1.398  -9.602   3.835  1.00  0.00     0.074 A 
ATOM     27  C   UNL     1      -4.582 -10.695   2.007  1.00  0.00     0.029 A 
ATOM     28  N   UNL     1      -2.585  -9.774   2.345  1.00  0.00    -0.354 N 
ATOM     29  N   UNL     1       0.161  -9.727   3.415  1.00  0.00    -0.248 NA
ATOM     30  C   UNL     1       1.693 -10.344   5.068  1.00  0.00     0.031 C 
ATOM     31  C   UNL     1      -3.936 -11.393   3.033  1.00  0.00     0.029 A 
ATOM     32  C   UNL     1      -2.689 -10.822   3.240  1.00  0.00     0.049 A 
ATOM     33  H   UNL     1      -1.799  -9.190   2.249  1.00  0.00     0.167 HD
ATOM     34  C   UNL     1      -0.440 -10.639   4.274  1.00  0.00     0.074 A 
ATOM     35  C   UNL     1       0.551 -10.985   5.273  1.00  0.00     0.031 C 
ATOM     36  C   UNL     1      -1.682 -11.178   4.207  1.00  0.00     0.037 A 
BRANCH  23  37
ATOM     37  C   UNL     1      -5.347  -8.555  -0.013  1.00  0.00     0.058 A 
ATOM     38  C   UNL     1      -5.524  -8.967  -1.345  1.00  0.00     0.135 A 
ATOM     39  C   UNL     1      -6.479  -8.130   0.698  1.00  0.00     0.135 A 
ATOM     40  F   UNL     1      -4.470  -9.366  -2.075  1.00  0.00    -0.206 F 
ATOM     41  C   UNL     1      -6.774  -8.956  -1.951  1.00  0.00     0.059 A 
ATOM     42  C   UNL     1      -7.744  -8.126   0.116  1.00  0.00     0.059 A 
ATOM     43  F   UNL     1      -6.362  -7.717   1.969  1.00  0.00    -0.206 F 
ATOM     44  C   UNL     1      -7.881  -8.538  -1.210  1.00  0.00     0.060 A 
BRANCH  44  45
ATOM     45  S   UNL     1      -9.502  -8.568  -2.003  1.00  0.00     0.124 S 
ATOM     46  O   UNL     1      -9.389  -7.457  -2.943  1.00  0.00    -0.237 OA
ATOM     47  O   UNL     1      -9.532  -9.900  -2.600  1.00  0.00    -0.237 OA
ATOM     48  O   UNL     1     -10.428  -8.360  -0.895  1.00  0.00    -0.744 OA
ENDBRANCH  44  45
ENDBRANCH  23  37
BRANCH  24  49
ATOM     49  C   UNL     1       3.836  -8.716   3.909  1.00  0.00     0.058 A 
ATOM     50  C   UNL     1       4.747  -9.775   4.008  1.00  0.00     0.135 A 
ATOM     51  C   UNL     1       4.144  -7.534   4.604  1.00  0.00     0.135 A 
ATOM     52  F   UNL     1       4.493 -10.934   3.384  1.00  0.00    -0.206 F 
ATOM     53  C   UNL     1       5.896  -9.678   4.793  1.00  0.00     0.059 A 
ATOM     54  C   UNL     1       5.292  -7.404   5.378  1.00  0.00     0.059 A 
ATOM     55  F   UNL     1       3.301  -6.496   4.560  1.00  0.00    -0.206 F 
ATOM     56  C   UNL     1       6.155  -8.490   5.482  1.00  0.00     0.060 A 
BRANCH  56  57
ATOM     57  S   UNL     1       7.628  -8.386   6.523  1.00  0.00     0.124 S 
ATOM     58  O   UNL     1       7.287  -9.298   7.608  1.00  0.00    -0.237 OA
ATOM     59  O   UNL     1       8.675  -8.840   5.612  1.00  0.00    -0.237 OA
ATOM     60  O   UNL     1       7.690  -6.973   6.883  1.00  0.00    -0.744 OA
ENDBRANCH  56  57
ENDBRANCH  24  49
BRANCH  36  61
ATOM     61  C   UNL     1      -2.005 -12.285   5.164  1.00  0.00     0.058 A 
ATOM     62  C   UNL     1      -2.303 -12.044   6.511  1.00  0.00     0.135 A 
ATOM     63  C   UNL     1      -2.073 -13.609   4.697  1.00  0.00     0.135 A 
ATOM     64  F   UNL     1      -2.234 -10.798   7.006  1.00  0.00    -0.206 F 
ATOM     65  C   UNL     1      -2.652 -13.081   7.370  1.00  0.00     0.059 A 
ATOM     66  C   UNL     1      -2.445 -14.656   5.530  1.00  0.00     0.059 A 
ATOM     67  F   UNL     1      -1.800 -13.888   3.413  1.00  0.00    -0.206 F 
ATOM     68  C   UNL     1      -2.725 -14.383   6.868  1.00  0.00     0.060 A 
BRANCH  68  69
ATOM     69  S   UNL     1      -3.235 -15.715   7.973  1.00  0.00     0.124 S 
ATOM     70  O   UNL     1      -2.019 -15.933   8.749  1.00  0.00    -0.237 OA
ATOM     71  O   UNL     1      -4.351 -15.113   8.697  1.00  0.00    -0.237 OA
ATOM     72  O   UNL     1      -3.600 -16.793   7.059  1.00  0.00    -0.744 OA
ENDBRANCH  68  69
ENDBRANCH  36  61
ENDBRANCH  10  11
ENDBRANCH   3   5
ENDBRANCH   2   3
ENDBRANCH   1   2
BRANCH   1  73
ATOM     73  C   UNL     1       4.277  -2.832  -3.602  1.00  0.00     0.274 C 
BRANCH  73  74
ATOM     74  O   UNL     1       3.790  -2.742  -2.256  1.00  0.00    -0.460 OA
BRANCH  74  75
ATOM     75  C   UNL     1       4.503  -1.958  -1.403  1.00  0.00     0.335 C 
ATOM     76  O   UNL     1       5.599  -1.466  -1.656  1.00  0.00    -0.249 OA
BRANCH  75  77
ATOM     77  C   UNL     1       3.750  -1.723  -0.087  1.00  0.00     0.228 C 
BRANCH  77  78
ATOM     78  C   UNL     1       3.642  -3.017   0.730  1.00  0.00     0.079 C 
BRANCH  78  79
ATOM     79  C   UNL     1       2.740  -2.996   1.953  1.00  0.00    -0.045 A 
ATOM     80  C   UNL     1       2.269  -1.835   2.574  1.00  0.00     0.007 A 
ATOM     81  C   UNL     1       2.393  -4.223   2.535  1.00  0.00     0.007 A 
ATOM     82  C   UNL     1       1.491  -1.907   3.739  1.00  0.00     0.046 A 
ATOM     83  C   UNL     1       1.575  -4.306   3.661  1.00  0.00     0.046 A 
ATOM     84  C   UNL     1       1.154  -3.144   4.274  1.00  0.00     0.115 A 
BRANCH  84  85
ATOM     85  O   UNL     1       0.430  -3.257   5.421  1.00  0.00    -0.508 OA
ATOM     86  H   UNL     1       0.128  -2.487   5.862  1.00  0.00     0.293 HD
ENDBRANCH  84  85
ENDBRANCH  78  79
ENDBRANCH  77  78
BRANCH  77  87
ATOM     87  O   UNL     1       4.438  -0.716   0.668  1.00  0.00    -0.381 OA
ATOM     88  H   UNL     1       5.338  -1.019   0.866  1.00  0.00     0.211 HD
ENDBRANCH  77  87
ENDBRANCH  75  77
ENDBRANCH  74  75
ENDBRANCH  73  74
ENDBRANCH   1  73
TORSDOF 18
