REMARK SMILES O=Cc1ccc(-c2ccc(C(=O)OCCOC(=O)c3ccc(-c4c5nc(c(-c6c(F)cc(S(=O)(=O)[O-])cc6F)c6ccc([nH]6)c(-c6c(F)cc(S(=O)(=O)[O-])cc6F)c6nc(c(-c7c(F)cc(S(=O)(=O)[O-])cc7F)c7ccc4[nH]7)C=C6)C=C5)cc3)cn2)cc1
REMARK SMILES IDX 15 1 14 2 13 3 11 4 12 5 10 6 7 7 8 8 86 9 9 10 85 11 6 12
REMARK SMILES IDX 3 13 4 14 88 15 5 16 87 17 2 18 1 19 16 20 17 21 18 22 19 23
REMARK SMILES IDX 20 24 84 25 21 26 83 27 22 28 23 29 24 30 77 31 25 32 82 33
REMARK SMILES IDX 76 34 78 35 26 36 81 37 75 38 74 39 27 41 61 42 40 43 60 44
REMARK SMILES IDX 41 45 44 46 59 47 79 48 42 49 43 50 58 52 80 53 45 54 28 55
REMARK SMILES IDX 29 56 38 57 30 58 31 59 37 60 39 61 32 62 33 63 34 64 35 65
REMARK SMILES IDX 36 66 62 67 63 68 72 69 64 70 65 71 71 72 73 73 66 74 67 75
REMARK SMILES IDX 68 76 69 77 70 78 46 79 47 80 56 81 48 82 49 83 55 84 57 85
REMARK SMILES IDX 50 86 51 87 52 88 53 89 54 90
REMARK H PARENT 78 40 44 51
REMARK Flexibility Score: inf
ROOT
ATOM      1  C   UNL     1       8.418  10.014  -4.860  1.00  0.00     0.275 C 
ENDROOT
BRANCH   1   2
ATOM      2  C   UNL     1       7.281  10.228  -3.856  1.00  0.00     0.275 C 
BRANCH   2   3
ATOM      3  O   UNL     1       6.944   9.008  -3.161  1.00  0.00    -0.458 OA
BRANCH   3   4
ATOM      4  C   UNL     1       5.868   8.344  -3.649  1.00  0.00     0.339 C 
ATOM      5  O   UNL     1       5.141   8.714  -4.552  1.00  0.00    -0.246 OA
BRANCH   4   6
ATOM      6  C   UNL     1       5.687   7.043  -2.978  1.00  0.00     0.078 A 
ATOM      7  C   UNL     1       5.003   4.617  -1.872  1.00  0.00     0.070 A 
ATOM      8  C   UNL     1       5.536   5.614  -1.053  1.00  0.00     0.030 A 
ATOM      9  N   UNL     1       4.854   4.779  -3.201  1.00  0.00    -0.255 NA
ATOM     10  C   UNL     1       5.898   6.842  -1.618  1.00  0.00     0.019 A 
ATOM     11  C   UNL     1       5.172   5.986  -3.714  1.00  0.00     0.127 A 
BRANCH   7  12
ATOM     12  C   UNL     1       4.390   3.393  -1.358  1.00  0.00     0.000 A 
ATOM     13  C   UNL     1       3.039   1.074  -0.539  1.00  0.00     0.014 A 
ATOM     14  C   UNL     1       4.200   0.964  -1.309  1.00  0.00     0.012 A 
ATOM     15  C   UNL     1       2.543   2.328  -0.181  1.00  0.00     0.012 A 
ATOM     16  C   UNL     1       4.865   2.123  -1.724  1.00  0.00     0.011 A 
ATOM     17  C   UNL     1       3.219   3.478  -0.586  1.00  0.00     0.011 A 
BRANCH  13  18
ATOM     18  C   UNL     1       2.326  -0.146  -0.113  1.00  0.00     0.260 C 
ATOM     19  O   UNL     1       1.288  -0.100   0.536  1.00  0.00    -0.298 OA
ENDBRANCH  13  18
ENDBRANCH   7  12
ENDBRANCH   4   6
ENDBRANCH   3   4
ENDBRANCH   2   3
ENDBRANCH   1   2
BRANCH   1  20
ATOM     20  O   UNL     1       7.979   9.269  -6.011  1.00  0.00    -0.458 OA
BRANCH  20  21
ATOM     21  C   UNL     1       8.192   7.937  -5.939  1.00  0.00     0.338 C 
ATOM     22  O   UNL     1       8.702   7.318  -5.019  1.00  0.00    -0.246 OA
BRANCH  21  23
ATOM     23  C   UNL     1       7.632   7.271  -7.120  1.00  0.00     0.060 A 
ATOM     24  C   UNL     1       6.316   6.824  -7.060  1.00  0.00     0.016 A 
ATOM     25  C   UNL     1       8.438   6.938  -8.203  1.00  0.00     0.016 A 
ATOM     26  C   UNL     1       5.830   5.934  -8.008  1.00  0.00     0.010 A 
ATOM     27  C   UNL     1       7.905   6.149  -9.227  1.00  0.00     0.010 A 
ATOM     28  C   UNL     1       6.607   5.609  -9.124  1.00  0.00    -0.014 A 
BRANCH  28  29
ATOM     29  C   UNL     1       6.076   4.719 -10.192  1.00  0.00     0.031 A 
ATOM     30  C   UNL     1       6.841   3.483 -10.582  1.00  0.00     0.074 A 
ATOM     31  C   UNL     1       4.939   5.043 -10.841  1.00  0.00     0.049 A 
ATOM     32  N   UNL     1       6.723   2.739 -11.649  1.00  0.00    -0.248 NA
ATOM     33  C   UNL     1       7.896   3.040  -9.655  1.00  0.00     0.031 C 
ATOM     34  C   UNL     1       4.066   6.176 -10.519  1.00  0.00     0.029 A 
ATOM     35  N   UNL     1       4.330   4.463 -11.927  1.00  0.00    -0.354 N 
ATOM     36  C   UNL     1       7.723   1.777 -11.554  1.00  0.00     0.074 A 
ATOM     37  C   UNL     1       8.444   2.037 -10.327  1.00  0.00     0.031 C 
ATOM     38  C   UNL     1       3.038   6.205 -11.378  1.00  0.00     0.029 A 
ATOM     39  C   UNL     1       3.232   5.162 -12.376  1.00  0.00     0.049 A 
ATOM     40  H   UNL     1       4.647   3.629 -12.343  1.00  0.00     0.167 HD
ATOM     41  C   UNL     1       8.010   0.776 -12.421  1.00  0.00     0.037 A 
ATOM     42  C   UNL     1       2.503   5.028 -13.500  1.00  0.00     0.037 A 
ATOM     43  C   UNL     1       7.250   0.517 -13.618  1.00  0.00     0.049 A 
ATOM     44  C   UNL     1       2.880   3.956 -14.482  1.00  0.00     0.074 A 
ATOM     45  C   UNL     1       7.441  -0.478 -14.560  1.00  0.00     0.029 A 
ATOM     46  N   UNL     1       6.151   1.256 -14.034  1.00  0.00    -0.354 N 
ATOM     47  N   UNL     1       3.853   3.079 -14.408  1.00  0.00    -0.248 NA
ATOM     48  C   UNL     1       2.074   3.860 -15.706  1.00  0.00     0.031 C 
ATOM     49  C   UNL     1       6.492  -0.308 -15.572  1.00  0.00     0.029 A 
ATOM     50  C   UNL     1       5.667   0.751 -15.229  1.00  0.00     0.049 A 
ATOM     51  H   UNL     1       5.771   2.025 -13.551  1.00  0.00     0.167 HD
ATOM     52  C   UNL     1       3.755   2.304 -15.556  1.00  0.00     0.074 A 
ATOM     53  C   UNL     1       2.628   2.817 -16.310  1.00  0.00     0.031 C 
ATOM     54  C   UNL     1       4.524   1.260 -15.948  1.00  0.00     0.037 A 
BRANCH  41  55
ATOM     55  C   UNL     1       9.210  -0.087 -12.135  1.00  0.00     0.058 A 
ATOM     56  C   UNL     1       9.241  -1.000 -11.070  1.00  0.00     0.135 A 
ATOM     57  C   UNL     1      10.339  -0.025 -12.971  1.00  0.00     0.135 A 
ATOM     58  F   UNL     1       8.198  -1.094 -10.229  1.00  0.00    -0.206 F 
ATOM     59  C   UNL     1      10.355  -1.798 -10.826  1.00  0.00     0.059 A 
ATOM     60  C   UNL     1      11.452  -0.835 -12.765  1.00  0.00     0.059 A 
ATOM     61  F   UNL     1      10.368   0.830 -14.006  1.00  0.00    -0.206 F 
ATOM     62  C   UNL     1      11.457  -1.709 -11.680  1.00  0.00     0.060 A 
BRANCH  62  63
ATOM     63  S   UNL     1      12.893  -2.752 -11.349  1.00  0.00     0.124 S 
ATOM     64  O   UNL     1      13.434  -2.129 -10.144  1.00  0.00    -0.237 OA
ATOM     65  O   UNL     1      12.287  -4.066 -11.164  1.00  0.00    -0.237 OA
ATOM     66  O   UNL     1      13.708  -2.603 -12.550  1.00  0.00    -0.744 OA
ENDBRANCH  62  63
ENDBRANCH  41  55
BRANCH  42  67
ATOM     67  C   UNL     1       1.378   5.965 -13.770  1.00  0.00     0.058 A 
ATOM     68  C   UNL     1       0.049   5.517 -13.760  1.00  0.00     0.135 A 
ATOM     69  C   UNL     1       1.604   7.330 -14.015  1.00  0.00     0.135 A 
ATOM     70  F   UNL     1      -0.220   4.222 -13.539  1.00  0.00    -0.206 F 
ATOM     71  C   UNL     1      -1.014   6.384 -13.996  1.00  0.00     0.059 A 
ATOM     72  C   UNL     1       0.557   8.222 -14.220  1.00  0.00     0.059 A 
ATOM     73  F   UNL     1       2.856   7.815 -14.020  1.00  0.00    -0.206 F 
ATOM     74  C   UNL     1      -0.749   7.736 -14.220  1.00  0.00     0.060 A 
BRANCH  74  75
ATOM     75  S   UNL     1      -2.140   8.858 -14.482  1.00  0.00     0.124 S 
ATOM     76  O   UNL     1      -2.592   8.459 -15.810  1.00  0.00    -0.237 OA
ATOM     77  O   UNL     1      -3.025   8.511 -13.375  1.00  0.00    -0.237 OA
ATOM     78  O   UNL     1      -1.528  10.180 -14.395  1.00  0.00    -0.744 OA
ENDBRANCH  74  75
ENDBRANCH  42  67
BRANCH  54  79
ATOM     79  C   UNL     1       4.142   0.548 -17.215  1.00  0.00     0.058 A 
ATOM     80  C   UNL     1       4.381   1.103 -18.480  1.00  0.00     0.135 A 
ATOM     81  C   UNL     1       3.620  -0.755 -17.154  1.00  0.00     0.135 A 
ATOM     82  F   UNL     1       4.866   2.350 -18.591  1.00  0.00    -0.206 F 
ATOM     83  C   UNL     1       4.119   0.389 -19.644  1.00  0.00     0.059 A 
ATOM     84  C   UNL     1       3.377  -1.497 -18.304  1.00  0.00     0.059 A 
ATOM     85  F   UNL     1       3.377  -1.331 -15.966  1.00  0.00    -0.206 F 
ATOM     86  C   UNL     1       3.630  -0.916 -19.545  1.00  0.00     0.060 A 
BRANCH  86  87
ATOM     87  S   UNL     1       3.380  -1.861 -21.062  1.00  0.00     0.124 S 
ATOM     88  O   UNL     1       2.210  -1.201 -21.632  1.00  0.00    -0.237 OA
ATOM     89  O   UNL     1       4.637  -1.648 -21.772  1.00  0.00    -0.237 OA
ATOM     90  O   UNL     1       3.160  -3.223 -20.583  1.00  0.00    -0.744 OA
ENDBRANCH  86  87
ENDBRANCH  54  79
ENDBRANCH  28  29
ENDBRANCH  21  23
ENDBRANCH  20  21
ENDBRANCH   1  20
TORSDOF 16
