REMARK SMILES O=C(OCCOC(=O)[C@@H](CCCCO)c1ccc(Cl)cc1)c1ccc(-c2c3nc(c(-c4c(F)cc(S(=O)(=O)[O-])cc4F)c4ccc([nH]4)c(-c4c(F)cc(S(=O)(=O)[O-])cc4F)c4nc(c(-c5c(F)cc(S(=O)(=O)[O-])cc5F)c5ccc2[nH]5)C=C4)C=C3)cc1
REMARK SMILES IDX 5 1 4 2 3 3 2 4 1 5 22 6 23 7 87 8 24 9 86 10 25 11 26 12
REMARK SMILES IDX 27 13 80 14 28 15 85 16 79 17 81 18 29 19 84 20 78 21 77 22
REMARK SMILES IDX 30 24 64 25 43 26 63 27 44 28 47 29 62 30 82 31 45 32 46 33
REMARK SMILES IDX 61 35 83 36 48 37 31 38 32 39 41 40 33 41 34 42 40 43 42 44
REMARK SMILES IDX 35 45 36 46 37 47 38 48 39 49 65 50 66 51 75 52 67 53 68 54
REMARK SMILES IDX 74 55 76 56 69 57 70 58 71 59 72 60 73 61 49 62 50 63 59 64
REMARK SMILES IDX 51 65 52 66 58 67 60 68 53 69 54 70 55 71 56 72 57 73 6 74
REMARK SMILES IDX 7 75 8 76 9 77 10 78 11 79 12 80 13 81 14 82 15 84 16 85
REMARK SMILES IDX 21 86 17 87 20 88 18 89 19 90
REMARK H PARENT 81 23 47 34 14 83
REMARK Flexibility Score: inf
ROOT
ATOM      1  C   UNL     1       3.852   0.855   1.930  1.00  0.00     0.274 C 
ENDROOT
BRANCH   1   2
ATOM      2  C   UNL     1       4.129   1.617   0.631  1.00  0.00     0.275 C 
BRANCH   2   3
ATOM      3  O   UNL     1       3.278   1.262  -0.456  1.00  0.00    -0.458 OA
BRANCH   3   4
ATOM      4  C   UNL     1       3.374   0.217  -1.305  1.00  0.00     0.338 C 
ATOM      5  O   UNL     1       2.495   0.115  -2.162  1.00  0.00    -0.246 OA
BRANCH   4   6
ATOM      6  C   UNL     1       4.410  -0.876  -1.224  1.00  0.00     0.060 A 
ATOM      7  C   UNL     1       5.555  -0.954  -0.413  1.00  0.00     0.016 A 
ATOM      8  C   UNL     1       4.104  -2.007  -1.988  1.00  0.00     0.016 A 
ATOM      9  C   UNL     1       6.302  -2.148  -0.281  1.00  0.00     0.010 A 
ATOM     10  C   UNL     1       4.793  -3.206  -1.798  1.00  0.00     0.010 A 
ATOM     11  C   UNL     1       5.900  -3.309  -0.932  1.00  0.00    -0.014 A 
BRANCH  11  12
ATOM     12  C   UNL     1       6.563  -4.649  -0.800  1.00  0.00     0.031 A 
ATOM     13  C   UNL     1       6.862  -5.374  -2.089  1.00  0.00     0.074 A 
ATOM     14  C   UNL     1       6.668  -5.317   0.377  1.00  0.00     0.049 A 
ATOM     15  N   UNL     1       7.051  -6.647  -2.304  1.00  0.00    -0.248 NA
ATOM     16  C   UNL     1       6.841  -4.552  -3.318  1.00  0.00     0.031 C 
ATOM     17  C   UNL     1       6.373  -4.792   1.716  1.00  0.00     0.029 A 
ATOM     18  N   UNL     1       6.923  -6.652   0.618  1.00  0.00    -0.354 N 
ATOM     19  C   UNL     1       7.192  -6.752  -3.681  1.00  0.00     0.074 A 
ATOM     20  C   UNL     1       6.798  -5.486  -4.252  1.00  0.00     0.031 C 
ATOM     21  C   UNL     1       6.309  -5.810   2.596  1.00  0.00     0.029 A 
ATOM     22  C   UNL     1       6.618  -7.055   1.907  1.00  0.00     0.049 A 
ATOM     23  H   UNL     1       7.288  -7.262  -0.063  1.00  0.00     0.167 HD
ATOM     24  C   UNL     1       7.775  -7.737  -4.401  1.00  0.00     0.037 A 
ATOM     25  C   UNL     1       6.584  -8.288   2.457  1.00  0.00     0.037 A 
ATOM     26  C   UNL     1       8.279  -8.939  -3.810  1.00  0.00     0.049 A 
ATOM     27  C   UNL     1       7.123  -9.439   1.645  1.00  0.00     0.074 A 
ATOM     28  C   UNL     1       9.054  -9.928  -4.382  1.00  0.00     0.029 A 
ATOM     29  N   UNL     1       8.064  -9.300  -2.490  1.00  0.00    -0.354 N 
ATOM     30  N   UNL     1       7.448  -9.467   0.374  1.00  0.00    -0.248 NA
ATOM     31  C   UNL     1       7.392 -10.694   2.362  1.00  0.00     0.031 C 
ATOM     32  C   UNL     1       9.290 -10.904  -3.407  1.00  0.00     0.029 A 
ATOM     33  C   UNL     1       8.690 -10.500  -2.224  1.00  0.00     0.049 A 
ATOM     34  H   UNL     1       7.543  -8.777  -1.839  1.00  0.00     0.167 HD
ATOM     35  C   UNL     1       8.068 -10.695   0.171  1.00  0.00     0.074 A 
ATOM     36  C   UNL     1       8.015 -11.404   1.432  1.00  0.00     0.031 C 
ATOM     37  C   UNL     1       8.673 -11.167  -0.947  1.00  0.00     0.037 A 
BRANCH  24  38
ATOM     38  C   UNL     1       8.036  -7.445  -5.852  1.00  0.00     0.058 A 
ATOM     39  C   UNL     1       8.912  -6.407  -6.224  1.00  0.00     0.135 A 
ATOM     40  C   UNL     1       7.399  -8.161  -6.873  1.00  0.00     0.135 A 
ATOM     41  F   UNL     1       9.543  -5.681  -5.286  1.00  0.00    -0.206 F 
ATOM     42  C   UNL     1       9.091  -6.043  -7.550  1.00  0.00     0.059 A 
ATOM     43  C   UNL     1       7.599  -7.840  -8.214  1.00  0.00     0.059 A 
ATOM     44  F   UNL     1       6.560  -9.165  -6.576  1.00  0.00    -0.206 F 
ATOM     45  C   UNL     1       8.427  -6.765  -8.540  1.00  0.00     0.060 A 
BRANCH  45  46
ATOM     46  S   UNL     1       8.679  -6.271 -10.255  1.00  0.00     0.124 S 
ATOM     47  O   UNL     1       7.912  -5.032 -10.318  1.00  0.00    -0.237 OA
ATOM     48  O   UNL     1      10.127  -6.125 -10.328  1.00  0.00    -0.237 OA
ATOM     49  O   UNL     1       8.125  -7.393 -11.014  1.00  0.00    -0.744 OA
ENDBRANCH  45  46
ENDBRANCH  24  38
BRANCH  25  50
ATOM     50  C   UNL     1       6.147  -8.522   3.866  1.00  0.00     0.058 A 
ATOM     51  C   UNL     1       7.089  -8.683   4.894  1.00  0.00     0.135 A 
ATOM     52  C   UNL     1       4.793  -8.690   4.200  1.00  0.00     0.135 A 
ATOM     53  F   UNL     1       8.397  -8.559   4.623  1.00  0.00    -0.206 F 
ATOM     54  C   UNL     1       6.714  -9.029   6.190  1.00  0.00     0.059 A 
ATOM     55  C   UNL     1       4.391  -9.031   5.494  1.00  0.00     0.059 A 
ATOM     56  F   UNL     1       3.846  -8.539   3.261  1.00  0.00    -0.206 F 
ATOM     57  C   UNL     1       5.361  -9.206   6.482  1.00  0.00     0.060 A 
BRANCH  57  58
ATOM     58  S   UNL     1       4.895  -9.642   8.175  1.00  0.00     0.124 S 
ATOM     59  O   UNL     1       5.395 -11.009   8.278  1.00  0.00    -0.237 OA
ATOM     60  O   UNL     1       5.616  -8.643   8.959  1.00  0.00    -0.237 OA
ATOM     61  O   UNL     1       3.442  -9.504   8.175  1.00  0.00    -0.744 OA
ENDBRANCH  57  58
ENDBRANCH  25  50
BRANCH  37  62
ATOM     62  C   UNL     1       9.441 -12.450  -0.840  1.00  0.00     0.058 A 
ATOM     63  C   UNL     1       8.807 -13.696  -0.759  1.00  0.00     0.135 A 
ATOM     64  C   UNL     1      10.845 -12.424  -0.916  1.00  0.00     0.135 A 
ATOM     65  F   UNL     1       7.469 -13.769  -0.672  1.00  0.00    -0.206 F 
ATOM     66  C   UNL     1       9.539 -14.877  -0.755  1.00  0.00     0.059 A 
ATOM     67  C   UNL     1      11.594 -13.593  -0.946  1.00  0.00     0.059 A 
ATOM     68  F   UNL     1      11.497 -11.253  -1.001  1.00  0.00    -0.206 F 
ATOM     69  C   UNL     1      10.931 -14.815  -0.860  1.00  0.00     0.060 A 
BRANCH  69  70
ATOM     70  S   UNL     1      11.862 -16.358  -0.934  1.00  0.00     0.124 S 
ATOM     71  O   UNL     1      11.788 -16.813   0.450  1.00  0.00    -0.237 OA
ATOM     72  O   UNL     1      11.095 -17.138  -1.901  1.00  0.00    -0.237 OA
ATOM     73  O   UNL     1      13.184 -15.936  -1.388  1.00  0.00    -0.744 OA
ENDBRANCH  69  70
ENDBRANCH  37  62
ENDBRANCH  11  12
ENDBRANCH   4   6
ENDBRANCH   3   4
ENDBRANCH   2   3
ENDBRANCH   1   2
BRANCH   1  74
ATOM     74  O   UNL     1       3.223  -0.437   1.778  1.00  0.00    -0.462 OA
BRANCH  74  75
ATOM     75  C   UNL     1       1.919  -0.515   2.184  1.00  0.00     0.313 C 
ATOM     76  O   UNL     1       1.250   0.470   2.487  1.00  0.00    -0.252 OA
BRANCH  75  77
ATOM     77  C   UNL     1       1.376  -1.949   2.334  1.00  0.00     0.129 C 
BRANCH  77  78
ATOM     78  C   UNL     1       1.263  -2.711   0.994  1.00  0.00     0.020 C 
BRANCH  78  79
ATOM     79  C   UNL     1       2.542  -3.318   0.437  1.00  0.00     0.004 C 
BRANCH  79  80
ATOM     80  C   UNL     1       3.169  -4.571   1.039  1.00  0.00     0.028 C 
BRANCH  80  81
ATOM     81  C   UNL     1       2.544  -5.900   0.672  1.00  0.00     0.156 C 
BRANCH  81  82
ATOM     82  O   UNL     1       2.679  -6.109  -0.730  1.00  0.00    -0.396 OA
ATOM     83  H   UNL     1       2.233  -5.393  -1.208  1.00  0.00     0.210 HD
ENDBRANCH  81  82
ENDBRANCH  80  81
ENDBRANCH  79  80
ENDBRANCH  78  79
ENDBRANCH  77  78
BRANCH  77  84
ATOM     84  C   UNL     1       1.954  -2.785   3.472  1.00  0.00    -0.034 A 
ATOM     85  C   UNL     1       1.432  -4.078   3.699  1.00  0.00     0.006 A 
ATOM     86  C   UNL     1       3.025  -2.358   4.269  1.00  0.00     0.006 A 
ATOM     87  C   UNL     1       2.044  -4.957   4.595  1.00  0.00     0.021 A 
ATOM     88  C   UNL     1       3.615  -3.227   5.192  1.00  0.00     0.021 A 
ATOM     89  C   UNL     1       3.142  -4.528   5.330  1.00  0.00     0.041 A 
ATOM     90  Cl  UNL     1       3.937  -5.605   6.403  1.00  0.00    -0.084 Cl
ENDBRANCH  77  84
ENDBRANCH  75  77
ENDBRANCH  74  75
ENDBRANCH   1  74
TORSDOF 20
