REMARK SMILES O=C(OCCOC(=O)c1cccn(Cc2ccc3c(c2)OC(F)(F)O3)c1=O)c1ccc(-c2c3nc(c(-c4c(F)cc(S(=O)(=O)[O-])cc4F)c4ccc([nH]4)c(-c4c(F)cc(S(=O)(=O)[O-])cc4F)c4nc(c(-c5c(F)cc(S(=O)(=O)[O-])cc5F)c5ccc2[nH]5)C=C4)C=C3)cc1
REMARK SMILES IDX 4 1 3 2 2 3 1 4 28 5 29 6 93 7 30 8 92 9 31 10 32 11 33 12
REMARK SMILES IDX 86 13 34 14 91 15 85 16 87 17 35 18 90 19 84 20 83 21 36 23
REMARK SMILES IDX 70 24 49 25 69 26 50 27 53 28 68 29 88 30 51 31 52 32 67 34
REMARK SMILES IDX 89 35 54 36 37 37 38 38 47 39 39 40 40 41 46 42 48 43 41 44
REMARK SMILES IDX 42 45 43 46 44 47 45 48 71 49 72 50 81 51 73 52 74 53 80 54
REMARK SMILES IDX 82 55 75 56 76 57 77 58 78 59 79 60 55 61 56 62 65 63 57 64
REMARK SMILES IDX 58 65 64 66 66 67 59 68 60 69 61 70 62 71 63 72 5 73 6 74
REMARK SMILES IDX 7 75 8 76 9 77 10 78 26 79 11 80 13 81 27 82 12 83 14 84
REMARK SMILES IDX 15 85 16 86 20 87 17 88 19 89 18 90 21 91 25 92 22 93 23 94
REMARK SMILES IDX 24 95
REMARK H PARENT 87 22 53 33
REMARK Flexibility Score: inf
ROOT
ATOM      1  C   UNL     1       4.299   0.047  -1.422  1.00  0.00     0.275 C 
ENDROOT
BRANCH   1   2
ATOM      2  O   UNL     1       3.330  -0.833  -0.823  1.00  0.00    -0.458 OA
BRANCH   2   3
ATOM      3  C   UNL     1       3.234  -1.273   0.455  1.00  0.00     0.338 C 
ATOM      4  O   UNL     1       2.458  -2.195   0.700  1.00  0.00    -0.246 OA
BRANCH   3   5
ATOM      5  C   UNL     1       3.888  -0.589   1.616  1.00  0.00     0.060 A 
ATOM      6  C   UNL     1       3.152  -0.582   2.810  1.00  0.00     0.016 A 
ATOM      7  C   UNL     1       5.144   0.022   1.627  1.00  0.00     0.016 A 
ATOM      8  C   UNL     1       3.601   0.120   3.932  1.00  0.00     0.010 A 
ATOM      9  C   UNL     1       5.613   0.701   2.766  1.00  0.00     0.010 A 
ATOM     10  C   UNL     1       4.837   0.782   3.923  1.00  0.00    -0.014 A 
BRANCH  10  11
ATOM     11  C   UNL     1       5.338   1.409   5.175  1.00  0.00     0.031 A 
ATOM     12  C   UNL     1       5.556   2.890   5.319  1.00  0.00     0.074 A 
ATOM     13  C   UNL     1       5.566   0.603   6.231  1.00  0.00     0.049 A 
ATOM     14  N   UNL     1       5.658   3.587   6.425  1.00  0.00    -0.248 NA
ATOM     15  C   UNL     1       5.644   3.703   4.098  1.00  0.00     0.031 C 
ATOM     16  C   UNL     1       5.476  -0.859   6.202  1.00  0.00     0.029 A 
ATOM     17  N   UNL     1       5.915   0.889   7.525  1.00  0.00    -0.354 N 
ATOM     18  C   UNL     1       5.712   4.920   6.037  1.00  0.00     0.074 A 
ATOM     19  C   UNL     1       5.733   4.935   4.592  1.00  0.00     0.031 C 
ATOM     20  C   UNL     1       5.747  -1.341   7.422  1.00  0.00     0.029 A 
ATOM     21  C   UNL     1       6.064  -0.228   8.310  1.00  0.00     0.049 A 
ATOM     22  H   UNL     1       6.047   1.806   7.858  1.00  0.00     0.167 HD
ATOM     23  C   UNL     1       5.682   6.022   6.824  1.00  0.00     0.037 A 
ATOM     24  C   UNL     1       6.434  -0.351   9.599  1.00  0.00     0.037 A 
ATOM     25  C   UNL     1       5.807   5.984   8.256  1.00  0.00     0.049 A 
ATOM     26  C   UNL     1       6.663   0.886  10.411  1.00  0.00     0.074 A 
ATOM     27  C   UNL     1       5.749   7.032   9.159  1.00  0.00     0.029 A 
ATOM     28  N   UNL     1       6.106   4.844   8.985  1.00  0.00    -0.354 N 
ATOM     29  N   UNL     1       6.458   2.135  10.067  1.00  0.00    -0.248 NA
ATOM     30  C   UNL     1       7.175   0.709  11.774  1.00  0.00     0.031 C 
ATOM     31  C   UNL     1       6.104   6.536  10.420  1.00  0.00     0.029 A 
ATOM     32  C   UNL     1       6.339   5.174  10.308  1.00  0.00     0.049 A 
ATOM     33  H   UNL     1       6.146   3.932   8.615  1.00  0.00     0.167 HD
ATOM     34  C   UNL     1       6.816   2.897  11.171  1.00  0.00     0.074 A 
ATOM     35  C   UNL     1       7.236   1.965  12.200  1.00  0.00     0.031 C 
ATOM     36  C   UNL     1       6.793   4.245  11.315  1.00  0.00     0.037 A 
BRANCH  23  37
ATOM     37  C   UNL     1       5.463   7.357   6.170  1.00  0.00     0.058 A 
ATOM     38  C   UNL     1       4.159   7.779   5.867  1.00  0.00     0.135 A 
ATOM     39  C   UNL     1       6.510   8.256   5.936  1.00  0.00     0.135 A 
ATOM     40  F   UNL     1       3.123   6.970   6.124  1.00  0.00    -0.206 F 
ATOM     41  C   UNL     1       3.898   9.034   5.325  1.00  0.00     0.059 A 
ATOM     42  C   UNL     1       6.275   9.525   5.409  1.00  0.00     0.059 A 
ATOM     43  F   UNL     1       7.773   7.910   6.229  1.00  0.00    -0.206 F 
ATOM     44  C   UNL     1       4.966   9.901   5.096  1.00  0.00     0.060 A 
BRANCH  44  45
ATOM     45  S   UNL     1       4.616  11.535   4.409  1.00  0.00     0.124 S 
ATOM     46  O   UNL     1       4.243  11.202   3.038  1.00  0.00    -0.237 OA
ATOM     47  O   UNL     1       3.535  12.009   5.266  1.00  0.00    -0.237 OA
ATOM     48  O   UNL     1       5.884  12.244   4.556  1.00  0.00    -0.744 OA
ENDBRANCH  44  45
ENDBRANCH  23  37
BRANCH  24  49
ATOM     49  C   UNL     1       6.626  -1.717  10.150  1.00  0.00     0.058 A 
ATOM     50  C   UNL     1       5.710  -2.280  11.046  1.00  0.00     0.135 A 
ATOM     51  C   UNL     1       7.669  -2.531   9.675  1.00  0.00     0.135 A 
ATOM     52  F   UNL     1       4.702  -1.539  11.531  1.00  0.00    -0.206 F 
ATOM     53  C   UNL     1       5.800  -3.615  11.428  1.00  0.00     0.059 A 
ATOM     54  C   UNL     1       7.766  -3.873  10.023  1.00  0.00     0.059 A 
ATOM     55  F   UNL     1       8.563  -2.038   8.803  1.00  0.00    -0.206 F 
ATOM     56  C   UNL     1       6.820  -4.408  10.895  1.00  0.00     0.060 A 
BRANCH  56  57
ATOM     57  S   UNL     1       6.846  -6.171  11.290  1.00  0.00     0.124 S 
ATOM     58  O   UNL     1       7.263  -6.152  12.687  1.00  0.00    -0.237 OA
ATOM     59  O   UNL     1       5.461  -6.558  11.041  1.00  0.00    -0.237 OA
ATOM     60  O   UNL     1       7.820  -6.713  10.347  1.00  0.00    -0.744 OA
ENDBRANCH  56  57
ENDBRANCH  24  49
BRANCH  36  61
ATOM     61  C   UNL     1       7.285   4.814  12.613  1.00  0.00     0.058 A 
ATOM     62  C   UNL     1       8.656   4.862  12.903  1.00  0.00     0.135 A 
ATOM     63  C   UNL     1       6.396   5.396  13.530  1.00  0.00     0.135 A 
ATOM     64  F   UNL     1       9.545   4.307  12.063  1.00  0.00    -0.206 F 
ATOM     65  C   UNL     1       9.132   5.470  14.059  1.00  0.00     0.059 A 
ATOM     66  C   UNL     1       6.850   6.032  14.680  1.00  0.00     0.059 A 
ATOM     67  F   UNL     1       5.074   5.379  13.294  1.00  0.00    -0.206 F 
ATOM     68  C   UNL     1       8.221   6.062  14.936  1.00  0.00     0.060 A 
BRANCH  68  69
ATOM     69  S   UNL     1       8.861   6.910  16.396  1.00  0.00     0.124 S 
ATOM     70  O   UNL     1       9.311   5.788  17.213  1.00  0.00    -0.237 OA
ATOM     71  O   UNL     1       9.915   7.747  15.831  1.00  0.00    -0.237 OA
ATOM     72  O   UNL     1       7.699   7.631  16.906  1.00  0.00    -0.744 OA
ENDBRANCH  68  69
ENDBRANCH  36  61
ENDBRANCH  10  11
ENDBRANCH   3   5
ENDBRANCH   2   3
ENDBRANCH   1   2
BRANCH   1  73
ATOM     73  C   UNL     1       3.930   1.529  -1.370  1.00  0.00     0.275 C 
BRANCH  73  74
ATOM     74  O   UNL     1       3.416   1.917  -0.091  1.00  0.00    -0.458 OA
BRANCH  74  75
ATOM     75  C   UNL     1       2.059   2.007  -0.011  1.00  0.00     0.343 C 
ATOM     76  O   UNL     1       1.279   1.831  -0.928  1.00  0.00    -0.246 OA
BRANCH  75  77
ATOM     77  C   UNL     1       1.643   2.169   1.394  1.00  0.00     0.125 A 
ATOM     78  C   UNL     1       0.677   1.347   1.840  1.00  0.00     0.023 A 
ATOM     79  C   UNL     1       2.271   3.149   2.321  1.00  0.00     0.265 A 
ATOM     80  C   UNL     1       0.277   1.358   3.223  1.00  0.00     0.019 A 
ATOM     81  N   UNL     1       1.781   3.140   3.633  1.00  0.00    -0.310 N 
ATOM     82  O   UNL     1       3.138   3.922   1.915  1.00  0.00    -0.268 OA
ATOM     83  C   UNL     1       0.828   2.236   4.066  1.00  0.00     0.089 A 
BRANCH  81  84
ATOM     84  C   UNL     1       2.228   4.173   4.564  1.00  0.00     0.161 C 
BRANCH  84  85
ATOM     85  C   UNL     1       1.214   5.284   4.682  1.00  0.00    -0.024 A 
ATOM     86  C   UNL     1       0.471   5.460   5.871  1.00  0.00     0.010 A 
ATOM     87  C   UNL     1       1.061   6.186   3.616  1.00  0.00     0.056 A 
ATOM     88  C   UNL     1      -0.398   6.544   6.015  1.00  0.00     0.051 A 
ATOM     89  C   UNL     1       0.217   7.254   3.796  1.00  0.00     0.173 A 
ATOM     90  C   UNL     1      -0.488   7.432   4.965  1.00  0.00     0.172 A 
ATOM     91  O   UNL     1       0.008   8.254   2.900  1.00  0.00    -0.395 OA
ATOM     92  O   UNL     1      -1.227   8.575   4.949  1.00  0.00    -0.395 OA
ATOM     93  C   UNL     1      -0.735   9.154   3.730  1.00  0.00     0.586 C 
ATOM     94  F   UNL     1       0.047  10.214   4.039  1.00  0.00    -0.125 F 
ATOM     95  F   UNL     1      -1.795   9.618   3.020  1.00  0.00    -0.125 F 
ENDBRANCH  84  85
ENDBRANCH  81  84
ENDBRANCH  75  77
ENDBRANCH  74  75
ENDBRANCH  73  74
ENDBRANCH   1  73
TORSDOF 16
