REMARK SMILES Cc1cc(C)c2c(=O)n(CCCC(=O)OCCOC(=O)c3ccc(-c4c5nc(c(-c6c(F)cc(S(=O)(=O)[O-])cc6F)c6ccc([nH]6)c(-c6c(F)cc(S(=O)(=O)[O-])cc6F)c6nc(c(-c7c(F)cc(S(=O)(=O)[O-])cc7F)c7ccc4[nH]7)C=C6)C=C5)cc3)sc2n1
REMARK SMILES IDX 16 1 15 2 13 3 14 4 12 5 11 6 10 7 9 8 1 9 2 10 3 11 89 12
REMARK SMILES IDX 4 13 88 14 5 15 6 16 87 17 7 18 8 19 17 20 18 21 19 22 20 23
REMARK SMILES IDX 21 24 22 25 86 26 23 27 85 28 24 29 25 30 26 31 79 32 27 33
REMARK SMILES IDX 84 34 78 35 80 36 28 37 83 38 77 39 76 40 29 42 63 43 42 44
REMARK SMILES IDX 62 45 43 46 46 47 61 48 81 49 44 50 45 51 60 53 82 54 47 55
REMARK SMILES IDX 30 56 31 57 40 58 32 59 33 60 39 61 41 62 34 63 35 64 36 65
REMARK SMILES IDX 37 66 38 67 64 68 65 69 74 70 66 71 67 72 73 73 75 74 68 75
REMARK SMILES IDX 69 76 70 77 71 78 72 79 48 80 49 81 58 82 50 83 51 84 57 85
REMARK SMILES IDX 59 86 52 87 53 88 54 89 55 90 56 91
REMARK H PARENT 80 41 46 52
REMARK Flexibility Score: inf
ROOT
ATOM      1  C   UNL     1      -6.103  -3.404   1.366  1.00  0.00     0.274 C 
ENDROOT
BRANCH   1   2
ATOM      2  O   UNL     1      -4.926  -3.780   2.099  1.00  0.00    -0.462 OA
BRANCH   2   3
ATOM      3  C   UNL     1      -4.742  -3.300   3.351  1.00  0.00     0.305 C 
ATOM      4  O   UNL     1      -5.469  -2.469   3.885  1.00  0.00    -0.252 OA
BRANCH   3   5
ATOM      5  C   UNL     1      -3.485  -3.837   4.018  1.00  0.00     0.124 C 
BRANCH   5   6
ATOM      6  C   UNL     1      -2.902  -5.202   3.617  1.00  0.00     0.035 C 
BRANCH   6   7
ATOM      7  C   UNL     1      -2.716  -5.549   2.131  1.00  0.00     0.139 C 
BRANCH   7   8
ATOM      8  N   UNL     1      -1.841  -4.646   1.398  1.00  0.00    -0.262 N 
ATOM      9  C   UNL     1       1.446   0.184  -0.246  1.00  0.00     0.067 C 
ATOM     10  C   UNL     1       0.992  -1.230  -0.068  1.00  0.00     0.039 A 
ATOM     11  C   UNL     1       1.843  -2.318  -0.315  1.00  0.00     0.027 A 
ATOM     12  N   UNL     1      -0.290  -1.382   0.318  1.00  0.00    -0.241 NA
ATOM     13  C   UNL     1       1.397  -3.630  -0.075  1.00  0.00    -0.033 A 
ATOM     14  C   UNL     1      -0.678  -2.644   0.547  1.00  0.00     0.146 A 
ATOM     15  C   UNL     1       2.267  -4.814  -0.351  1.00  0.00     0.045 C 
ATOM     16  C   UNL     1       0.113  -3.770   0.425  1.00  0.00     0.081 A 
ATOM     17  S   UNL     1      -2.307  -3.035   1.052  1.00  0.00    -0.035 S 
ATOM     18  C   UNL     1      -0.575  -4.976   0.941  1.00  0.00     0.270 A 
ATOM     19  O   UNL     1      -0.037  -6.074   0.987  1.00  0.00    -0.268 OA
ENDBRANCH   7   8
ENDBRANCH   6   7
ENDBRANCH   5   6
ENDBRANCH   3   5
ENDBRANCH   2   3
ENDBRANCH   1   2
BRANCH   1  20
ATOM     20  C   UNL     1      -7.139  -4.509   1.466  1.00  0.00     0.275 C 
BRANCH  20  21
ATOM     21  O   UNL     1      -7.567  -4.636   2.817  1.00  0.00    -0.458 OA
BRANCH  21  22
ATOM     22  C   UNL     1      -6.821  -5.480   3.563  1.00  0.00     0.338 C 
ATOM     23  O   UNL     1      -5.800  -6.061   3.239  1.00  0.00    -0.246 OA
BRANCH  22  24
ATOM     24  C   UNL     1      -7.498  -5.721   4.828  1.00  0.00     0.060 A 
ATOM     25  C   UNL     1      -6.758  -6.287   5.872  1.00  0.00     0.016 A 
ATOM     26  C   UNL     1      -8.896  -5.674   4.825  1.00  0.00     0.016 A 
ATOM     27  C   UNL     1      -7.439  -6.986   6.841  1.00  0.00     0.010 A 
ATOM     28  C   UNL     1      -9.568  -6.387   5.777  1.00  0.00     0.010 A 
ATOM     29  C   UNL     1      -8.825  -7.098   6.717  1.00  0.00    -0.014 A 
BRANCH  29  30
ATOM     30  C   UNL     1      -9.533  -7.982   7.611  1.00  0.00     0.031 A 
ATOM     31  C   UNL     1      -9.758  -7.408   8.955  1.00  0.00     0.074 A 
ATOM     32  C   UNL     1     -10.092  -9.114   7.144  1.00  0.00     0.049 A 
ATOM     33  N   UNL     1      -9.335  -7.843  10.094  1.00  0.00    -0.248 NA
ATOM     34  C   UNL     1     -10.413  -6.088   9.021  1.00  0.00     0.031 C 
ATOM     35  C   UNL     1     -10.188  -9.565   5.750  1.00  0.00     0.029 A 
ATOM     36  N   UNL     1     -10.825 -10.038   7.811  1.00  0.00    -0.354 N 
ATOM     37  C   UNL     1      -9.868  -6.973  11.039  1.00  0.00     0.074 A 
ATOM     38  C   UNL     1     -10.337  -5.817  10.322  1.00  0.00     0.031 C 
ATOM     39  C   UNL     1     -11.132 -10.528   5.661  1.00  0.00     0.029 A 
ATOM     40  C   UNL     1     -11.611 -10.840   6.997  1.00  0.00     0.049 A 
ATOM     41  H   UNL     1     -10.801 -10.132   8.790  1.00  0.00     0.167 HD
ATOM     42  C   UNL     1     -10.136  -7.377  12.308  1.00  0.00     0.037 A 
ATOM     43  C   UNL     1     -12.649 -11.611   7.409  1.00  0.00     0.037 A 
ATOM     44  C   UNL     1      -9.439  -8.591  12.640  1.00  0.00     0.049 A 
ATOM     45  C   UNL     1     -12.490 -11.798   8.880  1.00  0.00     0.074 A 
ATOM     46  C   UNL     1      -8.107  -8.956  12.682  1.00  0.00     0.029 A 
ATOM     47  N   UNL     1     -10.150  -9.767  12.617  1.00  0.00    -0.354 N 
ATOM     48  N   UNL     1     -11.503 -12.450   9.434  1.00  0.00    -0.248 NA
ATOM     49  C   UNL     1     -13.185 -10.867   9.758  1.00  0.00     0.031 C 
ATOM     50  C   UNL     1      -8.074 -10.299  12.207  1.00  0.00     0.029 A 
ATOM     51  C   UNL     1      -9.388 -10.694  11.950  1.00  0.00     0.049 A 
ATOM     52  H   UNL     1     -11.042  -9.916  13.006  1.00  0.00     0.167 HD
ATOM     53  C   UNL     1     -11.192 -11.731  10.581  1.00  0.00     0.074 A 
ATOM     54  C   UNL     1     -12.319 -10.821  10.774  1.00  0.00     0.031 C 
ATOM     55  C   UNL     1      -9.930 -11.738  11.105  1.00  0.00     0.037 A 
BRANCH  42  56
ATOM     56  C   UNL     1     -11.310  -6.864  13.098  1.00  0.00     0.058 A 
ATOM     57  C   UNL     1     -11.373  -7.099  14.482  1.00  0.00     0.135 A 
ATOM     58  C   UNL     1     -12.498  -6.382  12.499  1.00  0.00     0.135 A 
ATOM     59  F   UNL     1     -10.308  -7.582  15.141  1.00  0.00    -0.206 F 
ATOM     60  C   UNL     1     -12.548  -6.915  15.212  1.00  0.00     0.059 A 
ATOM     61  C   UNL     1     -13.659  -6.132  13.217  1.00  0.00     0.059 A 
ATOM     62  F   UNL     1     -12.620  -6.229  11.174  1.00  0.00    -0.206 F 
ATOM     63  C   UNL     1     -13.688  -6.443  14.565  1.00  0.00     0.060 A 
BRANCH  63  64
ATOM     64  S   UNL     1     -15.235  -6.316  15.476  1.00  0.00     0.124 S 
ATOM     65  O   UNL     1     -15.556  -7.722  15.695  1.00  0.00    -0.237 OA
ATOM     66  O   UNL     1     -14.831  -5.559  16.656  1.00  0.00    -0.237 OA
ATOM     67  O   UNL     1     -16.112  -5.604  14.552  1.00  0.00    -0.744 OA
ENDBRANCH  63  64
ENDBRANCH  42  56
BRANCH  43  68
ATOM     68  C   UNL     1     -13.939 -11.841   6.703  1.00  0.00     0.058 A 
ATOM     69  C   UNL     1     -14.840 -12.825   7.148  1.00  0.00     0.135 A 
ATOM     70  C   UNL     1     -14.443 -10.928   5.752  1.00  0.00     0.135 A 
ATOM     71  F   UNL     1     -14.455 -13.723   8.068  1.00  0.00    -0.206 F 
ATOM     72  C   UNL     1     -16.172 -12.868   6.719  1.00  0.00     0.059 A 
ATOM     73  C   UNL     1     -15.760 -10.961   5.298  1.00  0.00     0.059 A 
ATOM     74  F   UNL     1     -13.697  -9.910   5.300  1.00  0.00    -0.206 F 
ATOM     75  C   UNL     1     -16.629 -11.916   5.808  1.00  0.00     0.060 A 
BRANCH  75  76
ATOM     76  S   UNL     1     -18.386 -11.858   5.387  1.00  0.00     0.124 S 
ATOM     77  O   UNL     1     -18.563 -13.105   4.652  1.00  0.00    -0.237 OA
ATOM     78  O   UNL     1     -19.014 -11.797   6.702  1.00  0.00    -0.237 OA
ATOM     79  O   UNL     1     -18.503 -10.641   4.587  1.00  0.00    -0.744 OA
ENDBRANCH  75  76
ENDBRANCH  43  68
BRANCH  55  80
ATOM     80  C   UNL     1      -8.948 -12.759  10.586  1.00  0.00     0.058 A 
ATOM     81  C   UNL     1      -8.446 -12.777   9.272  1.00  0.00     0.135 A 
ATOM     82  C   UNL     1      -8.363 -13.645  11.503  1.00  0.00     0.135 A 
ATOM     83  F   UNL     1      -8.873 -11.894   8.360  1.00  0.00    -0.206 F 
ATOM     84  C   UNL     1      -7.436 -13.657   8.880  1.00  0.00     0.059 A 
ATOM     85  C   UNL     1      -7.333 -14.510  11.143  1.00  0.00     0.059 A 
ATOM     86  F   UNL     1      -8.752 -13.633  12.789  1.00  0.00    -0.206 F 
ATOM     87  C   UNL     1      -6.880 -14.518   9.825  1.00  0.00     0.060 A 
BRANCH  87  88
ATOM     88  S   UNL     1      -5.511 -15.590   9.338  1.00  0.00     0.124 S 
ATOM     89  O   UNL     1      -6.169 -16.550   8.458  1.00  0.00    -0.237 OA
ATOM     90  O   UNL     1      -4.595 -14.658   8.687  1.00  0.00    -0.237 OA
ATOM     91  O   UNL     1      -5.034 -16.134  10.607  1.00  0.00    -0.744 OA
ENDBRANCH  87  88
ENDBRANCH  55  80
ENDBRANCH  29  30
ENDBRANCH  22  24
ENDBRANCH  21  22
ENDBRANCH  20  21
ENDBRANCH   1  20
TORSDOF 17
