REMARK SMILES CCCc1nnc(SCC(=O)OCCOC(=O)c2ccc(-c3c4nc(c(-c5c(F)cc(S(=O)(=O)[O-])cc5F)c5ccc([nH]5)c(-c5c(F)cc(S(=O)(=O)[O-])cc5F)c5nc(c(-c6c(F)cc(S(=O)(=O)[O-])cc6F)c6ccc3[nH]6)C=C5)C=C4)cc2)n1C[C@H]1CCCO1
REMARK SMILES IDX 13 1 12 2 10 3 11 4 9 5 8 6 7 7 4 8 5 9 84 10 6 11 3 12 2 13
REMARK SMILES IDX 1 14 85 15 86 16 87 17 90 18 88 19 89 20 14 21 15 22 16 23
REMARK SMILES IDX 17 24 18 25 19 26 83 27 20 28 82 29 21 30 22 31 23 32 76 33
REMARK SMILES IDX 24 34 81 35 75 36 77 37 25 38 80 39 74 40 73 41 26 43 60 44
REMARK SMILES IDX 39 45 59 46 40 47 43 48 58 49 78 50 41 51 42 52 57 54 79 55
REMARK SMILES IDX 44 56 27 57 28 58 37 59 29 60 30 61 36 62 38 63 31 64 32 65
REMARK SMILES IDX 33 66 34 67 35 68 61 69 62 70 71 71 63 72 64 73 70 74 72 75
REMARK SMILES IDX 65 76 66 77 67 78 68 79 69 80 45 81 46 82 55 83 47 84 48 85
REMARK SMILES IDX 54 86 56 87 49 88 50 89 51 90 52 91 53 92
REMARK H PARENT 77 42 43 53
REMARK Flexibility Score: inf
ROOT
ATOM      1  C   UNL     1       4.386  10.133  -4.818  1.00  0.00     0.274 C 
ENDROOT
BRANCH   1   2
ATOM      2  O   UNL     1       3.238   9.562  -5.480  1.00  0.00    -0.461 OA
BRANCH   2   3
ATOM      3  C   UNL     1       3.160   8.206  -5.557  1.00  0.00     0.316 C 
ATOM      4  O   UNL     1       4.032   7.435  -5.162  1.00  0.00    -0.251 OA
BRANCH   3   5
ATOM      5  C   UNL     1       1.946   7.711  -6.315  1.00  0.00     0.200 C 
BRANCH   5   6
ATOM      6  S   UNL     1       0.478   8.717  -6.177  1.00  0.00    -0.074 SA
BRANCH   6   7
ATOM      7  C   UNL     1      -0.684   7.875  -5.199  1.00  0.00     0.191 A 
ATOM      8  C   UNL     1      -1.539   7.766  -3.215  1.00  0.00     0.133 A 
ATOM      9  N   UNL     1      -2.514   8.076  -4.045  1.00  0.00    -0.134 NA
ATOM     10  N   UNL     1      -0.486   7.293  -3.975  1.00  0.00    -0.303 N 
ATOM     11  N   UNL     1      -1.970   8.141  -5.307  1.00  0.00    -0.123 NA
BRANCH   8  12
ATOM     12  C   UNL     1      -1.475   8.059  -1.753  1.00  0.00     0.077 C 
BRANCH  12  13
ATOM     13  C   UNL     1      -1.839   9.517  -1.447  1.00  0.00     0.005 C 
ATOM     14  C   UNL     1      -3.183   9.651  -0.754  1.00  0.00     0.004 C 
ENDBRANCH  12  13
ENDBRANCH   8  12
BRANCH  10  15
ATOM     15  C   UNL     1       0.522   6.369  -3.524  1.00  0.00     0.158 C 
BRANCH  15  16
ATOM     16  C   UNL     1       0.254   4.872  -3.759  1.00  0.00     0.138 C 
ATOM     17  C   UNL     1       0.335   4.378  -5.193  1.00  0.00     0.036 C 
ATOM     18  O   UNL     1       1.288   4.121  -3.078  1.00  0.00    -0.376 OA
ATOM     19  C   UNL     1       1.783   3.983  -5.395  1.00  0.00     0.031 C 
ATOM     20  C   UNL     1       2.359   3.886  -3.999  1.00  0.00     0.160 C 
ENDBRANCH  15  16
ENDBRANCH  10  15
ENDBRANCH   6   7
ENDBRANCH   5   6
ENDBRANCH   3   5
ENDBRANCH   2   3
ENDBRANCH   1   2
BRANCH   1  21
ATOM     21  C   UNL     1       4.022  10.716  -3.453  1.00  0.00     0.275 C 
BRANCH  21  22
ATOM     22  O   UNL     1       4.268   9.812  -2.363  1.00  0.00    -0.458 OA
BRANCH  22  23
ATOM     23  C   UNL     1       3.278   8.917  -2.176  1.00  0.00     0.338 C 
ATOM     24  O   UNL     1       2.429   8.591  -2.991  1.00  0.00    -0.246 OA
BRANCH  23  25
ATOM     25  C   UNL     1       3.113   8.563  -0.758  1.00  0.00     0.060 A 
ATOM     26  C   UNL     1       2.317   7.445  -0.509  1.00  0.00     0.016 A 
ATOM     27  C   UNL     1       3.253   9.576   0.193  1.00  0.00     0.016 A 
ATOM     28  C   UNL     1       1.393   7.508   0.515  1.00  0.00     0.010 A 
ATOM     29  C   UNL     1       2.385   9.589   1.272  1.00  0.00     0.010 A 
ATOM     30  C   UNL     1       1.357   8.640   1.334  1.00  0.00    -0.014 A 
BRANCH  30  31
ATOM     31  C   UNL     1       0.222   8.793   2.260  1.00  0.00     0.031 A 
ATOM     32  C   UNL     1       0.047   7.684   3.250  1.00  0.00     0.074 A 
ATOM     33  C   UNL     1      -0.503   9.937   2.265  1.00  0.00     0.049 A 
ATOM     34  N   UNL     1      -1.035   7.189   3.768  1.00  0.00    -0.248 NA
ATOM     35  C   UNL     1       1.282   6.984   3.669  1.00  0.00     0.031 C 
ATOM     36  C   UNL     1      -0.259  11.123   1.427  1.00  0.00     0.029 A 
ATOM     37  N   UNL     1      -1.505  10.360   3.099  1.00  0.00    -0.354 N 
ATOM     38  C   UNL     1      -0.594   6.278   4.728  1.00  0.00     0.074 A 
ATOM     39  C   UNL     1       0.815   6.082   4.523  1.00  0.00     0.031 C 
ATOM     40  C   UNL     1      -0.902  12.182   1.947  1.00  0.00     0.029 A 
ATOM     41  C   UNL     1      -1.620  11.748   3.129  1.00  0.00     0.049 A 
ATOM     42  H   UNL     1      -2.080   9.751   3.618  1.00  0.00     0.167 HD
ATOM     43  C   UNL     1      -1.316   5.950   5.830  1.00  0.00     0.037 A 
ATOM     44  C   UNL     1      -2.094  12.530   4.131  1.00  0.00     0.037 A 
ATOM     45  C   UNL     1      -2.728   6.025   5.631  1.00  0.00     0.049 A 
ATOM     46  C   UNL     1      -2.880  11.685   5.057  1.00  0.00     0.074 A 
ATOM     47  C   UNL     1      -3.616   5.374   4.799  1.00  0.00     0.029 A 
ATOM     48  N   UNL     1      -3.419   7.077   6.174  1.00  0.00    -0.354 N 
ATOM     49  N   UNL     1      -4.032  11.138   4.782  1.00  0.00    -0.248 NA
ATOM     50  C   UNL     1      -2.188  11.125   6.209  1.00  0.00     0.031 C 
ATOM     51  C   UNL     1      -4.662   6.306   4.554  1.00  0.00     0.029 A 
ATOM     52  C   UNL     1      -4.356   7.475   5.253  1.00  0.00     0.049 A 
ATOM     53  H   UNL     1      -3.269   7.474   7.062  1.00  0.00     0.167 HD
ATOM     54  C   UNL     1      -4.027   9.928   5.462  1.00  0.00     0.074 A 
ATOM     55  C   UNL     1      -2.926  10.032   6.411  1.00  0.00     0.031 C 
ATOM     56  C   UNL     1      -4.741   8.853   5.017  1.00  0.00     0.037 A 
BRANCH  43  57
ATOM     57  C   UNL     1      -0.646   5.888   7.176  1.00  0.00     0.058 A 
ATOM     58  C   UNL     1      -1.205   5.168   8.242  1.00  0.00     0.135 A 
ATOM     59  C   UNL     1       0.455   6.721   7.497  1.00  0.00     0.135 A 
ATOM     60  F   UNL     1      -2.285   4.396   8.048  1.00  0.00    -0.206 F 
ATOM     61  C   UNL     1      -0.701   5.267   9.541  1.00  0.00     0.059 A 
ATOM     62  C   UNL     1       1.009   6.788   8.764  1.00  0.00     0.059 A 
ATOM     63  F   UNL     1       0.984   7.566   6.599  1.00  0.00    -0.206 F 
ATOM     64  C   UNL     1       0.404   6.083   9.790  1.00  0.00     0.060 A 
BRANCH  64  65
ATOM     65  S   UNL     1       1.016   6.283  11.473  1.00  0.00     0.124 S 
ATOM     66  O   UNL     1       0.018   7.186  12.034  1.00  0.00    -0.237 OA
ATOM     67  O   UNL     1       0.997   4.913  11.974  1.00  0.00    -0.237 OA
ATOM     68  O   UNL     1       2.347   6.852  11.277  1.00  0.00    -0.744 OA
ENDBRANCH  64  65
ENDBRANCH  43  57
BRANCH  44  69
ATOM     69  C   UNL     1      -1.544  13.868   4.491  1.00  0.00     0.058 A 
ATOM     70  C   UNL     1      -2.286  14.823   5.202  1.00  0.00     0.135 A 
ATOM     71  C   UNL     1      -0.182  14.181   4.277  1.00  0.00     0.135 A 
ATOM     72  F   UNL     1      -3.567  14.582   5.519  1.00  0.00    -0.206 F 
ATOM     73  C   UNL     1      -1.719  16.031   5.637  1.00  0.00     0.059 A 
ATOM     74  C   UNL     1       0.393  15.385   4.665  1.00  0.00     0.059 A 
ATOM     75  F   UNL     1       0.661  13.286   3.738  1.00  0.00    -0.206 F 
ATOM     76  C   UNL     1      -0.379  16.305   5.357  1.00  0.00     0.060 A 
BRANCH  76  77
ATOM     77  S   UNL     1       0.378  17.832   5.954  1.00  0.00     0.124 S 
ATOM     78  O   UNL     1      -0.459  18.853   5.333  1.00  0.00    -0.237 OA
ATOM     79  O   UNL     1       0.247  17.689   7.400  1.00  0.00    -0.237 OA
ATOM     80  O   UNL     1       1.745  17.758   5.443  1.00  0.00    -0.744 OA
ENDBRANCH  76  77
ENDBRANCH  44  69
BRANCH  56  81
ATOM     81  C   UNL     1      -5.813   9.078   3.979  1.00  0.00     0.058 A 
ATOM     82  C   UNL     1      -5.554   9.540   2.678  1.00  0.00     0.135 A 
ATOM     83  C   UNL     1      -7.116   8.630   4.252  1.00  0.00     0.135 A 
ATOM     84  F   UNL     1      -4.314   9.895   2.310  1.00  0.00    -0.206 F 
ATOM     85  C   UNL     1      -6.549   9.576   1.699  1.00  0.00     0.059 A 
ATOM     86  C   UNL     1      -8.116   8.627   3.283  1.00  0.00     0.059 A 
ATOM     87  F   UNL     1      -7.413   8.119   5.459  1.00  0.00    -0.206 F 
ATOM     88  C   UNL     1      -7.826   9.107   2.007  1.00  0.00     0.060 A 
BRANCH  88  89
ATOM     89  S   UNL     1      -9.077   9.047   0.705  1.00  0.00     0.124 S 
ATOM     90  O   UNL     1      -9.352  10.461   0.477  1.00  0.00    -0.237 OA
ATOM     91  O   UNL     1      -8.378   8.352  -0.371  1.00  0.00    -0.237 OA
ATOM     92  O   UNL     1     -10.169   8.291   1.315  1.00  0.00    -0.744 OA
ENDBRANCH  88  89
ENDBRANCH  56  81
ENDBRANCH  30  31
ENDBRANCH  23  25
ENDBRANCH  22  23
ENDBRANCH  21  22
ENDBRANCH   1  21
TORSDOF 20
