REMARK SMILES C[C@H](NC(=O)N1CC[C@H](C(=O)OCCOC(=O)c2ccc(-c3c4nc(c(-c5c(F)cc(S(=O)(=O)[O-])cc5F)c5ccc([nH]5)c(-c5c(F)cc(S(=O)(=O)[O-])cc5F)c5nc(c(-c6c(F)cc(S(=O)(=O)[O-])cc6F)c6ccc3[nH]6)C=C5)C=C4)cc2)[C@H]1C)c1ccsc1
REMARK SMILES IDX 13 1 12 2 10 3 11 4 9 5 6 6 7 7 84 8 8 9 85 10 4 11 3 12
REMARK SMILES IDX 5 14 2 15 1 16 86 17 87 18 90 19 88 20 89 21 14 22 15 23
REMARK SMILES IDX 16 24 17 25 18 26 19 27 83 28 20 29 82 30 21 31 22 32 23 33
REMARK SMILES IDX 76 34 24 35 81 36 75 37 77 38 25 39 80 40 74 41 73 42 26 44
REMARK SMILES IDX 60 45 39 46 59 47 40 48 43 49 58 50 78 51 41 52 42 53 57 55
REMARK SMILES IDX 79 56 44 57 27 58 28 59 37 60 29 61 30 62 36 63 38 64 31 65
REMARK SMILES IDX 32 66 33 67 34 68 35 69 61 70 62 71 71 72 63 73 64 74 70 75
REMARK SMILES IDX 72 76 65 77 66 78 67 79 68 80 69 81 45 82 46 83 55 84 47 85
REMARK SMILES IDX 48 86 54 87 56 88 49 89 50 90 51 91 52 92 53 93
REMARK H PARENT 3 13 77 43 43 54
REMARK Flexibility Score: inf
ROOT
ATOM      1  C   UNL     1       8.141   2.256  -0.883  1.00  0.00     0.274 C 
ENDROOT
BRANCH   1   2
ATOM      2  O   UNL     1       6.933   3.031  -0.746  1.00  0.00    -0.462 OA
BRANCH   2   3
ATOM      3  C   UNL     1       5.766   2.362  -0.963  1.00  0.00     0.311 C 
ATOM      4  O   UNL     1       5.698   1.190  -1.305  1.00  0.00    -0.252 OA
BRANCH   3   5
ATOM      5  C   UNL     1       4.572   3.278  -0.766  1.00  0.00     0.123 C 
ATOM      6  N   UNL     1       2.482   2.092  -0.872  1.00  0.00    -0.321 N 
ATOM      7  C   UNL     1       2.924   2.379  -2.227  1.00  0.00     0.122 C 
ATOM      8  C   UNL     1       3.475   2.608   0.083  1.00  0.00     0.098 C 
ATOM      9  C   UNL     1       3.874   3.555  -2.093  1.00  0.00     0.039 C 
ATOM     10  C   UNL     1       2.892   3.586   1.097  1.00  0.00     0.032 C 
BRANCH   6  11
ATOM     11  C   UNL     1       1.915   0.856  -0.685  1.00  0.00     0.318 C 
ATOM     12  N   UNL     1       0.709   0.774  -0.082  1.00  0.00    -0.331 N 
ATOM     13  H   UNL     1       0.310  -0.125  -0.122  1.00  0.00     0.165 HD
ATOM     14  O   UNL     1       2.420  -0.176  -1.124  1.00  0.00    -0.249 OA
BRANCH  12  15
ATOM     15  C   UNL     1      -0.118   1.747   0.617  1.00  0.00     0.112 C 
ATOM     16  C   UNL     1      -0.316   3.060  -0.155  1.00  0.00     0.036 C 
BRANCH  15  17
ATOM     17  C   UNL     1      -1.487   1.144   0.963  1.00  0.00    -0.015 A 
ATOM     18  C   UNL     1      -1.921  -0.225   0.827  1.00  0.00     0.017 A 
ATOM     19  C   UNL     1      -2.530   1.897   1.490  1.00  0.00     0.070 A 
ATOM     20  C   UNL     1      -3.240  -0.418   1.182  1.00  0.00     0.065 A 
ATOM     21  S   UNL     1      -3.978   1.022   1.712  1.00  0.00    -0.152 S 
ENDBRANCH  15  17
ENDBRANCH  12  15
ENDBRANCH   6  11
ENDBRANCH   3   5
ENDBRANCH   2   3
ENDBRANCH   1   2
BRANCH   1  22
ATOM     22  C   UNL     1       8.708   1.855   0.481  1.00  0.00     0.275 C 
BRANCH  22  23
ATOM     23  O   UNL     1       7.916   0.831   1.113  1.00  0.00    -0.458 OA
BRANCH  23  24
ATOM     24  C   UNL     1       6.987   1.295   1.977  1.00  0.00     0.338 C 
ATOM     25  O   UNL     1       6.752   2.463   2.248  1.00  0.00    -0.246 OA
BRANCH  24  26
ATOM     26  C   UNL     1       6.176   0.201   2.530  1.00  0.00     0.060 A 
ATOM     27  C   UNL     1       5.016  -0.142   1.851  1.00  0.00     0.016 A 
ATOM     28  C   UNL     1       6.392  -0.271   3.823  1.00  0.00     0.016 A 
ATOM     29  C   UNL     1       3.978  -0.771   2.530  1.00  0.00     0.010 A 
ATOM     30  C   UNL     1       5.410  -1.063   4.439  1.00  0.00     0.010 A 
ATOM     31  C   UNL     1       4.157  -1.268   3.829  1.00  0.00    -0.014 A 
BRANCH  31  32
ATOM     32  C   UNL     1       3.036  -1.970   4.537  1.00  0.00     0.031 A 
ATOM     33  C   UNL     1       2.627  -1.568   5.939  1.00  0.00     0.074 A 
ATOM     34  C   UNL     1       2.353  -2.962   3.923  1.00  0.00     0.049 A 
ATOM     35  N   UNL     1       1.819  -2.176   6.772  1.00  0.00    -0.248 NA
ATOM     36  C   UNL     1       3.218  -0.336   6.484  1.00  0.00     0.031 C 
ATOM     37  C   UNL     1       2.599  -3.451   2.563  1.00  0.00     0.029 A 
ATOM     38  N   UNL     1       1.299  -3.732   4.355  1.00  0.00    -0.354 N 
ATOM     39  C   UNL     1       1.863  -1.446   7.958  1.00  0.00     0.074 A 
ATOM     40  C   UNL     1       2.779  -0.349   7.736  1.00  0.00     0.031 C 
ATOM     41  C   UNL     1       1.685  -4.378   2.250  1.00  0.00     0.029 A 
ATOM     42  C   UNL     1       0.862  -4.644   3.421  1.00  0.00     0.049 A 
ATOM     43  H   UNL     1       0.895  -3.639   5.248  1.00  0.00     0.167 HD
ATOM     44  C   UNL     1       1.203  -1.669   9.122  1.00  0.00     0.037 A 
ATOM     45  C   UNL     1      -0.058  -5.624   3.499  1.00  0.00     0.037 A 
ATOM     46  C   UNL     1       0.229  -2.715   9.314  1.00  0.00     0.049 A 
ATOM     47  C   UNL     1      -0.776  -5.856   4.796  1.00  0.00     0.074 A 
ATOM     48  C   UNL     1      -0.508  -3.007  10.450  1.00  0.00     0.029 A 
ATOM     49  N   UNL     1      -0.165  -3.623   8.342  1.00  0.00    -0.354 N 
ATOM     50  N   UNL     1      -0.662  -5.202   5.927  1.00  0.00    -0.248 NA
ATOM     51  C   UNL     1      -1.728  -6.973   4.837  1.00  0.00     0.031 C 
ATOM     52  C   UNL     1      -1.325  -4.110  10.175  1.00  0.00     0.029 A 
ATOM     53  C   UNL     1      -1.129  -4.478   8.854  1.00  0.00     0.049 A 
ATOM     54  H   UNL     1       0.188  -3.655   7.424  1.00  0.00     0.167 HD
ATOM     55  C   UNL     1      -1.536  -5.822   6.811  1.00  0.00     0.074 A 
ATOM     56  C   UNL     1      -2.185  -6.891   6.079  1.00  0.00     0.031 C 
ATOM     57  C   UNL     1      -1.774  -5.533   8.114  1.00  0.00     0.037 A 
BRANCH  44  58
ATOM     58  C   UNL     1       1.530  -0.787  10.299  1.00  0.00     0.058 A 
ATOM     59  C   UNL     1       1.116   0.552  10.371  1.00  0.00     0.135 A 
ATOM     60  C   UNL     1       2.239  -1.309  11.395  1.00  0.00     0.135 A 
ATOM     61  F   UNL     1       0.446   1.108   9.350  1.00  0.00    -0.206 F 
ATOM     62  C   UNL     1       1.419   1.350  11.472  1.00  0.00     0.059 A 
ATOM     63  C   UNL     1       2.530  -0.537  12.517  1.00  0.00     0.059 A 
ATOM     64  F   UNL     1       2.654  -2.585  11.385  1.00  0.00    -0.206 F 
ATOM     65  C   UNL     1       2.131   0.798  12.538  1.00  0.00     0.060 A 
BRANCH  65  66
ATOM     66  S   UNL     1       2.526   1.846  13.955  1.00  0.00     0.124 S 
ATOM     67  O   UNL     1       3.602   2.671  13.414  1.00  0.00    -0.237 OA
ATOM     68  O   UNL     1       1.263   2.535  14.199  1.00  0.00    -0.237 OA
ATOM     69  O   UNL     1       2.925   0.891  14.984  1.00  0.00    -0.744 OA
ENDBRANCH  65  66
ENDBRANCH  44  58
BRANCH  45  70
ATOM     70  C   UNL     1      -0.312  -6.491   2.317  1.00  0.00     0.058 A 
ATOM     71  C   UNL     1      -1.519  -6.411   1.608  1.00  0.00     0.135 A 
ATOM     72  C   UNL     1       0.662  -7.389   1.852  1.00  0.00     0.135 A 
ATOM     73  F   UNL     1      -2.484  -5.575   2.019  1.00  0.00    -0.206 F 
ATOM     74  C   UNL     1      -1.754  -7.193   0.482  1.00  0.00     0.059 A 
ATOM     75  C   UNL     1       0.463  -8.158   0.711  1.00  0.00     0.059 A 
ATOM     76  F   UNL     1       1.840  -7.494   2.488  1.00  0.00    -0.206 F 
ATOM     77  C   UNL     1      -0.753  -8.060   0.037  1.00  0.00     0.060 A 
BRANCH  77  78
ATOM     78  S   UNL     1      -1.040  -9.026  -1.462  1.00  0.00     0.124 S 
ATOM     79  O   UNL     1      -1.929 -10.072  -0.969  1.00  0.00    -0.237 OA
ATOM     80  O   UNL     1      -1.645  -8.041  -2.353  1.00  0.00    -0.237 OA
ATOM     81  O   UNL     1       0.301  -9.461  -1.840  1.00  0.00    -0.744 OA
ENDBRANCH  77  78
ENDBRANCH  45  70
BRANCH  57  82
ATOM     82  C   UNL     1      -2.808  -6.361   8.822  1.00  0.00     0.058 A 
ATOM     83  C   UNL     1      -2.550  -7.681   9.221  1.00  0.00     0.135 A 
ATOM     84  C   UNL     1      -4.063  -5.813   9.134  1.00  0.00     0.135 A 
ATOM     85  F   UNL     1      -1.369  -8.254   8.937  1.00  0.00    -0.206 F 
ATOM     86  C   UNL     1      -3.508  -8.439   9.886  1.00  0.00     0.059 A 
ATOM     87  C   UNL     1      -5.028  -6.544   9.819  1.00  0.00     0.059 A 
ATOM     88  F   UNL     1      -4.357  -4.552   8.780  1.00  0.00    -0.206 F 
ATOM     89  C   UNL     1      -4.745  -7.861  10.180  1.00  0.00     0.060 A 
BRANCH  89  90
ATOM     90  S   UNL     1      -5.972  -8.844  11.069  1.00  0.00     0.124 S 
ATOM     91  O   UNL     1      -6.451  -9.736  10.018  1.00  0.00    -0.237 OA
ATOM     92  O   UNL     1      -5.173  -9.470  12.117  1.00  0.00    -0.237 OA
ATOM     93  O   UNL     1      -6.933  -7.847  11.533  1.00  0.00    -0.744 OA
ENDBRANCH  89  90
ENDBRANCH  57  82
ENDBRANCH  31  32
ENDBRANCH  24  26
ENDBRANCH  23  24
ENDBRANCH  22  23
ENDBRANCH   1  22
TORSDOF 17
