REMARK SMILES O=C(OCCOC(=O)c1ccc(-c2c3nc(c(-c4c(F)cc(S(=O)(=O)[O-])cc4F)c4ccc([nH]4)c(-c4c(F)cc(S(=O)(=O)[O-])cc4F)c4nc(c(-c5c(F)cc(S(=O)(=O)[O-])cc5F)c5ccc2[nH]5)C=C4)C=C3)cc1)C1=Cc2cc(Cl)c(Cl)c(Cl)c2O[C@@H]1C(F)(F)F
REMARK SMILES IDX 5 1 4 2 3 3 2 4 1 5 75 6 76 7 87 8 77 9 86 10 78 11 85 12
REMARK SMILES IDX 79 13 83 14 80 15 81 16 84 17 82 18 88 19 89 20 90 21 91 22
REMARK SMILES IDX 6 23 7 24 8 25 9 26 10 27 74 28 11 29 73 30 12 31 13 32
REMARK SMILES IDX 14 33 67 34 15 35 72 36 66 37 68 38 16 39 71 40 65 41 64 42
REMARK SMILES IDX 17 44 51 45 30 46 50 47 31 48 34 49 49 50 69 51 32 52 33 53
REMARK SMILES IDX 48 55 70 56 35 57 18 58 19 59 28 60 20 61 21 62 27 63 29 64
REMARK SMILES IDX 22 65 23 66 24 67 25 68 26 69 52 70 53 71 62 72 54 73 55 74
REMARK SMILES IDX 61 75 63 76 56 77 57 78 58 79 59 80 60 81 36 82 37 83 46 84
REMARK SMILES IDX 38 85 39 86 45 87 47 88 40 89 41 90 42 91 43 92 44 93
REMARK H PARENT 68 43 34 54
REMARK Flexibility Score: inf
ROOT
ATOM      1  C   UNL     1       4.651  -0.557   0.576  1.00  0.00     0.275 C 
ENDROOT
BRANCH   1   2
ATOM      2  C   UNL     1       3.752   0.573  -1.063  1.00  0.00     0.275 C 
BRANCH   2   3
ATOM      3  O   UNL     1       2.762   0.061  -2.087  1.00  0.00    -0.459 OA
BRANCH   3   4
ATOM      4  C   UNL     1       2.960  -1.228  -2.378  1.00  0.00     0.338 C 
ATOM      5  O   UNL     1       2.248  -1.965  -3.012  1.00  0.00    -0.246 OA
BRANCH   4   6
ATOM      6  C   UNL     1       3.939  -1.504  -1.332  1.00  0.00     0.087 C 
ATOM      7  C   UNL     1       5.280  -1.029  -1.582  1.00  0.00     0.027 C 
ATOM      8  C   UNL     1       2.770  -0.840   0.038  1.00  0.00     0.316 C 
ATOM      9  C   UNL     1       5.985   0.423  -0.843  1.00  0.00     0.020 A 
ATOM     10  O   UNL     1       3.455   0.829   0.781  1.00  0.00    -0.474 OA
ATOM     11  C   UNL     1       7.198   0.823  -1.314  1.00  0.00     0.034 A 
ATOM     12  C   UNL     1       5.099   1.451   0.231  1.00  0.00     0.148 A 
ATOM     13  C   UNL     1       7.583   2.117  -0.931  1.00  0.00     0.062 A 
ATOM     14  C   UNL     1       5.538   2.712   0.544  1.00  0.00     0.103 A 
ATOM     15  Cl  UNL     1       9.115   2.606  -1.618  1.00  0.00    -0.083 Cl
ATOM     16  C   UNL     1       6.793   3.031  -0.080  1.00  0.00     0.082 A 
ATOM     17  Cl  UNL     1       4.624   3.811   1.474  1.00  0.00    -0.079 Cl
ATOM     18  Cl  UNL     1       7.428   4.656   0.107  1.00  0.00    -0.081 Cl
BRANCH   8  19
ATOM     19  C   UNL     1       2.599  -2.396   0.574  1.00  0.00     0.430 C 
ATOM     20  F   UNL     1       1.333  -2.655   0.915  1.00  0.00    -0.167 F 
ATOM     21  F   UNL     1       2.806  -3.284  -0.453  1.00  0.00    -0.167 F 
ATOM     22  F   UNL     1       3.463  -2.857   1.494  1.00  0.00    -0.167 F 
ENDBRANCH   8  19
ENDBRANCH   4   6
ENDBRANCH   3   4
ENDBRANCH   2   3
ENDBRANCH   1   2
BRANCH   1  23
ATOM     23  O   UNL     1       3.864  -0.796   2.130  1.00  0.00    -0.458 OA
BRANCH  23  24
ATOM     24  C   UNL     1       2.819  -0.326   2.912  1.00  0.00     0.338 C 
ATOM     25  O   UNL     1       2.250   0.751   2.877  1.00  0.00    -0.246 OA
BRANCH  24  26
ATOM     26  C   UNL     1       2.154  -1.529   3.508  1.00  0.00     0.060 A 
ATOM     27  C   UNL     1       0.811  -1.799   3.164  1.00  0.00     0.016 A 
ATOM     28  C   UNL     1       2.946  -2.541   4.047  1.00  0.00     0.016 A 
ATOM     29  C   UNL     1       0.337  -3.126   3.175  1.00  0.00     0.010 A 
ATOM     30  C   UNL     1       2.483  -3.860   4.027  1.00  0.00     0.010 A 
ATOM     31  C   UNL     1       1.195  -4.173   3.546  1.00  0.00    -0.014 A 
BRANCH  31  32
ATOM     32  C   UNL     1       0.657  -5.534   3.806  1.00  0.00     0.031 A 
ATOM     33  C   UNL     1       0.209  -5.742   5.223  1.00  0.00     0.074 A 
ATOM     34  C   UNL     1       0.613  -6.543   2.910  1.00  0.00     0.049 A 
ATOM     35  N   UNL     1      -0.240  -6.811   5.815  1.00  0.00    -0.248 NA
ATOM     36  C   UNL     1       0.340  -4.567   6.108  1.00  0.00     0.031 C 
ATOM     37  C   UNL     1       1.034  -6.481   1.509  1.00  0.00     0.029 A 
ATOM     38  N   UNL     1       0.188  -7.847   3.061  1.00  0.00    -0.354 N 
ATOM     39  C   UNL     1      -0.434  -6.430   7.136  1.00  0.00     0.074 A 
ATOM     40  C   UNL     1       0.050  -5.082   7.284  1.00  0.00     0.031 C 
ATOM     41  C   UNL     1       0.833  -7.684   0.931  1.00  0.00     0.029 A 
ATOM     42  C   UNL     1       0.281  -8.614   1.917  1.00  0.00     0.049 A 
ATOM     43  H   UNL     1      -0.154  -8.201   3.913  1.00  0.00     0.167 HD
ATOM     44  C   UNL     1      -1.014  -7.122   8.138  1.00  0.00     0.037 A 
ATOM     45  C   UNL     1      -0.057  -9.907   1.706  1.00  0.00     0.037 A 
ATOM     46  C   UNL     1      -1.480  -8.466   7.987  1.00  0.00     0.049 A 
ATOM     47  C   UNL     1      -0.648 -10.696   2.860  1.00  0.00     0.074 A 
ATOM     48  C   UNL     1      -2.087  -9.276   8.924  1.00  0.00     0.029 A 
ATOM     49  N   UNL     1      -1.369  -9.202   6.816  1.00  0.00    -0.354 N 
ATOM     50  N   UNL     1      -0.893 -10.307   4.091  1.00  0.00    -0.248 NA
ATOM     51  C   UNL     1      -1.023 -12.094   2.594  1.00  0.00     0.031 C 
ATOM     52  C   UNL     1      -2.283 -10.529   8.337  1.00  0.00     0.029 A 
ATOM     53  C   UNL     1      -1.876 -10.470   7.011  1.00  0.00     0.049 A 
ATOM     54  H   UNL     1      -0.986  -8.869   5.972  1.00  0.00     0.167 HD
ATOM     55  C   UNL     1      -1.499 -11.389   4.727  1.00  0.00     0.074 A 
ATOM     56  C   UNL     1      -1.578 -12.451   3.745  1.00  0.00     0.031 C 
ATOM     57  C   UNL     1      -1.961 -11.496   6.000  1.00  0.00     0.037 A 
BRANCH  44  58
ATOM     58  C   UNL     1      -1.120  -6.417   9.458  1.00  0.00     0.058 A 
ATOM     59  C   UNL     1      -1.915  -5.267   9.622  1.00  0.00     0.135 A 
ATOM     60  C   UNL     1      -0.333  -6.831  10.541  1.00  0.00     0.135 A 
ATOM     61  F   UNL     1      -2.651  -4.800   8.600  1.00  0.00    -0.206 F 
ATOM     62  C   UNL     1      -1.877  -4.520  10.792  1.00  0.00     0.059 A 
ATOM     63  C   UNL     1      -0.315  -6.123  11.738  1.00  0.00     0.059 A 
ATOM     64  F   UNL     1       0.460  -7.908  10.431  1.00  0.00    -0.206 F 
ATOM     65  C   UNL     1      -1.071  -4.956  11.844  1.00  0.00     0.060 A 
BRANCH  65  66
ATOM     66  S   UNL     1      -1.016  -3.966  13.350  1.00  0.00     0.124 S 
ATOM     67  O   UNL     1      -0.257  -2.801  12.906  1.00  0.00    -0.237 OA
ATOM     68  O   UNL     1      -2.431  -3.735  13.619  1.00  0.00    -0.237 OA
ATOM     69  O   UNL     1      -0.332  -4.835  14.302  1.00  0.00    -0.744 OA
ENDBRANCH  65  66
ENDBRANCH  44  58
BRANCH  45  70
ATOM     70  C   UNL     1       0.093 -10.547   0.359  1.00  0.00     0.058 A 
ATOM     71  C   UNL     1      -1.032 -10.937  -0.390  1.00  0.00     0.135 A 
ATOM     72  C   UNL     1       1.353 -10.821  -0.197  1.00  0.00     0.135 A 
ATOM     73  F   UNL     1      -2.265 -10.730   0.098  1.00  0.00    -0.206 F 
ATOM     74  C   UNL     1      -0.916 -11.577  -1.624  1.00  0.00     0.059 A 
ATOM     75  C   UNL     1       1.495 -11.438  -1.442  1.00  0.00     0.059 A 
ATOM     76  F   UNL     1       2.468 -10.485   0.470  1.00  0.00    -0.206 F 
ATOM     77  C   UNL     1       0.354 -11.816  -2.147  1.00  0.00     0.060 A 
BRANCH  77  78
ATOM     78  S   UNL     1       0.490 -12.589  -3.778  1.00  0.00     0.124 S 
ATOM     79  O   UNL     1      -0.001 -13.937  -3.513  1.00  0.00    -0.237 OA
ATOM     80  O   UNL     1      -0.379 -11.742  -4.589  1.00  0.00    -0.237 OA
ATOM     81  O   UNL     1       1.914 -12.488  -4.082  1.00  0.00    -0.744 OA
ENDBRANCH  77  78
ENDBRANCH  45  70
BRANCH  57  82
ATOM     82  C   UNL     1      -2.666 -12.767   6.391  1.00  0.00     0.058 A 
ATOM     83  C   UNL     1      -1.987 -13.983   6.552  1.00  0.00     0.135 A 
ATOM     84  C   UNL     1      -4.037 -12.733   6.700  1.00  0.00     0.135 A 
ATOM     85  F   UNL     1      -0.676 -14.069   6.277  1.00  0.00    -0.206 F 
ATOM     86  C   UNL     1      -2.650 -15.131   6.975  1.00  0.00     0.059 A 
ATOM     87  C   UNL     1      -4.710 -13.857   7.162  1.00  0.00     0.059 A 
ATOM     88  F   UNL     1      -4.730 -11.589   6.585  1.00  0.00    -0.206 F 
ATOM     89  C   UNL     1      -4.011 -15.056   7.282  1.00  0.00     0.060 A 
BRANCH  89  90
ATOM     90  S   UNL     1      -4.851 -16.544   7.858  1.00  0.00     0.124 S 
ATOM     91  O   UNL     1      -4.905 -17.341   6.637  1.00  0.00    -0.237 OA
ATOM     92  O   UNL     1      -3.947 -17.031   8.895  1.00  0.00    -0.237 OA
ATOM     93  O   UNL     1      -6.137 -16.046   8.339  1.00  0.00    -0.744 OA
ENDBRANCH  89  90
ENDBRANCH  57  82
ENDBRANCH  31  32
ENDBRANCH  24  26
ENDBRANCH  23  24
ENDBRANCH   1  23
TORSDOF 15
