REMARK SMILES O=C(CSc1ccccc1C(=O)OCCOC(=O)c1ccc(-c2c3nc(c(-c4c(F)cc(S(=O)(=O)[O-])cc4F)c4ccc([nH]4)c(-c4c(F)cc(S(=O)(=O)[O-])cc4F)c4nc(c(-c5c(F)cc(S(=O)(=O)[O-])cc5F)c5ccc2[nH]5)C=C4)C=C3)cc1)c1ccc(Cl)cc1
REMARK SMILES IDX 14 1 13 2 11 3 12 4 10 5 5 6 6 7 7 8 9 9 8 10 4 11 3 12 2 13
REMARK SMILES IDX 1 14 85 15 86 16 91 17 87 18 90 19 88 20 89 21 15 22 16 23
REMARK SMILES IDX 17 24 18 25 19 26 20 27 84 28 21 29 83 30 22 31 23 32 24 33
REMARK SMILES IDX 77 34 25 35 82 36 76 37 78 38 26 39 81 40 75 41 74 42 27 44
REMARK SMILES IDX 61 45 40 46 60 47 41 48 44 49 59 50 79 51 42 52 43 53 58 55
REMARK SMILES IDX 80 56 45 57 28 58 29 59 38 60 30 61 31 62 37 63 39 64 32 65
REMARK SMILES IDX 33 66 34 67 35 68 36 69 62 70 63 71 72 72 64 73 65 74 71 75
REMARK SMILES IDX 73 76 66 77 67 78 68 79 69 80 70 81 46 82 47 83 56 84 48 85
REMARK SMILES IDX 49 86 55 87 57 88 50 89 51 90 52 91 53 92 54 93
REMARK H PARENT 78 43 44 54
REMARK Flexibility Score: inf
ROOT
ATOM      1  C   UNL     1       6.167  -2.782   0.266  1.00  0.00     0.275 C 
ENDROOT
BRANCH   1   2
ATOM      2  O   UNL     1       5.295  -2.435   1.363  1.00  0.00    -0.458 OA
BRANCH   2   3
ATOM      3  C   UNL     1       4.013  -2.880   1.283  1.00  0.00     0.339 C 
ATOM      4  O   UNL     1       3.581  -3.673   0.469  1.00  0.00    -0.246 OA
BRANCH   3   5
ATOM      5  C   UNL     1       3.159  -2.312   2.360  1.00  0.00     0.073 A 
ATOM      6  C   UNL     1       3.039  -0.936   2.619  1.00  0.00     0.022 A 
ATOM      7  C   UNL     1       2.168  -0.514   3.640  1.00  0.00     0.016 A 
ATOM      8  C   UNL     1       1.420  -1.435   4.379  1.00  0.00     0.001 A 
ATOM      9  C   UNL     1       2.362  -3.224   3.076  1.00  0.00     0.017 A 
ATOM     10  C   UNL     1       1.516  -2.791   4.096  1.00  0.00     0.001 A 
BRANCH   6  11
ATOM     11  S   UNL     1       3.960   0.327   1.750  1.00  0.00    -0.117 SA
BRANCH  11  12
ATOM     12  C   UNL     1       2.693   1.031   0.657  1.00  0.00     0.156 C 
BRANCH  12  13
ATOM     13  C   UNL     1       2.014   0.049  -0.275  1.00  0.00     0.173 C 
ATOM     14  O   UNL     1       0.836  -0.266  -0.102  1.00  0.00    -0.293 OA
BRANCH  13  15
ATOM     15  C   UNL     1       2.710  -0.451  -1.502  1.00  0.00     0.018 A 
ATOM     16  C   UNL     1       4.092  -0.642  -1.568  1.00  0.00     0.013 A 
ATOM     17  C   UNL     1       1.928  -0.779  -2.620  1.00  0.00     0.013 A 
ATOM     18  C   UNL     1       4.679  -1.206  -2.707  1.00  0.00     0.021 A 
ATOM     19  C   UNL     1       2.518  -1.311  -3.773  1.00  0.00     0.021 A 
ATOM     20  C   UNL     1       3.890  -1.540  -3.804  1.00  0.00     0.041 A 
ATOM     21  Cl  UNL     1       4.619  -2.238  -5.196  1.00  0.00    -0.084 Cl
ENDBRANCH  13  15
ENDBRANCH  12  13
ENDBRANCH  11  12
ENDBRANCH   6  11
ENDBRANCH   3   5
ENDBRANCH   2   3
ENDBRANCH   1   2
BRANCH   1  22
ATOM     22  C   UNL     1       7.389  -3.581   0.707  1.00  0.00     0.275 C 
BRANCH  22  23
ATOM     23  O   UNL     1       6.996  -4.905   1.087  1.00  0.00    -0.458 OA
BRANCH  23  24
ATOM     24  C   UNL     1       6.826  -5.056   2.415  1.00  0.00     0.338 C 
ATOM     25  O   UNL     1       7.077  -4.251   3.298  1.00  0.00    -0.246 OA
BRANCH  24  26
ATOM     26  C   UNL     1       6.128  -6.313   2.680  1.00  0.00     0.060 A 
ATOM     27  C   UNL     1       4.756  -6.228   2.900  1.00  0.00     0.016 A 
ATOM     28  C   UNL     1       6.828  -7.488   2.938  1.00  0.00     0.016 A 
ATOM     29  C   UNL     1       4.087  -7.276   3.513  1.00  0.00     0.010 A 
ATOM     30  C   UNL     1       6.143  -8.565   3.502  1.00  0.00     0.010 A 
ATOM     31  C   UNL     1       4.787  -8.436   3.865  1.00  0.00    -0.014 A 
BRANCH  31  32
ATOM     32  C   UNL     1       4.159  -9.423   4.780  1.00  0.00     0.031 A 
ATOM     33  C   UNL     1       4.746  -9.610   6.156  1.00  0.00     0.074 A 
ATOM     34  C   UNL     1       3.051 -10.096   4.419  1.00  0.00     0.049 A 
ATOM     35  N   UNL     1       4.499 -10.535   7.046  1.00  0.00    -0.248 NA
ATOM     36  C   UNL     1       5.765  -8.632   6.576  1.00  0.00     0.031 C 
ATOM     37  C   UNL     1       2.341  -9.943   3.149  1.00  0.00     0.029 A 
ATOM     38  N   UNL     1       2.325 -11.041   5.097  1.00  0.00    -0.354 N 
ATOM     39  C   UNL     1       5.384 -10.296   8.094  1.00  0.00     0.074 A 
ATOM     40  C   UNL     1       6.169  -9.138   7.732  1.00  0.00     0.031 C 
ATOM     41  C   UNL     1       1.269 -10.752   3.147  1.00  0.00     0.029 A 
ATOM     42  C   UNL     1       1.259 -11.530   4.381  1.00  0.00     0.049 A 
ATOM     43  H   UNL     1       2.546 -11.340   6.008  1.00  0.00     0.167 HD
ATOM     44  C   UNL     1       5.527 -10.988   9.250  1.00  0.00     0.037 A 
ATOM     45  C   UNL     1       0.397 -12.522   4.674  1.00  0.00     0.037 A 
ATOM     46  C   UNL     1       4.682 -12.092   9.626  1.00  0.00     0.049 A 
ATOM     47  C   UNL     1       0.556 -13.262   5.973  1.00  0.00     0.074 A 
ATOM     48  C   UNL     1       4.734 -12.873  10.767  1.00  0.00     0.029 A 
ATOM     49  N   UNL     1       3.607 -12.549   8.877  1.00  0.00    -0.354 N 
ATOM     50  N   UNL     1       1.460 -13.097   6.910  1.00  0.00    -0.248 NA
ATOM     51  C   UNL     1      -0.413 -14.329   6.250  1.00  0.00     0.031 C 
ATOM     52  C   UNL     1       3.699 -13.814  10.699  1.00  0.00     0.029 A 
ATOM     53  C   UNL     1       2.980 -13.594   9.534  1.00  0.00     0.049 A 
ATOM     54  H   UNL     1       3.330 -12.184   8.006  1.00  0.00     0.167 HD
ATOM     55  C   UNL     1       1.161 -14.029   7.896  1.00  0.00     0.074 A 
ATOM     56  C   UNL     1      -0.020 -14.742   7.447  1.00  0.00     0.031 C 
ATOM     57  C   UNL     1       1.803 -14.279   9.065  1.00  0.00     0.037 A 
BRANCH  44  58
ATOM     58  C   UNL     1       6.659 -10.597  10.161  1.00  0.00     0.058 A 
ATOM     59  C   UNL     1       6.645  -9.411  10.910  1.00  0.00     0.135 A 
ATOM     60  C   UNL     1       7.782 -11.433  10.283  1.00  0.00     0.135 A 
ATOM     61  F   UNL     1       5.608  -8.564  10.816  1.00  0.00    -0.206 F 
ATOM     62  C   UNL     1       7.718  -9.050  11.722  1.00  0.00     0.059 A 
ATOM     63  C   UNL     1       8.854 -11.105  11.109  1.00  0.00     0.059 A 
ATOM     64  F   UNL     1       7.851 -12.579   9.588  1.00  0.00    -0.206 F 
ATOM     65  C   UNL     1       8.820  -9.901  11.811  1.00  0.00     0.060 A 
BRANCH  65  66
ATOM     66  S   UNL     1      10.210  -9.421  12.860  1.00  0.00     0.124 S 
ATOM     67  O   UNL     1      10.864  -8.413  12.033  1.00  0.00    -0.237 OA
ATOM     68  O   UNL     1       9.543  -8.921  14.058  1.00  0.00    -0.237 OA
ATOM     69  O   UNL     1      10.950 -10.667  13.034  1.00  0.00    -0.744 OA
ENDBRANCH  65  66
ENDBRANCH  44  58
BRANCH  45  70
ATOM     70  C   UNL     1      -0.670 -12.882   3.704  1.00  0.00     0.058 A 
ATOM     71  C   UNL     1      -2.017 -12.594   3.969  1.00  0.00     0.135 A 
ATOM     72  C   UNL     1      -0.361 -13.488   2.476  1.00  0.00     0.135 A 
ATOM     73  F   UNL     1      -2.364 -12.024   5.133  1.00  0.00    -0.206 F 
ATOM     74  C   UNL     1      -3.020 -12.897   3.054  1.00  0.00     0.059 A 
ATOM     75  C   UNL     1      -1.343 -13.776   1.534  1.00  0.00     0.059 A 
ATOM     76  F   UNL     1       0.915 -13.772   2.169  1.00  0.00    -0.206 F 
ATOM     77  C   UNL     1      -2.672 -13.483   1.835  1.00  0.00     0.060 A 
BRANCH  77  78
ATOM     78  S   UNL     1      -3.969 -13.807   0.622  1.00  0.00     0.124 S 
ATOM     79  O   UNL     1      -4.592 -15.005   1.171  1.00  0.00    -0.237 OA
ATOM     80  O   UNL     1      -4.766 -12.586   0.687  1.00  0.00    -0.237 OA
ATOM     81  O   UNL     1      -3.225 -13.993  -0.621  1.00  0.00    -0.744 OA
ENDBRANCH  77  78
ENDBRANCH  45  70
BRANCH  57  82
ATOM     82  C   UNL     1       1.208 -15.337   9.949  1.00  0.00     0.058 A 
ATOM     83  C   UNL     1       1.328 -16.702   9.648  1.00  0.00     0.135 A 
ATOM     84  C   UNL     1       0.515 -14.976  11.115  1.00  0.00     0.135 A 
ATOM     85  F   UNL     1       1.979 -17.096   8.542  1.00  0.00    -0.206 F 
ATOM     86  C   UNL     1       0.744 -17.674  10.453  1.00  0.00     0.059 A 
ATOM     87  C   UNL     1      -0.056 -15.932  11.947  1.00  0.00     0.059 A 
ATOM     88  F   UNL     1       0.386 -13.683  11.452  1.00  0.00    -0.206 F 
ATOM     89  C   UNL     1       0.046 -17.278  11.596  1.00  0.00     0.060 A 
BRANCH  89  90
ATOM     90  S   UNL     1      -0.720 -18.543  12.631  1.00  0.00     0.124 S 
ATOM     91  O   UNL     1      -1.926 -18.851  11.869  1.00  0.00    -0.237 OA
ATOM     92  O   UNL     1       0.298 -19.589  12.658  1.00  0.00    -0.237 OA
ATOM     93  O   UNL     1      -0.936 -17.855  13.900  1.00  0.00    -0.744 OA
ENDBRANCH  89  90
ENDBRANCH  57  82
ENDBRANCH  31  32
ENDBRANCH  24  26
ENDBRANCH  23  24
ENDBRANCH  22  23
ENDBRANCH   1  22
TORSDOF 18
