REMARK SMILES CC(C)(C)c1ccc(OCC(=O)N/N=C/c2ccc(C(=O)OCCOC(=O)c3ccc(-c4c5nc(c(-c6c(F)cc(S(=O)(=O)[O-])cc6F)c6ccc([nH]6)c(-c6c(F)cc(S(=O)(=O)[O-])cc6F)c6nc(c(-c7c(F)cc(S(=O)(=O)[O-])cc7F)c7ccc4[nH]7)C=C6)C=C5)cc3)cc2)cc1
REMARK SMILES IDX 22 1 20 2 21 3 19 4 16 5 17 6 95 7 18 8 94 9 15 10 14 11
REMARK SMILES IDX 13 12 11 13 12 14 10 16 9 17 8 18 5 19 6 20 97 21 7 22 96 23
REMARK SMILES IDX 2 24 1 25 3 26 4 27 23 28 24 29 25 30 26 31 27 32 28 33
REMARK SMILES IDX 29 34 93 35 30 36 92 37 31 38 32 39 33 40 86 41 34 42 91 43
REMARK SMILES IDX 85 44 87 45 35 46 90 47 84 48 83 49 36 51 70 52 49 53 69 54
REMARK SMILES IDX 50 55 53 56 68 57 88 58 51 59 52 60 67 62 89 63 54 64 37 65
REMARK SMILES IDX 38 66 47 67 39 68 40 69 46 70 48 71 41 72 42 73 43 74 44 75
REMARK SMILES IDX 45 76 71 77 72 78 81 79 73 80 74 81 80 82 82 83 75 84 76 85
REMARK SMILES IDX 77 86 78 87 79 88 55 89 56 90 65 91 57 92 58 93 64 94 66 95
REMARK SMILES IDX 59 96 60 97 61 98 62 99 63 100
REMARK H PARENT 13 15 87 50 53 61
REMARK Flexibility Score: inf
ROOT
ATOM      1  O   UNL     1      -1.061  -9.670  -9.355  1.00  0.00    -0.458 OA
ENDROOT
BRANCH   1   2
ATOM      2  C   UNL     1      -1.219  -9.147  -8.113  1.00  0.00     0.338 C 
ATOM      3  O   UNL     1      -1.674  -9.718  -7.139  1.00  0.00    -0.246 OA
BRANCH   2   4
ATOM      4  C   UNL     1      -0.667  -7.774  -8.039  1.00  0.00     0.060 A 
ATOM      5  C   UNL     1       0.354  -5.207  -7.735  1.00  0.00    -0.005 A 
ATOM      6  C   UNL     1       0.679  -6.181  -6.800  1.00  0.00     0.010 A 
ATOM      7  C   UNL     1      -0.487  -5.488  -8.815  1.00  0.00     0.010 A 
ATOM      8  C   UNL     1       0.132  -7.447  -6.937  1.00  0.00     0.016 A 
ATOM      9  C   UNL     1      -0.979  -6.791  -8.984  1.00  0.00     0.016 A 
BRANCH   5  10
ATOM     10  C   UNL     1       0.974  -3.898  -7.525  1.00  0.00     0.141 C 
ATOM     11  N   UNL     1       0.290  -2.809  -7.532  1.00  0.00    -0.181 NA
BRANCH  11  12
ATOM     12  N   UNL     1       0.865  -1.610  -7.230  1.00  0.00    -0.244 N 
ATOM     13  C   UNL     1       2.026  -1.219  -6.613  1.00  0.00     0.277 C 
ATOM     14  O   UNL     1       2.252  -0.001  -6.552  1.00  0.00    -0.269 OA
ATOM     15  H   UNL     1       0.319  -0.845  -7.525  1.00  0.00     0.193 HD
BRANCH  13  16
ATOM     16  C   UNL     1       3.046  -2.199  -6.023  1.00  0.00     0.331 C 
BRANCH  16  17
ATOM     17  O   UNL     1       2.561  -3.143  -5.080  1.00  0.00    -0.484 OA
BRANCH  17  18
ATOM     18  C   UNL     1       2.130  -2.650  -3.878  1.00  0.00     0.120 A 
ATOM     19  C   UNL     1       1.092  -1.831  -1.361  1.00  0.00    -0.042 A 
ATOM     20  C   UNL     1       0.929  -3.148  -1.828  1.00  0.00     0.008 A 
ATOM     21  C   UNL     1       1.801  -0.946  -2.186  1.00  0.00     0.008 A 
ATOM     22  C   UNL     1       1.447  -3.553  -3.065  1.00  0.00     0.047 A 
ATOM     23  C   UNL     1       2.320  -1.350  -3.420  1.00  0.00     0.047 A 
BRANCH  19  24
ATOM     24  C   UNL     1       0.507  -1.395  -0.008  1.00  0.00    -0.013 C 
ATOM     25  C   UNL     1       0.894   0.048   0.393  1.00  0.00     0.016 C 
ATOM     26  C   UNL     1       1.009  -2.327   1.115  1.00  0.00     0.016 C 
ATOM     27  C   UNL     1      -1.033  -1.457  -0.076  1.00  0.00     0.016 C 
ENDBRANCH  19  24
ENDBRANCH  17  18
ENDBRANCH  16  17
ENDBRANCH  13  16
ENDBRANCH  11  12
ENDBRANCH   5  10
ENDBRANCH   2   4
ENDBRANCH   1   2
BRANCH   1  28
ATOM     28  C   UNL     1      -1.467 -11.048  -9.498  1.00  0.00     0.275 C 
BRANCH  28  29
ATOM     29  C   UNL     1      -0.274 -12.008  -9.478  1.00  0.00     0.275 C 
BRANCH  29  30
ATOM     30  O   UNL     1       0.324 -12.073  -8.171  1.00  0.00    -0.458 OA
BRANCH  30  31
ATOM     31  C   UNL     1       1.479 -11.384  -8.039  1.00  0.00     0.338 C 
ATOM     32  O   UNL     1       2.056 -10.736  -8.898  1.00  0.00    -0.246 OA
BRANCH  31  33
ATOM     33  C   UNL     1       1.949 -11.422  -6.648  1.00  0.00     0.060 A 
ATOM     34  C   UNL     1       1.353 -10.551  -5.748  1.00  0.00     0.016 A 
ATOM     35  C   UNL     1       3.091 -12.126  -6.282  1.00  0.00     0.016 A 
ATOM     36  C   UNL     1       1.990 -10.233  -4.555  1.00  0.00     0.010 A 
ATOM     37  C   UNL     1       3.630 -11.938  -5.001  1.00  0.00     0.010 A 
ATOM     38  C   UNL     1       3.115 -10.953  -4.136  1.00  0.00    -0.014 A 
BRANCH  38  39
ATOM     39  C   UNL     1       3.720 -10.691  -2.795  1.00  0.00     0.031 A 
ATOM     40  C   UNL     1       5.197 -10.417  -2.654  1.00  0.00     0.074 A 
ATOM     41  C   UNL     1       2.945 -10.719  -1.689  1.00  0.00     0.049 A 
ATOM     42  N   UNL     1       5.932 -10.375  -1.571  1.00  0.00    -0.248 NA
ATOM     43  C   UNL     1       5.951 -10.180  -3.894  1.00  0.00     0.031 C 
ATOM     44  C   UNL     1       1.496 -10.942  -1.674  1.00  0.00     0.029 A 
ATOM     45  N   UNL     1       3.262 -10.571  -0.360  1.00  0.00    -0.354 N 
ATOM     46  C   UNL     1       7.240 -10.177  -2.001  1.00  0.00     0.074 A 
ATOM     47  C   UNL     1       7.197 -10.110  -3.447  1.00  0.00     0.031 C 
ATOM     48  C   UNL     1       1.048 -10.885  -0.415  1.00  0.00     0.029 A 
ATOM     49  C   UNL     1       2.187 -10.751   0.481  1.00  0.00     0.049 A 
ATOM     50  H   UNL     1       4.169 -10.358  -0.041  1.00  0.00     0.167 HD
ATOM     51  C   UNL     1       8.370 -10.069  -1.258  1.00  0.00     0.037 A 
ATOM     52  C   UNL     1       2.117 -10.876   1.820  1.00  0.00     0.037 A 
ATOM     53  C   UNL     1       8.386 -10.095   0.184  1.00  0.00     0.049 A 
ATOM     54  C   UNL     1       3.379 -10.799   2.624  1.00  0.00     0.074 A 
ATOM     55  C   UNL     1       9.466  -9.936   1.035  1.00  0.00     0.029 A 
ATOM     56  N   UNL     1       7.273 -10.300   0.990  1.00  0.00    -0.354 N 
ATOM     57  N   UNL     1       4.607 -10.615   2.204  1.00  0.00    -0.248 NA
ATOM     58  C   UNL     1       3.252 -10.964   4.076  1.00  0.00     0.031 C 
ATOM     59  C   UNL     1       9.018 -10.113   2.349  1.00  0.00     0.029 A 
ATOM     60  C   UNL     1       7.647 -10.317   2.324  1.00  0.00     0.049 A 
ATOM     61  H   UNL     1       6.353 -10.415   0.660  1.00  0.00     0.167 HD
ATOM     62  C   UNL     1       5.404 -10.643   3.340  1.00  0.00     0.074 A 
ATOM     63  C   UNL     1       4.513 -10.835   4.468  1.00  0.00     0.031 C 
ATOM     64  C   UNL     1       6.752 -10.526   3.437  1.00  0.00     0.037 A 
BRANCH  51  65
ATOM     65  C   UNL     1       9.686  -9.979  -1.989  1.00  0.00     0.058 A 
ATOM     66  C   UNL     1      10.056  -8.858  -2.749  1.00  0.00     0.135 A 
ATOM     67  C   UNL     1      10.601 -11.045  -1.919  1.00  0.00     0.135 A 
ATOM     68  F   UNL     1       9.223  -7.811  -2.860  1.00  0.00    -0.206 F 
ATOM     69  C   UNL     1      11.255  -8.820  -3.457  1.00  0.00     0.059 A 
ATOM     70  C   UNL     1      11.821 -11.014  -2.590  1.00  0.00     0.059 A 
ATOM     71  F   UNL     1      10.309 -12.141  -1.201  1.00  0.00    -0.206 F 
ATOM     72  C   UNL     1      12.128  -9.907  -3.378  1.00  0.00     0.060 A 
BRANCH  72  73
ATOM     73  S   UNL     1      13.658  -9.861  -4.335  1.00  0.00     0.124 S 
ATOM     74  O   UNL     1      13.154 -10.035  -5.695  1.00  0.00    -0.237 OA
ATOM     75  O   UNL     1      14.185  -8.538  -4.020  1.00  0.00    -0.237 OA
ATOM     76  O   UNL     1      14.427 -10.983  -3.805  1.00  0.00    -0.744 OA
ENDBRANCH  72  73
ENDBRANCH  51  65
BRANCH  52  77
ATOM     77  C   UNL     1       0.799 -11.161   2.450  1.00  0.00     0.058 A 
ATOM     78  C   UNL     1       0.131 -10.193   3.210  1.00  0.00     0.135 A 
ATOM     79  C   UNL     1       0.140 -12.383   2.220  1.00  0.00     0.135 A 
ATOM     80  F   UNL     1       0.722  -9.016   3.467  1.00  0.00    -0.206 F 
ATOM     81  C   UNL     1      -1.150 -10.416   3.707  1.00  0.00     0.059 A 
ATOM     82  C   UNL     1      -1.151 -12.616   2.679  1.00  0.00     0.059 A 
ATOM     83  F   UNL     1       0.731 -13.338   1.485  1.00  0.00    -0.206 F 
ATOM     84  C   UNL     1      -1.789 -11.625   3.421  1.00  0.00     0.060 A 
BRANCH  84  85
ATOM     85  S   UNL     1      -3.491 -11.858   3.979  1.00  0.00     0.124 S 
ATOM     86  O   UNL     1      -3.311 -12.011   5.418  1.00  0.00    -0.237 OA
ATOM     87  O   UNL     1      -4.127 -10.619   3.543  1.00  0.00    -0.237 OA
ATOM     88  O   UNL     1      -3.918 -13.058   3.264  1.00  0.00    -0.744 OA
ENDBRANCH  84  85
ENDBRANCH  52  77
BRANCH  64  89
ATOM     89  C   UNL     1       7.351 -10.600   4.814  1.00  0.00     0.058 A 
ATOM     90  C   UNL     1       7.428 -11.813   5.517  1.00  0.00     0.135 A 
ATOM     91  C   UNL     1       7.911  -9.459   5.411  1.00  0.00     0.135 A 
ATOM     92  F   UNL     1       6.894 -12.930   4.998  1.00  0.00    -0.206 F 
ATOM     93  C   UNL     1       8.030 -11.890   6.768  1.00  0.00     0.059 A 
ATOM     94  C   UNL     1       8.544  -9.519   6.648  1.00  0.00     0.059 A 
ATOM     95  F   UNL     1       7.867  -8.275   4.779  1.00  0.00    -0.206 F 
ATOM     96  C   UNL     1       8.593 -10.738   7.322  1.00  0.00     0.060 A 
BRANCH  96  97
ATOM     97  S   UNL     1       9.422 -10.867   8.920  1.00  0.00     0.124 S 
ATOM     98  O   UNL     1       8.292 -11.063   9.823  1.00  0.00    -0.237 OA
ATOM     99  O   UNL     1      10.290 -12.024   8.728  1.00  0.00    -0.237 OA
ATOM    100  O   UNL     1      10.112  -9.587   9.050  1.00  0.00    -0.744 OA
ENDBRANCH  96  97
ENDBRANCH  64  89
ENDBRANCH  38  39
ENDBRANCH  31  33
ENDBRANCH  30  31
ENDBRANCH  29  30
ENDBRANCH  28  29
ENDBRANCH   1  28
TORSDOF 20
