REMARK SMILES NC(=O)c1c(-c2ccc(Cl)cc2)csc1NC(=O)[C@H]1[C@@H](C(=O)OCCOC(=O)c2ccc(-c3c4nc(c(-c5c(F)cc(S(=O)(=O)[O-])cc5F)c5ccc([nH]5)c(-c5c(F)cc(S(=O)(=O)[O-])cc5F)c5nc(c(-c6c(F)cc(S(=O)(=O)[O-])cc6F)c6ccc3[nH]6)C=C5)C=C4)cc2)[C@@H]2CC[C@H]1O2
REMARK SMILES IDX 24 1 23 2 21 3 22 4 20 5 19 6 98 7 95 8 97 9 99 10 96 11
REMARK SMILES IDX 17 12 16 13 18 15 15 16 4 17 5 18 13 19 14 20 2 21 1 22 3 25
REMARK SMILES IDX 6 26 7 27 12 28 8 29 11 30 9 31 10 32 25 33 26 34 27 35
REMARK SMILES IDX 28 36 29 37 30 38 94 39 31 40 93 41 32 42 33 43 34 44 87 45
REMARK SMILES IDX 35 46 92 47 86 48 88 49 36 50 91 51 85 52 84 53 37 55 71 56
REMARK SMILES IDX 50 57 70 58 51 59 54 60 69 61 89 62 52 63 53 64 68 66 90 67
REMARK SMILES IDX 55 68 38 69 39 70 48 71 40 72 41 73 47 74 49 75 42 76 43 77
REMARK SMILES IDX 44 78 45 79 46 80 72 81 73 82 82 83 74 84 75 85 81 86 83 87
REMARK SMILES IDX 76 88 77 89 78 90 79 91 80 92 56 93 57 94 66 95 58 96 59 97
REMARK SMILES IDX 65 98 67 99 60 100 61 101 62 102 63 103 64 104
REMARK H PARENT 16 14 1 23 1 24 88 54 54 65
REMARK Flexibility Score: inf
ROOT
ATOM      1  C   UNL     1       0.687  -7.272   7.371  1.00  0.00     0.274 C 
ENDROOT
BRANCH   1   2
ATOM      2  O   UNL     1       0.805  -5.964   6.776  1.00  0.00    -0.462 OA
BRANCH   2   3
ATOM      3  C   UNL     1      -0.357  -5.338   6.484  1.00  0.00     0.312 C 
ATOM      4  O   UNL     1      -1.471  -5.789   6.733  1.00  0.00    -0.252 OA
BRANCH   3   5
ATOM      5  C   UNL     1      -0.191  -3.991   5.824  1.00  0.00     0.143 C 
ATOM      6  C   UNL     1       0.624  -3.878   4.528  1.00  0.00     0.124 C 
ATOM      7  C   UNL     1       1.518  -2.670   4.855  1.00  0.00     0.132 C 
ATOM      8  C   UNL     1       0.488  -2.958   6.734  1.00  0.00     0.133 C 
ATOM      9  C   UNL     1       0.679  -1.387   4.976  1.00  0.00     0.035 C 
ATOM     10  O   UNL     1       1.839  -2.910   6.237  1.00  0.00    -0.373 OA
ATOM     11  C   UNL     1       0.012  -1.560   6.345  1.00  0.00     0.036 C 
BRANCH   6  12
ATOM     12  C   UNL     1       1.461  -5.094   4.179  1.00  0.00     0.231 C 
ATOM     13  N   UNL     1       0.991  -6.145   3.457  1.00  0.00    -0.317 N 
ATOM     14  H   UNL     1       1.639  -6.885   3.404  1.00  0.00     0.170 HD
ATOM     15  O   UNL     1       2.652  -5.168   4.500  1.00  0.00    -0.274 OA
BRANCH  13  16
ATOM     16  C   UNL     1      -0.180  -6.420   2.780  1.00  0.00     0.108 A 
ATOM     17  C   UNL     1      -0.305  -7.398   1.798  1.00  0.00     0.082 A 
ATOM     18  C   UNL     1      -1.640  -7.403   1.240  1.00  0.00     0.007 A 
ATOM     19  C   UNL     1      -2.453  -6.471   1.851  1.00  0.00     0.076 A 
ATOM     20  S   UNL     1      -1.628  -5.595   3.056  1.00  0.00    -0.125 S 
BRANCH  17  21
ATOM     21  C   UNL     1       0.837  -8.227   1.414  1.00  0.00     0.252 C 
ATOM     22  N   UNL     1       0.936  -8.569   0.099  1.00  0.00    -0.365 N 
ATOM     23  H   UNL     1       1.687  -9.126  -0.210  1.00  0.00     0.159 HD
ATOM     24  H   UNL     1       0.257  -8.258  -0.543  1.00  0.00     0.159 HD
ATOM     25  O   UNL     1       1.720  -8.552   2.202  1.00  0.00    -0.269 OA
ENDBRANCH  17  21
BRANCH  18  26
ATOM     26  C   UNL     1      -2.162  -8.256   0.183  1.00  0.00    -0.017 A 
ATOM     27  C   UNL     1      -2.554  -7.697  -1.041  1.00  0.00     0.010 A 
ATOM     28  C   UNL     1      -2.194  -9.645   0.355  1.00  0.00     0.010 A 
ATOM     29  C   UNL     1      -2.956  -8.526  -2.091  1.00  0.00     0.021 A 
ATOM     30  C   UNL     1      -2.596 -10.472  -0.697  1.00  0.00     0.021 A 
ATOM     31  C   UNL     1      -2.969  -9.909  -1.917  1.00  0.00     0.041 A 
ATOM     32  Cl  UNL     1      -3.432 -10.929  -3.222  1.00  0.00    -0.084 Cl
ENDBRANCH  18  26
ENDBRANCH  13  16
ENDBRANCH   6  12
ENDBRANCH   3   5
ENDBRANCH   2   3
ENDBRANCH   1   2
BRANCH   1  33
ATOM     33  C   UNL     1       1.041  -7.219   8.852  1.00  0.00     0.275 C 
BRANCH  33  34
ATOM     34  O   UNL     1       0.155  -6.304   9.519  1.00  0.00    -0.458 OA
BRANCH  34  35
ATOM     35  C   UNL     1       0.765  -5.279  10.155  1.00  0.00     0.338 C 
ATOM     36  O   UNL     1       1.962  -5.101  10.298  1.00  0.00    -0.246 OA
BRANCH  35  37
ATOM     37  C   UNL     1      -0.238  -4.344  10.689  1.00  0.00     0.060 A 
ATOM     38  C   UNL     1      -1.122  -3.695   9.829  1.00  0.00     0.016 A 
ATOM     39  C   UNL     1      -0.182  -3.992  12.037  1.00  0.00     0.016 A 
ATOM     40  C   UNL     1      -1.845  -2.596  10.286  1.00  0.00     0.010 A 
ATOM     41  C   UNL     1      -1.005  -2.972  12.520  1.00  0.00     0.010 A 
ATOM     42  C   UNL     1      -1.808  -2.228  11.640  1.00  0.00    -0.014 A 
BRANCH  42  43
ATOM     43  C   UNL     1      -2.600  -1.062  12.123  1.00  0.00     0.031 A 
ATOM     44  C   UNL     1      -1.918   0.107  12.792  1.00  0.00     0.074 A 
ATOM     45  C   UNL     1      -3.936  -1.044  11.943  1.00  0.00     0.049 A 
ATOM     46  N   UNL     1      -2.453   1.145  13.384  1.00  0.00    -0.248 NA
ATOM     47  C   UNL     1      -0.446   0.105  12.811  1.00  0.00     0.031 C 
ATOM     48  C   UNL     1      -4.719  -2.106  11.303  1.00  0.00     0.029 A 
ATOM     49  N   UNL     1      -4.875  -0.099  12.270  1.00  0.00    -0.354 N 
ATOM     50  C   UNL     1      -1.391   1.896  13.879  1.00  0.00     0.074 A 
ATOM     51  C   UNL     1      -0.179   1.188  13.529  1.00  0.00     0.031 C 
ATOM     52  C   UNL     1      -6.006  -1.734  11.245  1.00  0.00     0.029 A 
ATOM     53  C   UNL     1      -6.156  -0.448  11.913  1.00  0.00     0.049 A 
ATOM     54  H   UNL     1      -4.652   0.750  12.718  1.00  0.00     0.167 HD
ATOM     55  C   UNL     1      -1.425   3.068  14.558  1.00  0.00     0.037 A 
ATOM     56  C   UNL     1      -7.329   0.177  12.127  1.00  0.00     0.037 A 
ATOM     57  C   UNL     1      -2.634   3.792  14.864  1.00  0.00     0.049 A 
ATOM     58  C   UNL     1      -7.336   1.479  12.875  1.00  0.00     0.074 A 
ATOM     59  C   UNL     1      -2.774   4.986  15.552  1.00  0.00     0.029 A 
ATOM     60  N   UNL     1      -3.909   3.402  14.483  1.00  0.00    -0.354 N 
ATOM     61  N   UNL     1      -6.324   2.142  13.381  1.00  0.00    -0.248 NA
ATOM     62  C   UNL     1      -8.643   2.111  13.090  1.00  0.00     0.031 C 
ATOM     63  C   UNL     1      -4.135   5.308  15.603  1.00  0.00     0.029 A 
ATOM     64  C   UNL     1      -4.840   4.332  14.918  1.00  0.00     0.049 A 
ATOM     65  H   UNL     1      -4.122   2.585  13.977  1.00  0.00     0.167 HD
ATOM     66  C   UNL     1      -6.874   3.270  13.977  1.00  0.00     0.074 A 
ATOM     67  C   UNL     1      -8.302   3.216  13.737  1.00  0.00     0.031 C 
ATOM     68  C   UNL     1      -6.256   4.256  14.673  1.00  0.00     0.037 A 
BRANCH  55  69
ATOM     69  C   UNL     1      -0.119   3.649  15.028  1.00  0.00     0.058 A 
ATOM     70  C   UNL     1       0.772   4.275  14.144  1.00  0.00     0.135 A 
ATOM     71  C   UNL     1       0.213   3.639  16.393  1.00  0.00     0.135 A 
ATOM     72  F   UNL     1       0.512   4.299  12.827  1.00  0.00    -0.206 F 
ATOM     73  C   UNL     1       1.951   4.864  14.594  1.00  0.00     0.059 A 
ATOM     74  C   UNL     1       1.376   4.239  16.868  1.00  0.00     0.059 A 
ATOM     75  F   UNL     1      -0.603   3.052  17.283  1.00  0.00    -0.206 F 
ATOM     76  C   UNL     1       2.243   4.844  15.959  1.00  0.00     0.060 A 
BRANCH  76  77
ATOM     77  S   UNL     1       3.757   5.644  16.533  1.00  0.00     0.124 S 
ATOM     78  O   UNL     1       4.773   4.686  16.110  1.00  0.00    -0.237 OA
ATOM     79  O   UNL     1       3.738   6.910  15.807  1.00  0.00    -0.237 OA
ATOM     80  O   UNL     1       3.558   5.752  17.976  1.00  0.00    -0.744 OA
ENDBRANCH  76  77
ENDBRANCH  55  69
BRANCH  56  81
ATOM     81  C   UNL     1      -8.598  -0.443  11.662  1.00  0.00     0.058 A 
ATOM     82  C   UNL     1      -9.337   0.119  10.612  1.00  0.00     0.135 A 
ATOM     83  C   UNL     1      -9.093  -1.612  12.261  1.00  0.00     0.135 A 
ATOM     84  F   UNL     1      -8.906   1.240  10.013  1.00  0.00    -0.206 F 
ATOM     85  C   UNL     1     -10.535  -0.443  10.183  1.00  0.00     0.059 A 
ATOM     86  C   UNL     1     -10.273  -2.209  11.831  1.00  0.00     0.059 A 
ATOM     87  F   UNL     1      -8.413  -2.198  13.258  1.00  0.00    -0.206 F 
ATOM     88  C   UNL     1     -10.995  -1.608  10.801  1.00  0.00     0.060 A 
BRANCH  88  89
ATOM     89  S   UNL     1     -12.530  -2.360  10.218  1.00  0.00     0.124 S 
ATOM     90  O   UNL     1     -13.530  -1.532  10.880  1.00  0.00    -0.237 OA
ATOM     91  O   UNL     1     -12.425  -2.201   8.771  1.00  0.00    -0.237 OA
ATOM     92  O   UNL     1     -12.427  -3.735  10.697  1.00  0.00    -0.744 OA
ENDBRANCH  88  89
ENDBRANCH  56  81
BRANCH  68  93
ATOM     93  C   UNL     1      -7.131   5.355  15.203  1.00  0.00     0.058 A 
ATOM     94  C   UNL     1      -7.976   5.150  16.305  1.00  0.00     0.135 A 
ATOM     95  C   UNL     1      -7.135   6.620  14.595  1.00  0.00     0.135 A 
ATOM     96  F   UNL     1      -8.013   3.954  16.915  1.00  0.00    -0.206 F 
ATOM     97  C   UNL     1      -8.829   6.149  16.760  1.00  0.00     0.059 A 
ATOM     98  C   UNL     1      -7.963   7.641  15.049  1.00  0.00     0.059 A 
ATOM     99  F   UNL     1      -6.337   6.868  13.545  1.00  0.00    -0.206 F 
ATOM    100  C   UNL     1      -8.822   7.389  16.119  1.00  0.00     0.060 A 
BRANCH 100 101
ATOM    101  S   UNL     1      -9.944   8.677  16.702  1.00  0.00     0.124 S 
ATOM    102  O   UNL     1     -11.206   8.260  16.100  1.00  0.00    -0.237 OA
ATOM    103  O   UNL     1      -9.857   8.540  18.153  1.00  0.00    -0.237 OA
ATOM    104  O   UNL     1      -9.362   9.902  16.160  1.00  0.00    -0.744 OA
ENDBRANCH 100 101
ENDBRANCH  68  93
ENDBRANCH  42  43
ENDBRANCH  35  37
ENDBRANCH  34  35
ENDBRANCH  33  34
ENDBRANCH   1  33
TORSDOF 18
