REMARK SMILES CCN(CCOC)C(=O)c1cccn1CC(=O)OCCOC(=O)c1ccc(-c2c3nc(c(-c4c(F)cc(S(=O)(=O)[O-])cc4F)c4ccc([nH]4)c(-c4c(F)cc(S(=O)(=O)[O-])cc4F)c4nc(c(-c5c(F)cc(S(=O)(=O)[O-])cc5F)c5ccc2[nH]5)C=C4)C=C3)cc1
REMARK SMILES IDX 18 1 16 2 17 3 15 4 14 5 10 6 11 7 12 8 13 9 8 10 9 11 3 12
REMARK SMILES IDX 2 13 1 14 4 15 5 16 6 17 7 18 19 19 20 20 21 21 22 22 23 23
REMARK SMILES IDX 24 24 25 25 89 26 26 27 88 28 27 29 28 30 29 31 82 32 30 33
REMARK SMILES IDX 87 34 81 35 83 36 31 37 86 38 80 39 79 40 32 42 66 43 45 44
REMARK SMILES IDX 65 45 46 46 49 47 64 48 84 49 47 50 48 51 63 53 85 54 50 55
REMARK SMILES IDX 33 56 34 57 43 58 35 59 36 60 42 61 44 62 37 63 38 64 39 65
REMARK SMILES IDX 40 66 41 67 67 68 68 69 77 70 69 71 70 72 76 73 78 74 71 75
REMARK SMILES IDX 72 76 73 77 74 78 75 79 51 80 52 81 61 82 53 83 54 84 60 85
REMARK SMILES IDX 62 86 55 87 56 88 57 89 58 90 59 91
REMARK H PARENT 83 41 49 52
REMARK Flexibility Score: inf
ROOT
ATOM      1  O   UNL     1       3.784   4.986   0.073  1.00  0.00    -0.461 OA
ENDROOT
BRANCH   1   2
ATOM      2  C   UNL     1       4.956   4.307   0.196  1.00  0.00     0.326 C 
ATOM      3  O   UNL     1       5.909   4.464  -0.567  1.00  0.00    -0.250 OA
BRANCH   2   4
ATOM      4  C   UNL     1       5.011   3.284   1.310  1.00  0.00     0.244 C 
BRANCH   4   5
ATOM      5  N   UNL     1       4.115   3.494   2.442  1.00  0.00    -0.332 N 
ATOM      6  C   UNL     1       2.788   3.090   2.591  1.00  0.00     0.107 A 
ATOM      7  C   UNL     1       2.325   3.914   3.618  1.00  0.00     0.033 A 
ATOM      8  C   UNL     1       3.437   4.450   4.309  1.00  0.00     0.020 A 
ATOM      9  C   UNL     1       4.546   4.007   3.643  1.00  0.00     0.087 A 
BRANCH   6  10
ATOM     10  C   UNL     1       2.205   1.987   1.828  1.00  0.00     0.270 C 
ATOM     11  O   UNL     1       2.948   1.291   1.126  1.00  0.00    -0.267 OA
BRANCH  10  12
ATOM     12  N   UNL     1       0.857   1.595   1.920  1.00  0.00    -0.335 N 
BRANCH  12  13
ATOM     13  C   UNL     1       0.490   0.292   1.349  1.00  0.00     0.116 C 
ATOM     14  C   UNL     1       0.662   0.176  -0.160  1.00  0.00     0.027 C 
ENDBRANCH  12  13
BRANCH  12  15
ATOM     15  C   UNL     1      -0.185   2.258   2.707  1.00  0.00     0.148 C 
BRANCH  15  16
ATOM     16  C   UNL     1      -0.395   1.658   4.116  1.00  0.00     0.181 C 
BRANCH  16  17
ATOM     17  O   UNL     1       0.705   1.857   4.997  1.00  0.00    -0.383 OA
ATOM     18  C   UNL     1       1.628   0.777   5.040  1.00  0.00     0.194 C 
ENDBRANCH  16  17
ENDBRANCH  15  16
ENDBRANCH  12  15
ENDBRANCH  10  12
ENDBRANCH   6  10
ENDBRANCH   4   5
ENDBRANCH   2   4
ENDBRANCH   1   2
BRANCH   1  19
ATOM     19  C   UNL     1       3.756   6.029  -0.927  1.00  0.00     0.274 C 
BRANCH  19  20
ATOM     20  C   UNL     1       4.051   7.438  -0.389  1.00  0.00     0.275 C 
BRANCH  20  21
ATOM     21  O   UNL     1       5.276   7.558   0.346  1.00  0.00    -0.458 OA
BRANCH  21  22
ATOM     22  C   UNL     1       5.093   7.226   1.641  1.00  0.00     0.338 C 
ATOM     23  O   UNL     1       4.106   6.690   2.118  1.00  0.00    -0.246 OA
BRANCH  22  24
ATOM     24  C   UNL     1       6.151   7.694   2.527  1.00  0.00     0.060 A 
ATOM     25  C   UNL     1       6.672   6.763   3.427  1.00  0.00     0.016 A 
ATOM     26  C   UNL     1       6.263   9.067   2.743  1.00  0.00     0.016 A 
ATOM     27  C   UNL     1       7.176   7.196   4.638  1.00  0.00     0.010 A 
ATOM     28  C   UNL     1       6.805   9.509   3.942  1.00  0.00     0.010 A 
ATOM     29  C   UNL     1       7.224   8.570   4.900  1.00  0.00    -0.014 A 
BRANCH  29  30
ATOM     30  C   UNL     1       7.987   8.999   6.087  1.00  0.00     0.031 A 
ATOM     31  C   UNL     1       9.507   8.958   5.779  1.00  0.00     0.074 A 
ATOM     32  C   UNL     1       7.267   9.319   7.209  1.00  0.00     0.049 A 
ATOM     33  N   UNL     1      10.533   8.934   6.574  1.00  0.00    -0.248 NA
ATOM     34  C   UNL     1       9.951   8.860   4.352  1.00  0.00     0.031 C 
ATOM     35  C   UNL     1       5.788   9.290   7.321  1.00  0.00     0.029 A 
ATOM     36  N   UNL     1       7.617   9.736   8.478  1.00  0.00    -0.354 N 
ATOM     37  C   UNL     1      11.691   9.069   5.770  1.00  0.00     0.074 A 
ATOM     38  C   UNL     1      11.281   8.880   4.418  1.00  0.00     0.031 C 
ATOM     39  C   UNL     1       5.385   9.602   8.577  1.00  0.00     0.029 A 
ATOM     40  C   UNL     1       6.541   9.900   9.401  1.00  0.00     0.049 A 
ATOM     41  H   UNL     1       8.552   9.909   8.731  1.00  0.00     0.167 HD
ATOM     42  C   UNL     1      12.902   9.473   6.250  1.00  0.00     0.037 A 
ATOM     43  C   UNL     1       6.597  10.231  10.734  1.00  0.00     0.037 A 
ATOM     44  C   UNL     1      12.833   9.636   7.660  1.00  0.00     0.049 A 
ATOM     45  C   UNL     1       8.004  10.588  10.951  1.00  0.00     0.074 A 
ATOM     46  C   UNL     1      12.788   8.732   8.685  1.00  0.00     0.029 A 
ATOM     47  N   UNL     1      12.454  10.872   8.123  1.00  0.00    -0.354 N 
ATOM     48  N   UNL     1       8.555  11.693  10.550  1.00  0.00    -0.248 NA
ATOM     49  C   UNL     1       8.878   9.616  11.618  1.00  0.00     0.031 C 
ATOM     50  C   UNL     1      11.955   9.351   9.635  1.00  0.00     0.029 A 
ATOM     51  C   UNL     1      11.679  10.665   9.236  1.00  0.00     0.049 A 
ATOM     52  H   UNL     1      12.694  11.743   7.730  1.00  0.00     0.167 HD
ATOM     53  C   UNL     1       9.890  11.397  10.628  1.00  0.00     0.074 A 
ATOM     54  C   UNL     1      10.017  10.300  11.563  1.00  0.00     0.031 C 
ATOM     55  C   UNL     1      10.700  11.673   9.577  1.00  0.00     0.037 A 
BRANCH  42  56
ATOM     56  C   UNL     1      14.143   9.975   5.564  1.00  0.00     0.058 A 
ATOM     57  C   UNL     1      15.354   9.960   6.299  1.00  0.00     0.135 A 
ATOM     58  C   UNL     1      14.126  10.778   4.414  1.00  0.00     0.135 A 
ATOM     59  F   UNL     1      15.497   9.164   7.373  1.00  0.00    -0.206 F 
ATOM     60  C   UNL     1      16.413  10.812   6.012  1.00  0.00     0.059 A 
ATOM     61  C   UNL     1      15.200  11.608   4.080  1.00  0.00     0.059 A 
ATOM     62  F   UNL     1      13.039  10.847   3.633  1.00  0.00    -0.206 F 
ATOM     63  C   UNL     1      16.309  11.666   4.922  1.00  0.00     0.060 A 
BRANCH  63  64
ATOM     64  S   UNL     1      17.616  12.883   4.664  1.00  0.00     0.124 S 
ATOM     65  O   UNL     1      17.336  13.847   5.722  1.00  0.00    -0.237 OA
ATOM     66  O   UNL     1      18.825  12.082   4.842  1.00  0.00    -0.237 OA
ATOM     67  O   UNL     1      17.378  13.346   3.301  1.00  0.00    -0.744 OA
ENDBRANCH  63  64
ENDBRANCH  42  56
BRANCH  43  68
ATOM     68  C   UNL     1       5.729  10.289  11.986  1.00  0.00     0.058 A 
ATOM     69  C   UNL     1       4.362   9.999  12.079  1.00  0.00     0.135 A 
ATOM     70  C   UNL     1       6.347  10.531  13.255  1.00  0.00     0.135 A 
ATOM     71  F   UNL     1       3.613   9.870  10.976  1.00  0.00    -0.206 F 
ATOM     72  C   UNL     1       3.709   9.815  13.321  1.00  0.00     0.059 A 
ATOM     73  C   UNL     1       5.743  10.300  14.487  1.00  0.00     0.059 A 
ATOM     74  F   UNL     1       7.606  10.979  13.360  1.00  0.00    -0.206 F 
ATOM     75  C   UNL     1       4.423   9.910  14.517  1.00  0.00     0.060 A 
BRANCH  75  76
ATOM     76  S   UNL     1       3.708   9.406  16.100  1.00  0.00     0.124 S 
ATOM     77  O   UNL     1       3.074  10.637  16.557  1.00  0.00    -0.237 OA
ATOM     78  O   UNL     1       2.804   8.328  15.712  1.00  0.00    -0.237 OA
ATOM     79  O   UNL     1       4.875   8.976  16.869  1.00  0.00    -0.744 OA
ENDBRANCH  75  76
ENDBRANCH  43  68
BRANCH  55  80
ATOM     80  C   UNL     1      10.213  12.799   8.680  1.00  0.00     0.058 A 
ATOM     81  C   UNL     1      10.146  14.110   9.175  1.00  0.00     0.135 A 
ATOM     82  C   UNL     1       9.723  12.614   7.375  1.00  0.00     0.135 A 
ATOM     83  F   UNL     1      10.586  14.377  10.415  1.00  0.00    -0.206 F 
ATOM     84  C   UNL     1       9.639  15.171   8.418  1.00  0.00     0.059 A 
ATOM     85  C   UNL     1       9.216  13.655   6.591  1.00  0.00     0.059 A 
ATOM     86  F   UNL     1       9.719  11.403   6.820  1.00  0.00    -0.206 F 
ATOM     87  C   UNL     1       9.179  14.937   7.122  1.00  0.00     0.060 A 
BRANCH  87  88
ATOM     88  S   UNL     1       8.559  16.325   6.144  1.00  0.00     0.124 S 
ATOM     89  O   UNL     1       7.445  16.808   6.954  1.00  0.00    -0.237 OA
ATOM     90  O   UNL     1       9.724  17.202   6.087  1.00  0.00    -0.237 OA
ATOM     91  O   UNL     1       8.180  15.713   4.872  1.00  0.00    -0.744 OA
ENDBRANCH  87  88
ENDBRANCH  55  80
ENDBRANCH  29  30
ENDBRANCH  22  24
ENDBRANCH  21  22
ENDBRANCH  20  21
ENDBRANCH  19  20
ENDBRANCH   1  19
TORSDOF 21
