REMARK SMILES CC(=O)c1nnn(-c2ccc(C(=O)OCCOC(=O)c3ccc(-c4c5nc(c(-c6c(F)cc(S(=O)(=O)[O-])cc6F)c6ccc([nH]6)c(-c6c(F)cc(S(=O)(=O)[O-])cc6F)c6nc(c(-c7c(F)cc(S(=O)(=O)[O-])cc7F)c7ccc4[nH]7)C=C6)C=C5)cc3)cc2)c1C
REMARK SMILES IDX 16 1 15 2 14 3 12 4 13 5 11 6 8 7 9 8 87 9 10 10 86 11 7 12
REMARK SMILES IDX 4 13 5 14 88 15 6 16 89 17 2 18 1 19 3 20 17 21 18 22 19 23
REMARK SMILES IDX 20 24 21 25 85 26 22 27 84 28 23 29 24 30 25 31 78 32 26 33
REMARK SMILES IDX 83 34 77 35 79 36 27 37 82 38 76 39 75 40 28 42 62 43 41 44
REMARK SMILES IDX 61 45 42 46 45 47 60 48 80 49 43 50 44 51 59 53 81 54 46 55
REMARK SMILES IDX 29 56 30 57 39 58 31 59 32 60 38 61 40 62 33 63 34 64 35 65
REMARK SMILES IDX 36 66 37 67 63 68 64 69 73 70 65 71 66 72 72 73 74 74 67 75
REMARK SMILES IDX 68 76 69 77 70 78 71 79 47 80 48 81 57 82 49 83 50 84 56 85
REMARK SMILES IDX 58 86 51 87 52 88 53 89 54 90 55 91
REMARK H PARENT 79 41 45 52
REMARK Flexibility Score: inf
ROOT
ATOM      1  C   UNL     1       9.228  -0.837  -8.593  1.00  0.00     0.275 C 
ENDROOT
BRANCH   1   2
ATOM      2  C   UNL     1       9.317  -0.393  -7.140  1.00  0.00     0.275 C 
BRANCH   2   3
ATOM      3  O   UNL     1       8.071  -0.609  -6.460  1.00  0.00    -0.458 OA
BRANCH   3   4
ATOM      4  C   UNL     1       7.173   0.406  -6.527  1.00  0.00     0.338 C 
ATOM      5  O   UNL     1       7.387   1.540  -6.934  1.00  0.00    -0.246 OA
BRANCH   4   6
ATOM      6  C   UNL     1       5.838  -0.054  -6.070  1.00  0.00     0.060 A 
ATOM      7  C   UNL     1       3.371  -0.664  -4.956  1.00  0.00     0.067 A 
ATOM      8  C   UNL     1       3.450   0.372  -5.889  1.00  0.00     0.029 A 
ATOM      9  C   UNL     1       4.473  -1.491  -4.704  1.00  0.00     0.029 A 
ATOM     10  C   UNL     1       4.700   0.690  -6.427  1.00  0.00     0.018 A 
ATOM     11  C   UNL     1       5.707  -1.189  -5.265  1.00  0.00     0.018 A 
BRANCH   7  12
ATOM     12  N   UNL     1       2.238  -0.770  -4.126  1.00  0.00    -0.217 N 
ATOM     13  C   UNL     1       0.892  -0.908  -2.414  1.00  0.00     0.151 A 
ATOM     14  N   UNL     1       0.155  -0.896  -3.572  1.00  0.00    -0.126 NA
ATOM     15  C   UNL     1       2.233  -0.772  -2.734  1.00  0.00     0.073 A 
ATOM     16  N   UNL     1       0.978  -0.688  -4.591  1.00  0.00    -0.061 NA
ATOM     17  C   UNL     1       3.455  -0.561  -1.917  1.00  0.00     0.069 C 
BRANCH  13  18
ATOM     18  C   UNL     1       0.258  -0.983  -1.106  1.00  0.00     0.181 C 
ATOM     19  C   UNL     1       0.597   0.077  -0.087  1.00  0.00     0.095 C 
ATOM     20  O   UNL     1      -0.553  -1.867  -0.828  1.00  0.00    -0.293 OA
ENDBRANCH  13  18
ENDBRANCH   7  12
ENDBRANCH   4   6
ENDBRANCH   3   4
ENDBRANCH   2   3
ENDBRANCH   1   2
BRANCH   1  21
ATOM     21  O   UNL     1       8.403   0.042  -9.354  1.00  0.00    -0.458 OA
BRANCH  21  22
ATOM     22  C   UNL     1       7.114  -0.349  -9.475  1.00  0.00     0.338 C 
ATOM     23  O   UNL     1       6.526  -1.177  -8.799  1.00  0.00    -0.246 OA
BRANCH  22  24
ATOM     24  C   UNL     1       6.556   0.220 -10.702  1.00  0.00     0.060 A 
ATOM     25  C   UNL     1       5.185   0.060 -10.925  1.00  0.00     0.016 A 
ATOM     26  C   UNL     1       7.432   0.629 -11.718  1.00  0.00     0.016 A 
ATOM     27  C   UNL     1       4.717   0.153 -12.218  1.00  0.00     0.010 A 
ATOM     28  C   UNL     1       6.966   0.710 -13.006  1.00  0.00     0.010 A 
ATOM     29  C   UNL     1       5.631   0.398 -13.250  1.00  0.00    -0.014 A 
BRANCH  29  30
ATOM     30  C   UNL     1       5.139   0.414 -14.611  1.00  0.00     0.031 A 
ATOM     31  C   UNL     1       4.289   1.591 -14.909  1.00  0.00     0.074 A 
ATOM     32  C   UNL     1       5.550  -0.481 -15.529  1.00  0.00     0.049 A 
ATOM     33  N   UNL     1       3.037   1.610 -15.218  1.00  0.00    -0.248 NA
ATOM     34  C   UNL     1       4.865   2.924 -14.659  1.00  0.00     0.031 C 
ATOM     35  C   UNL     1       6.609  -1.487 -15.407  1.00  0.00     0.029 A 
ATOM     36  N   UNL     1       5.170  -0.601 -16.826  1.00  0.00    -0.354 N 
ATOM     37  C   UNL     1       2.721   2.950 -15.421  1.00  0.00     0.074 A 
ATOM     38  C   UNL     1       3.814   3.712 -14.879  1.00  0.00     0.031 C 
ATOM     39  C   UNL     1       6.941  -1.934 -16.640  1.00  0.00     0.029 A 
ATOM     40  C   UNL     1       6.038  -1.345 -17.614  1.00  0.00     0.049 A 
ATOM     41  H   UNL     1       4.347  -0.193 -17.180  1.00  0.00     0.167 HD
ATOM     42  C   UNL     1       1.700   3.320 -16.239  1.00  0.00     0.037 A 
ATOM     43  C   UNL     1       6.049  -1.383 -18.972  1.00  0.00     0.037 A 
ATOM     44  C   UNL     1       0.797   2.222 -16.473  1.00  0.00     0.049 A 
ATOM     45  C   UNL     1       4.716  -0.900 -19.430  1.00  0.00     0.074 A 
ATOM     46  C   UNL     1       0.005   1.434 -15.659  1.00  0.00     0.029 A 
ATOM     47  N   UNL     1       0.908   1.541 -17.661  1.00  0.00    -0.354 N 
ATOM     48  N   UNL     1       3.598  -1.540 -19.218  1.00  0.00    -0.248 NA
ATOM     49  C   UNL     1       4.572   0.523 -19.708  1.00  0.00     0.031 C 
ATOM     50  C   UNL     1       0.087   0.126 -16.218  1.00  0.00     0.029 A 
ATOM     51  C   UNL     1       0.869   0.200 -17.372  1.00  0.00     0.049 A 
ATOM     52  H   UNL     1       0.999   1.942 -18.556  1.00  0.00     0.167 HD
ATOM     53  C   UNL     1       2.670  -0.552 -18.915  1.00  0.00     0.074 A 
ATOM     54  C   UNL     1       3.308   0.701 -19.311  1.00  0.00     0.031 C 
ATOM     55  C   UNL     1       1.593  -0.809 -18.114  1.00  0.00     0.037 A 
BRANCH  42  56
ATOM     56  C   UNL     1       1.725   4.551 -17.113  1.00  0.00     0.058 A 
ATOM     57  C   UNL     1       0.561   4.918 -17.817  1.00  0.00     0.135 A 
ATOM     58  C   UNL     1       2.910   5.214 -17.508  1.00  0.00     0.135 A 
ATOM     59  F   UNL     1      -0.621   4.351 -17.528  1.00  0.00    -0.206 F 
ATOM     60  C   UNL     1       0.588   5.811 -18.888  1.00  0.00     0.059 A 
ATOM     61  C   UNL     1       2.948   6.149 -18.534  1.00  0.00     0.059 A 
ATOM     62  F   UNL     1       4.108   4.918 -16.992  1.00  0.00    -0.206 F 
ATOM     63  C   UNL     1       1.792   6.407 -19.249  1.00  0.00     0.060 A 
BRANCH  63  64
ATOM     64  S   UNL     1       1.856   7.467 -20.702  1.00  0.00     0.124 S 
ATOM     65  O   UNL     1       1.650   6.501 -21.774  1.00  0.00    -0.237 OA
ATOM     66  O   UNL     1       0.754   8.391 -20.451  1.00  0.00    -0.237 OA
ATOM     67  O   UNL     1       3.189   8.057 -20.629  1.00  0.00    -0.744 OA
ENDBRANCH  63  64
ENDBRANCH  42  56
BRANCH  43  68
ATOM     68  C   UNL     1       7.241  -1.417 -19.866  1.00  0.00     0.058 A 
ATOM     69  C   UNL     1       7.108  -1.647 -21.248  1.00  0.00     0.135 A 
ATOM     70  C   UNL     1       8.500  -0.946 -19.438  1.00  0.00     0.135 A 
ATOM     71  F   UNL     1       5.940  -2.076 -21.750  1.00  0.00    -0.206 F 
ATOM     72  C   UNL     1       8.141  -1.376 -22.155  1.00  0.00     0.059 A 
ATOM     73  C   UNL     1       9.547  -0.682 -20.321  1.00  0.00     0.059 A 
ATOM     74  F   UNL     1       8.727  -0.635 -18.154  1.00  0.00    -0.206 F 
ATOM     75  C   UNL     1       9.352  -0.872 -21.682  1.00  0.00     0.060 A 
BRANCH  75  76
ATOM     76  S   UNL     1      10.623  -0.346 -22.857  1.00  0.00     0.124 S 
ATOM     77  O   UNL     1      11.083  -1.621 -23.395  1.00  0.00    -0.237 OA
ATOM     78  O   UNL     1       9.865   0.498 -23.774  1.00  0.00    -0.237 OA
ATOM     79  O   UNL     1      11.587   0.361 -22.018  1.00  0.00    -0.744 OA
ENDBRANCH  75  76
ENDBRANCH  43  68
BRANCH  55  80
ATOM     80  C   UNL     1       1.266  -2.245 -17.792  1.00  0.00     0.058 A 
ATOM     81  C   UNL     1       2.099  -3.108 -17.056  1.00  0.00     0.135 A 
ATOM     82  C   UNL     1      -0.019  -2.713 -18.105  1.00  0.00     0.135 A 
ATOM     83  F   UNL     1       3.301  -2.703 -16.624  1.00  0.00    -0.206 F 
ATOM     84  C   UNL     1       1.688  -4.390 -16.686  1.00  0.00     0.059 A 
ATOM     85  C   UNL     1      -0.462  -3.975 -17.718  1.00  0.00     0.059 A 
ATOM     86  F   UNL     1      -0.886  -1.915 -18.750  1.00  0.00    -0.206 F 
ATOM     87  C   UNL     1       0.402  -4.815 -17.020  1.00  0.00     0.060 A 
BRANCH  87  88
ATOM     88  S   UNL     1      -0.157  -6.445 -16.480  1.00  0.00     0.124 S 
ATOM     89  O   UNL     1       0.619  -7.335 -17.337  1.00  0.00    -0.237 OA
ATOM     90  O   UNL     1       0.203  -6.453 -15.065  1.00  0.00    -0.237 OA
ATOM     91  O   UNL     1      -1.593  -6.419 -16.747  1.00  0.00    -0.744 OA
ENDBRANCH  87  88
ENDBRANCH  55  80
ENDBRANCH  29  30
ENDBRANCH  22  24
ENDBRANCH  21  22
ENDBRANCH   1  21
TORSDOF 16
