REMARK SMILES O=C(C[C@@H]1C[N@@H+](CCSc2ccccc2F)CCO1)OCCOC(=O)c1ccc(-c2c3nc(c(-c4c(F)cc(S(=O)(=O)[O-])cc4F)c4ccc([nH]4)c(-c4c(F)cc(S(=O)(=O)[O-])cc4F)c4nc(c(-c5c(F)cc(S(=O)(=O)[O-])cc5F)c5ccc2[nH]5)C=C4)C=C3)cc1
REMARK SMILES IDX 21 1 20 2 2 3 1 4 3 5 4 6 5 7 19 8 6 9 18 10 17 11 7 13 8 14
REMARK SMILES IDX 9 15 10 16 11 17 15 18 12 19 14 20 16 21 13 22 22 23 23 24
REMARK SMILES IDX 24 25 25 26 26 27 27 28 91 29 28 30 90 31 29 32 30 33 31 34
REMARK SMILES IDX 84 35 32 36 89 37 83 38 85 39 33 40 88 41 82 42 81 43 34 45
REMARK SMILES IDX 68 46 47 47 67 48 48 49 51 50 66 51 86 52 49 53 50 54 65 56
REMARK SMILES IDX 87 57 52 58 35 59 36 60 45 61 37 62 38 63 44 64 46 65 39 66
REMARK SMILES IDX 40 67 41 68 42 69 43 70 69 71 70 72 79 73 71 74 72 75 78 76
REMARK SMILES IDX 80 77 73 78 74 79 75 80 76 81 77 82 53 83 54 84 63 85 55 86
REMARK SMILES IDX 56 87 62 88 64 89 57 90 58 91 59 92 60 93 61 94
REMARK H PARENT 6 12 85 44 51 55
REMARK Flexibility Score: inf
ROOT
ATOM      1  C   UNL     1       3.605   1.355   0.075  1.00  0.00     0.274 C 
ENDROOT
BRANCH   1   2
ATOM      2  O   UNL     1       2.191   1.093   0.059  1.00  0.00    -0.462 OA
BRANCH   2   3
ATOM      3  C   UNL     1       1.741   0.265  -0.916  1.00  0.00     0.308 C 
ATOM      4  O   UNL     1       1.193   0.684  -1.929  1.00  0.00    -0.252 OA
BRANCH   3   5
ATOM      5  C   UNL     1       1.882  -1.207  -0.617  1.00  0.00     0.160 C 
BRANCH   5   6
ATOM      6  C   UNL     1       3.195  -1.749  -1.157  1.00  0.00     0.184 C 
ATOM      7  C   UNL     1       3.087  -3.204  -1.644  1.00  0.00     0.295 C 
ATOM      8  O   UNL     1       4.139  -1.688  -0.070  1.00  0.00    -0.366 OA
ATOM      9  N   UNL     1       4.381  -3.763  -2.070  1.00  0.00    -0.330 N 
ATOM     10  C   UNL     1       5.429  -2.140  -0.478  1.00  0.00     0.222 C 
ATOM     11  C   UNL     1       5.386  -3.571  -1.026  1.00  0.00     0.291 C 
ATOM     12  H   UNL     1       4.246  -4.770  -2.161  1.00  0.00     0.348 HD
BRANCH   9  13
ATOM     13  C   UNL     1       4.799  -3.500  -3.454  1.00  0.00     0.273 C 
BRANCH  13  14
ATOM     14  C   UNL     1       5.535  -2.204  -3.884  1.00  0.00     0.136 C 
BRANCH  14  15
ATOM     15  S   UNL     1       7.349  -2.365  -4.203  1.00  0.00    -0.117 SA
BRANCH  15  16
ATOM     16  C   UNL     1       8.081  -1.924  -2.636  1.00  0.00     0.043 A 
ATOM     17  C   UNL     1       8.040  -0.607  -2.158  1.00  0.00     0.018 A 
ATOM     18  C   UNL     1       8.718  -2.894  -1.852  1.00  0.00     0.136 A 
ATOM     19  C   UNL     1       8.536  -0.299  -0.883  1.00  0.00     0.001 A 
ATOM     20  C   UNL     1       9.204  -2.596  -0.580  1.00  0.00     0.040 A 
ATOM     21  F   UNL     1       8.814  -4.161  -2.283  1.00  0.00    -0.206 F 
ATOM     22  C   UNL     1       9.098  -1.298  -0.086  1.00  0.00     0.003 A 
ENDBRANCH  15  16
ENDBRANCH  14  15
ENDBRANCH  13  14
ENDBRANCH   9  13
ENDBRANCH   5   6
ENDBRANCH   3   5
ENDBRANCH   2   3
ENDBRANCH   1   2
BRANCH   1  23
ATOM     23  C   UNL     1       4.165   1.329   1.502  1.00  0.00     0.275 C 
BRANCH  23  24
ATOM     24  O   UNL     1       3.889   0.081   2.153  1.00  0.00    -0.458 OA
BRANCH  24  25
ATOM     25  C   UNL     1       2.715   0.044   2.835  1.00  0.00     0.338 C 
ATOM     26  O   UNL     1       1.989   0.984   3.084  1.00  0.00    -0.246 OA
BRANCH  25  27
ATOM     27  C   UNL     1       2.344  -1.367   3.091  1.00  0.00     0.060 A 
ATOM     28  C   UNL     1       0.998  -1.716   2.926  1.00  0.00     0.016 A 
ATOM     29  C   UNL     1       3.286  -2.333   3.458  1.00  0.00     0.016 A 
ATOM     30  C   UNL     1       0.588  -3.030   3.134  1.00  0.00     0.010 A 
ATOM     31  C   UNL     1       2.869  -3.646   3.699  1.00  0.00     0.010 A 
ATOM     32  C   UNL     1       1.514  -3.990   3.562  1.00  0.00    -0.014 A 
BRANCH  32  33
ATOM     33  C   UNL     1       1.001  -5.270   4.098  1.00  0.00     0.031 A 
ATOM     34  C   UNL     1       0.587  -5.301   5.543  1.00  0.00     0.074 A 
ATOM     35  C   UNL     1       0.842  -6.353   3.318  1.00  0.00     0.049 A 
ATOM     36  N   UNL     1      -0.005  -6.249   6.216  1.00  0.00    -0.248 NA
ATOM     37  C   UNL     1       0.873  -4.087   6.328  1.00  0.00     0.031 C 
ATOM     38  C   UNL     1       1.186  -6.435   1.900  1.00  0.00     0.029 A 
ATOM     39  N   UNL     1       0.332  -7.592   3.615  1.00  0.00    -0.354 N 
ATOM     40  C   UNL     1      -0.200  -5.734   7.491  1.00  0.00     0.074 A 
ATOM     41  C   UNL     1       0.386  -4.412   7.515  1.00  0.00     0.031 C 
ATOM     42  C   UNL     1       0.873  -7.663   1.448  1.00  0.00     0.029 A 
ATOM     43  C   UNL     1       0.310  -8.452   2.544  1.00  0.00     0.049 A 
ATOM     44  H   UNL     1       0.011  -7.841   4.512  1.00  0.00     0.167 HD
ATOM     45  C   UNL     1      -0.829  -6.302   8.545  1.00  0.00     0.037 A 
ATOM     46  C   UNL     1      -0.125  -9.726   2.462  1.00  0.00     0.037 A 
ATOM     47  C   UNL     1      -1.362  -7.636   8.537  1.00  0.00     0.049 A 
ATOM     48  C   UNL     1      -0.746 -10.374   3.674  1.00  0.00     0.074 A 
ATOM     49  C   UNL     1      -1.981  -8.322   9.565  1.00  0.00     0.029 A 
ATOM     50  N   UNL     1      -1.323  -8.491   7.445  1.00  0.00    -0.354 N 
ATOM     51  N   UNL     1      -0.955  -9.867   4.866  1.00  0.00    -0.248 NA
ATOM     52  C   UNL     1      -1.205 -11.764   3.526  1.00  0.00     0.031 C 
ATOM     53  C   UNL     1      -2.281  -9.610   9.107  1.00  0.00     0.029 A 
ATOM     54  C   UNL     1      -1.895  -9.707   7.778  1.00  0.00     0.049 A 
ATOM     55  H   UNL     1      -0.945  -8.267   6.565  1.00  0.00     0.167 HD
ATOM     56  C   UNL     1      -1.601 -10.860   5.598  1.00  0.00     0.074 A 
ATOM     57  C   UNL     1      -1.745 -11.999   4.715  1.00  0.00     0.031 C 
ATOM     58  C   UNL     1      -2.042 -10.826   6.880  1.00  0.00     0.037 A 
BRANCH  45  59
ATOM     59  C   UNL     1      -0.945  -5.475   9.792  1.00  0.00     0.058 A 
ATOM     60  C   UNL     1      -0.163  -5.763  10.919  1.00  0.00     0.135 A 
ATOM     61  C   UNL     1      -1.820  -4.378   9.860  1.00  0.00     0.135 A 
ATOM     62  F   UNL     1       0.701  -6.790  10.900  1.00  0.00    -0.206 F 
ATOM     63  C   UNL     1      -0.241  -4.989  12.072  1.00  0.00     0.059 A 
ATOM     64  C   UNL     1      -1.897  -3.576  10.994  1.00  0.00     0.059 A 
ATOM     65  F   UNL     1      -2.567  -4.042   8.795  1.00  0.00    -0.206 F 
ATOM     66  C   UNL     1      -1.107  -3.894  12.098  1.00  0.00     0.060 A 
BRANCH  66  67
ATOM     67  S   UNL     1      -1.135  -2.851  13.571  1.00  0.00     0.124 S 
ATOM     68  O   UNL     1      -1.849  -3.695  14.522  1.00  0.00    -0.237 OA
ATOM     69  O   UNL     1       0.288  -2.655  13.836  1.00  0.00    -0.237 OA
ATOM     70  O   UNL     1      -1.849  -1.658  13.126  1.00  0.00    -0.744 OA
ENDBRANCH  66  67
ENDBRANCH  45  59
BRANCH  46  71
ATOM     71  C   UNL     1      -0.027 -10.455   1.170  1.00  0.00     0.058 A 
ATOM     72  C   UNL     1       1.214 -10.871   0.664  1.00  0.00     0.135 A 
ATOM     73  C   UNL     1      -1.169 -10.722   0.401  1.00  0.00     0.135 A 
ATOM     74  F   UNL     1       2.337 -10.640   1.361  1.00  0.00    -0.206 F 
ATOM     75  C   UNL     1       1.322 -11.502  -0.571  1.00  0.00     0.059 A 
ATOM     76  C   UNL     1      -1.089 -11.370  -0.829  1.00  0.00     0.059 A 
ATOM     77  F   UNL     1      -2.380 -10.357   0.851  1.00  0.00    -0.206 F 
ATOM     78  C   UNL     1       0.165 -11.740  -1.314  1.00  0.00     0.060 A 
BRANCH  78  79
ATOM     79  S   UNL     1       0.331 -12.532  -2.929  1.00  0.00     0.124 S 
ATOM     80  O   UNL     1       0.993 -11.485  -3.701  1.00  0.00    -0.237 OA
ATOM     81  O   UNL     1       1.145 -13.701  -2.615  1.00  0.00    -0.237 OA
ATOM     82  O   UNL     1      -1.049 -12.815  -3.310  1.00  0.00    -0.744 OA
ENDBRANCH  78  79
ENDBRANCH  46  71
BRANCH  58  83
ATOM     83  C   UNL     1      -2.763 -12.035   7.411  1.00  0.00     0.058 A 
ATOM     84  C   UNL     1      -4.143 -11.977   7.667  1.00  0.00     0.135 A 
ATOM     85  C   UNL     1      -2.080 -13.210   7.759  1.00  0.00     0.135 A 
ATOM     86  F   UNL     1      -4.842 -10.872   7.360  1.00  0.00    -0.206 F 
ATOM     87  C   UNL     1      -4.817 -13.033   8.268  1.00  0.00     0.059 A 
ATOM     88  C   UNL     1      -2.740 -14.290   8.339  1.00  0.00     0.059 A 
ATOM     89  F   UNL     1      -0.762 -13.318   7.529  1.00  0.00    -0.206 F 
ATOM     90  C   UNL     1      -4.105 -14.185   8.607  1.00  0.00     0.060 A 
BRANCH  90  91
ATOM     91  S   UNL     1      -4.996 -15.550   9.384  1.00  0.00     0.124 S 
ATOM     92  O   UNL     1      -5.224 -15.031  10.728  1.00  0.00    -0.237 OA
ATOM     93  O   UNL     1      -6.181 -15.668   8.539  1.00  0.00    -0.237 OA
ATOM     94  O   UNL     1      -4.056 -16.663   9.291  1.00  0.00    -0.744 OA
ENDBRANCH  90  91
ENDBRANCH  58  83
ENDBRANCH  32  33
ENDBRANCH  25  27
ENDBRANCH  24  25
ENDBRANCH  23  24
ENDBRANCH   1  23
TORSDOF 19
