REMARK SMILES O=C(Cn1nc(C(=O)OCCOC(=O)c2ccc(-c3c4nc(c(-c5c(F)cc(S(=O)(=O)[O-])cc5F)c5ccc([nH]5)c(-c5c(F)cc(S(=O)(=O)[O-])cc5F)c5nc(c(-c6c(F)cc(S(=O)(=O)[O-])cc6F)c6ccc3[nH]6)C=C5)C=C4)cc2)c2ccccc2c1=O)Nc1ccc2c(c1)C(=O)c1ccccc1C2=O
REMARK SMILES IDX 10 1 9 2 7 3 8 4 6 5 4 6 5 7 87 8 86 9 88 10 81 11 85 12
REMARK SMILES IDX 82 13 84 14 83 15 3 16 2 17 1 18 89 19 90 21 91 22 95 23
REMARK SMILES IDX 92 24 94 25 93 26 96 27 104 28 97 29 98 30 103 31 105 32
REMARK SMILES IDX 99 33 102 34 100 35 101 36 11 37 12 38 13 39 14 40 15 41
REMARK SMILES IDX 16 42 80 43 17 44 79 45 18 46 19 47 20 48 73 49 21 50 78 51
REMARK SMILES IDX 72 52 74 53 22 54 77 55 71 56 70 57 23 59 57 60 36 61 56 62
REMARK SMILES IDX 37 63 40 64 55 65 75 66 38 67 39 68 54 70 76 71 41 72 24 73
REMARK SMILES IDX 25 74 34 75 26 76 27 77 33 78 35 79 28 80 29 81 30 82 31 83
REMARK SMILES IDX 32 84 58 85 59 86 68 87 60 88 61 89 67 90 69 91 62 92 63 93
REMARK SMILES IDX 64 94 65 95 66 96 42 97 43 98 52 99 44 100 45 101 51 102
REMARK SMILES IDX 53 103 46 104 47 105 48 106 49 107 50 108
REMARK H PARENT 89 20 74 58 40 69
REMARK Flexibility Score: inf
ROOT
ATOM      1  C   UNL     1       3.198  -4.395   3.795  1.00  0.00     0.275 C 
ENDROOT
BRANCH   1   2
ATOM      2  O   UNL     1       3.663  -3.154   3.211  1.00  0.00    -0.457 OA
BRANCH   2   3
ATOM      3  C   UNL     1       3.093  -2.056   3.755  1.00  0.00     0.359 C 
ATOM      4  O   UNL     1       2.307  -2.014   4.683  1.00  0.00    -0.244 OA
BRANCH   3   5
ATOM      5  C   UNL     1       3.564  -0.776   3.069  1.00  0.00     0.176 A 
ATOM      6  N   UNL     1       3.360   0.747   1.328  1.00  0.00    -0.219 N 
ATOM      7  N   UNL     1       2.954  -0.421   1.969  1.00  0.00    -0.161 NA
ATOM      8  C   UNL     1       4.452   1.514   1.748  1.00  0.00     0.275 A 
ATOM      9  C   UNL     1       5.101   1.119   3.008  1.00  0.00     0.051 A 
ATOM     10  O   UNL     1       4.842   2.524   1.168  1.00  0.00    -0.267 OA
ATOM     11  C   UNL     1       4.624   0.020   3.711  1.00  0.00     0.022 A 
ATOM     12  C   UNL     1       6.120   1.919   3.545  1.00  0.00     0.014 A 
ATOM     13  C   UNL     1       5.121  -0.246   4.992  1.00  0.00     0.011 A 
ATOM     14  C   UNL     1       6.636   1.635   4.806  1.00  0.00     0.001 A 
ATOM     15  C   UNL     1       6.122   0.567   5.536  1.00  0.00     0.001 A 
BRANCH   6  16
ATOM     16  C   UNL     1       2.490   1.347   0.297  1.00  0.00     0.248 C 
BRANCH  16  17
ATOM     17  C   UNL     1       1.846   0.468  -0.777  1.00  0.00     0.246 C 
ATOM     18  O   UNL     1       1.330   0.950  -1.784  1.00  0.00    -0.273 OA
ATOM     19  N   UNL     1       1.756  -0.847  -0.409  1.00  0.00    -0.324 N 
ATOM     20  H   UNL     1       2.045  -1.050   0.510  1.00  0.00     0.169 HD
BRANCH  19  21
ATOM     21  C   UNL     1       1.313  -1.938  -1.156  1.00  0.00     0.042 A 
ATOM     22  C   UNL     1       1.250  -1.966  -2.557  1.00  0.00     0.027 A 
ATOM     23  C   UNL     1       1.084  -3.094  -0.421  1.00  0.00     0.039 A 
ATOM     24  C   UNL     1       1.114  -3.191  -3.228  1.00  0.00     0.015 A 
ATOM     25  C   UNL     1       0.956  -4.301  -1.087  1.00  0.00     0.036 A 
ATOM     26  C   UNL     1       1.051  -4.365  -2.477  1.00  0.00     0.034 A 
ATOM     27  C   UNL     1       1.114  -5.523  -0.292  1.00  0.00     0.194 C 
ATOM     28  C   UNL     1       1.446  -5.663  -3.076  1.00  0.00     0.194 C 
ATOM     29  O   UNL     1       0.595  -5.670   0.802  1.00  0.00    -0.289 OA
ATOM     30  C   UNL     1       2.141  -6.426  -0.823  1.00  0.00     0.034 A 
ATOM     31  C   UNL     1       2.325  -6.488  -2.206  1.00  0.00     0.034 A 
ATOM     32  O   UNL     1       1.204  -5.957  -4.235  1.00  0.00    -0.289 OA
ATOM     33  C   UNL     1       3.084  -6.942   0.059  1.00  0.00     0.013 A 
ATOM     34  C   UNL     1       3.469  -7.089  -2.723  1.00  0.00     0.013 A 
ATOM     35  C   UNL     1       4.268  -7.459  -0.454  1.00  0.00     0.001 A 
ATOM     36  C   UNL     1       4.455  -7.543  -1.839  1.00  0.00     0.001 A 
ENDBRANCH  19  21
ENDBRANCH  16  17
ENDBRANCH   6  16
ENDBRANCH   3   5
ENDBRANCH   2   3
ENDBRANCH   1   2
BRANCH   1  37
ATOM     37  C   UNL     1       4.123  -5.554   3.424  1.00  0.00     0.275 C 
BRANCH  37  38
ATOM     38  O   UNL     1       5.336  -5.411   4.170  1.00  0.00    -0.458 OA
BRANCH  38  39
ATOM     39  C   UNL     1       6.459  -5.142   3.464  1.00  0.00     0.338 C 
ATOM     40  O   UNL     1       6.647  -5.227   2.268  1.00  0.00    -0.246 OA
BRANCH  39  41
ATOM     41  C   UNL     1       7.372  -4.556   4.449  1.00  0.00     0.060 A 
ATOM     42  C   UNL     1       8.446  -5.274   4.965  1.00  0.00     0.016 A 
ATOM     43  C   UNL     1       7.050  -3.286   4.930  1.00  0.00     0.016 A 
ATOM     44  C   UNL     1       9.158  -4.730   6.035  1.00  0.00     0.010 A 
ATOM     45  C   UNL     1       7.784  -2.735   5.969  1.00  0.00     0.010 A 
ATOM     46  C   UNL     1       8.819  -3.466   6.557  1.00  0.00    -0.014 A 
BRANCH  46  47
ATOM     47  C   UNL     1       9.565  -2.882   7.696  1.00  0.00     0.031 A 
ATOM     48  C   UNL     1       8.901  -2.645   9.026  1.00  0.00     0.074 A 
ATOM     49  C   UNL     1      10.843  -2.514   7.496  1.00  0.00     0.049 A 
ATOM     50  N   UNL     1       9.426  -2.200  10.138  1.00  0.00    -0.248 NA
ATOM     51  C   UNL     1       7.452  -2.894   9.110  1.00  0.00     0.031 C 
ATOM     52  C   UNL     1      11.543  -2.578   6.212  1.00  0.00     0.029 A 
ATOM     53  N   UNL     1      11.784  -2.038   8.369  1.00  0.00    -0.354 N 
ATOM     54  C   UNL     1       8.377  -2.096  11.044  1.00  0.00     0.074 A 
ATOM     55  C   UNL     1       7.173  -2.475  10.338  1.00  0.00     0.031 C 
ATOM     56  C   UNL     1      12.827  -2.234   6.397  1.00  0.00     0.029 A 
ATOM     57  C   UNL     1      13.031  -1.918   7.806  1.00  0.00     0.049 A 
ATOM     58  H   UNL     1      11.587  -1.805   9.305  1.00  0.00     0.167 HD
ATOM     59  C   UNL     1       8.423  -1.746  12.353  1.00  0.00     0.037 A 
ATOM     60  C   UNL     1      14.216  -1.634   8.377  1.00  0.00     0.037 A 
ATOM     61  C   UNL     1       9.644  -1.439  13.054  1.00  0.00     0.049 A 
ATOM     62  C   UNL     1      14.271  -1.403   9.858  1.00  0.00     0.074 A 
ATOM     63  C   UNL     1       9.822  -1.159  14.398  1.00  0.00     0.029 A 
ATOM     64  N   UNL     1      10.900  -1.394  12.466  1.00  0.00    -0.354 N 
ATOM     65  N   UNL     1      13.284  -1.388  10.722  1.00  0.00    -0.248 NA
ATOM     66  C   UNL     1      15.596  -1.166  10.445  1.00  0.00     0.031 C 
ATOM     67  C   UNL     1      11.186  -0.935  14.620  1.00  0.00     0.029 A 
ATOM     68  C   UNL     1      11.859  -1.099  13.420  1.00  0.00     0.049 A 
ATOM     69  H   UNL     1      11.083  -1.550  11.512  1.00  0.00     0.167 HD
ATOM     70  C   UNL     1      13.868  -1.142  11.958  1.00  0.00     0.074 A 
ATOM     71  C   UNL     1      15.297  -1.042  11.732  1.00  0.00     0.031 C 
ATOM     72  C   UNL     1      13.275  -1.003  13.168  1.00  0.00     0.037 A 
BRANCH  59  73
ATOM     73  C   UNL     1       7.130  -1.714  13.123  1.00  0.00     0.058 A 
ATOM     74  C   UNL     1       6.445  -2.895  13.453  1.00  0.00     0.135 A 
ATOM     75  C   UNL     1       6.593  -0.500  13.582  1.00  0.00     0.135 A 
ATOM     76  F   UNL     1       6.907  -4.083  13.032  1.00  0.00    -0.206 F 
ATOM     77  C   UNL     1       5.260  -2.872  14.181  1.00  0.00     0.059 A 
ATOM     78  C   UNL     1       5.421  -0.455  14.335  1.00  0.00     0.059 A 
ATOM     79  F   UNL     1       7.207   0.660  13.300  1.00  0.00    -0.206 F 
ATOM     80  C   UNL     1       4.754  -1.647  14.616  1.00  0.00     0.060 A 
BRANCH  80  81
ATOM     81  S   UNL     1       3.216  -1.636  15.562  1.00  0.00     0.124 S 
ATOM     82  O   UNL     1       2.230  -1.872  14.512  1.00  0.00    -0.237 OA
ATOM     83  O   UNL     1       3.417  -2.736  16.500  1.00  0.00    -0.237 OA
ATOM     84  O   UNL     1       3.194  -0.304  16.158  1.00  0.00    -0.744 OA
ENDBRANCH  80  81
ENDBRANCH  59  73
BRANCH  60  85
ATOM     85  C   UNL     1      15.445  -1.681   7.549  1.00  0.00     0.058 A 
ATOM     86  C   UNL     1      16.304  -2.787   7.621  1.00  0.00     0.135 A 
ATOM     87  C   UNL     1      15.740  -0.677   6.615  1.00  0.00     0.135 A 
ATOM     88  F   UNL     1      16.053  -3.774   8.495  1.00  0.00    -0.206 F 
ATOM     89  C   UNL     1      17.417  -2.898   6.798  1.00  0.00     0.059 A 
ATOM     90  C   UNL     1      16.839  -0.774   5.767  1.00  0.00     0.059 A 
ATOM     91  F   UNL     1      14.929   0.384   6.490  1.00  0.00    -0.206 F 
ATOM     92  C   UNL     1      17.673  -1.888   5.869  1.00  0.00     0.060 A 
BRANCH  92  93
ATOM     93  S   UNL     1      19.076  -2.084   4.748  1.00  0.00     0.124 S 
ATOM     94  O   UNL     1      20.199  -1.809   5.635  1.00  0.00    -0.237 OA
ATOM     95  O   UNL     1      18.929  -3.469   4.313  1.00  0.00    -0.237 OA
ATOM     96  O   UNL     1      18.822  -1.081   3.717  1.00  0.00    -0.744 OA
ENDBRANCH  92  93
ENDBRANCH  60  85
BRANCH  72  97
ATOM     97  C   UNL     1      14.166  -0.718  14.339  1.00  0.00     0.058 A 
ATOM     98  C   UNL     1      14.692   0.565  14.552  1.00  0.00     0.135 A 
ATOM     99  C   UNL     1      14.439  -1.712  15.291  1.00  0.00     0.135 A 
ATOM    100  F   UNL     1      14.462   1.546  13.664  1.00  0.00    -0.206 F 
ATOM    101  C   UNL     1      15.467   0.853  15.669  1.00  0.00     0.059 A 
ATOM    102  C   UNL     1      15.197  -1.442  16.425  1.00  0.00     0.059 A 
ATOM    103  F   UNL     1      13.951  -2.952  15.132  1.00  0.00    -0.206 F 
ATOM    104  C   UNL     1      15.711  -0.157  16.602  1.00  0.00     0.060 A 
BRANCH 104 105
ATOM    105  S   UNL     1      16.675   0.245  18.074  1.00  0.00     0.124 S 
ATOM    106  O   UNL     1      18.026   0.321  17.528  1.00  0.00    -0.237 OA
ATOM    107  O   UNL     1      16.089   1.514  18.495  1.00  0.00    -0.237 OA
ATOM    108  O   UNL     1      16.420  -0.883  18.965  1.00  0.00    -0.744 OA
ENDBRANCH 104 105
ENDBRANCH  72  97
ENDBRANCH  46  47
ENDBRANCH  39  41
ENDBRANCH  38  39
ENDBRANCH  37  38
ENDBRANCH   1  37
TORSDOF 17
