REMARK SMILES NS(=O)(=O)c1ccc(/N=C/c2ccc(O)c(C(=O)OCCOC(=O)c3ccc(-c4c5nc(c(-c6c(F)cc(S(=O)(=O)[O-])cc6F)c6ccc([nH]6)c(-c6c(F)cc(S(=O)(=O)[O-])cc6F)c6nc(c(-c7c(F)cc(S(=O)(=O)[O-])cc7F)c7ccc4[nH]7)C=C6)C=C5)cc3)c2)cc1
REMARK SMILES IDX 20 1 19 2 17 3 18 4 16 5 11 6 12 7 91 8 13 9 14 10 10 11
REMARK SMILES IDX 9 12 8 13 5 14 6 15 93 16 7 17 92 18 2 19 3 20 4 21 1 22
REMARK SMILES IDX 15 25 21 27 22 28 23 29 24 30 25 31 26 32 90 33 27 34 89 35
REMARK SMILES IDX 28 36 29 37 30 38 83 39 31 40 88 41 82 42 84 43 32 44 87 45
REMARK SMILES IDX 81 46 80 47 33 49 67 50 46 51 66 52 47 53 50 54 65 55 85 56
REMARK SMILES IDX 48 57 49 58 64 60 86 61 51 62 34 63 35 64 44 65 36 66 37 67
REMARK SMILES IDX 43 68 45 69 38 70 39 71 40 72 41 73 42 74 68 75 69 76 78 77
REMARK SMILES IDX 70 78 71 79 77 80 79 81 72 82 73 83 74 84 75 85 76 86 52 87
REMARK SMILES IDX 53 88 62 89 54 90 55 91 61 92 63 93 56 94 57 95 58 96 59 97
REMARK SMILES IDX 60 98
REMARK H PARENT 1 23 1 24 15 26 84 48 50 59
REMARK Flexibility Score: inf
ROOT
ATOM      1  C   UNL     1       6.156   6.211   8.881  1.00  0.00     0.275 C 
ENDROOT
BRANCH   1   2
ATOM      2  O   UNL     1       5.049   6.487   7.998  1.00  0.00    -0.458 OA
BRANCH   2   3
ATOM      3  C   UNL     1       3.879   6.831   8.587  1.00  0.00     0.342 C 
ATOM      4  O   UNL     1       3.654   6.914   9.786  1.00  0.00    -0.246 OA
BRANCH   3   5
ATOM      5  C   UNL     1       2.870   7.226   7.580  1.00  0.00     0.102 A 
ATOM      6  C   UNL     1       1.818   6.993   5.422  1.00  0.00    -0.006 A 
ATOM      7  C   UNL     1       0.984   8.082   5.691  1.00  0.00     0.013 A 
ATOM      8  C   UNL     1       2.803   6.596   6.334  1.00  0.00     0.029 A 
ATOM      9  C   UNL     1       1.038   8.692   6.940  1.00  0.00     0.048 A 
ATOM     10  C   UNL     1       1.925   8.212   7.899  1.00  0.00     0.130 A 
BRANCH   6  11
ATOM     11  C   UNL     1       1.512   6.178   4.232  1.00  0.00     0.119 C 
ATOM     12  N   UNL     1       2.030   5.004   4.070  1.00  0.00    -0.256 NA
BRANCH  12  13
ATOM     13  C   UNL     1       1.586   4.195   3.014  1.00  0.00     0.063 A 
ATOM     14  C   UNL     1       0.776   2.429   0.991  1.00  0.00     0.082 A 
ATOM     15  C   UNL     1       1.080   1.933   2.259  1.00  0.00     0.024 A 
ATOM     16  C   UNL     1       0.868   3.797   0.725  1.00  0.00     0.024 A 
ATOM     17  C   UNL     1       1.482   2.820   3.260  1.00  0.00     0.030 A 
ATOM     18  C   UNL     1       1.279   4.673   1.734  1.00  0.00     0.030 A 
BRANCH  14  19
ATOM     19  S   UNL     1       0.352   1.332  -0.326  1.00  0.00     0.238 S 
ATOM     20  O   UNL     1       0.941   1.826  -1.553  1.00  0.00    -0.207 OA
ATOM     21  O   UNL     1      -1.041   0.986  -0.214  1.00  0.00    -0.207 OA
BRANCH  19  22
ATOM     22  N   UNL     1       1.212  -0.071   0.024  1.00  0.00    -0.225 NA
ATOM     23  H   UNL     1       1.027  -0.772  -0.694  1.00  0.00     0.137 HD
ATOM     24  H   UNL     1       0.921  -0.430   0.933  1.00  0.00     0.137 HD
ENDBRANCH  19  22
ENDBRANCH  14  19
ENDBRANCH  12  13
ENDBRANCH   6  11
BRANCH  10  25
ATOM     25  O   UNL     1       1.762   8.720   9.159  1.00  0.00    -0.507 OA
ATOM     26  H   UNL     1       1.115   9.379   9.319  1.00  0.00     0.293 HD
ENDBRANCH  10  25
ENDBRANCH   3   5
ENDBRANCH   2   3
ENDBRANCH   1   2
BRANCH   1  27
ATOM     27  C   UNL     1       7.157   7.365   8.888  1.00  0.00     0.275 C 
BRANCH  27  28
ATOM     28  O   UNL     1       6.580   8.514   9.532  1.00  0.00    -0.458 OA
BRANCH  28  29
ATOM     29  C   UNL     1       6.347   9.579   8.731  1.00  0.00     0.338 C 
ATOM     30  O   UNL     1       6.600   9.686   7.544  1.00  0.00    -0.246 OA
BRANCH  29  31
ATOM     31  C   UNL     1       5.677  10.633   9.508  1.00  0.00     0.060 A 
ATOM     32  C   UNL     1       4.365  10.425   9.918  1.00  0.00     0.016 A 
ATOM     33  C   UNL     1       6.284  11.868   9.707  1.00  0.00     0.016 A 
ATOM     34  C   UNL     1       3.613  11.473  10.444  1.00  0.00     0.010 A 
ATOM     35  C   UNL     1       5.561  12.892  10.330  1.00  0.00     0.010 A 
ATOM     36  C   UNL     1       4.203  12.721  10.670  1.00  0.00    -0.014 A 
BRANCH  36  37
ATOM     37  C   UNL     1       3.413  13.875  11.192  1.00  0.00     0.031 A 
ATOM     38  C   UNL     1       3.373  15.159  10.404  1.00  0.00     0.074 A 
ATOM     39  C   UNL     1       2.744  13.801  12.361  1.00  0.00     0.049 A 
ATOM     40  N   UNL     1       3.027  16.361  10.786  1.00  0.00    -0.248 NA
ATOM     41  C   UNL     1       3.805  15.077   8.999  1.00  0.00     0.031 C 
ATOM     42  C   UNL     1       2.602  12.603  13.189  1.00  0.00     0.029 A 
ATOM     43  N   UNL     1       2.058  14.766  13.060  1.00  0.00    -0.354 N 
ATOM     44  C   UNL     1       3.281  17.192   9.699  1.00  0.00     0.074 A 
ATOM     45  C   UNL     1       3.798  16.352   8.639  1.00  0.00     0.031 C 
ATOM     46  C   UNL     1       1.848  12.893  14.260  1.00  0.00     0.029 A 
ATOM     47  C   UNL     1       1.547  14.320  14.256  1.00  0.00     0.049 A 
ATOM     48  H   UNL     1       1.943  15.688  12.734  1.00  0.00     0.167 HD
ATOM     49  C   UNL     1       3.111  18.533   9.604  1.00  0.00     0.037 A 
ATOM     50  C   UNL     1       0.957  14.989  15.266  1.00  0.00     0.037 A 
ATOM     51  C   UNL     1       2.533  19.341  10.647  1.00  0.00     0.049 A 
ATOM     52  C   UNL     1       0.820  16.483  15.171  1.00  0.00     0.074 A 
ATOM     53  C   UNL     1       2.314  20.707  10.661  1.00  0.00     0.029 A 
ATOM     54  N   UNL     1       2.061  18.849  11.857  1.00  0.00    -0.354 N 
ATOM     55  N   UNL     1       1.163  17.279  14.187  1.00  0.00    -0.248 NA
ATOM     56  C   UNL     1       0.248  17.175  16.335  1.00  0.00     0.031 C 
ATOM     57  C   UNL     1       1.740  21.045  11.892  1.00  0.00     0.029 A 
ATOM     58  C   UNL     1       1.559  19.884  12.627  1.00  0.00     0.049 A 
ATOM     59  H   UNL     1       2.081  17.902  12.127  1.00  0.00     0.167 HD
ATOM     60  C   UNL     1       0.826  18.562  14.600  1.00  0.00     0.074 A 
ATOM     61  C   UNL     1       0.255  18.438  15.926  1.00  0.00     0.031 C 
ATOM     62  C   UNL     1       0.973  19.736  13.937  1.00  0.00     0.037 A 
BRANCH  49  63
ATOM     63  C   UNL     1       3.619  19.210   8.358  1.00  0.00     0.058 A 
ATOM     64  C   UNL     1       3.004  19.049   7.107  1.00  0.00     0.135 A 
ATOM     65  C   UNL     1       4.765  20.022   8.421  1.00  0.00     0.135 A 
ATOM     66  F   UNL     1       1.913  18.276   6.985  1.00  0.00    -0.206 F 
ATOM     67  C   UNL     1       3.539  19.617   5.954  1.00  0.00     0.059 A 
ATOM     68  C   UNL     1       5.300  20.625   7.286  1.00  0.00     0.059 A 
ATOM     69  F   UNL     1       5.391  20.220   9.592  1.00  0.00    -0.206 F 
ATOM     70  C   UNL     1       4.697  20.393   6.052  1.00  0.00     0.060 A 
BRANCH  70  71
ATOM     71  S   UNL     1       5.419  21.075   4.545  1.00  0.00     0.124 S 
ATOM     72  O   UNL     1       6.066  19.897   3.975  1.00  0.00    -0.237 OA
ATOM     73  O   UNL     1       4.246  21.562   3.824  1.00  0.00    -0.237 OA
ATOM     74  O   UNL     1       6.321  22.110   5.038  1.00  0.00    -0.744 OA
ENDBRANCH  70  71
ENDBRANCH  49  63
BRANCH  50  75
ATOM     75  C   UNL     1       0.483  14.244  16.464  1.00  0.00     0.058 A 
ATOM     76  C   UNL     1      -0.888  14.070  16.703  1.00  0.00     0.135 A 
ATOM     77  C   UNL     1       1.383  13.635  17.354  1.00  0.00     0.135 A 
ATOM     78  F   UNL     1      -1.788  14.646  15.891  1.00  0.00    -0.206 F 
ATOM     79  C   UNL     1      -1.350  13.306  17.769  1.00  0.00     0.059 A 
ATOM     80  C   UNL     1       0.945  12.845  18.412  1.00  0.00     0.059 A 
ATOM     81  F   UNL     1       2.706  13.766  17.166  1.00  0.00    -0.206 F 
ATOM     82  C   UNL     1      -0.425  12.685  18.611  1.00  0.00     0.060 A 
BRANCH  82  83
ATOM     83  S   UNL     1      -1.036  11.612  19.930  1.00  0.00     0.124 S 
ATOM     84  O   UNL     1      -1.560  12.585  20.882  1.00  0.00    -0.237 OA
ATOM     85  O   UNL     1      -2.030  10.803  19.231  1.00  0.00    -0.237 OA
ATOM     86  O   UNL     1       0.160  10.891  20.356  1.00  0.00    -0.744 OA
ENDBRANCH  82  83
ENDBRANCH  50  75
BRANCH  62  87
ATOM     87  C   UNL     1       0.454  20.979  14.600  1.00  0.00     0.058 A 
ATOM     88  C   UNL     1       1.160  21.618  15.630  1.00  0.00     0.135 A 
ATOM     89  C   UNL     1      -0.721  21.588  14.129  1.00  0.00     0.135 A 
ATOM     90  F   UNL     1       2.283  21.069  16.121  1.00  0.00    -0.206 F 
ATOM     91  C   UNL     1       0.721  22.822  16.169  1.00  0.00     0.059 A 
ATOM     92  C   UNL     1      -1.167  22.802  14.640  1.00  0.00     0.059 A 
ATOM     93  F   UNL     1      -1.428  21.017  13.142  1.00  0.00    -0.206 F 
ATOM     94  C   UNL     1      -0.440  23.411  15.661  1.00  0.00     0.060 A 
BRANCH  94  95
ATOM     95  S   UNL     1      -0.957  25.014  16.313  1.00  0.00     0.124 S 
ATOM     96  O   UNL     1      -1.498  24.641  17.616  1.00  0.00    -0.237 OA
ATOM     97  O   UNL     1       0.297  25.761  16.338  1.00  0.00    -0.237 OA
ATOM     98  O   UNL     1      -1.936  25.479  15.335  1.00  0.00    -0.744 OA
ENDBRANCH  94  95
ENDBRANCH  62  87
ENDBRANCH  36  37
ENDBRANCH  29  31
ENDBRANCH  28  29
ENDBRANCH  27  28
ENDBRANCH   1  27
TORSDOF 19
