REMARK SMILES O=C(OCCOC(=O)c1ncc2ccccc2n1)c1ccc(-c2c3nc(c(-c4c(F)cc(S(=O)(=O)[O-])cc4F)c4ccc([nH]4)c(-c4c(F)cc(S(=O)(=O)[O-])cc4F)c4nc(c(-c5c(F)cc(S(=O)(=O)[O-])cc5F)c5ccc2[nH]5)C=C4)C=C3)cc1
REMARK SMILES IDX 3 1 2 2 1 3 19 4 20 5 84 6 21 7 83 8 22 9 23 10 24 11 77 12
REMARK SMILES IDX 25 13 82 14 76 15 78 16 26 17 81 18 75 19 74 20 27 22 61 23
REMARK SMILES IDX 40 24 60 25 41 26 44 27 59 28 79 29 42 30 43 31 58 33 80 34
REMARK SMILES IDX 45 35 28 36 29 37 38 38 30 39 31 40 37 41 39 42 32 43 33 44
REMARK SMILES IDX 34 45 35 46 36 47 62 48 63 49 72 50 64 51 65 52 71 53 73 54
REMARK SMILES IDX 66 55 67 56 68 57 69 58 70 59 46 60 47 61 56 62 48 63 49 64
REMARK SMILES IDX 55 65 57 66 50 67 51 68 52 69 53 70 54 71 4 72 5 73 6 74
REMARK SMILES IDX 7 75 8 76 9 77 10 78 18 79 11 80 17 81 12 82 16 83 13 84
REMARK SMILES IDX 15 85 14 86
REMARK H PARENT 78 21 44 32
REMARK Flexibility Score: inf
ROOT
ATOM      1  O   UNL     1       2.866   0.671  -0.759  1.00  0.00    -0.458 OA
ENDROOT
BRANCH   1   2
ATOM      2  C   UNL     1       2.917  -0.685  -0.775  1.00  0.00     0.338 C 
ATOM      3  O   UNL     1       2.141  -1.316  -1.490  1.00  0.00    -0.246 OA
BRANCH   2   4
ATOM      4  C   UNL     1       3.748  -1.448   0.201  1.00  0.00     0.060 A 
ATOM      5  C   UNL     1       5.090  -1.192   0.482  1.00  0.00     0.016 A 
ATOM      6  C   UNL     1       3.133  -2.543   0.832  1.00  0.00     0.016 A 
ATOM      7  C   UNL     1       5.774  -1.946   1.439  1.00  0.00     0.010 A 
ATOM      8  C   UNL     1       3.812  -3.300   1.793  1.00  0.00     0.010 A 
ATOM      9  C   UNL     1       5.139  -2.997   2.109  1.00  0.00    -0.014 A 
BRANCH   9  10
ATOM     10  C   UNL     1       5.921  -3.814   3.065  1.00  0.00     0.031 A 
ATOM     11  C   UNL     1       6.452  -5.147   2.627  1.00  0.00     0.074 A 
ATOM     12  C   UNL     1       6.228  -3.318   4.279  1.00  0.00     0.049 A 
ATOM     13  N   UNL     1       7.260  -5.957   3.257  1.00  0.00    -0.248 NA
ATOM     14  C   UNL     1       6.045  -5.616   1.292  1.00  0.00     0.031 C 
ATOM     15  C   UNL     1       5.806  -2.013   4.788  1.00  0.00     0.029 A 
ATOM     16  N   UNL     1       6.965  -3.850   5.305  1.00  0.00    -0.354 N 
ATOM     17  C   UNL     1       7.518  -6.993   2.370  1.00  0.00     0.074 A 
ATOM     18  C   UNL     1       6.709  -6.759   1.193  1.00  0.00     0.031 C 
ATOM     19  C   UNL     1       6.253  -1.866   6.047  1.00  0.00     0.029 A 
ATOM     20  C   UNL     1       6.998  -3.059   6.429  1.00  0.00     0.049 A 
ATOM     21  H   UNL     1       7.428  -4.717   5.243  1.00  0.00     0.167 HD
ATOM     22  C   UNL     1       8.391  -8.019   2.505  1.00  0.00     0.037 A 
ATOM     23  C   UNL     1       7.562  -3.278   7.632  1.00  0.00     0.037 A 
ATOM     24  C   UNL     1       9.158  -8.267   3.696  1.00  0.00     0.049 A 
ATOM     25  C   UNL     1       8.409  -4.506   7.816  1.00  0.00     0.074 A 
ATOM     26  C   UNL     1      10.048  -9.294   3.953  1.00  0.00     0.029 A 
ATOM     27  N   UNL     1       9.115  -7.479   4.837  1.00  0.00    -0.354 N 
ATOM     28  N   UNL     1       8.674  -5.457   6.951  1.00  0.00    -0.248 NA
ATOM     29  C   UNL     1       9.064  -4.674   9.119  1.00  0.00     0.031 C 
ATOM     30  C   UNL     1      10.517  -9.146   5.264  1.00  0.00     0.029 A 
ATOM     31  C   UNL     1       9.948  -8.005   5.810  1.00  0.00     0.049 A 
ATOM     32  H   UNL     1       8.572  -6.664   4.941  1.00  0.00     0.167 HD
ATOM     33  C   UNL     1       9.560  -6.314   7.591  1.00  0.00     0.074 A 
ATOM     34  C   UNL     1       9.783  -5.770   8.916  1.00  0.00     0.031 C 
ATOM     35  C   UNL     1      10.150  -7.441   7.121  1.00  0.00     0.037 A 
BRANCH  22  36
ATOM     36  C   UNL     1       8.564  -8.925   1.320  1.00  0.00     0.058 A 
ATOM     37  C   UNL     1       9.261  -8.493   0.179  1.00  0.00     0.135 A 
ATOM     38  C   UNL     1       8.033 -10.222   1.313  1.00  0.00     0.135 A 
ATOM     39  F   UNL     1       9.770  -7.252   0.127  1.00  0.00    -0.206 F 
ATOM     40  C   UNL     1       9.402  -9.308  -0.939  1.00  0.00     0.059 A 
ATOM     41  C   UNL     1       8.179 -11.062   0.212  1.00  0.00     0.059 A 
ATOM     42  F   UNL     1       7.351 -10.679   2.375  1.00  0.00    -0.206 F 
ATOM     43  C   UNL     1       8.853 -10.590  -0.914  1.00  0.00     0.060 A 
BRANCH  43  44
ATOM     44  S   UNL     1       9.031 -11.630  -2.379  1.00  0.00     0.124 S 
ATOM     45  O   UNL     1       8.089 -11.000  -3.299  1.00  0.00    -0.237 OA
ATOM     46  O   UNL     1      10.443 -11.468  -2.708  1.00  0.00    -0.237 OA
ATOM     47  O   UNL     1       8.649 -12.956  -1.902  1.00  0.00    -0.744 OA
ENDBRANCH  43  44
ENDBRANCH  22  36
BRANCH  23  48
ATOM     48  C   UNL     1       7.338  -2.327   8.754  1.00  0.00     0.058 A 
ATOM     49  C   UNL     1       8.355  -1.490   9.233  1.00  0.00     0.135 A 
ATOM     50  C   UNL     1       6.089  -2.267   9.392  1.00  0.00     0.135 A 
ATOM     51  F   UNL     1       9.569  -1.517   8.663  1.00  0.00    -0.206 F 
ATOM     52  C   UNL     1       8.151  -0.646  10.322  1.00  0.00     0.059 A 
ATOM     53  C   UNL     1       5.853  -1.416  10.466  1.00  0.00     0.059 A 
ATOM     54  F   UNL     1       5.082  -3.047   8.971  1.00  0.00    -0.206 F 
ATOM     55  C   UNL     1       6.896  -0.620  10.935  1.00  0.00     0.060 A 
BRANCH  55  56
ATOM     56  S   UNL     1       6.634   0.480  12.344  1.00  0.00     0.124 S 
ATOM     57  O   UNL     1       7.340  -0.230  13.404  1.00  0.00    -0.237 OA
ATOM     58  O   UNL     1       7.251   1.721  11.884  1.00  0.00    -0.237 OA
ATOM     59  O   UNL     1       5.180   0.520  12.469  1.00  0.00    -0.744 OA
ENDBRANCH  55  56
ENDBRANCH  23  48
BRANCH  35  60
ATOM     60  C   UNL     1      11.115  -8.133   8.038  1.00  0.00     0.058 A 
ATOM     61  C   UNL     1      10.675  -8.880   9.141  1.00  0.00     0.135 A 
ATOM     62  C   UNL     1      12.496  -8.065   7.795  1.00  0.00     0.135 A 
ATOM     63  F   UNL     1       9.364  -8.966   9.418  1.00  0.00    -0.206 F 
ATOM     64  C   UNL     1      11.574  -9.514   9.991  1.00  0.00     0.059 A 
ATOM     65  C   UNL     1      13.412  -8.711   8.618  1.00  0.00     0.059 A 
ATOM     66  F   UNL     1      12.966  -7.370   6.747  1.00  0.00    -0.206 F 
ATOM     67  C   UNL     1      12.941  -9.421   9.722  1.00  0.00     0.060 A 
BRANCH  67  68
ATOM     68  S   UNL     1      14.101 -10.261  10.820  1.00  0.00     0.124 S 
ATOM     69  O   UNL     1      14.147  -9.344  11.954  1.00  0.00    -0.237 OA
ATOM     70  O   UNL     1      13.436 -11.538  11.064  1.00  0.00    -0.237 OA
ATOM     71  O   UNL     1      15.322 -10.341  10.024  1.00  0.00    -0.744 OA
ENDBRANCH  67  68
ENDBRANCH  35  60
ENDBRANCH   9  10
ENDBRANCH   2   4
ENDBRANCH   1   2
BRANCH   1  72
ATOM     72  C   UNL     1       3.933   1.580  -0.435  1.00  0.00     0.275 C 
BRANCH  72  73
ATOM     73  C   UNL     1       3.910   2.113   1.000  1.00  0.00     0.275 C 
BRANCH  73  74
ATOM     74  O   UNL     1       3.472   1.140   1.954  1.00  0.00    -0.456 OA
BRANCH  74  75
ATOM     75  C   UNL     1       2.143   1.197   2.263  1.00  0.00     0.376 C 
ATOM     76  O   UNL     1       1.349   2.037   1.861  1.00  0.00    -0.242 OA
BRANCH  75  77
ATOM     77  C   UNL     1       1.773  -0.011   3.058  1.00  0.00     0.239 A 
ATOM     78  N   UNL     1       0.868  -0.831   2.484  1.00  0.00    -0.230 NA
ATOM     79  N   UNL     1       2.418  -0.225   4.224  1.00  0.00    -0.222 NA
ATOM     80  C   UNL     1       0.661  -1.992   3.125  1.00  0.00     0.124 A 
ATOM     81  C   UNL     1       2.149  -1.383   4.850  1.00  0.00     0.075 A 
ATOM     82  C   UNL     1       1.292  -2.349   4.306  1.00  0.00     0.019 A 
ATOM     83  C   UNL     1       2.739  -1.674   6.073  1.00  0.00     0.029 A 
ATOM     84  C   UNL     1       1.106  -3.599   4.925  1.00  0.00     0.012 A 
ATOM     85  C   UNL     1       2.561  -2.912   6.704  1.00  0.00     0.002 A 
ATOM     86  C   UNL     1       1.758  -3.883   6.119  1.00  0.00     0.001 A 
ENDBRANCH  75  77
ENDBRANCH  74  75
ENDBRANCH  73  74
ENDBRANCH  72  73
ENDBRANCH   1  72
TORSDOF 14
