REMARK SMILES Cc1c(CC(=O)N[C@@H](C)C(=O)OCCOC(=O)c2ccc(-c3c4nc(c(-c5c(F)cc(S(=O)(=O)[O-])cc5F)c5ccc([nH]5)c(-c5c(F)cc(S(=O)(=O)[O-])cc5F)c5nc(c(-c6c(F)cc(S(=O)(=O)[O-])cc6F)c6ccc3[nH]6)C=C5)C=C4)cc2)c(=O)oc2cc3oc4c(c3cc12)CCCC4
REMARK SMILES IDX 13 1 12 2 10 3 11 4 8 5 9 6 7 7 5 8 6 9 4 11 3 12 1 13 2 14
REMARK SMILES IDX 95 15 84 16 87 17 94 18 85 19 86 20 88 21 93 22 89 23 92 24
REMARK SMILES IDX 90 25 91 26 96 27 99 28 97 29 98 30 14 31 15 32 16 33 17 34
REMARK SMILES IDX 18 35 19 36 83 37 20 38 82 39 21 40 22 41 23 42 76 43 24 44
REMARK SMILES IDX 81 45 75 46 77 47 25 48 80 49 74 50 73 51 26 53 60 54 39 55
REMARK SMILES IDX 59 56 40 57 43 58 58 59 78 60 41 61 42 62 57 64 79 65 44 66
REMARK SMILES IDX 27 67 28 68 37 69 29 70 30 71 36 72 38 73 31 74 32 75 33 76
REMARK SMILES IDX 34 77 35 78 61 79 62 80 71 81 63 82 64 83 70 84 72 85 65 86
REMARK SMILES IDX 66 87 67 88 68 89 69 90 45 91 46 92 55 93 47 94 48 95 54 96
REMARK SMILES IDX 56 97 49 98 50 99 51 100 52 101 53 102
REMARK H PARENT 7 10 77 52 43 63
REMARK Flexibility Score: inf
ROOT
ATOM      1  C   UNL     1       3.403   4.968   5.559  1.00  0.00     0.274 C 
ENDROOT
BRANCH   1   2
ATOM      2  O   UNL     1       3.199   3.939   4.575  1.00  0.00    -0.461 OA
BRANCH   2   3
ATOM      3  C   UNL     1       2.825   2.718   5.047  1.00  0.00     0.328 C 
ATOM      4  O   UNL     1       2.850   2.388   6.225  1.00  0.00    -0.250 OA
BRANCH   3   5
ATOM      5  C   UNL     1       2.368   1.784   3.920  1.00  0.00     0.189 C 
ATOM      6  C   UNL     1       3.296   0.579   3.870  1.00  0.00     0.043 C 
BRANCH   5   7
ATOM      7  N   UNL     1       2.308   2.444   2.612  1.00  0.00    -0.343 N 
ATOM      8  C   UNL     1       1.241   2.622   1.779  1.00  0.00     0.225 C 
ATOM      9  O   UNL     1       1.404   3.315   0.769  1.00  0.00    -0.275 OA
ATOM     10  H   UNL     1       3.162   2.812   2.287  1.00  0.00     0.164 HD
BRANCH   8  11
ATOM     11  C   UNL     1      -0.098   1.931   2.055  1.00  0.00     0.143 C 
BRANCH  11  12
ATOM     12  C   UNL     1       0.059   0.432   2.147  1.00  0.00     0.051 A 
ATOM     13  C   UNL     1       1.122   0.203  -0.124  1.00  0.00     0.046 C 
ATOM     14  C   UNL     1       0.726  -0.308   1.241  1.00  0.00    -0.029 A 
ATOM     15  C   UNL     1       1.039  -1.705   1.568  1.00  0.00     0.022 A 
ATOM     16  C   UNL     1      -0.541  -0.184   3.362  1.00  0.00     0.340 A 
ATOM     17  C   UNL     1       0.450  -2.298   2.686  1.00  0.00     0.142 A 
ATOM     18  C   UNL     1       1.835  -2.482   0.721  1.00  0.00     0.024 A 
ATOM     19  O   UNL     1      -1.218   0.478   4.139  1.00  0.00    -0.246 OA
ATOM     20  O   UNL     1      -0.303  -1.527   3.587  1.00  0.00    -0.422 OA
ATOM     21  C   UNL     1       0.472  -3.675   2.933  1.00  0.00     0.095 A 
ATOM     22  C   UNL     1       1.713  -3.872   0.824  1.00  0.00     0.025 A 
ATOM     23  C   UNL     1       0.997  -4.417   1.886  1.00  0.00     0.138 A 
ATOM     24  C   UNL     1       1.882  -4.907  -0.128  1.00  0.00     0.001 A 
ATOM     25  O   UNL     1       0.701  -5.724   1.626  1.00  0.00    -0.461 OA
ATOM     26  C   UNL     1       1.057  -5.913   0.332  1.00  0.00     0.108 A 
ATOM     27  C   UNL     1       2.153  -4.787  -1.584  1.00  0.00     0.040 C 
ATOM     28  C   UNL     1       0.114  -6.622  -0.579  1.00  0.00     0.076 C 
ATOM     29  C   UNL     1       0.807  -4.813  -2.342  1.00  0.00     0.005 C 
ATOM     30  C   UNL     1      -0.353  -5.545  -1.601  1.00  0.00     0.008 C 
ENDBRANCH  11  12
ENDBRANCH   8  11
ENDBRANCH   5   7
ENDBRANCH   3   5
ENDBRANCH   2   3
ENDBRANCH   1   2
BRANCH   1  31
ATOM     31  C   UNL     1       2.285   6.006   5.447  1.00  0.00     0.275 C 
BRANCH  31  32
ATOM     32  O   UNL     1       1.082   5.518   6.062  1.00  0.00    -0.458 OA
BRANCH  32  33
ATOM     33  C   UNL     1       0.261   4.794   5.259  1.00  0.00     0.338 C 
ATOM     34  O   UNL     1       0.360   4.597   4.073  1.00  0.00    -0.246 OA
BRANCH  33  35
ATOM     35  C   UNL     1      -0.718   4.138   6.134  1.00  0.00     0.060 A 
ATOM     36  C   UNL     1      -1.699   4.886   6.779  1.00  0.00     0.016 A 
ATOM     37  C   UNL     1      -0.617   2.760   6.325  1.00  0.00     0.016 A 
ATOM     38  C   UNL     1      -2.584   4.234   7.632  1.00  0.00     0.010 A 
ATOM     39  C   UNL     1      -1.497   2.111   7.178  1.00  0.00     0.010 A 
ATOM     40  C   UNL     1      -2.485   2.845   7.832  1.00  0.00    -0.014 A 
BRANCH  40  41
ATOM     41  C   UNL     1      -3.442   2.206   8.745  1.00  0.00     0.031 A 
ATOM     42  C   UNL     1      -4.060   0.923   8.276  1.00  0.00     0.074 A 
ATOM     43  C   UNL     1      -3.267   2.376  10.071  1.00  0.00     0.049 A 
ATOM     44  N   UNL     1      -3.475  -0.239   8.342  1.00  0.00    -0.248 NA
ATOM     45  C   UNL     1      -5.294   0.914   7.489  1.00  0.00     0.031 C 
ATOM     46  C   UNL     1      -1.949   2.449  10.719  1.00  0.00     0.029 A 
ATOM     47  N   UNL     1      -4.157   2.286  11.111  1.00  0.00    -0.354 N 
ATOM     48  C   UNL     1      -4.237  -1.129   7.601  1.00  0.00     0.074 A 
ATOM     49  C   UNL     1      -5.356  -0.367   7.093  1.00  0.00     0.031 C 
ATOM     50  C   UNL     1      -2.106   2.224  12.038  1.00  0.00     0.029 A 
ATOM     51  C   UNL     1      -3.529   2.137  12.344  1.00  0.00     0.049 A 
ATOM     52  H   UNL     1      -5.134   2.322  10.997  1.00  0.00     0.167 HD
ATOM     53  C   UNL     1      -3.926  -2.445   7.452  1.00  0.00     0.037 A 
ATOM     54  C   UNL     1      -4.069   1.475  13.403  1.00  0.00     0.037 A 
ATOM     55  C   UNL     1      -2.751  -2.889   8.140  1.00  0.00     0.049 A 
ATOM     56  C   UNL     1      -3.872   0.046  12.945  1.00  0.00     0.074 A 
ATOM     57  C   UNL     1      -1.414  -3.069   7.861  1.00  0.00     0.029 A 
ATOM     58  N   UNL     1      -2.875  -3.214   9.471  1.00  0.00    -0.354 N 
ATOM     59  N   UNL     1      -2.756  -0.635  13.001  1.00  0.00    -0.248 NA
ATOM     60  C   UNL     1      -4.878  -0.511  12.037  1.00  0.00     0.031 C 
ATOM     61  C   UNL     1      -0.753  -3.036   9.130  1.00  0.00     0.029 A 
ATOM     62  C   UNL     1      -1.730  -2.783  10.092  1.00  0.00     0.049 A 
ATOM     63  H   UNL     1      -3.638  -3.669   9.896  1.00  0.00     0.167 HD
ATOM     64  C   UNL     1      -2.815  -1.534  11.931  1.00  0.00     0.074 A 
ATOM     65  C   UNL     1      -4.157  -1.421  11.396  1.00  0.00     0.031 C 
ATOM     66  C   UNL     1      -1.732  -2.183  11.409  1.00  0.00     0.037 A 
BRANCH  53  67
ATOM     67  C   UNL     1      -4.807  -3.453   6.823  1.00  0.00     0.058 A 
ATOM     68  C   UNL     1      -5.578  -4.269   7.667  1.00  0.00     0.135 A 
ATOM     69  C   UNL     1      -4.738  -3.785   5.466  1.00  0.00     0.135 A 
ATOM     70  F   UNL     1      -5.661  -3.988   8.978  1.00  0.00    -0.206 F 
ATOM     71  C   UNL     1      -6.210  -5.411   7.199  1.00  0.00     0.059 A 
ATOM     72  C   UNL     1      -5.374  -4.923   4.969  1.00  0.00     0.059 A 
ATOM     73  F   UNL     1      -4.007  -3.040   4.621  1.00  0.00    -0.206 F 
ATOM     74  C   UNL     1      -6.082  -5.745   5.851  1.00  0.00     0.060 A 
BRANCH  74  75
ATOM     75  S   UNL     1      -6.816  -7.298   5.294  1.00  0.00     0.124 S 
ATOM     76  O   UNL     1      -6.036  -8.282   6.036  1.00  0.00    -0.237 OA
ATOM     77  O   UNL     1      -8.206  -7.143   5.712  1.00  0.00    -0.237 OA
ATOM     78  O   UNL     1      -6.595  -7.281   3.851  1.00  0.00    -0.744 OA
ENDBRANCH  74  75
ENDBRANCH  53  67
BRANCH  54  79
ATOM     79  C   UNL     1      -5.373   2.055  13.867  1.00  0.00     0.058 A 
ATOM     80  C   UNL     1      -5.423   3.446  14.118  1.00  0.00     0.135 A 
ATOM     81  C   UNL     1      -6.579   1.360  14.028  1.00  0.00     0.135 A 
ATOM     82  F   UNL     1      -4.294   4.176  14.121  1.00  0.00    -0.206 F 
ATOM     83  C   UNL     1      -6.617   4.127  14.331  1.00  0.00     0.059 A 
ATOM     84  C   UNL     1      -7.795   2.021  14.220  1.00  0.00     0.059 A 
ATOM     85  F   UNL     1      -6.619   0.022  13.971  1.00  0.00    -0.206 F 
ATOM     86  C   UNL     1      -7.807   3.409  14.327  1.00  0.00     0.060 A 
BRANCH  86  87
ATOM     87  S   UNL     1      -9.359   4.327  14.392  1.00  0.00     0.124 S 
ATOM     88  O   UNL     1      -9.266   4.989  15.689  1.00  0.00    -0.237 OA
ATOM     89  O   UNL     1      -9.238   5.196  13.225  1.00  0.00    -0.237 OA
ATOM     90  O   UNL     1     -10.374   3.284  14.289  1.00  0.00    -0.744 OA
ENDBRANCH  86  87
ENDBRANCH  54  79
BRANCH  66  91
ATOM     91  C   UNL     1      -0.448  -2.050  12.156  1.00  0.00     0.058 A 
ATOM     92  C   UNL     1      -0.265  -2.723  13.370  1.00  0.00     0.135 A 
ATOM     93  C   UNL     1       0.646  -1.345  11.626  1.00  0.00     0.135 A 
ATOM     94  F   UNL     1      -1.273  -3.423  13.917  1.00  0.00    -0.206 F 
ATOM     95  C   UNL     1       0.969  -2.736  14.014  1.00  0.00     0.059 A 
ATOM     96  C   UNL     1       1.896  -1.366  12.239  1.00  0.00     0.059 A 
ATOM     97  F   UNL     1       0.529  -0.661  10.475  1.00  0.00    -0.206 F 
ATOM     98  C   UNL     1       2.050  -2.074  13.429  1.00  0.00     0.060 A 
BRANCH  98  99
ATOM     99  S   UNL     1       3.675  -2.225  14.201  1.00  0.00     0.124 S 
ATOM    100  O   UNL     1       3.510  -1.436  15.417  1.00  0.00    -0.237 OA
ATOM    101  O   UNL     1       3.794  -3.668  14.395  1.00  0.00    -0.237 OA
ATOM    102  O   UNL     1       4.584  -1.661  13.207  1.00  0.00    -0.744 OA
ENDBRANCH  98  99
ENDBRANCH  66  91
ENDBRANCH  40  41
ENDBRANCH  33  35
ENDBRANCH  32  33
ENDBRANCH  31  32
ENDBRANCH   1  31
TORSDOF 17
