REMARK SMILES O=C(Cn1nc(-c2ccc(Br)cc2)ccc1=O)N[C@H](C(=O)OCCOC(=O)c1ccc(-c2c3nc(c(-c4c(F)cc(S(=O)(=O)[O-])cc4F)c4ccc([nH]4)c(-c4c(F)cc(S(=O)(=O)[O-])cc4F)c4nc(c(-c5c(F)cc(S(=O)(=O)[O-])cc5F)c5ccc2[nH]5)C=C4)C=C3)cc1)c1ccccc1
REMARK SMILES IDX 23 1 22 2 20 3 21 4 19 5 18 6 1 7 2 8 3 10 4 11 5 12 16 13
REMARK SMILES IDX 6 14 15 15 17 16 14 17 7 18 8 19 13 20 9 21 12 22 10 23
REMARK SMILES IDX 11 24 94 25 95 26 99 27 96 28 98 29 97 30 24 31 25 32 26 33
REMARK SMILES IDX 27 34 28 35 29 36 93 37 30 38 92 39 31 40 32 41 33 42 86 43
REMARK SMILES IDX 34 44 91 45 85 46 87 47 35 48 90 49 84 50 83 51 36 53 70 54
REMARK SMILES IDX 49 55 69 56 50 57 53 58 68 59 88 60 51 61 52 62 67 64 89 65
REMARK SMILES IDX 54 66 37 67 38 68 47 69 39 70 40 71 46 72 48 73 41 74 42 75
REMARK SMILES IDX 43 76 44 77 45 78 71 79 72 80 81 81 73 82 74 83 80 84 82 85
REMARK SMILES IDX 75 86 76 87 77 88 78 89 79 90 55 91 56 92 65 93 57 94 58 95
REMARK SMILES IDX 64 96 66 97 59 98 60 99 61 100 62 101 63 102
REMARK H PARENT 18 9 87 52 53 63
REMARK Flexibility Score: inf
ROOT
ATOM      1  C   UNL     1       2.457   0.313   0.878  1.00  0.00     0.274 C 
ENDROOT
BRANCH   1   2
ATOM      2  O   UNL     1       1.938   0.581  -0.444  1.00  0.00    -0.460 OA
BRANCH   2   3
ATOM      3  C   UNL     1       2.815   1.234  -1.271  1.00  0.00     0.333 C 
ATOM      4  O   UNL     1       3.961   1.518  -0.934  1.00  0.00    -0.249 OA
BRANCH   3   5
ATOM      5  C   UNL     1       2.152   1.666  -2.605  1.00  0.00     0.223 C 
BRANCH   5   6
ATOM      6  N   UNL     1       2.876   2.869  -3.038  1.00  0.00    -0.337 N 
ATOM      7  O   UNL     1       4.772   1.800  -3.792  1.00  0.00    -0.273 OA
ATOM      8  C   UNL     1       4.159   2.840  -3.562  1.00  0.00     0.242 C 
ATOM      9  H   UNL     1       2.427   3.740  -2.951  1.00  0.00     0.164 HD
BRANCH   8  10
ATOM     10  C   UNL     1       4.829   4.207  -3.679  1.00  0.00     0.248 C 
BRANCH  10  11
ATOM     11  N   UNL     1       3.848   5.292  -3.728  1.00  0.00    -0.220 N 
ATOM     12  N   UNL     1       3.328   5.707  -2.518  1.00  0.00    -0.169 NA
ATOM     13  C   UNL     1       3.438   5.786  -4.958  1.00  0.00     0.267 A 
ATOM     14  C   UNL     1       2.448   6.657  -2.535  1.00  0.00     0.091 A 
ATOM     15  C   UNL     1       2.468   6.901  -4.912  1.00  0.00     0.075 A 
ATOM     16  O   UNL     1       3.812   5.374  -6.051  1.00  0.00    -0.268 OA
ATOM     17  C   UNL     1       1.973   7.339  -3.754  1.00  0.00     0.036 A 
BRANCH  14  18
ATOM     18  C   UNL     1       1.872   7.111  -1.250  1.00  0.00     0.002 A 
ATOM     19  C   UNL     1       2.739   7.383  -0.186  1.00  0.00     0.011 A 
ATOM     20  C   UNL     1       0.487   7.203  -1.075  1.00  0.00     0.011 A 
ATOM     21  C   UNL     1       2.222   7.774   1.050  1.00  0.00     0.016 A 
ATOM     22  C   UNL     1      -0.028   7.583   0.167  1.00  0.00     0.016 A 
ATOM     23  C   UNL     1       0.842   7.870   1.220  1.00  0.00     0.018 A 
ATOM     24  Br  UNL     1       0.139   8.381   2.900  1.00  0.00    -0.051 Br
ENDBRANCH  14  18
ENDBRANCH  10  11
ENDBRANCH   8  10
ENDBRANCH   5   6
BRANCH   5  25
ATOM     25  C   UNL     1       1.980   0.621  -3.705  1.00  0.00    -0.014 A 
ATOM     26  C   UNL     1       2.007   1.006  -5.063  1.00  0.00     0.006 A 
ATOM     27  C   UNL     1       1.767  -0.739  -3.430  1.00  0.00     0.006 A 
ATOM     28  C   UNL     1       1.968   0.065  -6.093  1.00  0.00     0.000 A 
ATOM     29  C   UNL     1       1.731  -1.685  -4.464  1.00  0.00     0.000 A 
ATOM     30  C   UNL     1       1.853  -1.285  -5.792  1.00  0.00     0.000 A 
ENDBRANCH   5  25
ENDBRANCH   3   5
ENDBRANCH   2   3
ENDBRANCH   1   2
BRANCH   1  31
ATOM     31  C   UNL     1       2.975  -1.117   1.011  1.00  0.00     0.275 C 
BRANCH  31  32
ATOM     32  O   UNL     1       3.955  -1.377  -0.002  1.00  0.00    -0.458 OA
BRANCH  32  33
ATOM     33  C   UNL     1       3.742  -2.469  -0.768  1.00  0.00     0.338 C 
ATOM     34  O   UNL     1       2.854  -3.301  -0.638  1.00  0.00    -0.246 OA
BRANCH  33  35
ATOM     35  C   UNL     1       4.761  -2.527  -1.825  1.00  0.00     0.060 A 
ATOM     36  C   UNL     1       5.487  -3.701  -2.017  1.00  0.00     0.016 A 
ATOM     37  C   UNL     1       4.944  -1.441  -2.681  1.00  0.00     0.016 A 
ATOM     38  C   UNL     1       6.429  -3.760  -3.046  1.00  0.00     0.010 A 
ATOM     39  C   UNL     1       5.809  -1.536  -3.765  1.00  0.00     0.010 A 
ATOM     40  C   UNL     1       6.591  -2.680  -3.934  1.00  0.00    -0.014 A 
BRANCH  40  41
ATOM     41  C   UNL     1       7.588  -2.743  -5.029  1.00  0.00     0.031 A 
ATOM     42  C   UNL     1       8.782  -1.826  -5.023  1.00  0.00     0.074 A 
ATOM     43  C   UNL     1       7.410  -3.624  -6.030  1.00  0.00     0.049 A 
ATOM     44  N   UNL     1       9.817  -1.819  -5.825  1.00  0.00    -0.248 NA
ATOM     45  C   UNL     1       8.818  -0.772  -3.996  1.00  0.00     0.031 C 
ATOM     46  C   UNL     1       6.246  -4.500  -6.186  1.00  0.00     0.029 A 
ATOM     47  N   UNL     1       8.210  -3.940  -7.098  1.00  0.00    -0.354 N 
ATOM     48  C   UNL     1      10.624  -0.773  -5.395  1.00  0.00     0.074 A 
ATOM     49  C   UNL     1       9.935  -0.128  -4.301  1.00  0.00     0.031 C 
ATOM     50  C   UNL     1       6.431  -5.289  -7.256  1.00  0.00     0.029 A 
ATOM     51  C   UNL     1       7.716  -4.964  -7.869  1.00  0.00     0.049 A 
ATOM     52  H   UNL     1       9.056  -3.477  -7.294  1.00  0.00     0.167 HD
ATOM     53  C   UNL     1      11.844  -0.403  -5.851  1.00  0.00     0.037 A 
ATOM     54  C   UNL     1       8.253  -5.589  -8.934  1.00  0.00     0.037 A 
ATOM     55  C   UNL     1      12.524  -1.053  -6.939  1.00  0.00     0.049 A 
ATOM     56  C   UNL     1       9.620  -5.182  -9.407  1.00  0.00     0.074 A 
ATOM     57  C   UNL     1      13.785  -0.795  -7.446  1.00  0.00     0.029 A 
ATOM     58  N   UNL     1      11.994  -2.091  -7.693  1.00  0.00    -0.354 N 
ATOM     59  N   UNL     1      10.412  -4.252  -8.930  1.00  0.00    -0.248 NA
ATOM     60  C   UNL     1      10.172  -5.917 -10.552  1.00  0.00     0.031 C 
ATOM     61  C   UNL     1      14.005  -1.656  -8.527  1.00  0.00     0.029 A 
ATOM     62  C   UNL     1      12.896  -2.475  -8.670  1.00  0.00     0.049 A 
ATOM     63  H   UNL     1      11.106  -2.493  -7.554  1.00  0.00     0.167 HD
ATOM     64  C   UNL     1      11.563  -4.298  -9.707  1.00  0.00     0.074 A 
ATOM     65  C   UNL     1      11.370  -5.360 -10.674  1.00  0.00     0.031 C 
ATOM     66  C   UNL     1      12.679  -3.531  -9.628  1.00  0.00     0.037 A 
BRANCH  53  67
ATOM     67  C   UNL     1      12.530   0.739  -5.154  1.00  0.00     0.058 A 
ATOM     68  C   UNL     1      13.058   0.591  -3.860  1.00  0.00     0.135 A 
ATOM     69  C   UNL     1      12.697   1.979  -5.789  1.00  0.00     0.135 A 
ATOM     70  F   UNL     1      12.915  -0.570  -3.200  1.00  0.00    -0.206 F 
ATOM     71  C   UNL     1      13.708   1.637  -3.214  1.00  0.00     0.059 A 
ATOM     72  C   UNL     1      13.364   3.034  -5.169  1.00  0.00     0.059 A 
ATOM     73  F   UNL     1      12.211   2.177  -7.024  1.00  0.00    -0.206 F 
ATOM     74  C   UNL     1      13.857   2.856  -3.877  1.00  0.00     0.060 A 
BRANCH  74  75
ATOM     75  S   UNL     1      14.720   4.196  -3.029  1.00  0.00     0.124 S 
ATOM     76  O   UNL     1      13.731   4.600  -2.034  1.00  0.00    -0.237 OA
ATOM     77  O   UNL     1      15.905   3.524  -2.506  1.00  0.00    -0.237 OA
ATOM     78  O   UNL     1      14.972   5.165  -4.091  1.00  0.00    -0.744 OA
ENDBRANCH  74  75
ENDBRANCH  53  67
BRANCH  54  79
ATOM     79  C   UNL     1       7.518  -6.711  -9.573  1.00  0.00     0.058 A 
ATOM     80  C   UNL     1       7.923  -8.038  -9.373  1.00  0.00     0.135 A 
ATOM     81  C   UNL     1       6.371  -6.484 -10.349  1.00  0.00     0.135 A 
ATOM     82  F   UNL     1       9.015  -8.303  -8.640  1.00  0.00    -0.206 F 
ATOM     83  C   UNL     1       7.220  -9.105  -9.924  1.00  0.00     0.059 A 
ATOM     84  C   UNL     1       5.640  -7.535 -10.895  1.00  0.00     0.059 A 
ATOM     85  F   UNL     1       5.934  -5.232 -10.554  1.00  0.00    -0.206 F 
ATOM     86  C   UNL     1       6.075  -8.843 -10.680  1.00  0.00     0.060 A 
BRANCH  86  87
ATOM     87  S   UNL     1       5.132 -10.239 -11.331  1.00  0.00     0.124 S 
ATOM     88  O   UNL     1       5.997 -10.700 -12.411  1.00  0.00    -0.237 OA
ATOM     89  O   UNL     1       5.039 -11.116 -10.168  1.00  0.00    -0.237 OA
ATOM     90  O   UNL     1       3.873  -9.628 -11.748  1.00  0.00    -0.744 OA
ENDBRANCH  86  87
ENDBRANCH  54  79
BRANCH  66  91
ATOM     91  C   UNL     1      13.778  -3.815 -10.610  1.00  0.00     0.058 A 
ATOM     92  C   UNL     1      13.676  -3.425 -11.954  1.00  0.00     0.135 A 
ATOM     93  C   UNL     1      14.966  -4.435 -10.192  1.00  0.00     0.135 A 
ATOM     94  F   UNL     1      12.557  -2.834 -12.403  1.00  0.00    -0.206 F 
ATOM     95  C   UNL     1      14.707  -3.659 -12.857  1.00  0.00     0.059 A 
ATOM     96  C   UNL     1      16.019  -4.659 -11.073  1.00  0.00     0.059 A 
ATOM     97  F   UNL     1      15.117  -4.817  -8.914  1.00  0.00    -0.206 F 
ATOM     98  C   UNL     1      15.875  -4.277 -12.407  1.00  0.00     0.060 A 
BRANCH  98  99
ATOM     99  S   UNL     1      17.218  -4.548 -13.582  1.00  0.00     0.124 S 
ATOM    100  O   UNL     1      16.707  -5.674 -14.358  1.00  0.00    -0.237 OA
ATOM    101  O   UNL     1      17.282  -3.271 -14.287  1.00  0.00    -0.237 OA
ATOM    102  O   UNL     1      18.364  -4.843 -12.727  1.00  0.00    -0.744 OA
ENDBRANCH  98  99
ENDBRANCH  66  91
ENDBRANCH  40  41
ENDBRANCH  33  35
ENDBRANCH  32  33
ENDBRANCH  31  32
ENDBRANCH   1  31
TORSDOF 19
