REMARK SMILES COc1ccc2c(c1)OC[C@]1(C(=O)OCCOC(=O)c3ccc(-c4c5nc(c(-c6c(F)cc(S(=O)(=O)[O-])cc6F)c6ccc([nH]6)c(-c6c(F)cc(S(=O)(=O)[O-])cc6F)c6nc(c(-c7c(F)cc(S(=O)(=O)[O-])cc7F)c7ccc4[nH]7)C=C6)C=C5)cc3)C[N@@H+](Cc3cc(C(C)(C)C)n[nH]3)C[C@H]21
REMARK SMILES IDX 15 1 14 2 12 3 13 4 11 5 3 6 4 7 8 8 5 9 7 10 6 11 9 12
REMARK SMILES IDX 99 13 10 14 98 15 86 16 87 17 2 19 1 20 88 21 89 22 90 23
REMARK SMILES IDX 97 24 91 25 96 26 92 28 93 29 94 30 95 31 16 32 17 33 18 34
REMARK SMILES IDX 19 35 20 36 21 37 85 38 22 39 84 40 23 41 24 42 25 43 78 44
REMARK SMILES IDX 26 45 83 46 77 47 79 48 27 49 82 50 76 51 75 52 28 54 62 55
REMARK SMILES IDX 41 56 61 57 42 58 45 59 60 60 80 61 43 62 44 63 59 65 81 66
REMARK SMILES IDX 46 67 29 68 30 69 39 70 31 71 32 72 38 73 40 74 33 75 34 76
REMARK SMILES IDX 35 77 36 78 37 79 63 80 64 81 73 82 65 83 66 84 72 85 74 86
REMARK SMILES IDX 67 87 68 88 69 89 70 90 71 91 47 92 48 93 57 94 49 95 50 96
REMARK SMILES IDX 56 97 58 98 51 99 52 100 53 101 54 102 55 103
REMARK H PARENT 87 18 97 27 79 53 45 64
REMARK Flexibility Score: inf
ROOT
ATOM      1  C   UNL     1       6.620   7.301  -2.207  1.00  0.00     0.274 C 
ENDROOT
BRANCH   1   2
ATOM      2  O   UNL     1       5.213   7.554  -2.010  1.00  0.00    -0.461 OA
BRANCH   2   3
ATOM      3  C   UNL     1       4.306   6.791  -2.706  1.00  0.00     0.322 C 
ATOM      4  O   UNL     1       4.556   6.149  -3.711  1.00  0.00    -0.251 OA
BRANCH   3   5
ATOM      5  C   UNL     1       2.972   6.843  -1.972  1.00  0.00     0.162 C 
ATOM      6  C   UNL     1       0.754   2.201  -1.538  1.00  0.00     0.122 A 
ATOM      7  C   UNL     1       0.349   2.703  -2.775  1.00  0.00     0.047 A 
ATOM      8  C   UNL     1       1.519   3.007  -0.696  1.00  0.00     0.093 A 
ATOM      9  C   UNL     1       0.721   3.988  -3.172  1.00  0.00     0.012 A 
ATOM     10  C   UNL     1       1.873   4.303  -1.089  1.00  0.00     0.126 A 
ATOM     11  C   UNL     1       1.497   4.794  -2.330  1.00  0.00     0.005 A 
ATOM     12  O   UNL     1       2.475   5.079  -0.150  1.00  0.00    -0.492 OA
ATOM     13  C   UNL     1       1.770   6.224  -2.674  1.00  0.00     0.105 C 
ATOM     14  C   UNL     1       3.213   6.229  -0.573  1.00  0.00     0.255 C 
ATOM     15  C   UNL     1       0.614   7.083  -2.133  1.00  0.00     0.272 C 
ATOM     16  C   UNL     1       2.590   8.345  -1.960  1.00  0.00     0.286 C 
ATOM     17  N   UNL     1       1.129   8.450  -2.055  1.00  0.00    -0.328 N 
ATOM     18  H   UNL     1       0.766   8.916  -1.224  1.00  0.00     0.348 HD
BRANCH   6  19
ATOM     19  O   UNL     1       0.310   0.938  -1.267  1.00  0.00    -0.497 OA
ATOM     20  C   UNL     1       0.703   0.363  -0.027  1.00  0.00     0.278 C 
ENDBRANCH   6  19
BRANCH  17  21
ATOM     21  C   UNL     1       0.632   9.351  -3.105  1.00  0.00     0.319 C 
BRANCH  21  22
ATOM     22  C   UNL     1       0.790   8.859  -4.503  1.00  0.00     0.090 A 
ATOM     23  C   UNL     1       0.085   7.927  -5.238  1.00  0.00     0.055 A 
ATOM     24  N   UNL     1       1.750   9.323  -5.356  1.00  0.00    -0.277 N 
ATOM     25  C   UNL     1       0.790   7.784  -6.457  1.00  0.00     0.068 A 
ATOM     26  N   UNL     1       1.767   8.699  -6.542  1.00  0.00    -0.180 NA
ATOM     27  H   UNL     1       2.372  10.049  -5.121  1.00  0.00     0.190 HD
BRANCH  25  28
ATOM     28  C   UNL     1       0.564   6.769  -7.568  1.00  0.00     0.006 C 
ATOM     29  C   UNL     1      -0.176   7.427  -8.745  1.00  0.00     0.017 C 
ATOM     30  C   UNL     1       1.911   6.200  -8.066  1.00  0.00     0.017 C 
ATOM     31  C   UNL     1      -0.280   5.572  -7.079  1.00  0.00     0.017 C 
ENDBRANCH  25  28
ENDBRANCH  21  22
ENDBRANCH  17  21
ENDBRANCH   3   5
ENDBRANCH   2   3
ENDBRANCH   1   2
BRANCH   1  32
ATOM     32  C   UNL     1       7.069   6.274  -1.166  1.00  0.00     0.275 C 
BRANCH  32  33
ATOM     33  O   UNL     1       6.588   4.999  -1.611  1.00  0.00    -0.458 OA
BRANCH  33  34
ATOM     34  C   UNL     1       6.371   4.053  -0.674  1.00  0.00     0.338 C 
ATOM     35  O   UNL     1       6.617   4.133   0.522  1.00  0.00    -0.246 OA
BRANCH  34  36
ATOM     36  C   UNL     1       5.832   2.868  -1.367  1.00  0.00     0.060 A 
ATOM     37  C   UNL     1       6.298   1.602  -1.022  1.00  0.00     0.016 A 
ATOM     38  C   UNL     1       4.893   3.013  -2.395  1.00  0.00     0.016 A 
ATOM     39  C   UNL     1       5.894   0.500  -1.778  1.00  0.00     0.010 A 
ATOM     40  C   UNL     1       4.431   1.905  -3.096  1.00  0.00     0.010 A 
ATOM     41  C   UNL     1       4.971   0.644  -2.833  1.00  0.00    -0.014 A 
BRANCH  41  42
ATOM     42  C   UNL     1       4.598  -0.525  -3.666  1.00  0.00     0.031 A 
ATOM     43  C   UNL     1       4.992  -0.592  -5.116  1.00  0.00     0.074 A 
ATOM     44  C   UNL     1       3.930  -1.545  -3.095  1.00  0.00     0.049 A 
ATOM     45  N   UNL     1       4.905  -1.602  -5.945  1.00  0.00    -0.248 NA
ATOM     46  C   UNL     1       5.547   0.629  -5.721  1.00  0.00     0.031 C 
ATOM     47  C   UNL     1       3.451  -1.558  -1.714  1.00  0.00     0.029 A 
ATOM     48  N   UNL     1       3.567  -2.771  -3.587  1.00  0.00    -0.354 N 
ATOM     49  C   UNL     1       5.420  -1.147  -7.154  1.00  0.00     0.074 A 
ATOM     50  C   UNL     1       5.735   0.253  -6.977  1.00  0.00     0.031 C 
ATOM     51  C   UNL     1       2.905  -2.754  -1.449  1.00  0.00     0.029 A 
ATOM     52  C   UNL     1       2.990  -3.587  -2.644  1.00  0.00     0.049 A 
ATOM     53  H   UNL     1       3.707  -3.041  -4.524  1.00  0.00     0.167 HD
ATOM     54  C   UNL     1       5.650  -1.844  -8.293  1.00  0.00     0.037 A 
ATOM     55  C   UNL     1       2.609  -4.876  -2.720  1.00  0.00     0.037 A 
ATOM     56  C   UNL     1       5.322  -3.236  -8.457  1.00  0.00     0.049 A 
ATOM     57  C   UNL     1       2.858  -5.630  -3.995  1.00  0.00     0.074 A 
ATOM     58  C   UNL     1       5.533  -4.052  -9.554  1.00  0.00     0.029 A 
ATOM     59  N   UNL     1       4.702  -4.019  -7.491  1.00  0.00    -0.354 N 
ATOM     60  N   UNL     1       3.417  -5.208  -5.104  1.00  0.00    -0.248 NA
ATOM     61  C   UNL     1       2.442  -7.037  -4.023  1.00  0.00     0.031 C 
ATOM     62  C   UNL     1       5.009  -5.317  -9.264  1.00  0.00     0.029 A 
ATOM     63  C   UNL     1       4.507  -5.303  -7.971  1.00  0.00     0.049 A 
ATOM     64  H   UNL     1       4.439  -3.706  -6.595  1.00  0.00     0.167 HD
ATOM     65  C   UNL     1       3.436  -6.302  -5.960  1.00  0.00     0.074 A 
ATOM     66  C   UNL     1       2.846  -7.408  -5.231  1.00  0.00     0.031 C 
ATOM     67  C   UNL     1       3.900  -6.384  -7.232  1.00  0.00     0.037 A 
BRANCH  54  68
ATOM     68  C   UNL     1       6.308  -1.106  -9.430  1.00  0.00     0.058 A 
ATOM     69  C   UNL     1       7.645  -0.681  -9.345  1.00  0.00     0.135 A 
ATOM     70  C   UNL     1       5.606  -0.813 -10.609  1.00  0.00     0.135 A 
ATOM     71  F   UNL     1       8.364  -0.925  -8.237  1.00  0.00    -0.206 F 
ATOM     72  C   UNL     1       8.247   0.047 -10.366  1.00  0.00     0.059 A 
ATOM     73  C   UNL     1       6.197  -0.108 -11.657  1.00  0.00     0.059 A 
ATOM     74  F   UNL     1       4.328  -1.198 -10.750  1.00  0.00    -0.206 F 
ATOM     75  C   UNL     1       7.511   0.336 -11.516  1.00  0.00     0.060 A 
BRANCH  75  76
ATOM     76  S   UNL     1       8.299   1.309 -12.818  1.00  0.00     0.124 S 
ATOM     77  O   UNL     1       8.341   2.634 -12.206  1.00  0.00    -0.237 OA
ATOM     78  O   UNL     1       9.588   0.642 -12.970  1.00  0.00    -0.237 OA
ATOM     79  O   UNL     1       7.386   1.169 -13.948  1.00  0.00    -0.744 OA
ENDBRANCH  75  76
ENDBRANCH  54  68
BRANCH  55  80
ATOM     80  C   UNL     1       2.048  -5.537  -1.514  1.00  0.00     0.058 A 
ATOM     81  C   UNL     1       2.818  -6.441  -0.770  1.00  0.00     0.135 A 
ATOM     82  C   UNL     1       0.772  -5.210  -1.030  1.00  0.00     0.135 A 
ATOM     83  F   UNL     1       4.045  -6.785  -1.193  1.00  0.00    -0.206 F 
ATOM     84  C   UNL     1       2.350  -6.992   0.418  1.00  0.00     0.059 A 
ATOM     85  C   UNL     1       0.288  -5.732   0.166  1.00  0.00     0.059 A 
ATOM     86  F   UNL     1       0.004  -4.333  -1.696  1.00  0.00    -0.206 F 
ATOM     87  C   UNL     1       1.087  -6.620   0.885  1.00  0.00     0.060 A 
BRANCH  87  88
ATOM     88  S   UNL     1       0.534  -7.264   2.479  1.00  0.00     0.124 S 
ATOM     89  O   UNL     1       0.327  -8.675   2.173  1.00  0.00    -0.237 OA
ATOM     90  O   UNL     1       1.673  -6.958   3.340  1.00  0.00    -0.237 OA
ATOM     91  O   UNL     1      -0.674  -6.493   2.754  1.00  0.00    -0.744 OA
ENDBRANCH  87  88
ENDBRANCH  55  80
BRANCH  67  92
ATOM     92  C   UNL     1       3.781  -7.715  -7.918  1.00  0.00     0.058 A 
ATOM     93  C   UNL     1       2.543  -8.197  -8.369  1.00  0.00     0.135 A 
ATOM     94  C   UNL     1       4.922  -8.493  -8.173  1.00  0.00     0.135 A 
ATOM     95  F   UNL     1       1.421  -7.494  -8.143  1.00  0.00    -0.206 F 
ATOM     96  C   UNL     1       2.435  -9.415  -9.030  1.00  0.00     0.059 A 
ATOM     97  C   UNL     1       4.841  -9.703  -8.856  1.00  0.00     0.059 A 
ATOM     98  F   UNL     1       6.132  -8.072  -7.771  1.00  0.00    -0.206 F 
ATOM     99  C   UNL     1       3.591 -10.160  -9.271  1.00  0.00     0.060 A 
BRANCH  99 100
ATOM    100  S   UNL     1       3.439 -11.725 -10.158  1.00  0.00     0.124 S 
ATOM    101  O   UNL     1       2.822 -12.577  -9.146  1.00  0.00    -0.237 OA
ATOM    102  O   UNL     1       2.587 -11.362 -11.286  1.00  0.00    -0.237 OA
ATOM    103  O   UNL     1       4.818 -12.057 -10.502  1.00  0.00    -0.744 OA
ENDBRANCH  99 100
ENDBRANCH  67  92
ENDBRANCH  41  42
ENDBRANCH  34  36
ENDBRANCH  33  34
ENDBRANCH  32  33
ENDBRANCH   1  32
TORSDOF 18
