REMARK SMILES Cc1cc(C(=O)OCCOC(=O)c2ccc(-c3c4nc(c(-c5c(F)cc(S(=O)(=O)[O-])cc5F)c5ccc([nH]5)c(-c5c(F)cc(S(=O)(=O)[O-])cc5F)c5nc(c(-c6c(F)cc(S(=O)(=O)[O-])cc6F)c6ccc3[nH]6)C=C5)C=C4)cc2)ccc1NS(=O)(=O)c1ccc2c(c1)CCC2
REMARK SMILES IDX 8 1 7 2 5 3 6 4 4 5 1 6 2 7 3 8 81 9 80 10 79 11 82 12 83 14
REMARK SMILES IDX 84 15 85 16 86 17 87 18 91 19 88 20 90 21 89 22 92 23 94 24
REMARK SMILES IDX 93 25 9 26 10 27 11 28 12 29 13 30 14 31 78 32 15 33 77 34
REMARK SMILES IDX 16 35 17 36 18 37 71 38 19 39 76 40 70 41 72 42 20 43 75 44
REMARK SMILES IDX 69 45 68 46 21 48 55 49 34 50 54 51 35 52 38 53 53 54 73 55
REMARK SMILES IDX 36 56 37 57 52 59 74 60 39 61 22 62 23 63 32 64 24 65 25 66
REMARK SMILES IDX 31 67 33 68 26 69 27 70 28 71 29 72 30 73 56 74 57 75 66 76
REMARK SMILES IDX 58 77 59 78 65 79 67 80 60 81 61 82 62 83 63 84 64 85 40 86
REMARK SMILES IDX 41 87 50 88 42 89 43 90 49 91 51 92 44 93 45 94 46 95 47 96
REMARK SMILES IDX 48 97
REMARK H PARENT 82 13 72 47 38 58
REMARK Flexibility Score: inf
ROOT
ATOM      1  C   UNL     1      -4.019  -2.598  -2.362  1.00  0.00     0.275 C 
ENDROOT
BRANCH   1   2
ATOM      2  O   UNL     1      -2.835  -1.815  -2.065  1.00  0.00    -0.458 OA
BRANCH   2   3
ATOM      3  C   UNL     1      -2.961  -1.125  -0.899  1.00  0.00     0.338 C 
ATOM      4  O   UNL     1      -4.000  -1.104  -0.246  1.00  0.00    -0.246 OA
BRANCH   3   5
ATOM      5  C   UNL     1      -1.806  -0.267  -0.483  1.00  0.00     0.060 A 
ATOM      6  C   UNL     1       1.913   0.479  -0.850  1.00  0.00     0.046 C 
ATOM      7  C   UNL     1       0.444   0.706  -0.592  1.00  0.00    -0.026 A 
ATOM      8  C   UNL     1      -0.492  -0.300  -0.975  1.00  0.00     0.021 A 
ATOM      9  C   UNL     1       0.004   1.776   0.211  1.00  0.00     0.052 A 
ATOM     10  C   UNL     1      -1.212   1.670   0.869  1.00  0.00     0.028 A 
ATOM     11  C   UNL     1      -2.106   0.664   0.521  1.00  0.00     0.018 A 
BRANCH   9  12
ATOM     12  N   UNL     1       0.644   3.065   0.281  1.00  0.00    -0.279 N 
ATOM     13  H   UNL     1       1.380   3.236   0.912  1.00  0.00     0.180 HD
BRANCH  12  14
ATOM     14  S   UNL     1       0.070   4.306  -0.785  1.00  0.00     0.261 S 
ATOM     15  O   UNL     1       0.616   5.552  -0.254  1.00  0.00    -0.201 OA
ATOM     16  O   UNL     1       0.378   3.915  -2.135  1.00  0.00    -0.201 OA
BRANCH  14  17
ATOM     17  C   UNL     1      -1.713   4.412  -0.645  1.00  0.00     0.088 A 
ATOM     18  C   UNL     1      -2.491   3.375  -1.190  1.00  0.00     0.022 A 
ATOM     19  C   UNL     1      -2.339   5.513  -0.042  1.00  0.00     0.026 A 
ATOM     20  C   UNL     1      -3.850   3.273  -0.884  1.00  0.00     0.005 A 
ATOM     21  C   UNL     1      -3.715   5.449   0.157  1.00  0.00    -0.043 A 
ATOM     22  C   UNL     1      -4.435   4.293  -0.160  1.00  0.00    -0.045 A 
ATOM     23  C   UNL     1      -4.658   6.507   0.643  1.00  0.00     0.036 C 
ATOM     24  C   UNL     1      -5.839   4.360   0.361  1.00  0.00     0.036 C 
ATOM     25  C   UNL     1      -5.809   5.654   1.191  1.00  0.00     0.010 C 
ENDBRANCH  14  17
ENDBRANCH  12  14
ENDBRANCH   9  12
ENDBRANCH   3   5
ENDBRANCH   2   3
ENDBRANCH   1   2
BRANCH   1  26
ATOM     26  C   UNL     1      -3.794  -3.791  -3.315  1.00  0.00     0.275 C 
BRANCH  26  27
ATOM     27  O   UNL     1      -2.921  -4.836  -2.850  1.00  0.00    -0.458 OA
BRANCH  27  28
ATOM     28  C   UNL     1      -1.742  -4.398  -2.332  1.00  0.00     0.338 C 
ATOM     29  O   UNL     1      -0.910  -3.776  -2.973  1.00  0.00    -0.246 OA
BRANCH  28  30
ATOM     30  C   UNL     1      -1.881  -4.427  -0.846  1.00  0.00     0.060 A 
ATOM     31  C   UNL     1      -1.013  -3.657  -0.061  1.00  0.00     0.016 A 
ATOM     32  C   UNL     1      -3.070  -4.928  -0.297  1.00  0.00     0.016 A 
ATOM     33  C   UNL     1      -1.373  -3.312   1.243  1.00  0.00     0.010 A 
ATOM     34  C   UNL     1      -3.483  -4.489   0.937  1.00  0.00     0.010 A 
ATOM     35  C   UNL     1      -2.626  -3.704   1.719  1.00  0.00    -0.014 A 
BRANCH  35  36
ATOM     36  C   UNL     1      -3.003  -3.675   3.125  1.00  0.00     0.031 A 
ATOM     37  C   UNL     1      -3.629  -2.523   3.796  1.00  0.00     0.074 A 
ATOM     38  C   UNL     1      -2.832  -4.885   3.697  1.00  0.00     0.049 A 
ATOM     39  N   UNL     1      -3.693  -2.380   5.075  1.00  0.00    -0.248 NA
ATOM     40  C   UNL     1      -4.220  -1.399   3.085  1.00  0.00     0.031 C 
ATOM     41  C   UNL     1      -3.288  -5.411   4.967  1.00  0.00     0.029 A 
ATOM     42  N   UNL     1      -1.968  -5.871   3.204  1.00  0.00    -0.354 N 
ATOM     43  C   UNL     1      -4.527  -1.312   5.359  1.00  0.00     0.074 A 
ATOM     44  C   UNL     1      -4.749  -0.680   4.083  1.00  0.00     0.031 C 
ATOM     45  C   UNL     1      -2.498  -6.454   5.293  1.00  0.00     0.029 A 
ATOM     46  C   UNL     1      -1.421  -6.516   4.304  1.00  0.00     0.049 A 
ATOM     47  H   UNL     1      -1.784  -6.069   2.257  1.00  0.00     0.167 HD
ATOM     48  C   UNL     1      -5.032  -1.196   6.626  1.00  0.00     0.037 A 
ATOM     49  C   UNL     1      -0.095  -6.304   4.561  1.00  0.00     0.037 A 
ATOM     50  C   UNL     1      -4.418  -2.216   7.476  1.00  0.00     0.049 A 
ATOM     51  C   UNL     1       0.070  -5.567   5.866  1.00  0.00     0.074 A 
ATOM     52  C   UNL     1      -4.824  -3.500   7.802  1.00  0.00     0.029 A 
ATOM     53  N   UNL     1      -3.061  -2.137   7.777  1.00  0.00    -0.354 N 
ATOM     54  N   UNL     1      -0.766  -4.671   6.323  1.00  0.00    -0.248 NA
ATOM     55  C   UNL     1       1.133  -5.895   6.806  1.00  0.00     0.031 C 
ATOM     56  C   UNL     1      -3.667  -4.236   8.163  1.00  0.00     0.029 A 
ATOM     57  C   UNL     1      -2.571  -3.389   8.099  1.00  0.00     0.049 A 
ATOM     58  H   UNL     1      -2.528  -1.309   7.763  1.00  0.00     0.167 HD
ATOM     59  C   UNL     1      -0.429  -4.376   7.619  1.00  0.00     0.074 A 
ATOM     60  C   UNL     1       0.780  -5.147   7.864  1.00  0.00     0.031 C 
ATOM     61  C   UNL     1      -1.173  -3.581   8.443  1.00  0.00     0.037 A 
BRANCH  48  62
ATOM     62  C   UNL     1      -6.271  -0.408   7.045  1.00  0.00     0.058 A 
ATOM     63  C   UNL     1      -6.997  -0.790   8.201  1.00  0.00     0.135 A 
ATOM     64  C   UNL     1      -6.846   0.670   6.342  1.00  0.00     0.135 A 
ATOM     65  F   UNL     1      -6.544  -1.741   9.030  1.00  0.00    -0.206 F 
ATOM     66  C   UNL     1      -8.227  -0.230   8.564  1.00  0.00     0.059 A 
ATOM     67  C   UNL     1      -8.091   1.231   6.670  1.00  0.00     0.059 A 
ATOM     68  F   UNL     1      -6.210   1.264   5.326  1.00  0.00    -0.206 F 
ATOM     69  C   UNL     1      -8.786   0.761   7.774  1.00  0.00     0.060 A 
BRANCH  69  70
ATOM     70  S   UNL     1     -10.403   1.428   8.220  1.00  0.00     0.124 S 
ATOM     71  O   UNL     1     -11.261   0.253   8.101  1.00  0.00    -0.237 OA
ATOM     72  O   UNL     1     -10.175   1.911   9.578  1.00  0.00    -0.237 OA
ATOM     73  O   UNL     1     -10.632   2.467   7.220  1.00  0.00    -0.744 OA
ENDBRANCH  69  70
ENDBRANCH  48  62
BRANCH  49  74
ATOM     74  C   UNL     1       0.777  -6.162   3.342  1.00  0.00     0.058 A 
ATOM     75  C   UNL     1       0.724  -7.176   2.357  1.00  0.00     0.135 A 
ATOM     76  C   UNL     1       1.457  -4.988   2.987  1.00  0.00     0.135 A 
ATOM     77  F   UNL     1       0.103  -8.338   2.622  1.00  0.00    -0.206 F 
ATOM     78  C   UNL     1       1.214  -6.998   1.063  1.00  0.00     0.059 A 
ATOM     79  C   UNL     1       1.976  -4.793   1.696  1.00  0.00     0.059 A 
ATOM     80  F   UNL     1       1.566  -3.976   3.860  1.00  0.00    -0.206 F 
ATOM     81  C   UNL     1       1.818  -5.791   0.732  1.00  0.00     0.060 A 
BRANCH  81  82
ATOM     82  S   UNL     1       2.221  -5.485  -1.010  1.00  0.00     0.124 S 
ATOM     83  O   UNL     1       3.487  -6.195  -1.154  1.00  0.00    -0.237 OA
ATOM     84  O   UNL     1       1.078  -6.086  -1.693  1.00  0.00    -0.237 OA
ATOM     85  O   UNL     1       2.299  -4.029  -1.078  1.00  0.00    -0.744 OA
ENDBRANCH  81  82
ENDBRANCH  49  74
BRANCH  61  86
ATOM     86  C   UNL     1      -0.672  -3.025   9.749  1.00  0.00     0.058 A 
ATOM     87  C   UNL     1       0.678  -2.707   9.973  1.00  0.00     0.135 A 
ATOM     88  C   UNL     1      -1.574  -2.647  10.772  1.00  0.00     0.135 A 
ATOM     89  F   UNL     1       1.606  -2.895   9.024  1.00  0.00    -0.206 F 
ATOM     90  C   UNL     1       1.121  -2.147  11.167  1.00  0.00     0.059 A 
ATOM     91  C   UNL     1      -1.161  -2.027  11.944  1.00  0.00     0.059 A 
ATOM     92  F   UNL     1      -2.894  -2.856  10.660  1.00  0.00    -0.206 F 
ATOM     93  C   UNL     1       0.194  -1.814  12.149  1.00  0.00     0.060 A 
BRANCH  93  94
ATOM     94  S   UNL     1       0.754  -1.059  13.681  1.00  0.00     0.124 S 
ATOM     95  O   UNL     1       0.961  -2.235  14.521  1.00  0.00    -0.237 OA
ATOM     96  O   UNL     1       1.967  -0.356  13.273  1.00  0.00    -0.237 OA
ATOM     97  O   UNL     1      -0.363  -0.199  14.055  1.00  0.00    -0.744 OA
ENDBRANCH  93  94
ENDBRANCH  61  86
ENDBRANCH  35  36
ENDBRANCH  28  30
ENDBRANCH  27  28
ENDBRANCH  26  27
ENDBRANCH   1  26
TORSDOF 17
