REMARK SMILES COCCC[C@@]1(C(=O)OCCOC(=O)c2ccc(-c3c4nc(c(-c5c(F)cc(S(=O)(=O)[O-])cc5F)c5ccc([nH]5)c(-c5c(F)cc(S(=O)(=O)[O-])cc5F)c5nc(c(-c6c(F)cc(S(=O)(=O)[O-])cc6F)c6ccc3[nH]6)C=C5)C=C4)cc2)CCCN(C(=O)C2CCC2)C1
REMARK SMILES IDX 10 1 9 2 7 3 8 4 6 5 81 6 91 7 82 8 84 9 83 10 5 11 4 12
REMARK SMILES IDX 3 13 2 14 1 15 85 16 86 17 87 18 88 19 90 20 89 21 11 22
REMARK SMILES IDX 12 23 13 24 14 25 15 26 16 27 80 28 17 29 79 30 18 31 19 32
REMARK SMILES IDX 20 33 73 34 21 35 78 36 72 37 74 38 22 39 77 40 71 41 70 42
REMARK SMILES IDX 23 44 57 45 36 46 56 47 37 48 40 49 55 50 75 51 38 52 39 53
REMARK SMILES IDX 54 55 76 56 41 57 24 58 25 59 34 60 26 61 27 62 33 63 35 64
REMARK SMILES IDX 28 65 29 66 30 67 31 68 32 69 58 70 59 71 68 72 60 73 61 74
REMARK SMILES IDX 67 75 69 76 62 77 63 78 64 79 65 80 66 81 42 82 43 83 52 84
REMARK SMILES IDX 44 85 45 86 51 87 53 88 46 89 47 90 48 91 49 92 50 93
REMARK H PARENT 74 43 40 54
REMARK Flexibility Score: inf
ROOT
ATOM      1  C   UNL     1      -1.208   1.860   0.420  1.00  0.00     0.274 C 
ENDROOT
BRANCH   1   2
ATOM      2  O   UNL     1       0.223   1.840   0.637  1.00  0.00    -0.462 OA
BRANCH   2   3
ATOM      3  C   UNL     1       0.969   1.875  -0.501  1.00  0.00     0.314 C 
ATOM      4  O   UNL     1       0.459   2.067  -1.597  1.00  0.00    -0.252 OA
BRANCH   3   5
ATOM      5  C   UNL     1       2.486   1.673  -0.277  1.00  0.00     0.086 C 
ATOM      6  C   UNL     1       2.810   0.600   0.812  1.00  0.00     0.022 C 
ATOM      7  C   UNL     1       3.112   3.018   0.147  1.00  0.00     0.138 C 
ATOM      8  C   UNL     1       2.696   1.051   2.271  1.00  0.00     0.023 C 
ATOM      9  N   UNL     1       2.883   3.364   1.552  1.00  0.00    -0.341 N 
ATOM     10  C   UNL     1       3.375   2.388   2.501  1.00  0.00     0.119 C 
BRANCH   5  11
ATOM     11  C   UNL     1       3.183   1.135  -1.596  1.00  0.00     0.023 C 
BRANCH  11  12
ATOM     12  C   UNL     1       2.712   1.484  -3.023  1.00  0.00     0.030 C 
BRANCH  12  13
ATOM     13  C   UNL     1       2.578   2.951  -3.415  1.00  0.00     0.159 C 
BRANCH  13  14
ATOM     14  O   UNL     1       3.791   3.500  -3.915  1.00  0.00    -0.385 OA
ATOM     15  C   UNL     1       4.673   3.996  -2.927  1.00  0.00     0.194 C 
ENDBRANCH  13  14
ENDBRANCH  12  13
ENDBRANCH  11  12
ENDBRANCH   5  11
BRANCH   9  16
ATOM     16  C   UNL     1       2.626   4.697   1.900  1.00  0.00     0.225 C 
ATOM     17  O   UNL     1       2.991   5.594   1.123  1.00  0.00    -0.275 OA
BRANCH  16  18
ATOM     18  C   UNL     1       1.855   5.043   3.199  1.00  0.00     0.078 C 
ATOM     19  C   UNL     1       1.025   4.034   4.020  1.00  0.00     0.013 C 
ATOM     20  C   UNL     1       2.667   5.375   4.464  1.00  0.00     0.013 C 
ATOM     21  C   UNL     1       1.674   4.565   5.307  1.00  0.00     0.002 C 
ENDBRANCH  16  18
ENDBRANCH   9  16
ENDBRANCH   3   5
ENDBRANCH   2   3
ENDBRANCH   1   2
BRANCH   1  22
ATOM     22  C   UNL     1      -1.840   3.257   0.486  1.00  0.00     0.275 C 
BRANCH  22  23
ATOM     23  O   UNL     1      -1.453   4.113  -0.610  1.00  0.00    -0.458 OA
BRANCH  23  24
ATOM     24  C   UNL     1      -0.604   5.118  -0.276  1.00  0.00     0.338 C 
ATOM     25  O   UNL     1      -0.175   5.341   0.842  1.00  0.00    -0.246 OA
BRANCH  24  26
ATOM     26  C   UNL     1      -0.132   5.846  -1.476  1.00  0.00     0.060 A 
ATOM     27  C   UNL     1       1.244   5.875  -1.685  1.00  0.00     0.016 A 
ATOM     28  C   UNL     1      -0.963   6.547  -2.350  1.00  0.00     0.016 A 
ATOM     29  C   UNL     1       1.798   6.476  -2.806  1.00  0.00     0.010 A 
ATOM     30  C   UNL     1      -0.399   7.233  -3.446  1.00  0.00     0.010 A 
ATOM     31  C   UNL     1       0.985   7.176  -3.691  1.00  0.00    -0.014 A 
BRANCH  31  32
ATOM     32  C   UNL     1       1.659   7.889  -4.800  1.00  0.00     0.031 A 
ATOM     33  C   UNL     1       2.344   9.198  -4.525  1.00  0.00     0.074 A 
ATOM     34  C   UNL     1       1.826   7.285  -5.992  1.00  0.00     0.049 A 
ATOM     35  N   UNL     1       2.964   9.999  -5.351  1.00  0.00    -0.248 NA
ATOM     36  C   UNL     1       2.369   9.643  -3.122  1.00  0.00     0.031 C 
ATOM     37  C   UNL     1       1.407   5.920  -6.307  1.00  0.00     0.029 A 
ATOM     38  N   UNL     1       2.415   7.731  -7.149  1.00  0.00    -0.354 N 
ATOM     39  C   UNL     1       3.448  11.043  -4.573  1.00  0.00     0.074 A 
ATOM     40  C   UNL     1       3.066  10.767  -3.206  1.00  0.00     0.031 C 
ATOM     41  C   UNL     1       1.728   5.649  -7.584  1.00  0.00     0.029 A 
ATOM     42  C   UNL     1       2.320   6.839  -8.192  1.00  0.00     0.049 A 
ATOM     43  H   UNL     1       2.863   8.604  -7.225  1.00  0.00     0.167 HD
ATOM     44  C   UNL     1       4.129  12.144  -4.971  1.00  0.00     0.037 A 
ATOM     45  C   UNL     1       2.627   6.990  -9.497  1.00  0.00     0.037 A 
ATOM     46  C   UNL     1       4.470  12.419  -6.343  1.00  0.00     0.049 A 
ATOM     47  C   UNL     1       3.215   8.303  -9.954  1.00  0.00     0.074 A 
ATOM     48  C   UNL     1       5.064  13.550  -6.874  1.00  0.00     0.029 A 
ATOM     49  N   UNL     1       4.236  11.555  -7.404  1.00  0.00    -0.354 N 
ATOM     50  N   UNL     1       3.570   9.342  -9.235  1.00  0.00    -0.248 NA
ATOM     51  C   UNL     1       3.430   8.473 -11.397  1.00  0.00     0.031 C 
ATOM     52  C   UNL     1       5.133  13.394  -8.263  1.00  0.00     0.029 A 
ATOM     53  C   UNL     1       4.645  12.139  -8.591  1.00  0.00     0.049 A 
ATOM     54  H   UNL     1       3.837  10.658  -7.324  1.00  0.00     0.167 HD
ATOM     55  C   UNL     1       4.072  10.278 -10.134  1.00  0.00     0.074 A 
ATOM     56  C   UNL     1       3.985   9.677 -11.449  1.00  0.00     0.031 C 
ATOM     57  C   UNL     1       4.559  11.521  -9.893  1.00  0.00     0.037 A 
BRANCH  44  58
ATOM     58  C   UNL     1       4.445  13.174  -3.923  1.00  0.00     0.058 A 
ATOM     59  C   UNL     1       5.435  12.976  -2.947  1.00  0.00     0.135 A 
ATOM     60  C   UNL     1       3.729  14.382  -3.893  1.00  0.00     0.135 A 
ATOM     61  F   UNL     1       6.132  11.830  -2.913  1.00  0.00    -0.206 F 
ATOM     62  C   UNL     1       5.684  13.930  -1.963  1.00  0.00     0.059 A 
ATOM     63  C   UNL     1       3.979  15.359  -2.936  1.00  0.00     0.059 A 
ATOM     64  F   UNL     1       2.765  14.618  -4.797  1.00  0.00    -0.206 F 
ATOM     65  C   UNL     1       4.948  15.117  -1.964  1.00  0.00     0.060 A 
BRANCH  65  66
ATOM     66  S   UNL     1       5.271  16.340  -0.676  1.00  0.00     0.124 S 
ATOM     67  O   UNL     1       4.716  15.679   0.502  1.00  0.00    -0.237 OA
ATOM     68  O   UNL     1       6.726  16.453  -0.711  1.00  0.00    -0.237 OA
ATOM     69  O   UNL     1       4.543  17.519  -1.133  1.00  0.00    -0.744 OA
ENDBRANCH  65  66
ENDBRANCH  44  58
BRANCH  45  70
ATOM     70  C   UNL     1       2.296   5.916 -10.477  1.00  0.00     0.058 A 
ATOM     71  C   UNL     1       3.287   5.253 -11.216  1.00  0.00     0.135 A 
ATOM     72  C   UNL     1       0.959   5.554 -10.720  1.00  0.00     0.135 A 
ATOM     73  F   UNL     1       4.579   5.573 -11.045  1.00  0.00    -0.206 F 
ATOM     74  C   UNL     1       2.967   4.284 -12.165  1.00  0.00     0.059 A 
ATOM     75  C   UNL     1       0.617   4.567 -11.638  1.00  0.00     0.059 A 
ATOM     76  F   UNL     1      -0.035   6.158 -10.050  1.00  0.00    -0.206 F 
ATOM     77  C   UNL     1       1.627   3.945 -12.366  1.00  0.00     0.060 A 
BRANCH  77  78
ATOM     78  S   UNL     1       1.222   2.666 -13.576  1.00  0.00     0.124 S 
ATOM     79  O   UNL     1       1.509   3.347 -14.833  1.00  0.00    -0.237 OA
ATOM     80  O   UNL     1       2.139   1.592 -13.207  1.00  0.00    -0.237 OA
ATOM     81  O   UNL     1      -0.189   2.392 -13.317  1.00  0.00    -0.744 OA
ENDBRANCH  77  78
ENDBRANCH  45  70
BRANCH  57  82
ATOM     82  C   UNL     1       5.077  12.307 -11.068  1.00  0.00     0.058 A 
ATOM     83  C   UNL     1       4.218  12.855 -12.033  1.00  0.00     0.135 A 
ATOM     84  C   UNL     1       6.452  12.574 -11.190  1.00  0.00     0.135 A 
ATOM     85  F   UNL     1       2.896  12.628 -11.968  1.00  0.00    -0.206 F 
ATOM     86  C   UNL     1       4.704  13.622 -13.087  1.00  0.00     0.059 A 
ATOM     87  C   UNL     1       6.956  13.364 -12.218  1.00  0.00     0.059 A 
ATOM     88  F   UNL     1       7.318  12.084 -10.288  1.00  0.00    -0.206 F 
ATOM     89  C   UNL     1       6.074  13.875 -13.168  1.00  0.00     0.060 A 
BRANCH  89  90
ATOM     90  S   UNL     1       6.686  14.908 -14.517  1.00  0.00     0.124 S 
ATOM     91  O   UNL     1       6.540  14.016 -15.662  1.00  0.00    -0.237 OA
ATOM     92  O   UNL     1       5.771  16.045 -14.479  1.00  0.00    -0.237 OA
ATOM     93  O   UNL     1       8.060  15.205 -14.123  1.00  0.00    -0.744 OA
ENDBRANCH  89  90
ENDBRANCH  57  82
ENDBRANCH  31  32
ENDBRANCH  24  26
ENDBRANCH  23  24
ENDBRANCH  22  23
ENDBRANCH   1  22
TORSDOF 20
