REMARK SMILES Cc1ccccc1NC(=S)NN1C(=O)CS[C@H]1c1ccccc1C(=O)OCCOC(=O)c1ccc(-c2c3nc(c(-c4c(F)cc(S(=O)(=O)[O-])cc4F)c4ccc([nH]4)c(-c4c(F)cc(S(=O)(=O)[O-])cc4F)c4nc(c(-c5c(F)cc(S(=O)(=O)[O-])cc5F)c5ccc2[nH]5)C=C4)C=C3)cc1
REMARK SMILES IDX 27 1 26 2 24 3 25 4 23 5 18 6 19 7 20 8 22 9 21 10 17 11
REMARK SMILES IDX 12 12 13 13 14 14 15 15 16 16 11 17 9 19 10 20 8 21 7 23
REMARK SMILES IDX 1 24 2 25 3 26 4 27 6 28 5 29 28 30 29 31 30 32 31 33 32 34
REMARK SMILES IDX 33 35 97 36 34 37 96 38 35 39 36 40 37 41 90 42 38 43 95 44
REMARK SMILES IDX 89 45 91 46 39 47 94 48 88 49 87 50 40 52 74 53 53 54 73 55
REMARK SMILES IDX 54 56 57 57 72 58 92 59 55 60 56 61 71 63 93 64 58 65 41 66
REMARK SMILES IDX 42 67 51 68 43 69 44 70 50 71 52 72 45 73 46 74 47 75 48 76
REMARK SMILES IDX 49 77 75 78 76 79 85 80 77 81 78 82 84 83 86 84 79 85 80 86
REMARK SMILES IDX 81 87 82 88 83 89 59 90 60 91 69 92 61 93 62 94 68 95 70 96
REMARK SMILES IDX 63 97 64 98 65 99 66 100 67 101
REMARK H PARENT 11 18 8 22 91 51 57 62
REMARK Flexibility Score: inf
ROOT
ATOM      1  C   UNL     1       0.058   2.007  -0.113  1.00  0.00     0.275 C 
ENDROOT
BRANCH   1   2
ATOM      2  O   UNL     1      -0.381   3.446   0.944  1.00  0.00    -0.458 OA
BRANCH   2   3
ATOM      3  C   UNL     1      -1.246   4.953   0.876  1.00  0.00     0.338 C 
ATOM      4  O   UNL     1      -0.256   5.712   0.750  1.00  0.00    -0.246 OA
BRANCH   3   5
ATOM      5  C   UNL     1      -3.418   5.152   0.708  1.00  0.00     0.066 A 
ATOM      6  C   UNL     1      -4.322   4.095  -0.292  1.00  0.00     0.001 A 
ATOM      7  C   UNL     1      -5.713   4.148  -0.519  1.00  0.00     0.008 A 
ATOM      8  C   UNL     1      -6.423   5.228  -0.050  1.00  0.00     0.000 A 
ATOM      9  C   UNL     1      -4.410   6.195   1.060  1.00  0.00     0.016 A 
ATOM     10  C   UNL     1      -5.783   6.239   0.659  1.00  0.00     0.001 A 
BRANCH   6  11
ATOM     11  C   UNL     1      -3.532   2.872  -1.373  1.00  0.00     0.197 C 
ATOM     12  N   UNL     1      -1.891   2.372  -1.136  1.00  0.00    -0.236 N 
ATOM     13  C   UNL     1      -2.084   0.945  -0.343  1.00  0.00     0.252 C 
ATOM     14  O   UNL     1      -1.630   0.565   0.744  1.00  0.00    -0.272 OA
ATOM     15  C   UNL     1      -3.289   0.189  -0.765  1.00  0.00     0.174 C 
ATOM     16  S   UNL     1      -4.580   1.301  -1.214  1.00  0.00    -0.120 SA
BRANCH  12  17
ATOM     17  N   UNL     1      -0.288   3.567  -1.162  1.00  0.00    -0.270 N 
ATOM     18  H   UNL     1      -0.526   4.510  -1.006  1.00  0.00     0.191 HD
BRANCH  17  19
ATOM     19  C   UNL     1       1.396   3.358  -1.388  1.00  0.00     0.189 C 
ATOM     20  S   UNL     1       2.408   4.696  -1.203  1.00  0.00    -0.039 S 
BRANCH  19  21
ATOM     21  N   UNL     1       2.130   1.919  -1.404  1.00  0.00    -0.331 N 
ATOM     22  H   UNL     1       3.103   2.042  -1.492  1.00  0.00     0.169 HD
BRANCH  21  23
ATOM     23  C   UNL     1       1.794   0.394  -1.325  1.00  0.00     0.043 A 
ATOM     24  C   UNL     1       3.687  -0.370   0.244  1.00  0.00     0.046 C 
ATOM     25  C   UNL     1       2.302  -0.458  -0.319  1.00  0.00    -0.028 A 
ATOM     26  C   UNL     1       1.564  -1.621   0.088  1.00  0.00     0.005 A 
ATOM     27  C   UNL     1       0.365  -1.980  -0.508  1.00  0.00     0.000 A 
ATOM     28  C   UNL     1       0.846  -0.266  -2.128  1.00  0.00     0.026 A 
ATOM     29  C   UNL     1       0.037  -1.328  -1.671  1.00  0.00     0.002 A 
ENDBRANCH  21  23
ENDBRANCH  19  21
ENDBRANCH  17  19
ENDBRANCH  12  17
ENDBRANCH   6  11
ENDBRANCH   3   5
ENDBRANCH   2   3
ENDBRANCH   1   2
BRANCH   1  30
ATOM     30  C   UNL     1      -0.259   1.943  -2.164  1.00  0.00     0.275 C 
BRANCH  30  31
ATOM     31  O   UNL     1      -1.186   3.321  -2.974  1.00  0.00    -0.458 OA
BRANCH  31  32
ATOM     32  C   UNL     1      -1.862   4.572  -2.501  1.00  0.00     0.338 C 
ATOM     33  O   UNL     1      -2.338   5.344  -3.327  1.00  0.00    -0.246 OA
BRANCH  32  34
ATOM     34  C   UNL     1      -2.180   4.871  -0.871  1.00  0.00     0.060 A 
ATOM     35  C   UNL     1      -2.112   6.534  -0.173  1.00  0.00     0.016 A 
ATOM     36  C   UNL     1      -2.409   3.531   0.482  1.00  0.00     0.016 A 
ATOM     37  C   UNL     1      -2.101   6.686   1.658  1.00  0.00     0.010 A 
ATOM     38  C   UNL     1      -2.453   3.822   2.121  1.00  0.00     0.010 A 
ATOM     39  C   UNL     1      -2.250   5.296   2.760  1.00  0.00    -0.014 A 
BRANCH  39  40
ATOM     40  C   UNL     1      -1.391   4.729   3.906  1.00  0.00     0.031 A 
ATOM     41  C   UNL     1      -2.095   3.470   4.687  1.00  0.00     0.074 A 
ATOM     42  C   UNL     1      -0.052   5.026   3.797  1.00  0.00     0.049 A 
ATOM     43  N   UNL     1      -2.264   3.355   5.967  1.00  0.00    -0.248 NA
ATOM     44  C   UNL     1      -2.892   2.284   4.081  1.00  0.00     0.031 C 
ATOM     45  C   UNL     1       1.185   4.534   4.414  1.00  0.00     0.029 A 
ATOM     46  N   UNL     1       0.446   6.123   3.079  1.00  0.00    -0.354 N 
ATOM     47  C   UNL     1      -2.481   1.981   6.175  1.00  0.00     0.074 A 
ATOM     48  C   UNL     1      -3.295   1.555   5.110  1.00  0.00     0.031 C 
ATOM     49  C   UNL     1       2.100   5.538   4.439  1.00  0.00     0.029 A 
ATOM     50  C   UNL     1       1.545   6.684   3.730  1.00  0.00     0.049 A 
ATOM     51  H   UNL     1       0.071   6.453   2.231  1.00  0.00     0.167 HD
ATOM     52  C   UNL     1      -1.534   1.226   6.818  1.00  0.00     0.037 A 
ATOM     53  C   UNL     1       1.325   7.941   4.211  1.00  0.00     0.037 A 
ATOM     54  C   UNL     1      -0.452   2.120   7.244  1.00  0.00     0.049 A 
ATOM     55  C   UNL     1       0.781   7.769   5.631  1.00  0.00     0.074 A 
ATOM     56  C   UNL     1       0.900   2.239   7.000  1.00  0.00     0.029 A 
ATOM     57  N   UNL     1      -0.827   3.324   7.816  1.00  0.00    -0.354 N 
ATOM     58  N   UNL     1       0.303   6.639   6.103  1.00  0.00    -0.248 NA
ATOM     59  C   UNL     1       0.939   8.761   6.687  1.00  0.00     0.031 C 
ATOM     60  C   UNL     1       1.282   3.581   7.361  1.00  0.00     0.029 A 
ATOM     61  C   UNL     1       0.155   4.279   7.771  1.00  0.00     0.049 A 
ATOM     62  H   UNL     1      -1.713   3.480   8.215  1.00  0.00     0.167 HD
ATOM     63  C   UNL     1       0.176   6.692   7.459  1.00  0.00     0.074 A 
ATOM     64  C   UNL     1       0.574   8.053   7.773  1.00  0.00     0.031 C 
ATOM     65  C   UNL     1      -0.175   5.626   8.249  1.00  0.00     0.037 A 
BRANCH  52  66
ATOM     66  C   UNL     1      -1.467  -0.304   6.921  1.00  0.00     0.058 A 
ATOM     67  C   UNL     1      -0.590  -0.853   7.882  1.00  0.00     0.135 A 
ATOM     68  C   UNL     1      -2.203  -1.284   6.201  1.00  0.00     0.135 A 
ATOM     69  F   UNL     1       0.181  -0.062   8.640  1.00  0.00    -0.206 F 
ATOM     70  C   UNL     1      -0.474  -2.224   8.133  1.00  0.00     0.059 A 
ATOM     71  C   UNL     1      -2.123  -2.665   6.457  1.00  0.00     0.059 A 
ATOM     72  F   UNL     1      -3.024  -0.983   5.191  1.00  0.00    -0.206 F 
ATOM     73  C   UNL     1      -1.260  -3.126   7.433  1.00  0.00     0.060 A 
BRANCH  73  74
ATOM     74  S   UNL     1      -1.148  -4.879   7.842  1.00  0.00     0.124 S 
ATOM     75  O   UNL     1       0.242  -5.180   7.514  1.00  0.00    -0.237 OA
ATOM     76  O   UNL     1      -1.482  -4.883   9.262  1.00  0.00    -0.237 OA
ATOM     77  O   UNL     1      -2.140  -5.501   6.969  1.00  0.00    -0.744 OA
ENDBRANCH  73  74
ENDBRANCH  52  66
BRANCH  53  78
ATOM     78  C   UNL     1       0.908   8.834   3.047  1.00  0.00     0.058 A 
ATOM     79  C   UNL     1       1.821   8.895   1.956  1.00  0.00     0.135 A 
ATOM     80  C   UNL     1      -0.394   9.249   2.745  1.00  0.00     0.135 A 
ATOM     81  F   UNL     1       3.117   8.608   2.168  1.00  0.00    -0.206 F 
ATOM     82  C   UNL     1       1.432   9.123   0.630  1.00  0.00     0.059 A 
ATOM     83  C   UNL     1      -0.798   9.547   1.414  1.00  0.00     0.059 A 
ATOM     84  F   UNL     1      -1.346   9.218   3.692  1.00  0.00    -0.206 F 
ATOM     85  C   UNL     1       0.104   9.403   0.355  1.00  0.00     0.060 A 
BRANCH  85  86
ATOM     86  S   UNL     1      -0.418   9.470  -1.389  1.00  0.00     0.124 S 
ATOM     87  O   UNL     1       0.359  10.592  -1.903  1.00  0.00    -0.237 OA
ATOM     88  O   UNL     1      -0.031   8.155  -1.893  1.00  0.00    -0.237 OA
ATOM     89  O   UNL     1      -1.859   9.700  -1.302  1.00  0.00    -0.744 OA
ENDBRANCH  85  86
ENDBRANCH  53  78
BRANCH  65  90
ATOM     90  C   UNL     1      -0.856   5.774   9.609  1.00  0.00     0.058 A 
ATOM     91  C   UNL     1      -1.374   6.988  10.089  1.00  0.00     0.135 A 
ATOM     92  C   UNL     1      -1.132   4.653  10.443  1.00  0.00     0.135 A 
ATOM     93  F   UNL     1      -1.407   8.098   9.341  1.00  0.00    -0.206 F 
ATOM     94  C   UNL     1      -1.929   7.115  11.359  1.00  0.00     0.059 A 
ATOM     95  C   UNL     1      -1.803   4.739  11.654  1.00  0.00     0.059 A 
ATOM     96  F   UNL     1      -0.773   3.401  10.135  1.00  0.00    -0.206 F 
ATOM     97  C   UNL     1      -2.128   5.986  12.139  1.00  0.00     0.060 A 
BRANCH  97  98
ATOM     98  S   UNL     1      -2.800   6.164  13.788  1.00  0.00     0.124 S 
ATOM     99  O   UNL     1      -1.652   6.713  14.504  1.00  0.00    -0.237 OA
ATOM    100  O   UNL     1      -3.912   7.084  13.572  1.00  0.00    -0.237 OA
ATOM    101  O   UNL     1      -3.178   4.803  14.155  1.00  0.00    -0.744 OA
ENDBRANCH  97  98
ENDBRANCH  65  90
ENDBRANCH  39  40
ENDBRANCH  32  34
ENDBRANCH  31  32
ENDBRANCH  30  31
ENDBRANCH   1  30
TORSDOF 19
