REMARK SMILES C[N@@H+](CC(C)(C)C(=O)OCCOC(=O)c1ccc(-c2c3nc(c(-c4c(F)cc(S(=O)(=O)[O-])cc4F)c4ccc([nH]4)c(-c4c(F)cc(S(=O)(=O)[O-])cc4F)c4nc(c(-c5c(F)cc(S(=O)(=O)[O-])cc5F)c5ccc2[nH]5)C=C4)C=C3)cc1)[C@@H]1CCCC[C@@H]1C[NH3+]
REMARK SMILES IDX 10 1 9 2 7 3 8 4 4 5 5 6 6 7 3 8 2 9 1 10 81 12 82 13 86 14
REMARK SMILES IDX 83 15 85 16 84 17 87 18 88 19 11 23 12 24 13 25 14 26 15 27
REMARK SMILES IDX 16 28 80 29 17 30 79 31 18 32 19 33 20 34 73 35 21 36 78 37
REMARK SMILES IDX 72 38 74 39 22 40 77 41 71 42 70 43 23 45 57 46 36 47 56 48
REMARK SMILES IDX 37 49 40 50 55 51 75 52 38 53 39 54 54 56 76 57 41 58 24 59
REMARK SMILES IDX 25 60 34 61 26 62 27 63 33 64 35 65 28 66 29 67 30 68 31 69
REMARK SMILES IDX 32 70 58 71 59 72 68 73 60 74 61 75 67 76 69 77 62 78 63 79
REMARK SMILES IDX 64 80 65 81 66 82 42 83 43 84 52 85 44 86 45 87 51 88 53 89
REMARK SMILES IDX 46 90 47 91 48 92 49 93 50 94
REMARK H PARENT 2 11 88 20 88 21 88 22 74 44 40 55
REMARK Flexibility Score: inf
ROOT
ATOM      1  C   UNL     1      -1.700   2.927   1.859  1.00  0.00     0.274 C 
ENDROOT
BRANCH   1   2
ATOM      2  O   UNL     1      -2.190   2.389   0.610  1.00  0.00    -0.461 OA
BRANCH   2   3
ATOM      3  C   UNL     1      -1.327   1.507   0.020  1.00  0.00     0.317 C 
ATOM      4  O   UNL     1      -0.290   1.180   0.561  1.00  0.00    -0.251 OA
BRANCH   3   5
ATOM      5  C   UNL     1      -1.825   0.986  -1.341  1.00  0.00     0.111 C 
ATOM      6  C   UNL     1      -2.013   2.103  -2.391  1.00  0.00     0.029 C 
ATOM      7  C   UNL     1      -3.243   0.398  -1.128  1.00  0.00     0.029 C 
BRANCH   5   8
ATOM      8  C   UNL     1      -0.857  -0.138  -1.876  1.00  0.00     0.280 C 
BRANCH   8   9
ATOM      9  N   UNL     1       0.609  -0.017  -1.860  1.00  0.00    -0.334 N 
ATOM     10  C   UNL     1       1.345  -0.689  -0.804  1.00  0.00     0.333 C 
ATOM     11  H   UNL     1       0.679  -0.657  -2.651  1.00  0.00     0.348 HD
BRANCH   9  12
ATOM     12  C   UNL     1       1.308   0.900  -2.748  1.00  0.00     0.192 C 
ATOM     13  C   UNL     1       2.753   0.468  -3.082  1.00  0.00     0.065 C 
ATOM     14  C   UNL     1       1.312   2.399  -2.334  1.00  0.00     0.102 C 
ATOM     15  C   UNL     1       3.309   1.289  -4.244  1.00  0.00     0.006 C 
ATOM     16  C   UNL     1       1.794   3.218  -3.548  1.00  0.00     0.015 C 
ATOM     17  C   UNL     1       3.180   2.796  -4.033  1.00  0.00     0.001 C 
BRANCH  14  18
ATOM     18  C   UNL     1       2.083   2.757  -1.050  1.00  0.00     0.268 C 
BRANCH  18  19
ATOM     19  N   UNL     1       1.657   4.075  -0.546  1.00  0.00    -0.357 N 
ATOM     20  H   UNL     1       1.850   4.787  -1.252  1.00  0.00     0.344 HD
ATOM     21  H   UNL     1       2.171   4.295   0.307  1.00  0.00     0.344 HD
ATOM     22  H   UNL     1       0.657   4.056  -0.347  1.00  0.00     0.344 HD
ENDBRANCH  18  19
ENDBRANCH  14  18
ENDBRANCH   9  12
ENDBRANCH   8   9
ENDBRANCH   5   8
ENDBRANCH   3   5
ENDBRANCH   2   3
ENDBRANCH   1   2
BRANCH   1  23
ATOM     23  C   UNL     1      -2.048   2.074   3.091  1.00  0.00     0.275 C 
BRANCH  23  24
ATOM     24  O   UNL     1      -1.411   0.778   3.096  1.00  0.00    -0.458 OA
BRANCH  24  25
ATOM     25  C   UNL     1      -2.210  -0.265   2.768  1.00  0.00     0.338 C 
ATOM     26  O   UNL     1      -3.411  -0.210   2.533  1.00  0.00    -0.246 OA
BRANCH  25  27
ATOM     27  C   UNL     1      -1.422  -1.494   2.533  1.00  0.00     0.060 A 
ATOM     28  C   UNL     1      -1.492  -2.047   1.254  1.00  0.00     0.016 A 
ATOM     29  C   UNL     1      -0.704  -2.161   3.525  1.00  0.00     0.016 A 
ATOM     30  C   UNL     1      -0.815  -3.215   0.926  1.00  0.00     0.010 A 
ATOM     31  C   UNL     1      -0.050  -3.369   3.210  1.00  0.00     0.010 A 
ATOM     32  C   UNL     1      -0.096  -3.895   1.905  1.00  0.00    -0.014 A 
BRANCH  32  33
ATOM     33  C   UNL     1       0.467  -5.222   1.559  1.00  0.00     0.031 A 
ATOM     34  C   UNL     1      -0.410  -6.433   1.700  1.00  0.00     0.074 A 
ATOM     35  C   UNL     1       1.697  -5.341   1.026  1.00  0.00     0.049 A 
ATOM     36  N   UNL     1      -0.121  -7.693   1.507  1.00  0.00    -0.248 NA
ATOM     37  C   UNL     1      -1.806  -6.185   2.096  1.00  0.00     0.031 C 
ATOM     38  C   UNL     1       2.595  -4.231   0.713  1.00  0.00     0.029 A 
ATOM     39  N   UNL     1       2.403  -6.459   0.650  1.00  0.00    -0.354 N 
ATOM     40  C   UNL     1      -1.292  -8.391   1.772  1.00  0.00     0.074 A 
ATOM     41  C   UNL     1      -2.297  -7.415   2.135  1.00  0.00     0.031 C 
ATOM     42  C   UNL     1       3.742  -4.724   0.213  1.00  0.00     0.029 A 
ATOM     43  C   UNL     1       3.679  -6.186   0.216  1.00  0.00     0.049 A 
ATOM     44  H   UNL     1       2.030  -7.369   0.688  1.00  0.00     0.167 HD
ATOM     45  C   UNL     1      -1.506  -9.727   1.730  1.00  0.00     0.037 A 
ATOM     46  C   UNL     1       4.690  -7.021  -0.101  1.00  0.00     0.037 A 
ATOM     47  C   UNL     1      -0.497 -10.695   1.389  1.00  0.00     0.049 A 
ATOM     48  C   UNL     1       4.466  -8.512  -0.019  1.00  0.00     0.074 A 
ATOM     49  C   UNL     1      -0.603 -12.074   1.361  1.00  0.00     0.029 A 
ATOM     50  N   UNL     1       0.806 -10.387   1.029  1.00  0.00    -0.354 N 
ATOM     51  N   UNL     1       3.369  -9.168   0.277  1.00  0.00    -0.248 NA
ATOM     52  C   UNL     1       5.621  -9.378  -0.302  1.00  0.00     0.031 C 
ATOM     53  C   UNL     1       0.650 -12.602   1.033  1.00  0.00     0.029 A 
ATOM     54  C   UNL     1       1.522 -11.550   0.800  1.00  0.00     0.049 A 
ATOM     55  H   UNL     1       1.169  -9.475   0.947  1.00  0.00     0.167 HD
ATOM     56  C   UNL     1       3.694 -10.519   0.188  1.00  0.00     0.074 A 
ATOM     57  C   UNL     1       5.088 -10.588  -0.198  1.00  0.00     0.031 C 
ATOM     58  C   UNL     1       2.908 -11.604   0.404  1.00  0.00     0.037 A 
BRANCH  45  59
ATOM     59  C   UNL     1      -2.866 -10.217   2.135  1.00  0.00     0.058 A 
ATOM     60  C   UNL     1      -3.992 -10.050   1.315  1.00  0.00     0.135 A 
ATOM     61  C   UNL     1      -3.042 -10.863   3.369  1.00  0.00     0.135 A 
ATOM     62  F   UNL     1      -3.884  -9.415   0.137  1.00  0.00    -0.206 F 
ATOM     63  C   UNL     1      -5.252 -10.483   1.716  1.00  0.00     0.059 A 
ATOM     64  C   UNL     1      -4.287 -11.327   3.780  1.00  0.00     0.059 A 
ATOM     65  F   UNL     1      -1.998 -11.040   4.194  1.00  0.00    -0.206 F 
ATOM     66  C   UNL     1      -5.389 -11.118   2.953  1.00  0.00     0.060 A 
BRANCH  66  67
ATOM     67  S   UNL     1      -7.031 -11.664   3.467  1.00  0.00     0.124 S 
ATOM     68  O   UNL     1      -7.675 -10.392   3.780  1.00  0.00    -0.237 OA
ATOM     69  O   UNL     1      -7.521 -12.346   2.274  1.00  0.00    -0.237 OA
ATOM     70  O   UNL     1      -6.760 -12.527   4.612  1.00  0.00    -0.744 OA
ENDBRANCH  66  67
ENDBRANCH  45  59
BRANCH  46  71
ATOM     71  C   UNL     1       6.028  -6.478  -0.467  1.00  0.00     0.058 A 
ATOM     72  C   UNL     1       6.561  -6.647  -1.754  1.00  0.00     0.135 A 
ATOM     73  C   UNL     1       6.818  -5.804   0.479  1.00  0.00     0.135 A 
ATOM     74  F   UNL     1       5.857  -7.303  -2.689  1.00  0.00    -0.206 F 
ATOM     75  C   UNL     1       7.830  -6.182  -2.086  1.00  0.00     0.059 A 
ATOM     76  C   UNL     1       8.078  -5.305   0.163  1.00  0.00     0.059 A 
ATOM     77  F   UNL     1       6.360  -5.615   1.726  1.00  0.00    -0.206 F 
ATOM     78  C   UNL     1       8.581  -5.510  -1.120  1.00  0.00     0.060 A 
BRANCH  78  79
ATOM     79  S   UNL     1      10.211  -4.875  -1.571  1.00  0.00     0.124 S 
ATOM     80  O   UNL     1      10.994  -6.103  -1.651  1.00  0.00    -0.237 OA
ATOM     81  O   UNL     1       9.940  -4.207  -2.841  1.00  0.00    -0.237 OA
ATOM     82  O   UNL     1      10.543  -3.985  -0.463  1.00  0.00    -0.744 OA
ENDBRANCH  78  79
ENDBRANCH  46  71
BRANCH  58  83
ATOM     83  C   UNL     1       3.516 -12.965   0.189  1.00  0.00     0.058 A 
ATOM     84  C   UNL     1       4.444 -13.513   1.087  1.00  0.00     0.135 A 
ATOM     85  C   UNL     1       3.106 -13.759  -0.895  1.00  0.00     0.135 A 
ATOM     86  F   UNL     1       4.874 -12.796   2.137  1.00  0.00    -0.206 F 
ATOM     87  C   UNL     1       4.959 -14.794   0.908  1.00  0.00     0.059 A 
ATOM     88  C   UNL     1       3.586 -15.053  -1.077  1.00  0.00     0.059 A 
ATOM     89  F   UNL     1       2.211 -13.289  -1.778  1.00  0.00    -0.206 F 
ATOM     90  C   UNL     1       4.520 -15.559  -0.175  1.00  0.00     0.060 A 
BRANCH  90  91
ATOM     91  S   UNL     1       5.160 -17.236  -0.370  1.00  0.00     0.124 S 
ATOM     92  O   UNL     1       6.519 -16.980  -0.836  1.00  0.00    -0.237 OA
ATOM     93  O   UNL     1       5.044 -17.774   0.982  1.00  0.00    -0.237 OA
ATOM     94  O   UNL     1       4.261 -17.831  -1.354  1.00  0.00    -0.744 OA
ENDBRANCH  90  91
ENDBRANCH  58  83
ENDBRANCH  32  33
ENDBRANCH  25  27
ENDBRANCH  24  25
ENDBRANCH  23  24
ENDBRANCH   1  23
TORSDOF 19
