REMARK SMILES O=C(OCCOC(=O)[C@H]1[C@H]2CC[C@H](CC2)[C@@H]1C(=O)Nc1ccc(Cc2ccncc2)cc1)c1ccc(-c2c3nc(c(-c4c(F)cc(S(=O)(=O)[O-])cc4F)c4ccc([nH]4)c(-c4c(F)cc(S(=O)(=O)[O-])cc4F)c4nc(c(-c5c(F)cc(S(=O)(=O)[O-])cc5F)c5ccc2[nH]5)C=C4)C=C3)cc1
REMARK SMILES IDX 5 1 4 2 3 3 2 4 1 5 33 6 34 7 98 8 35 9 97 10 36 11 37 12
REMARK SMILES IDX 38 13 91 14 39 15 96 16 90 17 92 18 40 19 95 20 89 21 88 22
REMARK SMILES IDX 41 24 75 25 54 26 74 27 55 28 58 29 73 30 93 31 56 32 57 33
REMARK SMILES IDX 72 35 94 36 59 37 42 38 43 39 52 40 44 41 45 42 51 43 53 44
REMARK SMILES IDX 46 45 47 46 48 47 49 48 50 49 76 50 77 51 86 52 78 53 79 54
REMARK SMILES IDX 85 55 87 56 80 57 81 58 82 59 83 60 84 61 60 62 61 63 70 64
REMARK SMILES IDX 62 65 63 66 69 67 71 68 64 69 65 70 66 71 67 72 68 73 6 74
REMARK SMILES IDX 7 75 8 76 9 77 10 78 16 79 15 80 11 81 13 82 14 83 12 84
REMARK SMILES IDX 17 85 18 86 19 87 20 89 21 90 32 91 22 92 31 93 23 94 24 95
REMARK SMILES IDX 25 96 26 97 30 98 27 99 29 100 28 101
REMARK H PARENT 92 23 58 34 19 88
REMARK Flexibility Score: inf
ROOT
ATOM      1  C   UNL     1       4.497   1.458   1.114  1.00  0.00     0.274 C 
ENDROOT
BRANCH   1   2
ATOM      2  C   UNL     1       4.342   1.422  -0.422  1.00  0.00     0.275 C 
BRANCH   2   3
ATOM      3  O   UNL     1       3.440   0.448  -0.961  1.00  0.00    -0.458 OA
BRANCH   3   4
ATOM      4  C   UNL     1       3.743  -0.798  -1.396  1.00  0.00     0.338 C 
ATOM      5  O   UNL     1       3.009  -1.352  -2.210  1.00  0.00    -0.246 OA
BRANCH   4   6
ATOM      6  C   UNL     1       4.772  -1.605  -0.679  1.00  0.00     0.060 A 
ATOM      7  C   UNL     1       5.985  -1.142  -0.161  1.00  0.00     0.016 A 
ATOM      8  C   UNL     1       4.398  -2.919  -0.400  1.00  0.00     0.016 A 
ATOM      9  C   UNL     1       6.702  -1.888   0.791  1.00  0.00     0.010 A 
ATOM     10  C   UNL     1       5.081  -3.630   0.589  1.00  0.00     0.010 A 
ATOM     11  C   UNL     1       6.217  -3.113   1.244  1.00  0.00    -0.014 A 
BRANCH  11  12
ATOM     12  C   UNL     1       6.850  -3.891   2.360  1.00  0.00     0.031 A 
ATOM     13  C   UNL     1       7.110  -5.362   2.131  1.00  0.00     0.074 A 
ATOM     14  C   UNL     1       7.057  -3.379   3.601  1.00  0.00     0.049 A 
ATOM     15  N   UNL     1       7.506  -6.275   2.980  1.00  0.00    -0.248 NA
ATOM     16  C   UNL     1       6.835  -5.895   0.779  1.00  0.00     0.031 C 
ATOM     17  C   UNL     1       6.788  -2.005   4.047  1.00  0.00     0.029 A 
ATOM     18  N   UNL     1       7.453  -4.001   4.768  1.00  0.00    -0.354 N 
ATOM     19  C   UNL     1       7.598  -7.434   2.225  1.00  0.00     0.074 A 
ATOM     20  C   UNL     1       6.916  -7.198   0.979  1.00  0.00     0.031 C 
ATOM     21  C   UNL     1       6.866  -1.938   5.391  1.00  0.00     0.029 A 
ATOM     22  C   UNL     1       7.302  -3.228   5.904  1.00  0.00     0.049 A 
ATOM     23  H   UNL     1       7.812  -4.917   4.789  1.00  0.00     0.167 HD
ATOM     24  C   UNL     1       8.399  -8.505   2.426  1.00  0.00     0.037 A 
ATOM     25  C   UNL     1       7.516  -3.524   7.204  1.00  0.00     0.037 A 
ATOM     26  C   UNL     1       9.157  -8.706   3.619  1.00  0.00     0.049 A 
ATOM     27  C   UNL     1       8.240  -4.811   7.516  1.00  0.00     0.074 A 
ATOM     28  C   UNL     1      10.089  -9.684   3.903  1.00  0.00     0.029 A 
ATOM     29  N   UNL     1       9.062  -7.892   4.735  1.00  0.00    -0.354 N 
ATOM     30  N   UNL     1       8.550  -5.797   6.708  1.00  0.00    -0.248 NA
ATOM     31  C   UNL     1       8.748  -4.977   8.886  1.00  0.00     0.031 C 
ATOM     32  C   UNL     1      10.540  -9.475   5.212  1.00  0.00     0.029 A 
ATOM     33  C   UNL     1       9.906  -8.352   5.724  1.00  0.00     0.049 A 
ATOM     34  H   UNL     1       8.479  -7.102   4.811  1.00  0.00     0.167 HD
ATOM     35  C   UNL     1       9.384  -6.636   7.437  1.00  0.00     0.074 A 
ATOM     36  C   UNL     1       9.489  -6.071   8.765  1.00  0.00     0.031 C 
ATOM     37  C   UNL     1      10.038  -7.750   7.026  1.00  0.00     0.037 A 
BRANCH  24  38
ATOM     38  C   UNL     1       8.617  -9.384   1.229  1.00  0.00     0.058 A 
ATOM     39  C   UNL     1       9.303  -8.876   0.106  1.00  0.00     0.135 A 
ATOM     40  C   UNL     1       8.089 -10.676   1.148  1.00  0.00     0.135 A 
ATOM     41  F   UNL     1       9.804  -7.629   0.125  1.00  0.00    -0.206 F 
ATOM     42  C   UNL     1       9.399  -9.594  -1.075  1.00  0.00     0.059 A 
ATOM     43  C   UNL     1       8.206 -11.429  -0.019  1.00  0.00     0.059 A 
ATOM     44  F   UNL     1       7.421 -11.202   2.186  1.00  0.00    -0.206 F 
ATOM     45  C   UNL     1       8.841 -10.869  -1.130  1.00  0.00     0.060 A 
BRANCH  45  46
ATOM     46  S   UNL     1       8.953 -11.774  -2.686  1.00  0.00     0.124 S 
ATOM     47  O   UNL     1       7.994 -11.048  -3.514  1.00  0.00    -0.237 OA
ATOM     48  O   UNL     1      10.357 -11.601  -3.045  1.00  0.00    -0.237 OA
ATOM     49  O   UNL     1       8.564 -13.131  -2.317  1.00  0.00    -0.744 OA
ENDBRANCH  45  46
ENDBRANCH  24  38
BRANCH  25  50
ATOM     50  C   UNL     1       7.199  -2.570   8.310  1.00  0.00     0.058 A 
ATOM     51  C   UNL     1       8.209  -1.815   8.928  1.00  0.00     0.135 A 
ATOM     52  C   UNL     1       5.907  -2.485   8.853  1.00  0.00     0.135 A 
ATOM     53  F   UNL     1       9.465  -1.871   8.459  1.00  0.00    -0.206 F 
ATOM     54  C   UNL     1       7.966  -1.058  10.073  1.00  0.00     0.059 A 
ATOM     55  C   UNL     1       5.634  -1.717   9.989  1.00  0.00     0.059 A 
ATOM     56  F   UNL     1       4.902  -3.184   8.305  1.00  0.00    -0.206 F 
ATOM     57  C   UNL     1       6.677  -1.026  10.606  1.00  0.00     0.060 A 
BRANCH  57  58
ATOM     58  S   UNL     1       6.399  -0.081  12.125  1.00  0.00     0.124 S 
ATOM     59  O   UNL     1       7.137  -0.872  13.104  1.00  0.00    -0.237 OA
ATOM     60  O   UNL     1       6.981   1.215  11.789  1.00  0.00    -0.237 OA
ATOM     61  O   UNL     1       4.948  -0.091  12.275  1.00  0.00    -0.744 OA
ENDBRANCH  57  58
ENDBRANCH  25  50
BRANCH  37  62
ATOM     62  C   UNL     1      11.005  -8.384   7.979  1.00  0.00     0.058 A 
ATOM     63  C   UNL     1      10.574  -9.111   9.097  1.00  0.00     0.135 A 
ATOM     64  C   UNL     1      12.384  -8.324   7.718  1.00  0.00     0.135 A 
ATOM     65  F   UNL     1       9.267  -9.188   9.390  1.00  0.00    -0.206 F 
ATOM     66  C   UNL     1      11.481  -9.748   9.934  1.00  0.00     0.059 A 
ATOM     67  C   UNL     1      13.306  -8.981   8.523  1.00  0.00     0.059 A 
ATOM     68  F   UNL     1      12.844  -7.648   6.653  1.00  0.00    -0.206 F 
ATOM     69  C   UNL     1      12.844  -9.684   9.635  1.00  0.00     0.060 A 
BRANCH  69  70
ATOM     70  S   UNL     1      14.005 -10.573  10.691  1.00  0.00     0.124 S 
ATOM     71  O   UNL     1      14.066  -9.700  11.858  1.00  0.00    -0.237 OA
ATOM     72  O   UNL     1      13.331 -11.853  10.889  1.00  0.00    -0.237 OA
ATOM     73  O   UNL     1      15.220 -10.632   9.883  1.00  0.00    -0.744 OA
ENDBRANCH  69  70
ENDBRANCH  37  62
ENDBRANCH  11  12
ENDBRANCH   4   6
ENDBRANCH   3   4
ENDBRANCH   2   3
ENDBRANCH   1   2
BRANCH   1  74
ATOM     74  O   UNL     1       3.919   0.377   1.878  1.00  0.00    -0.462 OA
BRANCH  74  75
ATOM     75  C   UNL     1       2.568   0.473   2.000  1.00  0.00     0.310 C 
ATOM     76  O   UNL     1       1.924   1.277   1.347  1.00  0.00    -0.252 OA
BRANCH  75  77
ATOM     77  C   UNL     1       1.903  -0.488   3.006  1.00  0.00     0.115 C 
ATOM     78  C   UNL     1       1.565  -1.879   2.436  1.00  0.00     0.004 C 
ATOM     79  C   UNL     1       2.510  -0.585   4.421  1.00  0.00     0.096 C 
ATOM     80  C   UNL     1       2.856  -2.646   2.322  1.00  0.00     0.005 C 
ATOM     81  C   UNL     1       0.684  -2.697   3.397  1.00  0.00     0.005 C 
ATOM     82  C   UNL     1       2.710  -2.100   4.763  1.00  0.00     0.002 C 
ATOM     83  C   UNL     1       3.558  -2.739   3.666  1.00  0.00     0.005 C 
ATOM     84  C   UNL     1       1.364  -2.841   4.765  1.00  0.00     0.005 C 
BRANCH  79  85
ATOM     85  C   UNL     1       1.813   0.059   5.655  1.00  0.00     0.228 C 
ATOM     86  O   UNL     1       2.454   0.149   6.711  1.00  0.00    -0.274 OA
ATOM     87  N   UNL     1       0.494   0.436   5.723  1.00  0.00    -0.326 N 
ATOM     88  H   UNL     1       0.017   0.257   6.566  1.00  0.00     0.169 HD
BRANCH  87  89
ATOM     89  C   UNL     1      -0.229   1.052   4.695  1.00  0.00     0.041 A 
ATOM     90  C   UNL     1       0.203   2.291   4.224  1.00  0.00     0.026 A 
ATOM     91  C   UNL     1      -1.176   0.306   3.988  1.00  0.00     0.026 A 
ATOM     92  C   UNL     1      -0.147   2.683   2.936  1.00  0.00     0.006 A 
ATOM     93  C   UNL     1      -1.480   0.672   2.675  1.00  0.00     0.006 A 
ATOM     94  C   UNL     1      -0.896   1.821   2.118  1.00  0.00    -0.043 A 
BRANCH  94  95
ATOM     95  C   UNL     1      -0.957   2.074   0.625  1.00  0.00     0.071 C 
BRANCH  95  96
ATOM     96  C   UNL     1      -2.277   2.643   0.201  1.00  0.00    -0.041 A 
ATOM     97  C   UNL     1      -2.692   3.881   0.696  1.00  0.00     0.024 A 
ATOM     98  C   UNL     1      -3.130   1.932  -0.642  1.00  0.00     0.024 A 
ATOM     99  C   UNL     1      -3.956   4.332   0.368  1.00  0.00     0.111 A 
ATOM    100  C   UNL     1      -4.373   2.475  -0.920  1.00  0.00     0.111 A 
ATOM    101  N   UNL     1      -4.809   3.657  -0.431  1.00  0.00    -0.265 NA
ENDBRANCH  95  96
ENDBRANCH  94  95
ENDBRANCH  87  89
ENDBRANCH  79  85
ENDBRANCH  75  77
ENDBRANCH  74  75
ENDBRANCH   1  74
TORSDOF 18
