REMARK SMILES COC(=O)c1c(SCC(=O)Nc2cc(C)ccc2C)[nH]c2cc(C(=O)OCCOC(=O)c3ccc(-c4c5nc(c(-c6c(F)cc(S(=O)(=O)[O-])cc6F)c6ccc([nH]6)c(-c6c(F)cc(S(=O)(=O)[O-])cc6F)c6nc(c(-c7c(F)cc(S(=O)(=O)[O-])cc7F)c7ccc4[nH]7)C=C6)C=C5)cc3)ccc2c1=O
REMARK SMILES IDX 27 1 26 2 24 3 25 4 23 5 5 6 6 7 101 8 20 9 100 10 102 11
REMARK SMILES IDX 21 12 99 14 22 15 98 16 3 17 4 18 2 19 1 20 7 21 8 22 9 23
REMARK SMILES IDX 10 24 11 25 12 27 13 28 18 29 14 30 17 31 19 32 15 33 16 34
REMARK SMILES IDX 28 35 29 36 30 37 31 38 32 39 33 40 97 41 34 42 96 43 35 44
REMARK SMILES IDX 36 45 37 46 90 47 38 48 95 49 89 50 91 51 39 52 94 53 88 54
REMARK SMILES IDX 87 55 40 57 74 58 53 59 73 60 54 61 57 62 72 63 92 64 55 65
REMARK SMILES IDX 56 66 71 68 93 69 58 70 41 71 42 72 51 73 43 74 44 75 50 76
REMARK SMILES IDX 52 77 45 78 46 79 47 80 48 81 49 82 75 83 76 84 85 85 77 86
REMARK SMILES IDX 78 87 84 88 86 89 79 90 80 91 81 92 82 93 83 94 59 95 60 96
REMARK SMILES IDX 69 97 61 98 62 99 68 100 70 101 63 102 64 103 65 104 66 105
REMARK SMILES IDX 67 106
REMARK H PARENT 20 13 11 26 91 56 57 67
REMARK Flexibility Score: inf
ROOT
ATOM      1  C   UNL     1      -4.494  10.353  -0.277  1.00  0.00     0.275 C 
ENDROOT
BRANCH   1   2
ATOM      2  O   UNL     1      -3.814   9.130   0.025  1.00  0.00    -0.458 OA
BRANCH   2   3
ATOM      3  C   UNL     1      -3.416   8.429  -1.049  1.00  0.00     0.338 C 
ATOM      4  O   UNL     1      -3.572   8.711  -2.240  1.00  0.00    -0.246 OA
BRANCH   3   5
ATOM      5  C   UNL     1      -2.897   7.142  -0.620  1.00  0.00     0.062 A 
ATOM      6  C   UNL     1      -0.105   2.978   0.378  1.00  0.00     0.138 A 
ATOM      7  C   UNL     1       0.754   4.022   0.293  1.00  0.00     0.092 A 
ATOM      8  C   UNL     1      -1.563   3.233   0.179  1.00  0.00     0.205 A 
ATOM      9  N   UNL     1       0.265   5.314   0.064  1.00  0.00    -0.349 N 
ATOM     10  C   UNL     1      -2.031   4.602  -0.052  1.00  0.00     0.046 A 
ATOM     11  O   UNL     1      -2.384   2.318   0.144  1.00  0.00    -0.288 OA
ATOM     12  C   UNL     1      -1.083   5.627  -0.125  1.00  0.00     0.051 A 
ATOM     13  H   UNL     1       0.915   6.052   0.034  1.00  0.00     0.167 HD
ATOM     14  C   UNL     1      -3.397   4.832  -0.251  1.00  0.00     0.015 A 
ATOM     15  C   UNL     1      -1.526   6.923  -0.406  1.00  0.00     0.042 A 
ATOM     16  C   UNL     1      -3.832   6.109  -0.544  1.00  0.00     0.016 A 
BRANCH   6  17
ATOM     17  C   UNL     1       0.191   1.566   0.648  1.00  0.00     0.344 C 
ATOM     18  O   UNL     1      -0.317   0.966   1.585  1.00  0.00    -0.246 OA
BRANCH  17  19
ATOM     19  O   UNL     1       0.977   1.044  -0.322  1.00  0.00    -0.465 OA
ATOM     20  C   UNL     1       1.181  -0.369  -0.231  1.00  0.00     0.282 C 
ENDBRANCH  17  19
ENDBRANCH   6  17
BRANCH   7  21
ATOM     21  S   UNL     1       2.508   3.945   0.315  1.00  0.00    -0.098 SA
BRANCH  21  22
ATOM     22  C   UNL     1       3.207   2.640   1.322  1.00  0.00     0.176 C 
BRANCH  22  23
ATOM     23  C   UNL     1       2.537   2.224   2.607  1.00  0.00     0.234 C 
ATOM     24  O   UNL     1       2.115   1.065   2.715  1.00  0.00    -0.274 OA
ATOM     25  N   UNL     1       2.525   2.957   3.757  1.00  0.00    -0.325 N 
ATOM     26  H   UNL     1       1.789   2.776   4.385  1.00  0.00     0.169 HD
BRANCH  25  27
ATOM     27  C   UNL     1       3.448   3.939   4.141  1.00  0.00     0.044 A 
ATOM     28  C   UNL     1       3.624   5.088   3.370  1.00  0.00     0.029 A 
ATOM     29  C   UNL     1       4.204   3.764   5.313  1.00  0.00    -0.027 A 
ATOM     30  C   UNL     1       4.630   6.013   3.661  1.00  0.00    -0.049 A 
ATOM     31  C   UNL     1       5.197   4.710   5.618  1.00  0.00     0.006 A 
ATOM     32  C   UNL     1       4.065   2.589   6.246  1.00  0.00     0.046 C 
ATOM     33  C   UNL     1       4.850   7.199   2.771  1.00  0.00     0.044 C 
ATOM     34  C   UNL     1       5.424   5.810   4.789  1.00  0.00     0.004 A 
ENDBRANCH  25  27
ENDBRANCH  22  23
ENDBRANCH  21  22
ENDBRANCH   7  21
ENDBRANCH   3   5
ENDBRANCH   2   3
ENDBRANCH   1   2
BRANCH   1  35
ATOM     35  C   UNL     1      -4.028  11.461   0.666  1.00  0.00     0.275 C 
BRANCH  35  36
ATOM     36  O   UNL     1      -2.604  11.506   0.983  1.00  0.00    -0.458 OA
BRANCH  36  37
ATOM     37  C   UNL     1      -1.548  11.298   0.153  1.00  0.00     0.338 C 
ATOM     38  O   UNL     1      -0.482  10.864   0.572  1.00  0.00    -0.246 OA
BRANCH  37  39
ATOM     39  C   UNL     1      -1.732  11.565  -1.286  1.00  0.00     0.060 A 
ATOM     40  C   UNL     1      -1.135  10.708  -2.220  1.00  0.00     0.016 A 
ATOM     41  C   UNL     1      -2.582  12.581  -1.708  1.00  0.00     0.016 A 
ATOM     42  C   UNL     1      -1.526  10.762  -3.559  1.00  0.00     0.010 A 
ATOM     43  C   UNL     1      -3.046  12.560  -3.010  1.00  0.00     0.010 A 
ATOM     44  C   UNL     1      -2.528  11.655  -3.949  1.00  0.00    -0.014 A 
BRANCH  44  45
ATOM     45  C   UNL     1      -3.071  11.612  -5.314  1.00  0.00     0.031 A 
ATOM     46  C   UNL     1      -3.637  10.323  -5.849  1.00  0.00     0.074 A 
ATOM     47  C   UNL     1      -3.307  12.740  -6.016  1.00  0.00     0.049 A 
ATOM     48  N   UNL     1      -3.331   9.704  -6.949  1.00  0.00    -0.248 NA
ATOM     49  C   UNL     1      -4.695   9.651  -5.084  1.00  0.00     0.031 C 
ATOM     50  C   UNL     1      -3.121  14.136  -5.599  1.00  0.00     0.029 A 
ATOM     51  N   UNL     1      -3.895  12.864  -7.238  1.00  0.00    -0.354 N 
ATOM     52  C   UNL     1      -4.245   8.652  -7.099  1.00  0.00     0.074 A 
ATOM     53  C   UNL     1      -5.015   8.628  -5.882  1.00  0.00     0.031 C 
ATOM     54  C   UNL     1      -3.808  14.947  -6.429  1.00  0.00     0.029 A 
ATOM     55  C   UNL     1      -4.301  14.151  -7.535  1.00  0.00     0.049 A 
ATOM     56  H   UNL     1      -4.020  12.105  -7.853  1.00  0.00     0.167 HD
ATOM     57  C   UNL     1      -4.386   7.956  -8.268  1.00  0.00     0.037 A 
ATOM     58  C   UNL     1      -5.008  14.556  -8.612  1.00  0.00     0.037 A 
ATOM     59  C   UNL     1      -3.270   8.175  -9.149  1.00  0.00     0.049 A 
ATOM     60  C   UNL     1      -4.790  13.558  -9.684  1.00  0.00     0.074 A 
ATOM     61  C   UNL     1      -1.910   7.945  -9.085  1.00  0.00     0.029 A 
ATOM     62  N   UNL     1      -3.445   8.999 -10.233  1.00  0.00    -0.354 N 
ATOM     63  N   UNL     1      -3.630  13.332 -10.242  1.00  0.00    -0.248 NA
ATOM     64  C   UNL     1      -5.786  12.518  -9.881  1.00  0.00     0.031 C 
ATOM     65  C   UNL     1      -1.320   9.039  -9.787  1.00  0.00     0.029 A 
ATOM     66  C   UNL     1      -2.364   9.842 -10.252  1.00  0.00     0.049 A 
ATOM     67  H   UNL     1      -4.196   8.987 -10.870  1.00  0.00     0.167 HD
ATOM     68  C   UNL     1      -3.615  11.970 -10.500  1.00  0.00     0.074 A 
ATOM     69  C   UNL     1      -5.008  11.551 -10.374  1.00  0.00     0.031 C 
ATOM     70  C   UNL     1      -2.447  11.259 -10.530  1.00  0.00     0.037 A 
BRANCH  57  71
ATOM     71  C   UNL     1      -5.643   7.263  -8.768  1.00  0.00     0.058 A 
ATOM     72  C   UNL     1      -5.578   6.448  -9.924  1.00  0.00     0.135 A 
ATOM     73  C   UNL     1      -6.945   7.600  -8.345  1.00  0.00     0.135 A 
ATOM     74  F   UNL     1      -4.395   6.043 -10.414  1.00  0.00    -0.206 F 
ATOM     75  C   UNL     1      -6.708   6.091 -10.663  1.00  0.00     0.059 A 
ATOM     76  C   UNL     1      -8.092   7.213  -9.042  1.00  0.00     0.059 A 
ATOM     77  F   UNL     1      -7.160   8.400  -7.294  1.00  0.00    -0.206 F 
ATOM     78  C   UNL     1      -7.961   6.508 -10.230  1.00  0.00     0.060 A 
BRANCH  78  79
ATOM     79  S   UNL     1      -9.402   6.197 -11.270  1.00  0.00     0.124 S 
ATOM     80  O   UNL     1      -9.181   7.144 -12.358  1.00  0.00    -0.237 OA
ATOM     81  O   UNL     1      -9.242   4.787 -11.611  1.00  0.00    -0.237 OA
ATOM     82  O   UNL     1     -10.524   6.499 -10.387  1.00  0.00    -0.744 OA
ENDBRANCH  78  79
ENDBRANCH  57  71
BRANCH  58  83
ATOM     83  C   UNL     1      -6.066  15.588  -8.622  1.00  0.00     0.058 A 
ATOM     84  C   UNL     1      -6.477  16.208  -9.809  1.00  0.00     0.135 A 
ATOM     85  C   UNL     1      -6.866  15.815  -7.480  1.00  0.00     0.135 A 
ATOM     86  F   UNL     1      -5.785  16.019 -10.942  1.00  0.00    -0.206 F 
ATOM     87  C   UNL     1      -7.635  16.989  -9.871  1.00  0.00     0.059 A 
ATOM     88  C   UNL     1      -8.017  16.596  -7.515  1.00  0.00     0.059 A 
ATOM     89  F   UNL     1      -6.593  15.212  -6.312  1.00  0.00    -0.206 F 
ATOM     90  C   UNL     1      -8.407  17.163  -8.721  1.00  0.00     0.060 A 
BRANCH  90  91
ATOM     91  S   UNL     1      -9.986  18.035  -8.837  1.00  0.00     0.124 S 
ATOM     92  O   UNL     1      -9.554  19.410  -9.060  1.00  0.00    -0.237 OA
ATOM     93  O   UNL     1     -10.619  17.373  -9.973  1.00  0.00    -0.237 OA
ATOM     94  O   UNL     1     -10.611  17.779  -7.542  1.00  0.00    -0.744 OA
ENDBRANCH  90  91
ENDBRANCH  58  83
BRANCH  70  95
ATOM     95  C   UNL     1      -1.139  12.012 -10.550  1.00  0.00     0.058 A 
ATOM     96  C   UNL     1      -0.683  12.808  -9.486  1.00  0.00     0.135 A 
ATOM     97  C   UNL     1      -0.232  11.765 -11.591  1.00  0.00     0.135 A 
ATOM     98  F   UNL     1      -1.437  13.002  -8.399  1.00  0.00    -0.206 F 
ATOM     99  C   UNL     1       0.597  13.364  -9.470  1.00  0.00     0.059 A 
ATOM    100  C   UNL     1       1.063  12.285 -11.584  1.00  0.00     0.059 A 
ATOM    101  F   UNL     1      -0.577  10.954 -12.605  1.00  0.00    -0.206 F 
ATOM    102  C   UNL     1       1.467  13.093 -10.522  1.00  0.00     0.060 A 
BRANCH 102 103
ATOM    103  S   UNL     1       3.156  13.726 -10.442  1.00  0.00     0.124 S 
ATOM    104  O   UNL     1       2.966  15.143 -10.731  1.00  0.00    -0.237 OA
ATOM    105  O   UNL     1       3.554  13.407  -9.073  1.00  0.00    -0.237 OA
ATOM    106  O   UNL     1       3.855  12.966 -11.475  1.00  0.00    -0.744 OA
ENDBRANCH 102 103
ENDBRANCH  70  95
ENDBRANCH  44  45
ENDBRANCH  37  39
ENDBRANCH  36  37
ENDBRANCH  35  36
ENDBRANCH   1  35
TORSDOF 20
