REMARK SMILES CCC[NH+]1CCC(NC(=O)NC2(CC(=O)OCCOC(=O)c3ccc(-c4c5nc(c(-c6c(F)cc(S(=O)(=O)[O-])cc6F)c6ccc([nH]6)c(-c6c(F)cc(S(=O)(=O)[O-])cc6F)c6nc(c(-c7c(F)cc(S(=O)(=O)[O-])cc7F)c7ccc4[nH]7)C=C6)C=C5)cc3)CCC2)CC1
REMARK SMILES IDX 17 1 16 2 14 3 15 4 13 5 12 6 88 7 90 8 89 9 11 10 8 11 9 12
REMARK SMILES IDX 10 14 7 16 4 17 5 18 92 19 6 21 91 22 3 23 2 24 1 25 18 26
REMARK SMILES IDX 19 27 20 28 21 29 22 30 23 31 87 32 24 33 86 34 25 35 26 36
REMARK SMILES IDX 27 37 80 38 28 39 85 40 79 41 81 42 29 43 84 44 78 45 77 46
REMARK SMILES IDX 30 48 64 49 43 50 63 51 44 52 47 53 62 54 82 55 45 56 46 57
REMARK SMILES IDX 61 59 83 60 48 61 31 62 32 63 41 64 33 65 34 66 40 67 42 68
REMARK SMILES IDX 35 69 36 70 37 71 38 72 39 73 65 74 66 75 75 76 67 77 68 78
REMARK SMILES IDX 74 79 76 80 69 81 70 82 71 83 72 84 73 85 49 86 50 87 59 88
REMARK SMILES IDX 51 89 52 90 58 91 60 92 53 93 54 94 55 95 56 96 57 97
REMARK H PARENT 8 13 11 15 4 20 81 47 47 58
REMARK Flexibility Score: inf
ROOT
ATOM      1  C   UNL     1       6.200   3.268  -6.425  1.00  0.00     0.274 C 
ENDROOT
BRANCH   1   2
ATOM      2  O   UNL     1       5.459   3.724  -5.274  1.00  0.00    -0.462 OA
BRANCH   2   3
ATOM      3  C   UNL     1       6.059   4.701  -4.556  1.00  0.00     0.308 C 
ATOM      4  O   UNL     1       7.156   5.183  -4.823  1.00  0.00    -0.252 OA
BRANCH   3   5
ATOM      5  C   UNL     1       5.296   5.156  -3.347  1.00  0.00     0.151 C 
BRANCH   5   6
ATOM      6  C   UNL     1       3.853   4.681  -3.071  1.00  0.00     0.052 C 
ATOM      7  C   UNL     1       3.553   5.112  -1.611  1.00  0.00     0.029 C 
ATOM      8  C   UNL     1       3.780   3.202  -2.637  1.00  0.00     0.029 C 
ATOM      9  C   UNL     1       3.847   3.661  -1.164  1.00  0.00     0.005 C 
BRANCH   6  10
ATOM     10  N   UNL     1       2.902   5.120  -4.127  1.00  0.00    -0.332 N 
ATOM     11  N   UNL     1       0.583   4.966  -3.517  1.00  0.00    -0.335 N 
ATOM     12  C   UNL     1       1.586   5.341  -4.312  1.00  0.00     0.315 C 
ATOM     13  H   UNL     1      -0.287   5.328  -3.804  1.00  0.00     0.165 HD
ATOM     14  O   UNL     1       1.246   5.944  -5.336  1.00  0.00    -0.249 OA
ATOM     15  H   UNL     1       3.392   5.310  -4.959  1.00  0.00     0.165 HD
BRANCH  11  16
ATOM     16  C   UNL     1       0.483   4.153  -2.336  1.00  0.00     0.095 C 
ATOM     17  N   UNL     1      -0.297   2.599  -0.017  1.00  0.00    -0.335 N 
ATOM     18  C   UNL     1      -0.016   4.051   0.067  1.00  0.00     0.264 C 
ATOM     19  C   UNL     1       0.088   1.964  -1.289  1.00  0.00     0.264 C 
ATOM     20  H   UNL     1      -1.308   2.469   0.006  1.00  0.00     0.348 HD
ATOM     21  C   UNL     1      -0.267   4.844  -1.211  1.00  0.00     0.086 C 
ATOM     22  C   UNL     1      -0.160   2.796  -2.553  1.00  0.00     0.086 C 
BRANCH  17  23
ATOM     23  C   UNL     1       0.355   1.956   1.149  1.00  0.00     0.261 C 
BRANCH  23  24
ATOM     24  C   UNL     1       0.050   0.477   1.419  1.00  0.00     0.058 C 
ATOM     25  C   UNL     1       0.853  -0.514   0.587  1.00  0.00     0.010 C 
ENDBRANCH  23  24
ENDBRANCH  17  23
ENDBRANCH  11  16
ENDBRANCH   6  10
ENDBRANCH   5   6
ENDBRANCH   3   5
ENDBRANCH   2   3
ENDBRANCH   1   2
BRANCH   1  26
ATOM     26  C   UNL     1       5.690   3.867  -7.742  1.00  0.00     0.275 C 
BRANCH  26  27
ATOM     27  O   UNL     1       5.768   5.305  -7.777  1.00  0.00    -0.458 OA
BRANCH  27  28
ATOM     28  C   UNL     1       4.659   5.919  -7.301  1.00  0.00     0.338 C 
ATOM     29  O   UNL     1       3.672   5.369  -6.845  1.00  0.00    -0.246 OA
BRANCH  28  30
ATOM     30  C   UNL     1       4.850   7.371  -7.213  1.00  0.00     0.060 A 
ATOM     31  C   UNL     1       5.125   7.903  -5.954  1.00  0.00     0.016 A 
ATOM     32  C   UNL     1       4.631   8.212  -8.301  1.00  0.00     0.016 A 
ATOM     33  C   UNL     1       5.177   9.276  -5.762  1.00  0.00     0.010 A 
ATOM     34  C   UNL     1       4.721   9.598  -8.118  1.00  0.00     0.010 A 
ATOM     35  C   UNL     1       4.994  10.137  -6.848  1.00  0.00    -0.014 A 
BRANCH  35  36
ATOM     36  C   UNL     1       5.107  11.599  -6.636  1.00  0.00     0.031 A 
ATOM     37  C   UNL     1       3.895  12.477  -6.742  1.00  0.00     0.074 A 
ATOM     38  C   UNL     1       6.306  12.126  -6.321  1.00  0.00     0.049 A 
ATOM     39  N   UNL     1       3.823  13.783  -6.726  1.00  0.00    -0.248 NA
ATOM     40  C   UNL     1       2.597  11.801  -6.885  1.00  0.00     0.031 C 
ATOM     41  C   UNL     1       7.541  11.361  -6.131  1.00  0.00     0.029 A 
ATOM     42  N   UNL     1       6.684  13.426  -6.102  1.00  0.00    -0.354 N 
ATOM     43  C   UNL     1       2.479  14.089  -6.898  1.00  0.00     0.074 A 
ATOM     44  C   UNL     1       1.770  12.831  -7.009  1.00  0.00     0.031 C 
ATOM     45  C   UNL     1       8.536  12.204  -5.814  1.00  0.00     0.029 A 
ATOM     46  C   UNL     1       8.026  13.570  -5.845  1.00  0.00     0.049 A 
ATOM     47  H   UNL     1       6.054  14.182  -6.127  1.00  0.00     0.167 HD
ATOM     48  C   UNL     1       1.898  15.310  -6.964  1.00  0.00     0.037 A 
ATOM     49  C   UNL     1       8.772  14.680  -5.695  1.00  0.00     0.037 A 
ATOM     50  C   UNL     1       2.612  16.553  -6.821  1.00  0.00     0.049 A 
ATOM     51  C   UNL     1       8.113  16.023  -5.818  1.00  0.00     0.074 A 
ATOM     52  C   UNL     1       2.114  17.844  -6.865  1.00  0.00     0.029 A 
ATOM     53  N   UNL     1       3.978  16.659  -6.599  1.00  0.00    -0.354 N 
ATOM     54  N   UNL     1       6.849  16.301  -6.032  1.00  0.00    -0.248 NA
ATOM     55  C   UNL     1       8.981  17.202  -5.705  1.00  0.00     0.031 C 
ATOM     56  C   UNL     1       3.184  18.731  -6.697  1.00  0.00     0.029 A 
ATOM     57  C   UNL     1       4.343  17.993  -6.519  1.00  0.00     0.049 A 
ATOM     58  H   UNL     1       4.596  15.898  -6.511  1.00  0.00     0.167 HD
ATOM     59  C   UNL     1       6.769  17.686  -6.080  1.00  0.00     0.074 A 
ATOM     60  C   UNL     1       8.109  18.191  -5.853  1.00  0.00     0.031 C 
ATOM     61  C   UNL     1       5.685  18.470  -6.300  1.00  0.00     0.037 A 
BRANCH  48  62
ATOM     62  C   UNL     1       0.423  15.361  -7.242  1.00  0.00     0.058 A 
ATOM     63  C   UNL     1      -0.528  15.071  -6.253  1.00  0.00     0.135 A 
ATOM     64  C   UNL     1      -0.043  15.731  -8.514  1.00  0.00     0.135 A 
ATOM     65  F   UNL     1      -0.135  14.697  -5.025  1.00  0.00    -0.206 F 
ATOM     66  C   UNL     1      -1.893  15.125  -6.521  1.00  0.00     0.059 A 
ATOM     67  C   UNL     1      -1.403  15.809  -8.800  1.00  0.00     0.059 A 
ATOM     68  F   UNL     1       0.827  16.017  -9.495  1.00  0.00    -0.206 F 
ATOM     69  C   UNL     1      -2.321  15.490  -7.800  1.00  0.00     0.060 A 
BRANCH  69  70
ATOM     70  S   UNL     1      -4.093  15.557  -8.140  1.00  0.00     0.124 S 
ATOM     71  O   UNL     1      -4.413  14.142  -8.298  1.00  0.00    -0.237 OA
ATOM     72  O   UNL     1      -4.622  16.195  -6.938  1.00  0.00    -0.237 OA
ATOM     73  O   UNL     1      -4.174  16.360  -9.356  1.00  0.00    -0.744 OA
ENDBRANCH  69  70
ENDBRANCH  48  62
BRANCH  49  74
ATOM     74  C   UNL     1      10.234  14.558  -5.463  1.00  0.00     0.058 A 
ATOM     75  C   UNL     1      10.793  14.843  -4.211  1.00  0.00     0.135 A 
ATOM     76  C   UNL     1      11.094  14.118  -6.482  1.00  0.00     0.135 A 
ATOM     77  F   UNL     1      10.012  15.275  -3.209  1.00  0.00    -0.206 F 
ATOM     78  C   UNL     1      12.156  14.697  -3.974  1.00  0.00     0.059 A 
ATOM     79  C   UNL     1      12.456  13.943  -6.264  1.00  0.00     0.059 A 
ATOM     80  F   UNL     1      10.602  13.821  -7.695  1.00  0.00    -0.206 F 
ATOM     81  C   UNL     1      12.979  14.242  -5.006  1.00  0.00     0.060 A 
BRANCH  81  82
ATOM     82  S   UNL     1      14.736  13.986  -4.676  1.00  0.00     0.124 S 
ATOM     83  O   UNL     1      15.252  15.347  -4.761  1.00  0.00    -0.237 OA
ATOM     84  O   UNL     1      14.720  13.391  -3.343  1.00  0.00    -0.237 OA
ATOM     85  O   UNL     1      15.148  13.085  -5.748  1.00  0.00    -0.744 OA
ENDBRANCH  81  82
ENDBRANCH  49  74
BRANCH  61  86
ATOM     86  C   UNL     1       5.908  19.954  -6.299  1.00  0.00     0.058 A 
ATOM     87  C   UNL     1       6.473  20.605  -7.405  1.00  0.00     0.135 A 
ATOM     88  C   UNL     1       5.517  20.735  -5.201  1.00  0.00     0.135 A 
ATOM     89  F   UNL     1       6.872  19.898  -8.475  1.00  0.00    -0.206 F 
ATOM     90  C   UNL     1       6.657  21.983  -7.418  1.00  0.00     0.059 A 
ATOM     91  C   UNL     1       5.675  22.116  -5.199  1.00  0.00     0.059 A 
ATOM     92  F   UNL     1       4.968  20.156  -4.121  1.00  0.00    -0.206 F 
ATOM     93  C   UNL     1       6.255  22.731  -6.309  1.00  0.00     0.060 A 
BRANCH  93  94
ATOM     94  S   UNL     1       6.463  24.524  -6.347  1.00  0.00     0.124 S 
ATOM     95  O   UNL     1       7.886  24.660  -6.050  1.00  0.00    -0.237 OA
ATOM     96  O   UNL     1       6.065  24.861  -7.710  1.00  0.00    -0.237 OA
ATOM     97  O   UNL     1       5.556  24.991  -5.303  1.00  0.00    -0.744 OA
ENDBRANCH  93  94
ENDBRANCH  61  86
ENDBRANCH  35  36
ENDBRANCH  28  30
ENDBRANCH  27  28
ENDBRANCH  26  27
ENDBRANCH   1  26
TORSDOF 19
