REMARK SMILES O=C(OCCOC(=O)[C@@]1(Cc2ccnc3ccccc23)CCC[NH2+]C1)c1ccc(-c2c3nc(c(-c4c(F)cc(S(=O)(=O)[O-])cc4F)c4ccc([nH]4)c(-c4c(F)cc(S(=O)(=O)[O-])cc4F)c4nc(c(-c5c(F)cc(S(=O)(=O)[O-])cc5F)c5ccc2[nH]5)C=C4)C=C3)cc1
REMARK SMILES IDX 4 1 3 2 2 3 1 4 26 5 27 6 91 7 28 8 90 9 29 10 30 11 31 12
REMARK SMILES IDX 84 13 32 14 89 15 83 16 85 17 33 18 88 19 82 20 81 21 34 23
REMARK SMILES IDX 68 24 47 25 67 26 48 27 51 28 66 29 86 30 49 31 50 32 65 34
REMARK SMILES IDX 87 35 52 36 35 37 36 38 45 39 37 40 38 41 44 42 46 43 39 44
REMARK SMILES IDX 40 45 41 46 42 47 43 48 69 49 70 50 79 51 71 52 72 53 78 54
REMARK SMILES IDX 80 55 73 56 74 57 75 58 76 59 77 60 53 61 54 62 63 63 55 64
REMARK SMILES IDX 56 65 62 66 64 67 57 68 58 69 59 70 60 71 61 72 5 73 6 74
REMARK SMILES IDX 7 75 8 76 9 77 21 78 25 79 22 80 24 81 23 82 10 85 11 86
REMARK SMILES IDX 12 87 20 88 13 89 15 90 19 91 14 92 16 93 18 94 17 95
REMARK H PARENT 85 22 51 33 24 83 24 84
REMARK Flexibility Score: inf
ROOT
ATOM      1  C   UNL     1       4.337   5.243  -4.221  1.00  0.00     0.275 C 
ENDROOT
BRANCH   1   2
ATOM      2  O   UNL     1       5.325   4.238  -3.961  1.00  0.00    -0.458 OA
BRANCH   2   3
ATOM      3  C   UNL     1       5.777   3.746  -2.785  1.00  0.00     0.338 C 
ATOM      4  O   UNL     1       6.613   2.843  -2.827  1.00  0.00    -0.246 OA
BRANCH   3   5
ATOM      5  C   UNL     1       5.243   4.142  -1.437  1.00  0.00     0.060 A 
ATOM      6  C   UNL     1       4.544   5.310  -1.102  1.00  0.00     0.016 A 
ATOM      7  C   UNL     1       5.421   3.189  -0.425  1.00  0.00     0.016 A 
ATOM      8  C   UNL     1       3.902   5.460   0.143  1.00  0.00     0.010 A 
ATOM      9  C   UNL     1       4.754   3.316   0.797  1.00  0.00     0.010 A 
ATOM     10  C   UNL     1       3.959   4.443   1.089  1.00  0.00    -0.014 A 
BRANCH  10  11
ATOM     11  C   UNL     1       3.322   4.530   2.435  1.00  0.00     0.031 A 
ATOM     12  C   UNL     1       4.252   4.422   3.609  1.00  0.00     0.074 A 
ATOM     13  C   UNL     1       1.982   4.547   2.634  1.00  0.00     0.049 A 
ATOM     14  N   UNL     1       3.982   4.220   4.868  1.00  0.00    -0.248 NA
ATOM     15  C   UNL     1       5.696   4.521   3.308  1.00  0.00     0.031 C 
ATOM     16  C   UNL     1       0.947   4.667   1.603  1.00  0.00     0.029 A 
ATOM     17  N   UNL     1       1.252   4.328   3.785  1.00  0.00    -0.354 N 
ATOM     18  C   UNL     1       5.214   4.241   5.501  1.00  0.00     0.074 A 
ATOM     19  C   UNL     1       6.233   4.239   4.480  1.00  0.00     0.031 C 
ATOM     20  C   UNL     1      -0.254   4.370   2.137  1.00  0.00     0.029 A 
ATOM     21  C   UNL     1      -0.085   4.063   3.550  1.00  0.00     0.049 A 
ATOM     22  H   UNL     1       1.646   4.358   4.687  1.00  0.00     0.167 HD
ATOM     23  C   UNL     1       5.476   4.409   6.815  1.00  0.00     0.037 A 
ATOM     24  C   UNL     1      -1.045   3.594   4.378  1.00  0.00     0.037 A 
ATOM     25  C   UNL     1       4.456   4.436   7.817  1.00  0.00     0.049 A 
ATOM     26  C   UNL     1      -0.728   3.530   5.851  1.00  0.00     0.074 A 
ATOM     27  C   UNL     1       4.575   4.683   9.169  1.00  0.00     0.029 A 
ATOM     28  N   UNL     1       3.115   4.189   7.562  1.00  0.00    -0.354 N 
ATOM     29  N   UNL     1       0.423   3.723   6.451  1.00  0.00    -0.248 NA
ATOM     30  C   UNL     1      -1.851   3.292   6.768  1.00  0.00     0.031 C 
ATOM     31  C   UNL     1       3.307   4.536   9.743  1.00  0.00     0.029 A 
ATOM     32  C   UNL     1       2.395   4.247   8.738  1.00  0.00     0.049 A 
ATOM     33  H   UNL     1       2.734   4.000   6.674  1.00  0.00     0.167 HD
ATOM     34  C   UNL     1       0.141   3.750   7.811  1.00  0.00     0.074 A 
ATOM     35  C   UNL     1      -1.277   3.487   7.948  1.00  0.00     0.031 C 
ATOM     36  C   UNL     1       0.974   4.024   8.846  1.00  0.00     0.037 A 
BRANCH  23  37
ATOM     37  C   UNL     1       6.909   4.669   7.171  1.00  0.00     0.058 A 
ATOM     38  C   UNL     1       7.551   5.846   6.738  1.00  0.00     0.135 A 
ATOM     39  C   UNL     1       7.671   3.721   7.864  1.00  0.00     0.135 A 
ATOM     40  F   UNL     1       6.871   6.774   6.043  1.00  0.00    -0.206 F 
ATOM     41  C   UNL     1       8.912   6.043   6.925  1.00  0.00     0.059 A 
ATOM     42  C   UNL     1       9.030   3.915   8.093  1.00  0.00     0.059 A 
ATOM     43  F   UNL     1       7.109   2.579   8.287  1.00  0.00    -0.206 F 
ATOM     44  C   UNL     1       9.644   5.066   7.598  1.00  0.00     0.060 A 
BRANCH  44  45
ATOM     45  S   UNL     1      11.417   5.327   7.801  1.00  0.00     0.124 S 
ATOM     46  O   UNL     1      11.902   5.101   6.443  1.00  0.00    -0.237 OA
ATOM     47  O   UNL     1      11.478   6.702   8.277  1.00  0.00    -0.237 OA
ATOM     48  O   UNL     1      11.797   4.308   8.780  1.00  0.00    -0.744 OA
ENDBRANCH  44  45
ENDBRANCH  23  37
BRANCH  24  49
ATOM     49  C   UNL     1      -2.409   3.229   3.889  1.00  0.00     0.058 A 
ATOM     50  C   UNL     1      -3.499   4.094   4.063  1.00  0.00     0.135 A 
ATOM     51  C   UNL     1      -2.670   1.976   3.307  1.00  0.00     0.135 A 
ATOM     52  F   UNL     1      -3.315   5.291   4.641  1.00  0.00    -0.206 F 
ATOM     53  C   UNL     1      -4.796   3.731   3.699  1.00  0.00     0.059 A 
ATOM     54  C   UNL     1      -3.957   1.594   2.918  1.00  0.00     0.059 A 
ATOM     55  F   UNL     1      -1.672   1.096   3.132  1.00  0.00    -0.206 F 
ATOM     56  C   UNL     1      -5.016   2.477   3.126  1.00  0.00     0.060 A 
BRANCH  56  57
ATOM     57  S   UNL     1      -6.704   2.033   2.644  1.00  0.00     0.124 S 
ATOM     58  O   UNL     1      -7.369   1.935   3.939  1.00  0.00    -0.237 OA
ATOM     59  O   UNL     1      -7.091   3.169   1.814  1.00  0.00    -0.237 OA
ATOM     60  O   UNL     1      -6.532   0.772   1.928  1.00  0.00    -0.744 OA
ENDBRANCH  56  57
ENDBRANCH  24  49
BRANCH  36  61
ATOM     61  C   UNL     1       0.369   4.173  10.209  1.00  0.00     0.058 A 
ATOM     62  C   UNL     1      -0.072   3.073  10.955  1.00  0.00     0.135 A 
ATOM     63  C   UNL     1       0.330   5.443  10.813  1.00  0.00     0.135 A 
ATOM     64  F   UNL     1      -0.065   1.844  10.417  1.00  0.00    -0.206 F 
ATOM     65  C   UNL     1      -0.534   3.225  12.258  1.00  0.00     0.059 A 
ATOM     66  C   UNL     1      -0.097   5.613  12.123  1.00  0.00     0.059 A 
ATOM     67  F   UNL     1       0.749   6.526  10.140  1.00  0.00    -0.206 F 
ATOM     68  C   UNL     1      -0.530   4.497  12.836  1.00  0.00     0.060 A 
BRANCH  68  69
ATOM     69  S   UNL     1      -1.053   4.667  14.554  1.00  0.00     0.124 S 
ATOM     70  O   UNL     1      -2.499   4.506  14.439  1.00  0.00    -0.237 OA
ATOM     71  O   UNL     1      -0.342   3.571  15.206  1.00  0.00    -0.237 OA
ATOM     72  O   UNL     1      -0.597   6.005  14.918  1.00  0.00    -0.744 OA
ENDBRANCH  68  69
ENDBRANCH  36  61
ENDBRANCH  10  11
ENDBRANCH   3   5
ENDBRANCH   2   3
ENDBRANCH   1   2
BRANCH   1  73
ATOM     73  C   UNL     1       2.890   4.754  -4.142  1.00  0.00     0.274 C 
BRANCH  73  74
ATOM     74  O   UNL     1       2.639   3.836  -3.064  1.00  0.00    -0.461 OA
BRANCH  74  75
ATOM     75  C   UNL     1       2.259   2.567  -3.398  1.00  0.00     0.318 C 
ATOM     76  O   UNL     1       2.229   2.156  -4.557  1.00  0.00    -0.251 OA
BRANCH  75  77
ATOM     77  C   UNL     1       1.742   1.738  -2.195  1.00  0.00     0.121 C 
ATOM     78  C   UNL     1       2.324   2.247  -0.884  1.00  0.00     0.031 C 
ATOM     79  C   UNL     1       0.235   2.057  -2.139  1.00  0.00     0.279 C 
ATOM     80  C   UNL     1       1.708   1.676   0.378  1.00  0.00     0.063 C 
ATOM     81  N   UNL     1      -0.487   1.937  -0.878  1.00  0.00    -0.345 N 
ATOM     82  C   UNL     1       0.205   1.480   0.314  1.00  0.00     0.260 C 
ATOM     83  H   UNL     1      -0.863   2.861  -0.665  1.00  0.00     0.346 HD
ATOM     84  H   UNL     1      -1.157   1.189  -1.062  1.00  0.00     0.346 HD
BRANCH  77  85
ATOM     85  C   UNL     1       2.222   0.255  -2.468  1.00  0.00     0.061 C 
BRANCH  85  86
ATOM     86  C   UNL     1       1.763  -0.864  -1.545  1.00  0.00    -0.036 A 
ATOM     87  C   UNL     1       2.634  -1.353  -0.561  1.00  0.00     0.024 A 
ATOM     88  C   UNL     1       0.419  -1.299  -1.530  1.00  0.00     0.003 A 
ATOM     89  C   UNL     1       2.106  -2.109   0.471  1.00  0.00     0.112 A 
ATOM     90  C   UNL     1      -0.038  -1.965  -0.373  1.00  0.00     0.070 A 
ATOM     91  C   UNL     1      -0.497  -1.001  -2.559  1.00  0.00     0.010 A 
ATOM     92  N   UNL     1       0.793  -2.390   0.595  1.00  0.00    -0.256 NA
ATOM     93  C   UNL     1      -1.411  -2.071  -0.186  1.00  0.00     0.029 A 
ATOM     94  C   UNL     1      -1.865  -1.129  -2.355  1.00  0.00     0.001 A 
ATOM     95  C   UNL     1      -2.325  -1.614  -1.141  1.00  0.00     0.002 A 
ENDBRANCH  85  86
ENDBRANCH  77  85
ENDBRANCH  75  77
ENDBRANCH  74  75
ENDBRANCH  73  74
ENDBRANCH   1  73
TORSDOF 16
