REMARK SMILES O=C(OCCOC(=O)[C@@H]1CC=CC[C@@H]1C(=O)Nc1ccc(O)cc1)c1ccc(-c2c3nc(c(-c4c(F)cc(S(=O)(=O)[O-])cc4F)c4ccc([nH]4)c(-c4c(F)cc(S(=O)(=O)[O-])cc4F)c4nc(c(-c5c(F)cc(S(=O)(=O)[O-])cc5F)c5ccc2[nH]5)C=C4)C=C3)cc1
REMARK SMILES IDX 4 1 3 2 2 3 1 4 25 5 26 6 90 7 27 8 89 9 28 10 29 11 30 12
REMARK SMILES IDX 83 13 31 14 88 15 82 16 84 17 32 18 87 19 81 20 80 21 33 23
REMARK SMILES IDX 67 24 46 25 66 26 47 27 50 28 65 29 85 30 48 31 49 32 64 34
REMARK SMILES IDX 86 35 51 36 34 37 35 38 44 39 36 40 37 41 43 42 45 43 38 44
REMARK SMILES IDX 39 45 40 46 41 47 42 48 68 49 69 50 78 51 70 52 71 53 77 54
REMARK SMILES IDX 79 55 72 56 73 57 74 58 75 59 76 60 52 61 53 62 62 63 54 64
REMARK SMILES IDX 55 65 61 66 63 67 56 68 57 69 58 70 59 71 60 72 5 73 6 74
REMARK SMILES IDX 7 75 8 76 9 77 10 78 14 79 11 80 13 81 12 82 15 83 16 84
REMARK SMILES IDX 17 85 18 87 19 88 24 89 20 90 23 91 21 92 22 93
REMARK H PARENT 84 22 50 33 17 86 22 94
REMARK Flexibility Score: inf
ROOT
ATOM      1  C   UNL     1      -0.090  -3.603   0.296  1.00  0.00     0.275 C 
ENDROOT
BRANCH   1   2
ATOM      2  O   UNL     1       0.923  -2.910  -0.466  1.00  0.00    -0.458 OA
BRANCH   2   3
ATOM      3  C   UNL     1       1.317  -1.613  -0.499  1.00  0.00     0.338 C 
ATOM      4  O   UNL     1       2.266  -1.337  -1.236  1.00  0.00    -0.246 OA
BRANCH   3   5
ATOM      5  C   UNL     1       0.776  -0.491   0.357  1.00  0.00     0.060 A 
ATOM      6  C   UNL     1      -0.356  -0.520   1.170  1.00  0.00     0.016 A 
ATOM      7  C   UNL     1       1.565   0.682   0.427  1.00  0.00     0.016 A 
ATOM      8  C   UNL     1      -0.544   0.463   2.174  1.00  0.00     0.010 A 
ATOM      9  C   UNL     1       1.364   1.671   1.419  1.00  0.00     0.010 A 
ATOM     10  C   UNL     1       0.393   1.499   2.407  1.00  0.00    -0.014 A 
BRANCH  10  11
ATOM     11  C   UNL     1       0.131   2.510   3.516  1.00  0.00     0.031 A 
ATOM     12  C   UNL     1      -1.096   3.378   2.825  1.00  0.00     0.074 A 
ATOM     13  C   UNL     1       0.590   2.412   4.969  1.00  0.00     0.049 A 
ATOM     14  N   UNL     1      -2.343   3.509   3.232  1.00  0.00    -0.248 NA
ATOM     15  C   UNL     1      -0.949   4.000   1.493  1.00  0.00     0.031 C 
ATOM     16  C   UNL     1       1.691   0.875   5.660  1.00  0.00     0.029 A 
ATOM     17  N   UNL     1      -0.348   2.828   6.714  1.00  0.00    -0.354 N 
ATOM     18  C   UNL     1      -2.878   4.593   2.600  1.00  0.00     0.074 A 
ATOM     19  C   UNL     1      -2.117   4.646   1.354  1.00  0.00     0.031 C 
ATOM     20  C   UNL     1       1.252   0.446   7.252  1.00  0.00     0.029 A 
ATOM     21  C   UNL     1      -0.004   1.638   8.004  1.00  0.00     0.049 A 
ATOM     22  H   UNL     1      -0.935   3.608   6.840  1.00  0.00     0.167 HD
ATOM     23  C   UNL     1      -3.671   5.591   3.111  1.00  0.00     0.037 A 
ATOM     24  C   UNL     1      -0.421   1.983   9.239  1.00  0.00     0.037 A 
ATOM     25  C   UNL     1      -3.945   5.990   4.537  1.00  0.00     0.049 A 
ATOM     26  C   UNL     1      -1.348   3.217   9.315  1.00  0.00     0.074 A 
ATOM     27  C   UNL     1      -4.429   7.229   4.949  1.00  0.00     0.029 A 
ATOM     28  N   UNL     1      -3.764   5.305   5.780  1.00  0.00    -0.354 N 
ATOM     29  N   UNL     1      -2.049   3.808   8.352  1.00  0.00    -0.248 NA
ATOM     30  C   UNL     1      -1.469   3.889  10.605  1.00  0.00     0.031 C 
ATOM     31  C   UNL     1      -4.232   7.378   6.334  1.00  0.00     0.029 A 
ATOM     32  C   UNL     1      -3.715   6.201   6.868  1.00  0.00     0.049 A 
ATOM     33  H   UNL     1      -3.683   4.328   5.865  1.00  0.00     0.167 HD
ATOM     34  C   UNL     1      -2.637   4.953   8.882  1.00  0.00     0.074 A 
ATOM     35  C   UNL     1      -2.275   4.905  10.303  1.00  0.00     0.031 C 
ATOM     36  C   UNL     1      -3.355   5.967   8.291  1.00  0.00     0.037 A 
BRANCH  23  37
ATOM     37  C   UNL     1      -4.197   6.476   2.014  1.00  0.00     0.058 A 
ATOM     38  C   UNL     1      -5.184   5.950   1.166  1.00  0.00     0.135 A 
ATOM     39  C   UNL     1      -3.732   7.777   1.763  1.00  0.00     0.135 A 
ATOM     40  F   UNL     1      -5.625   4.694   1.342  1.00  0.00    -0.206 F 
ATOM     41  C   UNL     1      -5.694   6.681   0.108  1.00  0.00     0.059 A 
ATOM     42  C   UNL     1      -4.254   8.543   0.723  1.00  0.00     0.059 A 
ATOM     43  F   UNL     1      -2.759   8.309   2.520  1.00  0.00    -0.206 F 
ATOM     44  C   UNL     1      -5.231   7.980  -0.101  1.00  0.00     0.060 A 
BRANCH  44  45
ATOM     45  S   UNL     1      -5.952   8.910  -1.466  1.00  0.00     0.124 S 
ATOM     46  O   UNL     1      -5.411   8.198  -2.620  1.00  0.00    -0.237 OA
ATOM     47  O   UNL     1      -7.382   8.737  -1.229  1.00  0.00    -0.237 OA
ATOM     48  O   UNL     1      -5.442  10.261  -1.264  1.00  0.00    -0.744 OA
ENDBRANCH  44  45
ENDBRANCH  23  37
BRANCH  24  49
ATOM     49  C   UNL     1       0.333   1.431  10.370  1.00  0.00     0.058 A 
ATOM     50  C   UNL     1      -0.262   0.722  11.414  1.00  0.00     0.135 A 
ATOM     51  C   UNL     1       1.729   1.609  10.407  1.00  0.00     0.135 A 
ATOM     52  F   UNL     1      -1.595   0.580  11.460  1.00  0.00    -0.206 F 
ATOM     53  C   UNL     1       0.512   0.149  12.421  1.00  0.00     0.059 A 
ATOM     54  C   UNL     1       2.522   1.017  11.371  1.00  0.00     0.059 A 
ATOM     55  F   UNL     1       2.345   2.359   9.482  1.00  0.00    -0.206 F 
ATOM     56  C   UNL     1       1.905   0.283  12.374  1.00  0.00     0.060 A 
BRANCH  56  57
ATOM     57  S   UNL     1       2.919  -0.544  13.612  1.00  0.00     0.124 S 
ATOM     58  O   UNL     1       2.672   0.281  14.788  1.00  0.00    -0.237 OA
ATOM     59  O   UNL     1       2.340  -1.883  13.634  1.00  0.00    -0.237 OA
ATOM     60  O   UNL     1       4.265  -0.461  13.052  1.00  0.00    -0.744 OA
ENDBRANCH  56  57
ENDBRANCH  24  49
BRANCH  36  61
ATOM     61  C   UNL     1      -3.880   7.007   9.280  1.00  0.00     0.058 A 
ATOM     62  C   UNL     1      -3.065   7.898  10.007  1.00  0.00     0.135 A 
ATOM     63  C   UNL     1      -5.261   7.050   9.531  1.00  0.00     0.135 A 
ATOM     64  F   UNL     1      -1.737   7.918   9.809  1.00  0.00    -0.206 F 
ATOM     65  C   UNL     1      -3.588   8.714  11.013  1.00  0.00     0.059 A 
ATOM     66  C   UNL     1      -5.809   7.886  10.498  1.00  0.00     0.059 A 
ATOM     67  F   UNL     1      -6.093   6.252   8.844  1.00  0.00    -0.206 F 
ATOM     68  C   UNL     1      -4.962   8.685  11.262  1.00  0.00     0.060 A 
BRANCH  68  69
ATOM     69  S   UNL     1      -5.634   9.677  12.616  1.00  0.00     0.124 S 
ATOM     70  O   UNL     1      -5.146   8.949  13.783  1.00  0.00    -0.237 OA
ATOM     71  O   UNL     1      -5.026  10.982  12.380  1.00  0.00    -0.237 OA
ATOM     72  O   UNL     1      -7.077   9.614  12.398  1.00  0.00    -0.744 OA
ENDBRANCH  68  69
ENDBRANCH  36  61
ENDBRANCH  10  11
ENDBRANCH   3   5
ENDBRANCH   2   3
ENDBRANCH   1   2
BRANCH   1  73
ATOM     73  C   UNL     1       0.368  -4.027   1.690  1.00  0.00     0.274 C 
BRANCH  73  74
ATOM     74  O   UNL     1       1.080  -2.965   2.316  1.00  0.00    -0.462 OA
BRANCH  74  75
ATOM     75  C   UNL     1       2.342  -3.232   2.742  1.00  0.00     0.310 C 
ATOM     76  O   UNL     1       2.926  -4.300   2.603  1.00  0.00    -0.252 OA
BRANCH  75  77
ATOM     77  C   UNL     1       3.022  -1.967   3.194  1.00  0.00     0.116 C 
ATOM     78  C   UNL     1       4.208  -2.201   4.139  1.00  0.00     0.043 C 
ATOM     79  C   UNL     1       2.112  -0.792   3.647  1.00  0.00     0.097 C 
ATOM     80  C   UNL     1       4.887  -0.930   4.578  1.00  0.00    -0.030 C 
ATOM     81  C   UNL     1       3.127   0.425   3.487  1.00  0.00     0.041 C 
ATOM     82  C   UNL     1       4.427   0.276   4.234  1.00  0.00    -0.030 C 
BRANCH  79  83
ATOM     83  C   UNL     1       0.828  -1.170   4.750  1.00  0.00     0.228 C 
ATOM     84  O   UNL     1       0.639  -2.382   4.972  1.00  0.00    -0.274 OA
ATOM     85  N   UNL     1      -0.214  -0.292   5.260  1.00  0.00    -0.326 N 
ATOM     86  H   UNL     1      -1.117  -0.663   5.131  1.00  0.00     0.169 HD
BRANCH  85  87
ATOM     87  C   UNL     1      -0.236   1.202   6.015  1.00  0.00     0.041 A 
ATOM     88  C   UNL     1      -1.610   2.130   5.365  1.00  0.00     0.030 A 
ATOM     89  C   UNL     1       1.335   2.426   6.662  1.00  0.00     0.030 A 
ATOM     90  C   UNL     1      -1.283   3.902   5.274  1.00  0.00     0.048 A 
ATOM     91  C   UNL     1       1.373   4.102   6.430  1.00  0.00     0.048 A 
ATOM     92  C   UNL     1       0.123   4.751   5.743  1.00  0.00     0.115 A 
BRANCH  92  93
ATOM     93  O   UNL     1       0.140   6.110   5.572  1.00  0.00    -0.508 OA
ATOM     94  H   UNL     1      -0.587   6.540   5.166  1.00  0.00     0.293 HD
ENDBRANCH  92  93
ENDBRANCH  85  87
ENDBRANCH  79  83
ENDBRANCH  75  77
ENDBRANCH  74  75
ENDBRANCH  73  74
ENDBRANCH   1  73
TORSDOF 17
