REMARK SMILES NS(=O)(=O)c1ccc(N2N=C(C(=O)OCCOC(=O)c3ccc(-c4c5nc(c(-c6c(F)cc(S(=O)(=O)[O-])cc6F)c6ccc([nH]6)c(-c6c(F)cc(S(=O)(=O)[O-])cc6F)c6nc(c(-c7c(F)cc(S(=O)(=O)[O-])cc7F)c7ccc4[nH]7)C=C6)C=C5)cc3)C[C@H]2c2cccs2)cc1
REMARK SMILES IDX 15 1 14 2 12 3 13 4 11 5 9 6 10 7 87 8 86 9 8 10 5 11 6 12
REMARK SMILES IDX 94 13 7 14 93 15 2 16 3 17 4 18 1 19 88 22 89 23 92 24 90 25
REMARK SMILES IDX 91 26 16 27 17 28 18 29 19 30 20 31 21 32 85 33 22 34 84 35
REMARK SMILES IDX 23 36 24 37 25 38 78 39 26 40 83 41 77 42 79 43 27 44 82 45
REMARK SMILES IDX 76 46 75 47 28 49 62 50 41 51 61 52 42 53 45 54 60 55 80 56
REMARK SMILES IDX 43 57 44 58 59 60 81 61 46 62 29 63 30 64 39 65 31 66 32 67
REMARK SMILES IDX 38 68 40 69 33 70 34 71 35 72 36 73 37 74 63 75 64 76 73 77
REMARK SMILES IDX 65 78 66 79 72 80 74 81 67 82 68 83 69 84 70 85 71 86 47 87
REMARK SMILES IDX 48 88 57 89 49 90 50 91 56 92 58 93 51 94 52 95 53 96 54 97
REMARK SMILES IDX 55 98
REMARK H PARENT 1 20 1 21 79 48 45 59
REMARK Flexibility Score: inf
ROOT
ATOM      1  C   UNL     1       1.354 -11.129  -4.353  1.00  0.00     0.275 C 
ENDROOT
BRANCH   1   2
ATOM      2  O   UNL     1       1.937 -10.280  -3.347  1.00  0.00    -0.458 OA
BRANCH   2   3
ATOM      3  C   UNL     1       2.245  -9.029  -3.745  1.00  0.00     0.354 C 
ATOM      4  O   UNL     1       2.228  -8.583  -4.876  1.00  0.00    -0.245 OA
BRANCH   3   5
ATOM      5  C   UNL     1       2.547  -8.171  -2.542  1.00  0.00     0.148 C 
ATOM      6  N   UNL     1       2.487  -6.559  -1.185  1.00  0.00    -0.256 N 
ATOM      7  N   UNL     1       2.040  -6.984  -2.393  1.00  0.00    -0.169 NA
ATOM      8  C   UNL     1       3.649  -7.321  -0.718  1.00  0.00     0.154 C 
ATOM      9  C   UNL     1       3.383  -8.674  -1.405  1.00  0.00     0.099 C 
BRANCH   6  10
ATOM     10  C   UNL     1       2.043  -5.361  -0.657  1.00  0.00     0.060 A 
ATOM     11  C   UNL     1       1.140  -2.946   0.461  1.00  0.00     0.082 A 
ATOM     12  C   UNL     1       0.474  -4.137   0.756  1.00  0.00     0.024 A 
ATOM     13  C   UNL     1       2.226  -2.943  -0.415  1.00  0.00     0.024 A 
ATOM     14  C   UNL     1       0.934  -5.337   0.203  1.00  0.00     0.029 A 
ATOM     15  C   UNL     1       2.662  -4.146  -0.976  1.00  0.00     0.029 A 
BRANCH  11  16
ATOM     16  S   UNL     1       0.577  -1.442   1.200  1.00  0.00     0.238 S 
ATOM     17  O   UNL     1       1.423  -1.171   2.344  1.00  0.00    -0.207 OA
ATOM     18  O   UNL     1      -0.859  -1.463   1.277  1.00  0.00    -0.207 OA
BRANCH  16  19
ATOM     19  N   UNL     1       0.953  -0.259   0.065  1.00  0.00    -0.225 NA
ATOM     20  H   UNL     1       0.658   0.653   0.414  1.00  0.00     0.137 HD
ATOM     21  H   UNL     1       0.468  -0.461  -0.810  1.00  0.00     0.137 HD
ENDBRANCH  16  19
ENDBRANCH  11  16
ENDBRANCH   6  10
BRANCH   8  22
ATOM     22  C   UNL     1       4.986  -6.679  -1.072  1.00  0.00     0.030 A 
ATOM     23  C   UNL     1       5.652  -5.708  -0.341  1.00  0.00     0.017 A 
ATOM     24  S   UNL     1       5.813  -6.999  -2.545  1.00  0.00    -0.147 S 
ATOM     25  C   UNL     1       6.802  -5.202  -1.013  1.00  0.00     0.012 A 
ATOM     26  C   UNL     1       7.008  -5.827  -2.220  1.00  0.00     0.065 A 
ENDBRANCH   8  22
ENDBRANCH   3   5
ENDBRANCH   2   3
ENDBRANCH   1   2
BRANCH   1  27
ATOM     27  C   UNL     1      -0.034 -11.603  -3.912  1.00  0.00     0.275 C 
BRANCH  27  28
ATOM     28  O   UNL     1      -0.959 -10.504  -3.794  1.00  0.00    -0.458 OA
BRANCH  28  29
ATOM     29  C   UNL     1      -1.020  -9.945  -2.561  1.00  0.00     0.338 C 
ATOM     30  O   UNL     1      -0.394 -10.287  -1.570  1.00  0.00    -0.246 OA
BRANCH  29  31
ATOM     31  C   UNL     1      -1.862  -8.739  -2.595  1.00  0.00     0.060 A 
ATOM     32  C   UNL     1      -1.222  -7.516  -2.415  1.00  0.00     0.016 A 
ATOM     33  C   UNL     1      -3.251  -8.793  -2.689  1.00  0.00     0.016 A 
ATOM     34  C   UNL     1      -1.949  -6.339  -2.302  1.00  0.00     0.010 A 
ATOM     35  C   UNL     1      -3.989  -7.604  -2.595  1.00  0.00     0.010 A 
ATOM     36  C   UNL     1      -3.343  -6.370  -2.385  1.00  0.00    -0.014 A 
BRANCH  36  37
ATOM     37  C   UNL     1      -4.102  -5.108  -2.199  1.00  0.00     0.031 A 
ATOM     38  C   UNL     1      -4.928  -4.902  -0.962  1.00  0.00     0.074 A 
ATOM     39  C   UNL     1      -4.004  -4.127  -3.117  1.00  0.00     0.049 A 
ATOM     40  N   UNL     1      -5.715  -3.905  -0.649  1.00  0.00    -0.248 NA
ATOM     41  C   UNL     1      -4.867  -5.962   0.055  1.00  0.00     0.031 C 
ATOM     42  C   UNL     1      -3.189  -4.189  -4.332  1.00  0.00     0.029 A 
ATOM     43  N   UNL     1      -4.586  -2.886  -3.168  1.00  0.00    -0.354 N 
ATOM     44  C   UNL     1      -6.268  -4.229   0.584  1.00  0.00     0.074 A 
ATOM     45  C   UNL     1      -5.737  -5.524   0.955  1.00  0.00     0.031 C 
ATOM     46  C   UNL     1      -3.315  -3.033  -5.003  1.00  0.00     0.029 A 
ATOM     47  C   UNL     1      -4.258  -2.172  -4.296  1.00  0.00     0.049 A 
ATOM     48  H   UNL     1      -5.181  -2.540  -2.465  1.00  0.00     0.167 HD
ATOM     49  C   UNL     1      -7.138  -3.512   1.336  1.00  0.00     0.037 A 
ATOM     50  C   UNL     1      -4.690  -0.972  -4.728  1.00  0.00     0.037 A 
ATOM     51  C   UNL     1      -7.634  -2.209   0.972  1.00  0.00     0.049 A 
ATOM     52  C   UNL     1      -5.678  -0.205  -3.895  1.00  0.00     0.074 A 
ATOM     53  C   UNL     1      -8.506  -1.392   1.671  1.00  0.00     0.029 A 
ATOM     54  N   UNL     1      -7.297  -1.529  -0.191  1.00  0.00    -0.354 N 
ATOM     55  N   UNL     1      -6.212  -0.534  -2.743  1.00  0.00    -0.248 NA
ATOM     56  C   UNL     1      -6.128   1.090  -4.420  1.00  0.00     0.031 C 
ATOM     57  C   UNL     1      -8.728  -0.237   0.912  1.00  0.00     0.029 A 
ATOM     58  C   UNL     1      -7.962  -0.314  -0.241  1.00  0.00     0.049 A 
ATOM     59  H   UNL     1      -6.677  -1.861  -0.879  1.00  0.00     0.167 HD
ATOM     60  C   UNL     1      -7.055   0.516  -2.400  1.00  0.00     0.074 A 
ATOM     61  C   UNL     1      -6.947   1.499  -3.459  1.00  0.00     0.031 C 
ATOM     62  C   UNL     1      -7.848   0.651  -1.308  1.00  0.00     0.037 A 
BRANCH  49  63
ATOM     63  C   UNL     1      -7.643  -4.149   2.601  1.00  0.00     0.058 A 
ATOM     64  C   UNL     1      -6.831  -4.307   3.735  1.00  0.00     0.135 A 
ATOM     65  C   UNL     1      -8.965  -4.617   2.675  1.00  0.00     0.135 A 
ATOM     66  F   UNL     1      -5.554  -3.894   3.715  1.00  0.00    -0.206 F 
ATOM     67  C   UNL     1      -7.298  -4.945   4.881  1.00  0.00     0.059 A 
ATOM     68  C   UNL     1      -9.461  -5.235   3.819  1.00  0.00     0.059 A 
ATOM     69  F   UNL     1      -9.787  -4.491   1.621  1.00  0.00    -0.206 F 
ATOM     70  C   UNL     1      -8.612  -5.415   4.910  1.00  0.00     0.060 A 
BRANCH  70  71
ATOM     71  S   UNL     1      -9.196  -6.276   6.386  1.00  0.00     0.124 S 
ATOM     72  O   UNL     1      -8.554  -7.578   6.235  1.00  0.00    -0.237 OA
ATOM     73  O   UNL     1      -8.683  -5.438   7.465  1.00  0.00    -0.237 OA
ATOM     74  O   UNL     1     -10.647  -6.271   6.230  1.00  0.00    -0.744 OA
ENDBRANCH  70  71
ENDBRANCH  49  63
BRANCH  50  75
ATOM     75  C   UNL     1      -4.199  -0.446  -6.029  1.00  0.00     0.058 A 
ATOM     76  C   UNL     1      -3.292   0.621  -6.085  1.00  0.00     0.135 A 
ATOM     77  C   UNL     1      -4.583  -1.045  -7.240  1.00  0.00     0.135 A 
ATOM     78  F   UNL     1      -2.904   1.232  -4.956  1.00  0.00    -0.206 F 
ATOM     79  C   UNL     1      -2.776   1.072  -7.296  1.00  0.00     0.059 A 
ATOM     80  C   UNL     1      -4.062  -0.627  -8.460  1.00  0.00     0.059 A 
ATOM     81  F   UNL     1      -5.441  -2.077  -7.237  1.00  0.00    -0.206 F 
ATOM     82  C   UNL     1      -3.160   0.435  -8.478  1.00  0.00     0.060 A 
BRANCH  82  83
ATOM     83  S   UNL     1      -2.416   0.968 -10.035  1.00  0.00     0.124 S 
ATOM     84  O   UNL     1      -3.124   2.218 -10.286  1.00  0.00    -0.237 OA
ATOM     85  O   UNL     1      -1.006   1.095  -9.677  1.00  0.00    -0.237 OA
ATOM     86  O   UNL     1      -2.726  -0.129 -10.948  1.00  0.00    -0.744 OA
ENDBRANCH  82  83
ENDBRANCH  50  75
BRANCH  62  87
ATOM     87  C   UNL     1      -8.653   1.915  -1.197  1.00  0.00     0.058 A 
ATOM     88  C   UNL     1      -9.796   2.129  -1.982  1.00  0.00     0.135 A 
ATOM     89  C   UNL     1      -8.303   2.904  -0.263  1.00  0.00     0.135 A 
ATOM     90  F   UNL     1     -10.169   1.218  -2.895  1.00  0.00    -0.206 F 
ATOM     91  C   UNL     1     -10.555   3.288  -1.859  1.00  0.00     0.059 A 
ATOM     92  C   UNL     1      -9.060   4.061  -0.107  1.00  0.00     0.059 A 
ATOM     93  F   UNL     1      -7.222   2.744   0.517  1.00  0.00    -0.206 F 
ATOM     94  C   UNL     1     -10.178   4.249  -0.918  1.00  0.00     0.060 A 
BRANCH  94  95
ATOM     95  S   UNL     1     -11.187   5.737  -0.746  1.00  0.00     0.124 S 
ATOM     96  O   UNL     1     -10.787   6.502  -1.922  1.00  0.00    -0.237 OA
ATOM     97  O   UNL     1     -12.545   5.201  -0.770  1.00  0.00    -0.237 OA
ATOM     98  O   UNL     1     -10.761   6.288   0.537  1.00  0.00    -0.744 OA
ENDBRANCH  94  95
ENDBRANCH  62  87
ENDBRANCH  36  37
ENDBRANCH  29  31
ENDBRANCH  28  29
ENDBRANCH  27  28
ENDBRANCH   1  27
TORSDOF 18
