REMARK SMILES Cc1c(C(=O)OCCOC(=O)c2ccc(-c3c4nc(c(-c5c(F)cc(S(=O)(=O)[O-])cc5F)c5ccc([nH]5)c(-c5c(F)cc(S(=O)(=O)[O-])cc5F)c5nc(c(-c6c(F)cc(S(=O)(=O)[O-])cc6F)c6ccc3[nH]6)C=C5)C=C4)cc2)sc2ncn(N3CCCCCC3)c(=O)c12
REMARK SMILES IDX 7 1 6 2 4 3 5 4 3 5 1 6 2 7 92 8 78 9 79 10 90 11 80 12
REMARK SMILES IDX 82 13 91 14 81 15 83 16 84 17 85 18 86 19 89 21 88 22 87 23
REMARK SMILES IDX 8 25 9 26 10 27 11 28 12 29 13 30 77 31 14 32 76 33 15 34
REMARK SMILES IDX 16 35 17 36 70 37 18 38 75 39 69 40 71 41 19 42 74 43 68 44
REMARK SMILES IDX 67 45 20 47 54 48 33 49 53 50 34 51 37 52 52 53 72 54 35 55
REMARK SMILES IDX 36 56 51 58 73 59 38 60 21 61 22 62 31 63 23 64 24 65 30 66
REMARK SMILES IDX 32 67 25 68 26 69 27 70 28 71 29 72 55 73 56 74 65 75 57 76
REMARK SMILES IDX 58 77 64 78 66 79 59 80 60 81 61 82 62 83 63 84 39 85 40 86
REMARK SMILES IDX 49 87 41 88 42 89 48 90 50 91 43 92 44 93 45 94 46 95 47 96
REMARK H PARENT 71 46 37 57
REMARK Flexibility Score: 90.00
ROOT
ATOM      1  C   UNL     1      -2.751   0.248   3.695  1.00  0.00     0.275 C 
ENDROOT
BRANCH   1   2
ATOM      2  O   UNL     1      -2.132  -0.839   2.991  1.00  0.00    -0.458 OA
BRANCH   2   3
ATOM      3  C   UNL     1      -1.739  -0.556   1.708  1.00  0.00     0.348 C 
ATOM      4  O   UNL     1      -2.077   0.447   1.107  1.00  0.00    -0.245 OA
BRANCH   3   5
ATOM      5  C   UNL     1      -0.823  -1.570   1.191  1.00  0.00     0.118 A 
ATOM      6  C   UNL     1       0.506  -0.107  -0.463  1.00  0.00     0.047 C 
ATOM      7  C   UNL     1       0.142  -1.401   0.200  1.00  0.00    -0.010 A 
ATOM      8  C   UNL     1       0.788  -2.652  -0.104  1.00  0.00     0.082 A 
ATOM      9  S   UNL     1      -0.824  -3.173   1.804  1.00  0.00    -0.108 S 
ATOM     10  C   UNL     1       0.404  -3.672   0.736  1.00  0.00     0.131 A 
ATOM     11  C   UNL     1       1.764  -2.948  -1.145  1.00  0.00     0.281 A 
ATOM     12  N   UNL     1       0.890  -4.940   0.752  1.00  0.00    -0.225 NA
ATOM     13  N   UNL     1       2.315  -4.235  -1.036  1.00  0.00    -0.210 N 
ATOM     14  O   UNL     1       1.993  -2.153  -2.052  1.00  0.00    -0.267 OA
ATOM     15  C   UNL     1       1.833  -5.153  -0.111  1.00  0.00     0.226 A 
BRANCH  13  16
ATOM     16  N   UNL     1       3.268  -4.694  -1.971  1.00  0.00    -0.309 N 
BRANCH  16  17
ATOM     17  C   UNL     1       4.617  -4.165  -1.910  1.00  0.00     0.137 C 
BRANCH  17  18
ATOM     18  C   UNL     1       4.934  -2.948  -2.785  1.00  0.00     0.023 C 
BRANCH  18  19
ATOM     19  C   UNL     1       4.938  -3.172  -4.296  1.00  0.00     0.002 CG0
ATOM     20  G   UNL     1       3.688  -3.823  -4.877  1.00  0.00     0.000 G0
ENDBRANCH  18  19
ENDBRANCH  17  18
ENDBRANCH  16  17
BRANCH  16  21
ATOM     21  C   UNL     1       2.747  -5.401  -3.121  1.00  0.00     0.137 C 
BRANCH  21  22
ATOM     22  C   UNL     1       3.523  -5.270  -4.428  1.00  0.00     0.023 C 
BRANCH  22  23
ATOM     23  C   UNL     1       3.688  -3.823  -4.877  1.00  0.00     0.002 CG0
ATOM     24  G   UNL     1       4.938  -3.172  -4.296  1.00  0.00     0.000 G0
ENDBRANCH  22  23
ENDBRANCH  21  22
ENDBRANCH  16  21
ENDBRANCH  13  16
ENDBRANCH   3   5
ENDBRANCH   2   3
ENDBRANCH   1   2
BRANCH   1  25
ATOM     25  C   UNL     1      -1.733   1.044   4.507  1.00  0.00     0.275 C 
BRANCH  25  26
ATOM     26  O   UNL     1      -0.813   1.788   3.700  1.00  0.00    -0.458 OA
BRANCH  26  27
ATOM     27  C   UNL     1       0.349   1.141   3.452  1.00  0.00     0.338 C 
ATOM     28  O   UNL     1       0.515  -0.069   3.441  1.00  0.00    -0.246 OA
BRANCH  27  29
ATOM     29  C   UNL     1       1.476   2.083   3.427  1.00  0.00     0.060 A 
ATOM     30  C   UNL     1       2.731   1.562   3.103  1.00  0.00     0.016 A 
ATOM     31  C   UNL     1       1.338   3.381   3.941  1.00  0.00     0.016 A 
ATOM     32  C   UNL     1       3.859   2.299   3.409  1.00  0.00     0.010 A 
ATOM     33  C   UNL     1       2.470   4.113   4.258  1.00  0.00     0.010 A 
ATOM     34  C   UNL     1       3.723   3.549   4.032  1.00  0.00    -0.014 A 
BRANCH  34  35
ATOM     35  C   UNL     1       4.930   4.346   4.188  1.00  0.00     0.031 A 
ATOM     36  C   UNL     1       5.387   4.860   2.876  1.00  0.00     0.074 A 
ATOM     37  C   UNL     1       5.543   4.625   5.357  1.00  0.00     0.049 A 
ATOM     38  N   UNL     1       6.329   4.365   2.146  1.00  0.00    -0.248 NA
ATOM     39  C   UNL     1       4.571   5.873   2.184  1.00  0.00     0.031 C 
ATOM     40  C   UNL     1       5.025   4.388   6.707  1.00  0.00     0.029 A 
ATOM     41  N   UNL     1       6.737   5.251   5.597  1.00  0.00    -0.354 N 
ATOM     42  C   UNL     1       6.437   5.234   1.067  1.00  0.00     0.074 A 
ATOM     43  C   UNL     1       5.195   5.954   1.006  1.00  0.00     0.031 C 
ATOM     44  C   UNL     1       5.780   5.066   7.604  1.00  0.00     0.029 A 
ATOM     45  C   UNL     1       6.918   5.657   6.920  1.00  0.00     0.049 A 
ATOM     46  H   UNL     1       7.411   5.401   4.896  1.00  0.00     0.167 HD
ATOM     47  C   UNL     1       7.675   5.564   0.607  1.00  0.00     0.037 A 
ATOM     48  C   UNL     1       7.925   6.430   7.410  1.00  0.00     0.037 A 
ATOM     49  C   UNL     1       8.658   4.628   1.090  1.00  0.00     0.049 A 
ATOM     50  C   UNL     1       9.081   6.271   6.496  1.00  0.00     0.074 A 
ATOM     51  C   UNL     1       9.045   3.332   0.829  1.00  0.00     0.029 A 
ATOM     52  N   UNL     1       9.141   4.955   2.326  1.00  0.00    -0.354 N 
ATOM     53  N   UNL     1       9.736   5.149   6.358  1.00  0.00    -0.248 NA
ATOM     54  C   UNL     1       9.315   7.271   5.458  1.00  0.00     0.031 C 
ATOM     55  C   UNL     1       9.726   2.871   1.996  1.00  0.00     0.029 A 
ATOM     56  C   UNL     1       9.782   3.908   2.921  1.00  0.00     0.049 A 
ATOM     57  H   UNL     1       9.039   5.843   2.738  1.00  0.00     0.167 HD
ATOM     58  C   UNL     1      10.109   5.143   5.030  1.00  0.00     0.074 A 
ATOM     59  C   UNL     1       9.978   6.521   4.575  1.00  0.00     0.031 C 
ATOM     60  C   UNL     1      10.135   3.982   4.320  1.00  0.00     0.037 A 
BRANCH  47  61
ATOM     61  C   UNL     1       8.092   6.979   0.243  1.00  0.00     0.058 A 
ATOM     62  C   UNL     1       9.378   7.190  -0.299  1.00  0.00     0.135 A 
ATOM     63  C   UNL     1       7.427   8.145   0.687  1.00  0.00     0.135 A 
ATOM     64  F   UNL     1      10.118   6.152  -0.722  1.00  0.00    -0.206 F 
ATOM     65  C   UNL     1       9.969   8.454  -0.359  1.00  0.00     0.059 A 
ATOM     66  C   UNL     1       7.977   9.418   0.590  1.00  0.00     0.059 A 
ATOM     67  F   UNL     1       6.254   8.110   1.327  1.00  0.00    -0.206 F 
ATOM     68  C   UNL     1       9.258   9.562   0.090  1.00  0.00     0.060 A 
BRANCH  68  69
ATOM     69  S   UNL     1      10.022  11.191   0.043  1.00  0.00     0.124 S 
ATOM     70  O   UNL     1      11.086  11.045   1.029  1.00  0.00    -0.237 OA
ATOM     71  O   UNL     1      10.445  11.281  -1.351  1.00  0.00    -0.237 OA
ATOM     72  O   UNL     1       8.929  12.084   0.417  1.00  0.00    -0.744 OA
ENDBRANCH  68  69
ENDBRANCH  47  61
BRANCH  48  73
ATOM     73  C   UNL     1       7.878   7.535   8.413  1.00  0.00     0.058 A 
ATOM     74  C   UNL     1       9.064   8.159   8.858  1.00  0.00     0.135 A 
ATOM     75  C   UNL     1       6.682   8.221   8.694  1.00  0.00     0.135 A 
ATOM     76  F   UNL     1      10.255   7.576   8.648  1.00  0.00    -0.206 F 
ATOM     77  C   UNL     1       9.070   9.429   9.447  1.00  0.00     0.059 A 
ATOM     78  C   UNL     1       6.663   9.485   9.287  1.00  0.00     0.059 A 
ATOM     79  F   UNL     1       5.497   7.725   8.310  1.00  0.00    -0.206 F 
ATOM     80  C   UNL     1       7.863  10.101   9.624  1.00  0.00     0.060 A 
BRANCH  80  81
ATOM     81  S   UNL     1       7.878  11.827  10.173  1.00  0.00     0.124 S 
ATOM     82  O   UNL     1       8.339  11.703  11.552  1.00  0.00    -0.237 OA
ATOM     83  O   UNL     1       8.818  12.439   9.240  1.00  0.00    -0.237 OA
ATOM     84  O   UNL     1       6.487  12.243  10.016  1.00  0.00    -0.744 OA
ENDBRANCH  80  81
ENDBRANCH  48  73
BRANCH  60  85
ATOM     85  C   UNL     1      10.452   2.711   5.036  1.00  0.00     0.058 A 
ATOM     86  C   UNL     1       9.604   2.038   5.927  1.00  0.00     0.135 A 
ATOM     87  C   UNL     1      11.661   2.089   4.687  1.00  0.00     0.135 A 
ATOM     88  F   UNL     1       8.409   2.548   6.262  1.00  0.00    -0.206 F 
ATOM     89  C   UNL     1       9.952   0.788   6.448  1.00  0.00     0.059 A 
ATOM     90  C   UNL     1      12.012   0.838   5.169  1.00  0.00     0.059 A 
ATOM     91  F   UNL     1      12.493   2.681   3.814  1.00  0.00    -0.206 F 
ATOM     92  C   UNL     1      11.153   0.192   6.051  1.00  0.00     0.060 A 
BRANCH  92  93
ATOM     93  S   UNL     1      11.561  -1.465   6.639  1.00  0.00     0.124 S 
ATOM     94  O   UNL     1      11.773  -1.243   8.065  1.00  0.00    -0.237 OA
ATOM     95  O   UNL     1      10.366  -2.226   6.284  1.00  0.00    -0.237 OA
ATOM     96  O   UNL     1      12.759  -1.814   5.878  1.00  0.00    -0.744 OA
ENDBRANCH  92  93
ENDBRANCH  60  85
ENDBRANCH  34  35
ENDBRANCH  27  29
ENDBRANCH  26  27
ENDBRANCH  25  26
ENDBRANCH   1  25
TORSDOF 15
