REMARK SMILES O=C(OCCOC(=O)C1CCN(C(=O)COc2ccc(Cl)cc2Cl)CC1)c1ccc(-c2c3nc(c(-c4c(F)cc(S(=O)(=O)[O-])cc4F)c4ccc([nH]4)c(-c4c(F)cc(S(=O)(=O)[O-])cc4F)c4nc(c(-c5c(F)cc(S(=O)(=O)[O-])cc5F)c5ccc2[nH]5)C=C4)C=C3)cc1
REMARK SMILES IDX 4 1 3 2 2 3 1 4 27 5 28 6 92 7 29 8 91 9 30 10 31 11 32 12
REMARK SMILES IDX 85 13 33 14 90 15 84 16 86 17 34 18 89 19 83 20 82 21 35 23
REMARK SMILES IDX 69 24 48 25 68 26 49 27 52 28 67 29 87 30 50 31 51 32 66 34
REMARK SMILES IDX 88 35 53 36 36 37 37 38 46 39 38 40 39 41 45 42 47 43 40 44
REMARK SMILES IDX 41 45 42 46 43 47 44 48 70 49 71 50 80 51 72 52 73 53 79 54
REMARK SMILES IDX 81 55 74 56 75 57 76 58 77 59 78 60 54 61 55 62 64 63 56 64
REMARK SMILES IDX 57 65 63 66 65 67 58 68 59 69 60 70 61 71 62 72 5 73 6 74
REMARK SMILES IDX 7 75 8 76 9 77 10 78 26 79 11 80 25 81 12 82 13 83 14 84
REMARK SMILES IDX 15 85 16 86 17 87 18 88 23 89 19 90 22 91 24 92 20 93 21 94
REMARK H PARENT 86 22 52 33
REMARK Flexibility Score: inf
ROOT
ATOM      1  C   UNL     1       4.508   2.048  -0.408  1.00  0.00     0.275 C 
ENDROOT
BRANCH   1   2
ATOM      2  O   UNL     1       3.827   1.090  -1.223  1.00  0.00    -0.458 OA
BRANCH   2   3
ATOM      3  C   UNL     1       3.849  -0.259  -1.173  1.00  0.00     0.338 C 
ATOM      4  O   UNL     1       3.069  -0.865  -1.909  1.00  0.00    -0.246 OA
BRANCH   3   5
ATOM      5  C   UNL     1       4.681  -1.069  -0.217  1.00  0.00     0.060 A 
ATOM      6  C   UNL     1       5.734  -0.638   0.591  1.00  0.00     0.016 A 
ATOM      7  C   UNL     1       4.280  -2.403  -0.070  1.00  0.00     0.016 A 
ATOM      8  C   UNL     1       6.274  -1.465   1.590  1.00  0.00     0.010 A 
ATOM      9  C   UNL     1       4.729  -3.180   1.000  1.00  0.00     0.010 A 
ATOM     10  C   UNL     1       5.738  -2.729   1.849  1.00  0.00    -0.014 A 
BRANCH  10  11
ATOM     11  C   UNL     1       6.275  -3.581   2.948  1.00  0.00     0.031 A 
ATOM     12  C   UNL     1       6.783  -4.968   2.633  1.00  0.00     0.074 A 
ATOM     13  C   UNL     1       6.318  -3.123   4.221  1.00  0.00     0.049 A 
ATOM     14  N   UNL     1       7.410  -5.811   3.413  1.00  0.00    -0.248 NA
ATOM     15  C   UNL     1       6.521  -5.502   1.284  1.00  0.00     0.031 C 
ATOM     16  C   UNL     1       5.744  -1.861   4.701  1.00  0.00     0.029 A 
ATOM     17  N   UNL     1       6.885  -3.662   5.352  1.00  0.00    -0.354 N 
ATOM     18  C   UNL     1       7.636  -6.938   2.633  1.00  0.00     0.074 A 
ATOM     19  C   UNL     1       6.930  -6.752   1.392  1.00  0.00     0.031 C 
ATOM     20  C   UNL     1       6.019  -1.708   6.008  1.00  0.00     0.029 A 
ATOM     21  C   UNL     1       6.806  -2.848   6.462  1.00  0.00     0.049 A 
ATOM     22  H   UNL     1       7.310  -4.550   5.367  1.00  0.00     0.167 HD
ATOM     23  C   UNL     1       8.455  -7.988   2.866  1.00  0.00     0.037 A 
ATOM     24  C   UNL     1       7.349  -2.985   7.689  1.00  0.00     0.037 A 
ATOM     25  C   UNL     1       9.191  -8.160   4.082  1.00  0.00     0.049 A 
ATOM     26  C   UNL     1       8.258  -4.163   7.941  1.00  0.00     0.074 A 
ATOM     27  C   UNL     1      10.077  -9.161   4.424  1.00  0.00     0.029 A 
ATOM     28  N   UNL     1       9.123  -7.288   5.158  1.00  0.00    -0.354 N 
ATOM     29  N   UNL     1       8.585  -5.141   7.128  1.00  0.00    -0.248 NA
ATOM     30  C   UNL     1       8.906  -4.237   9.258  1.00  0.00     0.031 C 
ATOM     31  C   UNL     1      10.527  -8.908   5.725  1.00  0.00     0.029 A 
ATOM     32  C   UNL     1       9.947  -7.730   6.173  1.00  0.00     0.049 A 
ATOM     33  H   UNL     1       8.569  -6.475   5.193  1.00  0.00     0.167 HD
ATOM     34  C   UNL     1       9.503  -5.923   7.821  1.00  0.00     0.074 A 
ATOM     35  C   UNL     1       9.694  -5.292   9.111  1.00  0.00     0.031 C 
ATOM     36  C   UNL     1      10.132  -7.060   7.434  1.00  0.00     0.037 A 
BRANCH  23  37
ATOM     37  C   UNL     1       8.643  -8.957   1.732  1.00  0.00     0.058 A 
ATOM     38  C   UNL     1       9.320  -8.565   0.562  1.00  0.00     0.135 A 
ATOM     39  C   UNL     1       8.106 -10.250   1.777  1.00  0.00     0.135 A 
ATOM     40  F   UNL     1       9.826  -7.325   0.456  1.00  0.00    -0.206 F 
ATOM     41  C   UNL     1       9.415  -9.403  -0.540  1.00  0.00     0.059 A 
ATOM     42  C   UNL     1       8.217 -11.119   0.694  1.00  0.00     0.059 A 
ATOM     43  F   UNL     1       7.443 -10.670   2.865  1.00  0.00    -0.206 F 
ATOM     44  C   UNL     1       8.856 -10.678  -0.467  1.00  0.00     0.060 A 
BRANCH  44  45
ATOM     45  S   UNL     1       8.979 -11.749  -1.914  1.00  0.00     0.124 S 
ATOM     46  O   UNL     1       8.025 -11.121  -2.823  1.00  0.00    -0.237 OA
ATOM     47  O   UNL     1      10.386 -11.614  -2.282  1.00  0.00    -0.237 OA
ATOM     48  O   UNL     1       8.591 -13.059  -1.402  1.00  0.00    -0.744 OA
ENDBRANCH  44  45
ENDBRANCH  23  37
BRANCH  24  49
ATOM     49  C   UNL     1       7.127  -1.961   8.754  1.00  0.00     0.058 A 
ATOM     50  C   UNL     1       8.172  -1.136   9.203  1.00  0.00     0.135 A 
ATOM     51  C   UNL     1       5.881  -1.822   9.384  1.00  0.00     0.135 A 
ATOM     52  F   UNL     1       9.384  -1.222   8.633  1.00  0.00    -0.206 F 
ATOM     53  C   UNL     1       8.007  -0.253  10.267  1.00  0.00     0.059 A 
ATOM     54  C   UNL     1       5.683  -0.928  10.435  1.00  0.00     0.059 A 
ATOM     55  F   UNL     1       4.838  -2.564   8.981  1.00  0.00    -0.206 F 
ATOM     56  C   UNL     1       6.759  -0.163  10.884  1.00  0.00     0.060 A 
BRANCH  56  57
ATOM     57  S   UNL     1       6.557   0.980  12.271  1.00  0.00     0.124 S 
ATOM     58  O   UNL     1       7.288   0.290  13.328  1.00  0.00    -0.237 OA
ATOM     59  O   UNL     1       7.176   2.198  11.757  1.00  0.00    -0.237 OA
ATOM     60  O   UNL     1       5.109   1.046  12.443  1.00  0.00    -0.744 OA
ENDBRANCH  56  57
ENDBRANCH  24  49
BRANCH  36  61
ATOM     61  C   UNL     1      11.107  -7.673   8.396  1.00  0.00     0.058 A 
ATOM     62  C   UNL     1      10.675  -8.336   9.553  1.00  0.00     0.135 A 
ATOM     63  C   UNL     1      12.482  -7.657   8.116  1.00  0.00     0.135 A 
ATOM     64  F   UNL     1       9.369  -8.375   9.863  1.00  0.00    -0.206 F 
ATOM     65  C   UNL     1      11.577  -8.944  10.417  1.00  0.00     0.059 A 
ATOM     66  C   UNL     1      13.400  -8.286   8.949  1.00  0.00     0.059 A 
ATOM     67  F   UNL     1      12.942  -7.048   7.011  1.00  0.00    -0.206 F 
ATOM     68  C   UNL     1      12.938  -8.915  10.104  1.00  0.00     0.060 A 
BRANCH  68  69
ATOM     69  S   UNL     1      14.096  -9.744  11.211  1.00  0.00     0.124 S 
ATOM     70  O   UNL     1      14.165  -8.801  12.322  1.00  0.00    -0.237 OA
ATOM     71  O   UNL     1      13.415 -11.005  11.490  1.00  0.00    -0.237 OA
ATOM     72  O   UNL     1      15.309  -9.860  10.407  1.00  0.00    -0.744 OA
ENDBRANCH  68  69
ENDBRANCH  36  61
ENDBRANCH  10  11
ENDBRANCH   3   5
ENDBRANCH   2   3
ENDBRANCH   1   2
BRANCH   1  73
ATOM     73  C   UNL     1       3.873   2.296   0.963  1.00  0.00     0.274 C 
BRANCH  73  74
ATOM     74  O   UNL     1       3.384   1.132   1.658  1.00  0.00    -0.462 OA
BRANCH  74  75
ATOM     75  C   UNL     1       2.026   0.954   1.623  1.00  0.00     0.309 C 
ATOM     76  O   UNL     1       1.277   1.561   0.871  1.00  0.00    -0.252 OA
BRANCH  75  77
ATOM     77  C   UNL     1       1.539   0.052   2.761  1.00  0.00     0.103 C 
ATOM     78  C   UNL     1       2.256  -1.286   2.870  1.00  0.00     0.037 C 
ATOM     79  C   UNL     1       0.020  -0.192   2.695  1.00  0.00     0.037 C 
ATOM     80  C   UNL     1       1.796  -2.280   1.819  1.00  0.00     0.120 C 
ATOM     81  C   UNL     1      -0.377  -1.168   1.589  1.00  0.00     0.120 C 
ATOM     82  N   UNL     1       0.370  -2.414   1.677  1.00  0.00    -0.340 N 
ATOM     83  C   UNL     1      -0.076  -3.614   1.128  1.00  0.00     0.260 C 
ATOM     84  O   UNL     1       0.700  -4.448   0.650  1.00  0.00    -0.271 OA
BRANCH  83  85
ATOM     85  C   UNL     1      -1.569  -3.936   1.206  1.00  0.00     0.329 C 
BRANCH  85  86
ATOM     86  O   UNL     1      -2.289  -3.599   2.377  1.00  0.00    -0.482 OA
BRANCH  86  87
ATOM     87  C   UNL     1      -1.899  -4.087   3.595  1.00  0.00     0.138 A 
ATOM     88  C   UNL     1      -0.719  -4.794   3.854  1.00  0.00     0.049 A 
ATOM     89  C   UNL     1      -2.754  -3.800   4.674  1.00  0.00     0.084 A 
ATOM     90  C   UNL     1      -0.371  -5.144   5.165  1.00  0.00     0.024 A 
ATOM     91  C   UNL     1      -2.424  -4.175   5.978  1.00  0.00     0.045 A 
ATOM     92  Cl  UNL     1      -4.259  -2.977   4.429  1.00  0.00    -0.080 Cl
ATOM     93  C   UNL     1      -1.223  -4.831   6.218  1.00  0.00     0.042 A 
ATOM     94  Cl  UNL     1      -0.793  -5.263   7.826  1.00  0.00    -0.084 Cl
ENDBRANCH  86  87
ENDBRANCH  85  86
ENDBRANCH  83  85
ENDBRANCH  75  77
ENDBRANCH  74  75
ENDBRANCH  73  74
ENDBRANCH   1  73
TORSDOF 17
