REMARK SMILES C[C@](C(=O)OCCOC(=O)c1ccc(-c2c3nc(c(-c4c(F)cc(S(=O)(=O)[O-])cc4F)c4ccc([nH]4)c(-c4c(F)cc(S(=O)(=O)[O-])cc4F)c4nc(c(-c5c(F)cc(S(=O)(=O)[O-])cc5F)c5ccc2[nH]5)C=C4)C=C3)cc1)(c1cc(F)cc(F)c1)[NH+]1CCCC1
REMARK SMILES IDX 7 1 6 2 5 3 3 4 4 5 2 6 1 7 77 8 78 9 84 10 79 11 82 12
REMARK SMILES IDX 80 13 81 14 83 15 85 16 86 17 89 18 87 20 88 21 8 22 9 23
REMARK SMILES IDX 10 24 11 25 12 26 76 27 13 28 75 29 14 30 15 31 16 32 69 33
REMARK SMILES IDX 17 34 74 35 68 36 70 37 18 38 73 39 67 40 66 41 19 43 53 44
REMARK SMILES IDX 32 45 52 46 33 47 36 48 51 49 71 50 34 51 35 52 50 54 72 55
REMARK SMILES IDX 37 56 20 57 21 58 30 59 22 60 23 61 29 62 31 63 24 64 25 65
REMARK SMILES IDX 26 66 27 67 28 68 54 69 55 70 64 71 56 72 57 73 63 74 65 75
REMARK SMILES IDX 58 76 59 77 60 78 61 79 62 80 38 81 39 82 48 83 40 84 41 85
REMARK SMILES IDX 47 86 49 87 42 88 43 89 44 90 45 91 46 92
REMARK H PARENT 85 19 70 42 36 53
REMARK Flexibility Score: inf
ROOT
ATOM      1  C   UNL     1       0.437  -1.388  -2.727  1.00  0.00     0.275 C 
ENDROOT
BRANCH   1   2
ATOM      2  C   UNL     1       0.684  -1.917  -1.313  1.00  0.00     0.274 C 
BRANCH   2   3
ATOM      3  O   UNL     1       0.058  -1.095  -0.306  1.00  0.00    -0.457 OA
BRANCH   3   4
ATOM      4  C   UNL     1       0.858  -0.213   0.360  1.00  0.00     0.372 C 
ATOM      5  O   UNL     1       2.052  -0.086   0.095  1.00  0.00    -0.244 OA
BRANCH   4   6
ATOM      6  C   UNL     1       0.132   0.546   1.546  1.00  0.00     0.218 C 
ATOM      7  C   UNL     1       0.755   1.974   1.534  1.00  0.00     0.098 C 
BRANCH   6   8
ATOM      8  C   UNL     1      -1.409   0.630   1.354  1.00  0.00     0.029 A 
ATOM      9  C   UNL     1      -2.102   1.858   1.278  1.00  0.00     0.050 A 
ATOM     10  C   UNL     1      -2.198  -0.536   1.287  1.00  0.00     0.050 A 
ATOM     11  C   UNL     1      -3.491   1.902   1.139  1.00  0.00     0.126 A 
ATOM     12  C   UNL     1      -3.586  -0.469   1.145  1.00  0.00     0.126 A 
ATOM     13  F   UNL     1      -4.106   3.091   1.088  1.00  0.00    -0.207 F 
ATOM     14  C   UNL     1      -4.244   0.745   1.071  1.00  0.00     0.078 A 
ATOM     15  F   UNL     1      -4.294  -1.606   1.094  1.00  0.00    -0.207 F 
ENDBRANCH   6   8
BRANCH   6  16
ATOM     16  N   UNL     1       0.585   0.060   2.895  1.00  0.00    -0.317 N 
ATOM     17  C   UNL     1       1.495  -1.076   2.992  1.00  0.00     0.263 C 
ATOM     18  C   UNL     1      -0.392  -0.131   3.962  1.00  0.00     0.263 C 
ATOM     19  H   UNL     1       1.098   0.929   3.042  1.00  0.00     0.349 HD
ATOM     20  C   UNL     1       0.578  -2.247   3.272  1.00  0.00     0.067 C 
ATOM     21  C   UNL     1      -0.540  -1.643   4.114  1.00  0.00     0.067 C 
ENDBRANCH   6  16
ENDBRANCH   4   6
ENDBRANCH   3   4
ENDBRANCH   2   3
ENDBRANCH   1   2
BRANCH   1  22
ATOM     22  O   UNL     1       1.205  -0.201  -2.985  1.00  0.00    -0.458 OA
BRANCH  22  23
ATOM     23  C   UNL     1       0.534   0.961  -2.820  1.00  0.00     0.338 C 
ATOM     24  O   UNL     1      -0.635   1.103  -2.507  1.00  0.00    -0.246 OA
BRANCH  23  25
ATOM     25  C   UNL     1       1.462   2.089  -2.970  1.00  0.00     0.060 A 
ATOM     26  C   UNL     1       2.058   2.595  -1.817  1.00  0.00     0.016 A 
ATOM     27  C   UNL     1       1.636   2.730  -4.194  1.00  0.00     0.016 A 
ATOM     28  C   UNL     1       2.766   3.787  -1.857  1.00  0.00     0.010 A 
ATOM     29  C   UNL     1       2.409   3.897  -4.247  1.00  0.00     0.010 A 
ATOM     30  C   UNL     1       2.953   4.451  -3.074  1.00  0.00    -0.014 A 
BRANCH  30  31
ATOM     31  C   UNL     1       3.673   5.749  -3.092  1.00  0.00     0.031 A 
ATOM     32  C   UNL     1       2.940   7.003  -3.477  1.00  0.00     0.074 A 
ATOM     33  C   UNL     1       4.965   5.810  -2.717  1.00  0.00     0.049 A 
ATOM     34  N   UNL     1       3.415   8.200  -3.704  1.00  0.00    -0.248 NA
ATOM     35  C   UNL     1       1.480   6.896  -3.634  1.00  0.00     0.031 C 
ATOM     36  C   UNL     1       5.769   4.675  -2.255  1.00  0.00     0.029 A 
ATOM     37  N   UNL     1       5.828   6.874  -2.650  1.00  0.00    -0.354 N 
ATOM     38  C   UNL     1       2.326   8.973  -4.090  1.00  0.00     0.074 A 
ATOM     39  C   UNL     1       1.162   8.114  -4.050  1.00  0.00     0.031 C 
ATOM     40  C   UNL     1       6.994   5.110  -1.923  1.00  0.00     0.029 A 
ATOM     41  C   UNL     1       7.088   6.535  -2.218  1.00  0.00     0.049 A 
ATOM     42  H   UNL     1       5.569   7.794  -2.890  1.00  0.00     0.167 HD
ATOM     43  C   UNL     1       2.307  10.276  -4.454  1.00  0.00     0.037 A 
ATOM     44  C   UNL     1       8.204   7.281  -2.108  1.00  0.00     0.037 A 
ATOM     45  C   UNL     1       3.462  11.135  -4.436  1.00  0.00     0.049 A 
ATOM     46  C   UNL     1       8.160   8.724  -2.521  1.00  0.00     0.074 A 
ATOM     47  C   UNL     1       3.554  12.468  -4.797  1.00  0.00     0.029 A 
ATOM     48  N   UNL     1       4.725  10.748  -4.013  1.00  0.00    -0.354 N 
ATOM     49  N   UNL     1       7.143   9.419  -2.971  1.00  0.00    -0.248 NA
ATOM     50  C   UNL     1       9.418   9.476  -2.438  1.00  0.00     0.031 C 
ATOM     51  C   UNL     1       4.877  12.882  -4.607  1.00  0.00     0.029 A 
ATOM     52  C   UNL     1       5.603  11.814  -4.104  1.00  0.00     0.049 A 
ATOM     53  H   UNL     1       4.962   9.847  -3.694  1.00  0.00     0.167 HD
ATOM     54  C   UNL     1       7.638  10.691  -3.229  1.00  0.00     0.074 A 
ATOM     55  C   UNL     1       9.041  10.675  -2.864  1.00  0.00     0.031 C 
ATOM     56  C   UNL     1       6.995  11.771  -3.735  1.00  0.00     0.037 A 
BRANCH  43  57
ATOM     57  C   UNL     1       1.005  10.836  -4.949  1.00  0.00     0.058 A 
ATOM     58  C   UNL     1      -0.036  11.184  -4.076  1.00  0.00     0.135 A 
ATOM     59  C   UNL     1       0.806  11.040  -6.324  1.00  0.00     0.135 A 
ATOM     60  F   UNL     1       0.097  10.988  -2.754  1.00  0.00    -0.206 F 
ATOM     61  C   UNL     1      -1.240  11.695  -4.551  1.00  0.00     0.059 A 
ATOM     62  C   UNL     1      -0.383  11.566  -6.819  1.00  0.00     0.059 A 
ATOM     63  F   UNL     1       1.770  10.719  -7.201  1.00  0.00    -0.206 F 
ATOM     64  C   UNL     1      -1.407  11.877  -5.925  1.00  0.00     0.060 A 
BRANCH  64  65
ATOM     65  S   UNL     1      -2.973  12.535  -6.537  1.00  0.00     0.124 S 
ATOM     66  O   UNL     1      -3.823  11.349  -6.493  1.00  0.00    -0.237 OA
ATOM     67  O   UNL     1      -3.285  13.573  -5.559  1.00  0.00    -0.237 OA
ATOM     68  O   UNL     1      -2.637  13.020  -7.872  1.00  0.00    -0.744 OA
ENDBRANCH  64  65
ENDBRANCH  43  57
BRANCH  44  69
ATOM     69  C   UNL     1       9.463   6.657  -1.626  1.00  0.00     0.058 A 
ATOM     70  C   UNL     1       9.970   6.947  -0.352  1.00  0.00     0.135 A 
ATOM     71  C   UNL     1      10.165   5.736  -2.418  1.00  0.00     0.135 A 
ATOM     72  F   UNL     1       9.339   7.830   0.437  1.00  0.00    -0.206 F 
ATOM     73  C   UNL     1      11.131   6.344   0.123  1.00  0.00     0.059 A 
ATOM     74  C   UNL     1      11.315   5.104  -1.958  1.00  0.00     0.059 A 
ATOM     75  F   UNL     1       9.712   5.418  -3.641  1.00  0.00    -0.206 F 
ATOM     76  C   UNL     1      11.794   5.420  -0.687  1.00  0.00     0.060 A 
BRANCH  76  77
ATOM     77  S   UNL     1      13.259   4.581  -0.044  1.00  0.00     0.124 S 
ATOM     78  O   UNL     1      14.297   5.576  -0.288  1.00  0.00    -0.237 OA
ATOM     79  O   UNL     1      12.905   4.357   1.354  1.00  0.00    -0.237 OA
ATOM     80  O   UNL     1      13.334   3.373  -0.862  1.00  0.00    -0.744 OA
ENDBRANCH  76  77
ENDBRANCH  44  69
BRANCH  56  81
ATOM     81  C   UNL     1       7.803  13.021  -3.911  1.00  0.00     0.058 A 
ATOM     82  C   UNL     1       8.667  13.180  -5.004  1.00  0.00     0.135 A 
ATOM     83  C   UNL     1       7.683  14.082  -3.001  1.00  0.00     0.135 A 
ATOM     84  F   UNL     1       8.818  12.188  -5.896  1.00  0.00    -0.206 F 
ATOM     85  C   UNL     1       9.402  14.347  -5.181  1.00  0.00     0.059 A 
ATOM     86  C   UNL     1       8.397  15.264  -3.167  1.00  0.00     0.059 A 
ATOM     87  F   UNL     1       6.863  13.977  -1.943  1.00  0.00    -0.206 F 
ATOM     88  C   UNL     1       9.263  15.382  -4.254  1.00  0.00     0.060 A 
BRANCH  88  89
ATOM     89  S   UNL     1      10.199  16.906  -4.503  1.00  0.00     0.124 S 
ATOM     90  O   UNL     1      11.511  16.532  -3.985  1.00  0.00    -0.237 OA
ATOM     91  O   UNL     1      10.118  17.097  -5.948  1.00  0.00    -0.237 OA
ATOM     92  O   UNL     1       9.464  17.885  -3.708  1.00  0.00    -0.744 OA
ENDBRANCH  88  89
ENDBRANCH  56  81
ENDBRANCH  30  31
ENDBRANCH  23  25
ENDBRANCH  22  23
ENDBRANCH   1  22
TORSDOF 16
