REMARK SMILES O=C(OCCOC(=O)[C@@H](CCOCCO)c1cccc(F)c1)c1ccc(-c2c3nc(c(-c4c(F)cc(S(=O)(=O)[O-])cc4F)c4ccc([nH]4)c(-c4c(F)cc(S(=O)(=O)[O-])cc4F)c4nc(c(-c5c(F)cc(S(=O)(=O)[O-])cc5F)c5ccc2[nH]5)C=C4)C=C3)cc1
REMARK SMILES IDX 6 1 5 2 4 3 3 4 2 5 1 6 23 7 24 8 88 9 25 10 87 11 26 12
REMARK SMILES IDX 27 13 28 14 81 15 29 16 86 17 80 18 82 19 30 20 85 21 79 22
REMARK SMILES IDX 78 23 31 25 65 26 44 27 64 28 45 29 48 30 63 31 83 32 46 33
REMARK SMILES IDX 47 34 62 36 84 37 49 38 32 39 33 40 42 41 34 42 35 43 41 44
REMARK SMILES IDX 43 45 36 46 37 47 38 48 39 49 40 50 66 51 67 52 76 53 68 54
REMARK SMILES IDX 69 55 75 56 77 57 70 58 71 59 72 60 73 61 74 62 50 63 51 64
REMARK SMILES IDX 60 65 52 66 53 67 59 68 61 69 54 70 55 71 56 72 57 73 58 74
REMARK SMILES IDX 7 75 8 76 9 77 10 78 11 79 12 80 13 81 14 82 15 83 16 85
REMARK SMILES IDX 17 86 22 87 18 88 20 89 19 90 21 91
REMARK H PARENT 82 24 48 35 15 84
REMARK Flexibility Score: inf
ROOT
ATOM      1  O   UNL     1       2.272   1.410   0.529  1.00  0.00    -0.462 OA
ENDROOT
BRANCH   1   2
ATOM      2  C   UNL     1       3.104   1.884  -0.534  1.00  0.00     0.274 C 
BRANCH   2   3
ATOM      3  C   UNL     1       3.898   0.768  -1.231  1.00  0.00     0.275 C 
BRANCH   3   4
ATOM      4  O   UNL     1       3.182  -0.466  -1.447  1.00  0.00    -0.458 OA
BRANCH   4   5
ATOM      5  C   UNL     1       2.962  -1.497  -0.595  1.00  0.00     0.338 C 
ATOM      6  O   UNL     1       1.948  -2.176  -0.758  1.00  0.00    -0.246 OA
BRANCH   5   7
ATOM      7  C   UNL     1       3.869  -1.862   0.548  1.00  0.00     0.060 A 
ATOM      8  C   UNL     1       5.194  -1.449   0.717  1.00  0.00     0.016 A 
ATOM      9  C   UNL     1       3.322  -2.691   1.546  1.00  0.00     0.016 A 
ATOM     10  C   UNL     1       5.865  -1.635   1.947  1.00  0.00     0.010 A 
ATOM     11  C   UNL     1       3.990  -2.892   2.767  1.00  0.00     0.010 A 
ATOM     12  C   UNL     1       5.242  -2.290   3.015  1.00  0.00    -0.014 A 
BRANCH  12  13
ATOM     13  C   UNL     1       5.929  -2.502   4.328  1.00  0.00     0.031 A 
ATOM     14  C   UNL     1       6.419  -3.889   4.579  1.00  0.00     0.074 A 
ATOM     15  C   UNL     1       6.105  -1.557   5.285  1.00  0.00     0.049 A 
ATOM     16  N   UNL     1       7.053  -4.356   5.615  1.00  0.00    -0.248 NA
ATOM     17  C   UNL     1       6.164  -4.879   3.516  1.00  0.00     0.031 C 
ATOM     18  C   UNL     1       5.706  -0.167   5.170  1.00  0.00     0.029 A 
ATOM     19  N   UNL     1       6.646  -1.599   6.554  1.00  0.00    -0.354 N 
ATOM     20  C   UNL     1       7.335  -5.670   5.291  1.00  0.00     0.074 A 
ATOM     21  C   UNL     1       6.668  -5.976   4.049  1.00  0.00     0.031 C 
ATOM     22  C   UNL     1       5.911   0.497   6.319  1.00  0.00     0.029 A 
ATOM     23  C   UNL     1       6.564  -0.403   7.253  1.00  0.00     0.049 A 
ATOM     24  H   UNL     1       7.056  -2.410   6.932  1.00  0.00     0.167 HD
ATOM     25  C   UNL     1       8.170  -6.518   5.919  1.00  0.00     0.037 A 
ATOM     26  C   UNL     1       7.011  -0.052   8.480  1.00  0.00     0.037 A 
ATOM     27  C   UNL     1       8.825  -6.219   7.154  1.00  0.00     0.049 A 
ATOM     28  C   UNL     1       7.813  -1.073   9.240  1.00  0.00     0.074 A 
ATOM     29  C   UNL     1       9.670  -7.023   7.890  1.00  0.00     0.029 A 
ATOM     30  N   UNL     1       8.696  -5.020   7.840  1.00  0.00    -0.354 N 
ATOM     31  N   UNL     1       8.133  -2.292   8.873  1.00  0.00    -0.248 NA
ATOM     32  C   UNL     1       8.350  -0.676  10.549  1.00  0.00     0.031 C 
ATOM     33  C   UNL     1      10.019  -6.326   9.049  1.00  0.00     0.029 A 
ATOM     34  C   UNL     1       9.433  -5.069   9.008  1.00  0.00     0.049 A 
ATOM     35  H   UNL     1       8.161  -4.250   7.540  1.00  0.00     0.167 HD
ATOM     36  C   UNL     1       8.944  -2.790   9.881  1.00  0.00     0.074 A 
ATOM     37  C   UNL     1       9.067  -1.743  10.876  1.00  0.00     0.031 C 
ATOM     38  C   UNL     1       9.541  -4.003   9.970  1.00  0.00     0.037 A 
BRANCH  25  39
ATOM     39  C   UNL     1       8.436  -7.808   5.217  1.00  0.00     0.058 A 
ATOM     40  C   UNL     1       7.875  -9.004   5.674  1.00  0.00     0.135 A 
ATOM     41  C   UNL     1       9.207  -7.835   4.040  1.00  0.00     0.135 A 
ATOM     42  F   UNL     1       7.096  -9.014   6.767  1.00  0.00    -0.206 F 
ATOM     43  C   UNL     1       8.086 -10.197   4.997  1.00  0.00     0.059 A 
ATOM     44  C   UNL     1       9.409  -9.011   3.334  1.00  0.00     0.059 A 
ATOM     45  F   UNL     1       9.710  -6.697   3.534  1.00  0.00    -0.206 F 
ATOM     46  C   UNL     1       8.857 -10.190   3.830  1.00  0.00     0.060 A 
BRANCH  46  47
ATOM     47  S   UNL     1       9.104 -11.749   2.961  1.00  0.00     0.124 S 
ATOM     48  O   UNL     1       9.938 -12.484   3.902  1.00  0.00    -0.237 OA
ATOM     49  O   UNL     1       7.737 -12.230   2.803  1.00  0.00    -0.237 OA
ATOM     50  O   UNL     1       9.764 -11.342   1.719  1.00  0.00    -0.744 OA
ENDBRANCH  46  47
ENDBRANCH  25  39
BRANCH  26  51
ATOM     51  C   UNL     1       6.798   1.317   9.050  1.00  0.00     0.058 A 
ATOM     52  C   UNL     1       5.538   1.731   9.509  1.00  0.00     0.135 A 
ATOM     53  C   UNL     1       7.864   2.222   9.208  1.00  0.00     0.135 A 
ATOM     54  F   UNL     1       4.483   0.909   9.403  1.00  0.00    -0.206 F 
ATOM     55  C   UNL     1       5.340   2.983  10.095  1.00  0.00     0.059 A 
ATOM     56  C   UNL     1       7.696   3.471   9.810  1.00  0.00     0.059 A 
ATOM     57  F   UNL     1       9.097   1.876   8.810  1.00  0.00    -0.206 F 
ATOM     58  C   UNL     1       6.426   3.847  10.243  1.00  0.00     0.060 A 
BRANCH  58  59
ATOM     59  S   UNL     1       6.153   5.458  11.021  1.00  0.00     0.124 S 
ATOM     60  O   UNL     1       5.369   6.144   9.997  1.00  0.00    -0.237 OA
ATOM     61  O   UNL     1       5.431   5.096  12.236  1.00  0.00    -0.237 OA
ATOM     62  O   UNL     1       7.504   5.971  11.225  1.00  0.00    -0.744 OA
ENDBRANCH  58  59
ENDBRANCH  26  51
BRANCH  38  63
ATOM     63  C   UNL     1      10.405  -4.257  11.165  1.00  0.00     0.058 A 
ATOM     64  C   UNL     1      11.796  -4.368  11.014  1.00  0.00     0.135 A 
ATOM     65  C   UNL     1       9.851  -4.492  12.432  1.00  0.00     0.135 A 
ATOM     66  F   UNL     1      12.367  -4.156   9.817  1.00  0.00    -0.206 F 
ATOM     67  C   UNL     1      12.608  -4.737  12.075  1.00  0.00     0.059 A 
ATOM     68  C   UNL     1      10.650  -4.831  13.516  1.00  0.00     0.059 A 
ATOM     69  F   UNL     1       8.527  -4.383  12.622  1.00  0.00    -0.206 F 
ATOM     70  C   UNL     1      12.025  -4.973  13.321  1.00  0.00     0.060 A 
BRANCH  70  71
ATOM     71  S   UNL     1      13.096  -5.460  14.686  1.00  0.00     0.124 S 
ATOM     72  O   UNL     1      13.459  -6.821  14.307  1.00  0.00    -0.237 OA
ATOM     73  O   UNL     1      14.166  -4.470  14.605  1.00  0.00    -0.237 OA
ATOM     74  O   UNL     1      12.229  -5.343  15.854  1.00  0.00    -0.744 OA
ENDBRANCH  70  71
ENDBRANCH  38  63
ENDBRANCH  12  13
ENDBRANCH   5   7
ENDBRANCH   4   5
ENDBRANCH   3   4
ENDBRANCH   2   3
ENDBRANCH   1   2
BRANCH   1  75
ATOM     75  C   UNL     1       1.657   2.377   1.289  1.00  0.00     0.313 C 
ATOM     76  O   UNL     1       1.536   3.536   0.912  1.00  0.00    -0.252 OA
BRANCH  75  77
ATOM     77  C   UNL     1       1.138   1.831   2.652  1.00  0.00     0.131 C 
BRANCH  77  78
ATOM     78  C   UNL     1       1.623   0.386   2.792  1.00  0.00     0.048 C 
BRANCH  78  79
ATOM     79  C   UNL     1       3.102   0.296   3.172  1.00  0.00     0.161 C 
BRANCH  79  80
ATOM     80  O   UNL     1       4.081   0.990   2.396  1.00  0.00    -0.379 OA
BRANCH  80  81
ATOM     81  C   UNL     1       4.504   2.265   2.901  1.00  0.00     0.188 C 
BRANCH  81  82
ATOM     82  C   UNL     1       5.978   2.535   2.579  1.00  0.00     0.184 C 
BRANCH  82  83
ATOM     83  O   UNL     1       6.341   1.957   1.329  1.00  0.00    -0.394 OA
ATOM     84  H   UNL     1       6.211   0.997   1.367  1.00  0.00     0.210 HD
ENDBRANCH  82  83
ENDBRANCH  81  82
ENDBRANCH  80  81
ENDBRANCH  79  80
ENDBRANCH  78  79
ENDBRANCH  77  78
BRANCH  77  85
ATOM     85  C   UNL     1       1.502   2.631   3.933  1.00  0.00    -0.031 A 
ATOM     86  C   UNL     1       1.841   3.989   3.900  1.00  0.00     0.005 A 
ATOM     87  C   UNL     1       1.626   1.983   5.189  1.00  0.00     0.043 A 
ATOM     88  C   UNL     1       2.447   4.614   5.003  1.00  0.00     0.003 A 
ATOM     89  C   UNL     1       2.267   2.597   6.265  1.00  0.00     0.123 A 
ATOM     90  C   UNL     1       2.701   3.904   6.175  1.00  0.00     0.039 A 
ATOM     91  F   UNL     1       2.523   1.883   7.369  1.00  0.00    -0.207 F 
ENDBRANCH  77  85
ENDBRANCH  75  77
ENDBRANCH   1  75
TORSDOF 21
