REMARK SMILES CC(=O)N1CC[NH2+]C[C@@H]1c1ccc(C(=O)OCCOC(=O)c2ccc(-c3c4nc(c(-c5c(F)cc(S(=O)(=O)[O-])cc5F)c5ccc([nH]5)c(-c5c(F)cc(S(=O)(=O)[O-])cc5F)c5nc(c(-c6c(F)cc(S(=O)(=O)[O-])cc6F)c6ccc3[nH]6)C=C5)C=C4)cc2)cc1
REMARK SMILES IDX 18 1 17 2 16 3 14 4 15 5 13 6 10 7 11 8 89 9 12 10 88 11
REMARK SMILES IDX 9 12 4 13 5 14 6 15 8 16 7 17 2 20 1 21 3 22 19 23 20 24
REMARK SMILES IDX 21 25 22 26 23 27 87 28 24 29 86 30 25 31 26 32 27 33 80 34
REMARK SMILES IDX 28 35 85 36 79 37 81 38 29 39 84 40 78 41 77 42 30 44 64 45
REMARK SMILES IDX 43 46 63 47 44 48 47 49 62 50 82 51 45 52 46 53 61 55 83 56
REMARK SMILES IDX 48 57 31 58 32 59 41 60 33 61 34 62 40 63 42 64 35 65 36 66
REMARK SMILES IDX 37 67 38 68 39 69 65 70 66 71 75 72 67 73 68 74 74 75 76 76
REMARK SMILES IDX 69 77 70 78 71 79 72 80 73 81 49 82 50 83 59 84 51 85 52 86
REMARK SMILES IDX 58 87 60 88 53 89 54 90 55 91 56 92 57 93
REMARK H PARENT 7 18 7 19 81 43 47 54
REMARK Flexibility Score: inf
ROOT
ATOM      1  C   UNL     1       3.800   2.031 -10.714  1.00  0.00     0.275 C 
ENDROOT
BRANCH   1   2
ATOM      2  C   UNL     1       3.511   0.688 -10.039  1.00  0.00     0.275 C 
BRANCH   2   3
ATOM      3  O   UNL     1       3.013   0.843  -8.691  1.00  0.00    -0.458 OA
BRANCH   3   4
ATOM      4  C   UNL     1       3.933   0.656  -7.710  1.00  0.00     0.338 C 
ATOM      5  O   UNL     1       5.107   0.372  -7.863  1.00  0.00    -0.246 OA
BRANCH   4   6
ATOM      6  C   UNL     1       3.352   0.916  -6.373  1.00  0.00     0.060 A 
ATOM      7  C   UNL     1       2.402   1.397  -3.747  1.00  0.00    -0.020 A 
ATOM      8  C   UNL     1       3.568   2.008  -4.210  1.00  0.00     0.007 A 
ATOM      9  C   UNL     1       1.766   0.475  -4.609  1.00  0.00     0.007 A 
ATOM     10  C   UNL     1       4.034   1.760  -5.496  1.00  0.00     0.016 A 
ATOM     11  C   UNL     1       2.213   0.259  -5.923  1.00  0.00     0.016 A 
BRANCH   7  12
ATOM     12  C   UNL     1       1.897   1.720  -2.332  1.00  0.00     0.170 C 
ATOM     13  N   UNL     1       0.507   1.268  -2.126  1.00  0.00    -0.325 N 
ATOM     14  C   UNL     1      -0.515   2.053  -2.833  1.00  0.00     0.181 C 
ATOM     15  C   UNL     1      -0.348   3.565  -2.571  1.00  0.00     0.282 C 
ATOM     16  C   UNL     1       1.962   3.239  -1.967  1.00  0.00     0.290 C 
ATOM     17  N   UNL     1       1.026   4.069  -2.755  1.00  0.00    -0.343 N 
ATOM     18  H   UNL     1       1.078   5.037  -2.436  1.00  0.00     0.346 HD
ATOM     19  H   UNL     1       1.277   4.024  -3.742  1.00  0.00     0.346 HD
BRANCH  13  20
ATOM     20  C   UNL     1       0.126   0.196  -1.344  1.00  0.00     0.220 C 
ATOM     21  C   UNL     1       1.076  -0.239  -0.255  1.00  0.00     0.114 C 
ATOM     22  O   UNL     1      -0.975  -0.344  -1.457  1.00  0.00    -0.275 OA
ENDBRANCH  13  20
ENDBRANCH   7  12
ENDBRANCH   4   6
ENDBRANCH   3   4
ENDBRANCH   2   3
ENDBRANCH   1   2
BRANCH   1  23
ATOM     23  O   UNL     1       4.931   2.691 -10.117  1.00  0.00    -0.458 OA
BRANCH  23  24
ATOM     24  C   UNL     1       4.612   3.696  -9.271  1.00  0.00     0.338 C 
ATOM     25  O   UNL     1       3.493   4.092  -8.983  1.00  0.00    -0.246 OA
BRANCH  24  26
ATOM     26  C   UNL     1       5.812   4.236  -8.619  1.00  0.00     0.060 A 
ATOM     27  C   UNL     1       6.301   3.547  -7.521  1.00  0.00     0.016 A 
ATOM     28  C   UNL     1       6.283   5.513  -8.901  1.00  0.00     0.016 A 
ATOM     29  C   UNL     1       7.088   4.202  -6.581  1.00  0.00     0.010 A 
ATOM     30  C   UNL     1       7.235   6.097  -8.052  1.00  0.00     0.010 A 
ATOM     31  C   UNL     1       7.607   5.475  -6.845  1.00  0.00    -0.014 A 
BRANCH  31  32
ATOM     32  C   UNL     1       8.529   6.132  -5.866  1.00  0.00     0.031 A 
ATOM     33  C   UNL     1       8.274   7.545  -5.392  1.00  0.00     0.074 A 
ATOM     34  C   UNL     1       9.603   5.461  -5.392  1.00  0.00     0.049 A 
ATOM     35  N   UNL     1       9.057   8.343  -4.711  1.00  0.00    -0.248 NA
ATOM     36  C   UNL     1       6.977   8.147  -5.743  1.00  0.00     0.031 C 
ATOM     37  C   UNL     1       9.960   4.078  -5.726  1.00  0.00     0.029 A 
ATOM     38  N   UNL     1      10.597   5.845  -4.523  1.00  0.00    -0.354 N 
ATOM     39  C   UNL     1       8.380   9.555  -4.609  1.00  0.00     0.074 A 
ATOM     40  C   UNL     1       7.122   9.390  -5.305  1.00  0.00     0.031 C 
ATOM     41  C   UNL     1      11.050   3.716  -5.038  1.00  0.00     0.029 A 
ATOM     42  C   UNL     1      11.551   4.874  -4.314  1.00  0.00     0.049 A 
ATOM     43  H   UNL     1      10.624   6.729  -4.091  1.00  0.00     0.167 HD
ATOM     44  C   UNL     1       8.773  10.697  -3.993  1.00  0.00     0.037 A 
ATOM     45  C   UNL     1      12.734   4.915  -3.673  1.00  0.00     0.037 A 
ATOM     46  C   UNL     1      10.006  10.831  -3.257  1.00  0.00     0.049 A 
ATOM     47  C   UNL     1      13.170   6.204  -3.040  1.00  0.00     0.074 A 
ATOM     48  C   UNL     1      10.486  11.937  -2.576  1.00  0.00     0.029 A 
ATOM     49  N   UNL     1      10.950   9.825  -3.096  1.00  0.00    -0.354 N 
ATOM     50  N   UNL     1      12.535   7.350  -2.990  1.00  0.00    -0.248 NA
ATOM     51  C   UNL     1      14.486   6.212  -2.390  1.00  0.00     0.031 C 
ATOM     52  C   UNL     1      11.742  11.618  -2.050  1.00  0.00     0.029 A 
ATOM     53  C   UNL     1      12.018  10.293  -2.347  1.00  0.00     0.049 A 
ATOM     54  H   UNL     1      10.872   8.914  -3.461  1.00  0.00     0.167 HD
ATOM     55  C   UNL     1      13.366   8.211  -2.283  1.00  0.00     0.074 A 
ATOM     56  C   UNL     1      14.539   7.446  -1.911  1.00  0.00     0.031 C 
ATOM     57  C   UNL     1      13.174   9.516  -1.973  1.00  0.00     0.037 A 
BRANCH  44  58
ATOM     58  C   UNL     1       7.886  11.911  -4.109  1.00  0.00     0.058 A 
ATOM     59  C   UNL     1       6.648  12.004  -3.454  1.00  0.00     0.135 A 
ATOM     60  C   UNL     1       8.314  13.028  -4.849  1.00  0.00     0.135 A 
ATOM     61  F   UNL     1       6.180  10.965  -2.744  1.00  0.00    -0.206 F 
ATOM     62  C   UNL     1       5.857  13.147  -3.547  1.00  0.00     0.059 A 
ATOM     63  C   UNL     1       7.555  14.193  -4.930  1.00  0.00     0.059 A 
ATOM     64  F   UNL     1       9.490  13.000  -5.496  1.00  0.00    -0.206 F 
ATOM     65  C   UNL     1       6.321  14.238  -4.285  1.00  0.00     0.060 A 
BRANCH  65  66
ATOM     66  S   UNL     1       5.290  15.717  -4.382  1.00  0.00     0.124 S 
ATOM     67  O   UNL     1       4.197  15.257  -5.234  1.00  0.00    -0.237 OA
ATOM     68  O   UNL     1       4.947  15.950  -2.983  1.00  0.00    -0.237 OA
ATOM     69  O   UNL     1       6.175  16.712  -4.982  1.00  0.00    -0.744 OA
ENDBRANCH  65  66
ENDBRANCH  44  58
BRANCH  45  70
ATOM     70  C   UNL     1      13.612   3.711  -3.651  1.00  0.00     0.058 A 
ATOM     71  C   UNL     1      13.880   3.030  -2.455  1.00  0.00     0.135 A 
ATOM     72  C   UNL     1      14.188   3.207  -4.830  1.00  0.00     0.135 A 
ATOM     73  F   UNL     1      13.361   3.475  -1.300  1.00  0.00    -0.206 F 
ATOM     74  C   UNL     1      14.699   1.906  -2.424  1.00  0.00     0.059 A 
ATOM     75  C   UNL     1      14.979   2.063  -4.830  1.00  0.00     0.059 A 
ATOM     76  F   UNL     1      13.952   3.810  -6.006  1.00  0.00    -0.206 F 
ATOM     77  C   UNL     1      15.240   1.427  -3.619  1.00  0.00     0.060 A 
BRANCH  77  78
ATOM     78  S   UNL     1      16.268  -0.056  -3.572  1.00  0.00     0.124 S 
ATOM     79  O   UNL     1      17.483   0.450  -2.943  1.00  0.00    -0.237 OA
ATOM     80  O   UNL     1      15.459  -0.963  -2.764  1.00  0.00    -0.237 OA
ATOM     81  O   UNL     1      16.392  -0.423  -4.979  1.00  0.00    -0.744 OA
ENDBRANCH  77  78
ENDBRANCH  45  70
BRANCH  57  82
ATOM     82  C   UNL     1      14.234  10.188  -1.145  1.00  0.00     0.058 A 
ATOM     83  C   UNL     1      15.495  10.509  -1.670  1.00  0.00     0.135 A 
ATOM     84  C   UNL     1      13.965  10.551   0.185  1.00  0.00     0.135 A 
ATOM     85  F   UNL     1      15.807  10.173  -2.932  1.00  0.00    -0.206 F 
ATOM     86  C   UNL     1      16.462  11.143  -0.898  1.00  0.00     0.059 A 
ATOM     87  C   UNL     1      14.905  11.215   0.965  1.00  0.00     0.059 A 
ATOM     88  F   UNL     1      12.771  10.274   0.735  1.00  0.00    -0.206 F 
ATOM     89  C   UNL     1      16.156  11.495   0.418  1.00  0.00     0.060 A 
BRANCH  89  90
ATOM     90  S   UNL     1      17.409  12.349   1.397  1.00  0.00     0.124 S 
ATOM     91  O   UNL     1      18.364  11.275   1.653  1.00  0.00    -0.237 OA
ATOM     92  O   UNL     1      17.859  13.394   0.484  1.00  0.00    -0.237 OA
ATOM     93  O   UNL     1      16.667  12.819   2.563  1.00  0.00    -0.744 OA
ENDBRANCH  89  90
ENDBRANCH  57  82
ENDBRANCH  31  32
ENDBRANCH  24  26
ENDBRANCH  23  24
ENDBRANCH   1  23
TORSDOF 16
