REMARK SMILES CCCOc1cc(NC[C@H]2CC[C@@H](C(=O)OCCOC(=O)c3ccc(-c4c5nc(c(-c6c(F)cc(S(=O)(=O)[O-])cc6F)c6ccc([nH]6)c(-c6c(F)cc(S(=O)(=O)[O-])cc6F)c6nc(c(-c7c(F)cc(S(=O)(=O)[O-])cc7F)c7ccc4[nH]7)C=C6)C=C5)cc3)O2)ncn1
REMARK SMILES IDX 16 1 14 2 15 3 13 4 10 5 11 6 88 7 12 8 9 9 8 10 7 12 5 13
REMARK SMILES IDX 6 14 91 15 90 16 89 17 4 18 3 19 2 20 1 21 17 22 18 23 19 24
REMARK SMILES IDX 20 25 21 26 22 27 23 28 87 29 24 30 86 31 25 32 26 33 27 34
REMARK SMILES IDX 80 35 28 36 85 37 79 38 81 39 29 40 84 41 78 42 77 43 30 45
REMARK SMILES IDX 64 46 43 47 63 48 44 49 47 50 62 51 82 52 45 53 46 54 61 56
REMARK SMILES IDX 83 57 48 58 31 59 32 60 41 61 33 62 34 63 40 64 42 65 35 66
REMARK SMILES IDX 36 67 37 68 38 69 39 70 65 71 66 72 75 73 67 74 68 75 74 76
REMARK SMILES IDX 76 77 69 78 70 79 71 80 72 81 73 82 49 83 50 84 59 85 51 86
REMARK SMILES IDX 52 87 58 88 60 89 53 90 54 91 55 92 56 93 57 94
REMARK H PARENT 8 11 81 44 47 55
REMARK Flexibility Score: inf
ROOT
ATOM      1  O   UNL     1       6.547  -1.322   3.311  1.00  0.00    -0.460 OA
ENDROOT
BRANCH   1   2
ATOM      2  C   UNL     1       5.464  -1.444   4.132  1.00  0.00     0.335 C 
ATOM      3  O   UNL     1       5.528  -1.638   5.339  1.00  0.00    -0.249 OA
BRANCH   2   4
ATOM      4  C   UNL     1       4.153  -1.317   3.340  1.00  0.00     0.228 C 
ATOM      5  C   UNL     1       2.266  -1.095   4.715  1.00  0.00     0.138 C 
ATOM      6  C   UNL     1       2.405   0.230   3.979  1.00  0.00     0.037 C 
ATOM      7  O   UNL     1       3.084  -2.024   3.982  1.00  0.00    -0.361 OA
ATOM      8  C   UNL     1       3.698   0.124   3.191  1.00  0.00     0.047 C 
BRANCH   5   9
ATOM      9  C   UNL     1       2.686  -1.021   6.202  1.00  0.00     0.146 C 
BRANCH   9  10
ATOM     10  N   UNL     1       1.613  -0.513   7.042  1.00  0.00    -0.367 N 
ATOM     11  H   UNL     1       1.518   0.457   7.182  1.00  0.00     0.162 HD
BRANCH  10  12
ATOM     12  C   UNL     1       0.726  -1.387   7.645  1.00  0.00     0.133 A 
ATOM     13  C   UNL     1      -1.257  -1.803   8.803  1.00  0.00     0.218 A 
ATOM     14  C   UNL     1      -0.349  -0.881   8.339  1.00  0.00     0.115 A 
ATOM     15  N   UNL     1      -1.106  -3.131   8.727  1.00  0.00    -0.202 NA
ATOM     16  C   UNL     1       0.022  -3.515   8.128  1.00  0.00     0.228 A 
ATOM     17  N   UNL     1       0.924  -2.712   7.545  1.00  0.00    -0.219 NA
BRANCH  13  18
ATOM     18  O   UNL     1      -2.414  -1.337   9.377  1.00  0.00    -0.478 OA
BRANCH  18  19
ATOM     19  C   UNL     1      -3.518  -1.480   8.474  1.00  0.00     0.231 C 
BRANCH  19  20
ATOM     20  C   UNL     1      -3.721  -0.189   7.675  1.00  0.00     0.038 C 
ATOM     21  C   UNL     1      -3.136  -0.257   6.269  1.00  0.00     0.007 C 
ENDBRANCH  19  20
ENDBRANCH  18  19
ENDBRANCH  13  18
ENDBRANCH  10  12
ENDBRANCH   9  10
ENDBRANCH   5   9
ENDBRANCH   2   4
ENDBRANCH   1   2
BRANCH   1  22
ATOM     22  C   UNL     1       7.824  -1.601   3.920  1.00  0.00     0.274 C 
BRANCH  22  23
ATOM     23  C   UNL     1       8.643  -0.329   4.109  1.00  0.00     0.275 C 
BRANCH  23  24
ATOM     24  O   UNL     1       8.001   0.532   5.064  1.00  0.00    -0.458 OA
BRANCH  24  25
ATOM     25  C   UNL     1       7.510   1.689   4.566  1.00  0.00     0.338 C 
ATOM     26  O   UNL     1       7.582   2.098   3.421  1.00  0.00    -0.246 OA
BRANCH  25  27
ATOM     27  C   UNL     1       6.782   2.399   5.625  1.00  0.00     0.060 A 
ATOM     28  C   UNL     1       5.511   1.950   5.975  1.00  0.00     0.016 A 
ATOM     29  C   UNL     1       7.292   3.576   6.168  1.00  0.00     0.016 A 
ATOM     30  C   UNL     1       4.704   2.720   6.806  1.00  0.00     0.010 A 
ATOM     31  C   UNL     1       6.509   4.309   7.067  1.00  0.00     0.010 A 
ATOM     32  C   UNL     1       5.193   3.909   7.365  1.00  0.00    -0.014 A 
BRANCH  32  33
ATOM     33  C   UNL     1       4.309   4.754   8.212  1.00  0.00     0.031 A 
ATOM     34  C   UNL     1       3.954   6.151   7.772  1.00  0.00     0.074 A 
ATOM     35  C   UNL     1       3.800   4.267   9.361  1.00  0.00     0.049 A 
ATOM     36  N   UNL     1       3.326   7.090   8.430  1.00  0.00    -0.248 NA
ATOM     37  C   UNL     1       4.366   6.543   6.414  1.00  0.00     0.031 C 
ATOM     38  C   UNL     1       4.024   2.918   9.885  1.00  0.00     0.029 A 
ATOM     39  N   UNL     1       2.980   4.852  10.294  1.00  0.00    -0.354 N 
ATOM     40  C   UNL     1       3.315   8.200   7.593  1.00  0.00     0.074 A 
ATOM     41  C   UNL     1       3.994   7.815   6.374  1.00  0.00     0.031 C 
ATOM     42  C   UNL     1       3.337   2.770  11.028  1.00  0.00     0.029 A 
ATOM     43  C   UNL     1       2.682   4.032  11.356  1.00  0.00     0.049 A 
ATOM     44  H   UNL     1       2.639   5.772  10.211  1.00  0.00     0.167 HD
ATOM     45  C   UNL     1       2.791   9.428   7.821  1.00  0.00     0.037 A 
ATOM     46  C   UNL     1       1.991   4.276  12.486  1.00  0.00     0.037 A 
ATOM     47  C   UNL     1       2.071   9.794   9.012  1.00  0.00     0.049 A 
ATOM     48  C   UNL     1       1.424   5.647  12.722  1.00  0.00     0.074 A 
ATOM     49  C   UNL     1       1.500  11.013   9.335  1.00  0.00     0.029 A 
ATOM     50  N   UNL     1       1.806   8.937  10.070  1.00  0.00    -0.354 N 
ATOM     51  N   UNL     1       1.481   6.704  11.948  1.00  0.00    -0.248 NA
ATOM     52  C   UNL     1       0.718   5.864  13.991  1.00  0.00     0.031 C 
ATOM     53  C   UNL     1       0.904  10.897  10.597  1.00  0.00     0.029 A 
ATOM     54  C   UNL     1       1.082   9.599  11.047  1.00  0.00     0.049 A 
ATOM     55  H   UNL     1       2.091   7.996  10.119  1.00  0.00     0.167 HD
ATOM     56  C   UNL     1       0.821   7.714  12.638  1.00  0.00     0.074 A 
ATOM     57  C   UNL     1       0.353   7.135  13.881  1.00  0.00     0.031 C 
ATOM     58  C   UNL     1       0.627   9.006  12.278  1.00  0.00     0.037 A 
BRANCH  45  59
ATOM     59  C   UNL     1       3.006  10.478   6.769  1.00  0.00     0.058 A 
ATOM     60  C   UNL     1       2.270  10.495   5.576  1.00  0.00     0.135 A 
ATOM     61  C   UNL     1       3.954  11.495   6.971  1.00  0.00     0.135 A 
ATOM     62  F   UNL     1       1.366   9.534   5.327  1.00  0.00    -0.206 F 
ATOM     63  C   UNL     1       2.481  11.470   4.606  1.00  0.00     0.059 A 
ATOM     64  C   UNL     1       4.169  12.492   6.024  1.00  0.00     0.059 A 
ATOM     65  F   UNL     1       4.687  11.523   8.095  1.00  0.00    -0.206 F 
ATOM     66  C   UNL     1       3.438  12.461   4.837  1.00  0.00     0.060 A 
BRANCH  66  67
ATOM     67  S   UNL     1       3.712  13.719   3.570  1.00  0.00     0.124 S 
ATOM     68  O   UNL     1       4.540  12.991   2.614  1.00  0.00    -0.237 OA
ATOM     69  O   UNL     1       2.355  14.025   3.128  1.00  0.00    -0.237 OA
ATOM     70  O   UNL     1       4.386  14.790   4.298  1.00  0.00    -0.744 OA
ENDBRANCH  66  67
ENDBRANCH  45  59
BRANCH  46  71
ATOM     71  C   UNL     1       1.836   3.202  13.500  1.00  0.00     0.058 A 
ATOM     72  C   UNL     1       0.606   2.556  13.685  1.00  0.00     0.135 A 
ATOM     73  C   UNL     1       2.924   2.783  14.282  1.00  0.00     0.135 A 
ATOM     74  F   UNL     1      -0.463   2.931  12.965  1.00  0.00    -0.206 F 
ATOM     75  C   UNL     1       0.456   1.532  14.615  1.00  0.00     0.059 A 
ATOM     76  C   UNL     1       2.804   1.749  15.203  1.00  0.00     0.059 A 
ATOM     77  F   UNL     1       4.124   3.364  14.130  1.00  0.00    -0.206 F 
ATOM     78  C   UNL     1       1.562   1.135  15.369  1.00  0.00     0.060 A 
BRANCH  78  79
ATOM     79  S   UNL     1       1.386  -0.233  16.536  1.00  0.00     0.124 S 
ATOM     80  O   UNL     1       0.813   0.445  17.693  1.00  0.00    -0.237 OA
ATOM     81  O   UNL     1       0.495  -1.143  15.824  1.00  0.00    -0.237 OA
ATOM     82  O   UNL     1       2.757  -0.709  16.696  1.00  0.00    -0.744 OA
ENDBRANCH  78  79
ENDBRANCH  46  71
BRANCH  58  83
ATOM     83  C   UNL     1      -0.134   9.874  13.236  1.00  0.00     0.058 A 
ATOM     84  C   UNL     1       0.479  10.406  14.380  1.00  0.00     0.135 A 
ATOM     85  C   UNL     1      -1.474  10.207  12.988  1.00  0.00     0.135 A 
ATOM     86  F   UNL     1       1.757  10.110  14.662  1.00  0.00    -0.206 F 
ATOM     87  C   UNL     1      -0.219  11.228  15.259  1.00  0.00     0.059 A 
ATOM     88  C   UNL     1      -2.186  11.040  13.845  1.00  0.00     0.059 A 
ATOM     89  F   UNL     1      -2.099   9.728  11.901  1.00  0.00    -0.206 F 
ATOM     90  C   UNL     1      -1.553  11.536  14.984  1.00  0.00     0.060 A 
BRANCH  90  91
ATOM     91  S   UNL     1      -2.447  12.625  16.114  1.00  0.00     0.124 S 
ATOM     92  O   UNL     1      -2.805  11.704  17.187  1.00  0.00    -0.237 OA
ATOM     93  O   UNL     1      -1.442  13.629  16.449  1.00  0.00    -0.237 OA
ATOM     94  O   UNL     1      -3.560  13.110  15.302  1.00  0.00    -0.744 OA
ENDBRANCH  90  91
ENDBRANCH  58  83
ENDBRANCH  32  33
ENDBRANCH  25  27
ENDBRANCH  24  25
ENDBRANCH  23  24
ENDBRANCH  22  23
ENDBRANCH   1  22
TORSDOF 20
