REMARK SMILES Cc1csc(C[NH2+]C2(C(=O)OCCOC(=O)c3ccc(-c4c5nc(c(-c6c(F)cc(S(=O)(=O)[O-])cc6F)c6ccc([nH]6)c(-c6c(F)cc(S(=O)(=O)[O-])cc6F)c6nc(c(-c7c(F)cc(S(=O)(=O)[O-])cc7F)c7ccc4[nH]7)C=C6)C=C5)cc3)CC2)n1
REMARK SMILES IDX 12 1 11 2 9 3 10 4 8 5 83 6 84 7 7 8 6 11 5 12 1 13 2 14
REMARK SMILES IDX 3 15 85 16 4 17 13 18 14 19 15 20 16 21 17 22 18 23 82 24
REMARK SMILES IDX 19 25 81 26 20 27 21 28 22 29 75 30 23 31 80 32 74 33 76 34
REMARK SMILES IDX 24 35 79 36 73 37 72 38 25 40 59 41 38 42 58 43 39 44 42 45
REMARK SMILES IDX 57 46 77 47 40 48 41 49 56 51 78 52 43 53 26 54 27 55 36 56
REMARK SMILES IDX 28 57 29 58 35 59 37 60 30 61 31 62 32 63 33 64 34 65 60 66
REMARK SMILES IDX 61 67 70 68 62 69 63 70 69 71 71 72 64 73 65 74 66 75 67 76
REMARK SMILES IDX 68 77 44 78 45 79 54 80 46 81 47 82 53 83 55 84 48 85 49 86
REMARK SMILES IDX 50 87 51 88 52 89
REMARK H PARENT 7 9 7 10 76 39 42 50
REMARK Flexibility Score: inf
ROOT
ATOM      1  C   UNL     1       2.714   3.729   2.422  1.00  0.00     0.274 C 
ENDROOT
BRANCH   1   2
ATOM      2  O   UNL     1       2.801   4.503   1.225  1.00  0.00    -0.457 OA
BRANCH   2   3
ATOM      3  C   UNL     1       3.538   3.934   0.238  1.00  0.00     0.368 C 
ATOM      4  O   UNL     1       4.610   3.359   0.384  1.00  0.00    -0.245 OA
BRANCH   3   5
ATOM      5  C   UNL     1       2.761   3.894  -1.057  1.00  0.00     0.195 C 
ATOM      6  C   UNL     1       3.277   4.618  -2.283  1.00  0.00     0.088 C 
ATOM      7  C   UNL     1       2.160   5.225  -1.499  1.00  0.00     0.088 C 
BRANCH   5   8
ATOM      8  N   UNL     1       1.932   2.648  -1.244  1.00  0.00    -0.326 N 
ATOM      9  H   UNL     1       1.025   2.801  -0.804  1.00  0.00     0.347 HD
ATOM     10  H   UNL     1       1.869   2.492  -2.250  1.00  0.00     0.347 HD
BRANCH   8  11
ATOM     11  C   UNL     1       2.523   1.423  -0.668  1.00  0.00     0.330 C 
BRANCH  11  12
ATOM     12  C   UNL     1       1.621   0.207  -0.643  1.00  0.00     0.147 A 
ATOM     13  C   UNL     1      -1.325  -1.509   0.583  1.00  0.00     0.067 C 
ATOM     14  C   UNL     1      -0.010  -1.186  -0.032  1.00  0.00     0.049 A 
ATOM     15  C   UNL     1       0.841  -2.093  -0.629  1.00  0.00     0.090 A 
ATOM     16  N   UNL     1       0.450   0.126  -0.039  1.00  0.00    -0.240 NA
ATOM     17  S   UNL     1       2.222  -1.295  -1.244  1.00  0.00    -0.121 S 
ENDBRANCH  11  12
ENDBRANCH   8  11
ENDBRANCH   5   8
ENDBRANCH   3   5
ENDBRANCH   2   3
ENDBRANCH   1   2
BRANCH   1  18
ATOM     18  C   UNL     1       1.254   3.716   2.882  1.00  0.00     0.275 C 
BRANCH  18  19
ATOM     19  O   UNL     1       0.382   3.076   1.927  1.00  0.00    -0.458 OA
BRANCH  19  20
ATOM     20  C   UNL     1      -0.260   3.887   1.041  1.00  0.00     0.338 C 
ATOM     21  O   UNL     1      -0.138   5.098   0.940  1.00  0.00    -0.246 OA
BRANCH  20  22
ATOM     22  C   UNL     1      -1.149   3.082   0.169  1.00  0.00     0.060 A 
ATOM     23  C   UNL     1      -1.141   3.292  -1.216  1.00  0.00     0.016 A 
ATOM     24  C   UNL     1      -2.009   2.130   0.712  1.00  0.00     0.016 A 
ATOM     25  C   UNL     1      -1.894   2.480  -2.070  1.00  0.00     0.010 A 
ATOM     26  C   UNL     1      -2.799   1.349  -0.138  1.00  0.00     0.010 A 
ATOM     27  C   UNL     1      -2.718   1.488  -1.536  1.00  0.00    -0.014 A 
BRANCH  27  28
ATOM     28  C   UNL     1      -3.599   0.668  -2.406  1.00  0.00     0.031 A 
ATOM     29  C   UNL     1      -5.063   0.995  -2.437  1.00  0.00     0.074 A 
ATOM     30  C   UNL     1      -3.127  -0.376  -3.116  1.00  0.00     0.049 A 
ATOM     31  N   UNL     1      -6.046   0.352  -3.010  1.00  0.00    -0.248 NA
ATOM     32  C   UNL     1      -5.470   2.206  -1.708  1.00  0.00     0.031 C 
ATOM     33  C   UNL     1      -1.726  -0.787  -3.196  1.00  0.00     0.029 A 
ATOM     34  N   UNL     1      -3.787  -1.300  -3.891  1.00  0.00    -0.354 N 
ATOM     35  C   UNL     1      -7.191   1.075  -2.701  1.00  0.00     0.074 A 
ATOM     36  C   UNL     1      -6.785   2.175  -1.853  1.00  0.00     0.031 C 
ATOM     37  C   UNL     1      -1.634  -1.897  -3.952  1.00  0.00     0.029 A 
ATOM     38  C   UNL     1      -2.970  -2.283  -4.403  1.00  0.00     0.049 A 
ATOM     39  H   UNL     1      -4.755  -1.263  -4.064  1.00  0.00     0.167 HD
ATOM     40  C   UNL     1      -8.464   0.858  -3.104  1.00  0.00     0.037 A 
ATOM     41  C   UNL     1      -3.272  -3.371  -5.142  1.00  0.00     0.037 A 
ATOM     42  C   UNL     1      -8.870  -0.228  -3.951  1.00  0.00     0.049 A 
ATOM     43  C   UNL     1      -4.707  -3.624  -5.538  1.00  0.00     0.074 A 
ATOM     44  C   UNL     1     -10.138  -0.534  -4.412  1.00  0.00     0.029 A 
ATOM     45  N   UNL     1      -8.011  -1.185  -4.468  1.00  0.00    -0.354 N 
ATOM     46  N   UNL     1      -5.777  -2.917  -5.260  1.00  0.00    -0.248 NA
ATOM     47  C   UNL     1      -4.976  -4.818  -6.356  1.00  0.00     0.031 C 
ATOM     48  C   UNL     1     -10.048  -1.692  -5.193  1.00  0.00     0.029 A 
ATOM     49  C   UNL     1      -8.720  -2.085  -5.244  1.00  0.00     0.049 A 
ATOM     50  H   UNL     1      -7.040  -1.220  -4.307  1.00  0.00     0.167 HD
ATOM     51  C   UNL     1      -6.833  -3.551  -5.909  1.00  0.00     0.074 A 
ATOM     52  C   UNL     1      -6.279  -4.705  -6.584  1.00  0.00     0.031 C 
ATOM     53  C   UNL     1      -8.143  -3.204  -5.947  1.00  0.00     0.037 A 
BRANCH  40  54
ATOM     54  C   UNL     1      -9.496   1.827  -2.608  1.00  0.00     0.058 A 
ATOM     55  C   UNL     1      -9.550   3.144  -3.090  1.00  0.00     0.135 A 
ATOM     56  C   UNL     1     -10.402   1.455  -1.603  1.00  0.00     0.135 A 
ATOM     57  F   UNL     1      -8.689   3.553  -4.036  1.00  0.00    -0.206 F 
ATOM     58  C   UNL     1     -10.428   4.077  -2.553  1.00  0.00     0.059 A 
ATOM     59  C   UNL     1     -11.308   2.365  -1.070  1.00  0.00     0.059 A 
ATOM     60  F   UNL     1     -10.389   0.207  -1.108  1.00  0.00    -0.206 F 
ATOM     61  C   UNL     1     -11.294   3.681  -1.532  1.00  0.00     0.060 A 
BRANCH  61  62
ATOM     62  S   UNL     1     -12.388   4.915  -0.800  1.00  0.00     0.124 S 
ATOM     63  O   UNL     1     -11.467   5.634   0.074  1.00  0.00    -0.237 OA
ATOM     64  O   UNL     1     -12.860   5.652  -1.968  1.00  0.00    -0.237 OA
ATOM     65  O   UNL     1     -13.399   4.109  -0.122  1.00  0.00    -0.744 OA
ENDBRANCH  61  62
ENDBRANCH  40  54
BRANCH  41  66
ATOM     66  C   UNL     1      -2.204  -4.309  -5.585  1.00  0.00     0.058 A 
ATOM     67  C   UNL     1      -1.821  -4.375  -6.933  1.00  0.00     0.135 A 
ATOM     68  C   UNL     1      -1.582  -5.189  -4.686  1.00  0.00     0.135 A 
ATOM     69  F   UNL     1      -2.396  -3.562  -7.833  1.00  0.00    -0.206 F 
ATOM     70  C   UNL     1      -0.882  -5.299  -7.383  1.00  0.00     0.059 A 
ATOM     71  C   UNL     1      -0.625  -6.110  -5.109  1.00  0.00     0.059 A 
ATOM     72  F   UNL     1      -1.904  -5.161  -3.384  1.00  0.00    -0.206 F 
ATOM     73  C   UNL     1      -0.294  -6.167  -6.462  1.00  0.00     0.060 A 
BRANCH  73  74
ATOM     74  S   UNL     1       0.930  -7.358  -7.055  1.00  0.00     0.124 S 
ATOM     75  O   UNL     1       0.087  -8.323  -7.751  1.00  0.00    -0.237 OA
ATOM     76  O   UNL     1       1.782  -6.527  -7.901  1.00  0.00    -0.237 OA
ATOM     77  O   UNL     1       1.555  -7.835  -5.825  1.00  0.00    -0.744 OA
ENDBRANCH  73  74
ENDBRANCH  41  66
BRANCH  53  78
ATOM     78  C   UNL     1      -9.069  -4.025  -6.799  1.00  0.00     0.058 A 
ATOM     79  C   UNL     1      -9.541  -5.279  -6.384  1.00  0.00     0.135 A 
ATOM     80  C   UNL     1      -9.575  -3.495  -7.998  1.00  0.00     0.135 A 
ATOM     81  F   UNL     1      -9.082  -5.831  -5.250  1.00  0.00    -0.206 F 
ATOM     82  C   UNL     1     -10.488  -5.978  -7.125  1.00  0.00     0.059 A 
ATOM     83  C   UNL     1     -10.537  -4.168  -8.744  1.00  0.00     0.059 A 
ATOM     84  F   UNL     1      -9.159  -2.296  -8.435  1.00  0.00    -0.206 F 
ATOM     85  C   UNL     1     -10.988  -5.410  -8.299  1.00  0.00     0.060 A 
BRANCH  85  86
ATOM     86  S   UNL     1     -12.283  -6.283  -9.206  1.00  0.00     0.124 S 
ATOM     87  O   UNL     1     -11.521  -7.337  -9.867  1.00  0.00    -0.237 OA
ATOM     88  O   UNL     1     -13.174  -6.722  -8.135  1.00  0.00    -0.237 OA
ATOM     89  O   UNL     1     -12.833  -5.257 -10.086  1.00  0.00    -0.744 OA
ENDBRANCH  85  86
ENDBRANCH  53  78
ENDBRANCH  27  28
ENDBRANCH  20  22
ENDBRANCH  19  20
ENDBRANCH  18  19
ENDBRANCH   1  18
TORSDOF 17
