REMARK SMILES COc1cc2c(cc1OC)[C@@H](CC(=O)OCCOC(=O)c1ccc(-c3c4nc(c(-c5c(F)cc(S(=O)(=O)[O-])cc5F)c5ccc([nH]5)c(-c5c(F)cc(S(=O)(=O)[O-])cc5F)c5nc(c(-c6c(F)cc(S(=O)(=O)[O-])cc6F)c6ccc3[nH]6)C=C5)C=C4)cc1)N(C(=O)Nc1ccc(Cl)cc1)CC2
REMARK SMILES IDX 16 1 15 2 13 3 14 4 12 5 11 6 3 7 4 8 8 9 5 10 7 11 6 12
REMARK SMILES IDX 99 13 98 14 87 15 2 16 1 17 9 18 10 19 88 20 89 21 90 22
REMARK SMILES IDX 91 24 92 25 97 26 93 27 96 28 94 29 95 30 17 31 18 32 19 33
REMARK SMILES IDX 20 34 21 35 22 36 86 37 23 38 85 39 24 40 25 41 26 42 79 43
REMARK SMILES IDX 27 44 84 45 78 46 80 47 28 48 83 49 77 50 76 51 29 53 63 54
REMARK SMILES IDX 42 55 62 56 43 57 46 58 61 59 81 60 44 61 45 62 60 64 82 65
REMARK SMILES IDX 47 66 30 67 31 68 40 69 32 70 33 71 39 72 41 73 34 74 35 75
REMARK SMILES IDX 36 76 37 77 38 78 64 79 65 80 74 81 66 82 67 83 73 84 75 85
REMARK SMILES IDX 68 86 69 87 70 88 71 89 72 90 48 91 49 92 58 93 50 94 51 95
REMARK SMILES IDX 57 96 59 97 52 98 53 99 54 100 55 101 56 102
REMARK H PARENT 90 23 80 52 46 63
REMARK Flexibility Score: inf
ROOT
ATOM      1  C   UNL     1       2.700  -6.593  -8.137  1.00  0.00     0.274 C 
ENDROOT
BRANCH   1   2
ATOM      2  O   UNL     1       2.389  -5.991  -6.866  1.00  0.00    -0.462 OA
BRANCH   2   3
ATOM      3  C   UNL     1       3.437  -5.647  -6.081  1.00  0.00     0.308 C 
ATOM      4  O   UNL     1       4.614  -5.732  -6.424  1.00  0.00    -0.252 OA
BRANCH   3   5
ATOM      5  C   UNL     1       3.059  -5.113  -4.714  1.00  0.00     0.152 C 
BRANCH   5   6
ATOM      6  C   UNL     1       1.590  -4.727  -4.432  1.00  0.00     0.128 C 
ATOM      7  C   UNL     1       1.013  -1.924  -1.098  1.00  0.00     0.161 A 
ATOM      8  C   UNL     1      -0.066  -2.503  -1.756  1.00  0.00     0.054 A 
ATOM      9  C   UNL     1       2.321  -2.198  -1.516  1.00  0.00     0.161 A 
ATOM     10  C   UNL     1       0.152  -3.376  -2.827  1.00  0.00    -0.037 A 
ATOM     11  C   UNL     1       2.527  -3.087  -2.590  1.00  0.00     0.056 A 
ATOM     12  C   UNL     1       1.452  -3.708  -3.256  1.00  0.00    -0.018 A 
ATOM     13  C   UNL     1      -0.996  -4.070  -3.489  1.00  0.00     0.057 C 
ATOM     14  C   UNL     1      -0.636  -5.546  -3.533  1.00  0.00     0.127 C 
ATOM     15  N   UNL     1       0.584  -5.853  -4.292  1.00  0.00    -0.317 N 
BRANCH   7  16
ATOM     16  O   UNL     1       0.704  -1.199   0.026  1.00  0.00    -0.493 OA
ATOM     17  C   UNL     1       1.061   0.175  -0.096  1.00  0.00     0.278 C 
ENDBRANCH   7  16
BRANCH   9  18
ATOM     18  O   UNL     1       3.334  -1.623  -0.793  1.00  0.00    -0.493 OA
ATOM     19  C   UNL     1       4.626  -1.595  -1.389  1.00  0.00     0.278 C 
ENDBRANCH   9  18
BRANCH  15  20
ATOM     20  C   UNL     1       0.886  -7.123  -4.723  1.00  0.00     0.322 C 
ATOM     21  O   UNL     1       2.028  -7.591  -4.690  1.00  0.00    -0.248 OA
ATOM     22  N   UNL     1      -0.033  -7.933  -5.327  1.00  0.00    -0.308 N 
ATOM     23  H   UNL     1       0.278  -8.400  -6.135  1.00  0.00     0.171 HD
BRANCH  22  24
ATOM     24  C   UNL     1      -1.351  -8.188  -4.951  1.00  0.00     0.042 A 
ATOM     25  C   UNL     1      -1.576  -9.194  -4.011  1.00  0.00     0.028 A 
ATOM     26  C   UNL     1      -2.420  -7.492  -5.521  1.00  0.00     0.028 A 
ATOM     27  C   UNL     1      -2.869  -9.434  -3.552  1.00  0.00     0.022 A 
ATOM     28  C   UNL     1      -3.715  -7.725  -5.050  1.00  0.00     0.022 A 
ATOM     29  C   UNL     1      -3.929  -8.683  -4.057  1.00  0.00     0.041 A 
ATOM     30  Cl  UNL     1      -5.513  -8.932  -3.433  1.00  0.00    -0.084 Cl
ENDBRANCH  22  24
ENDBRANCH  15  20
ENDBRANCH   5   6
ENDBRANCH   3   5
ENDBRANCH   2   3
ENDBRANCH   1   2
BRANCH   1  31
ATOM     31  C   UNL     1       2.169  -5.729  -9.279  1.00  0.00     0.275 C 
BRANCH  31  32
ATOM     32  O   UNL     1       2.846  -4.462  -9.317  1.00  0.00    -0.458 OA
BRANCH  32  33
ATOM     33  C   UNL     1       2.306  -3.506  -8.527  1.00  0.00     0.338 C 
ATOM     34  O   UNL     1       1.266  -3.571  -7.884  1.00  0.00    -0.246 OA
BRANCH  33  35
ATOM     35  C   UNL     1       3.247  -2.387  -8.414  1.00  0.00     0.060 A 
ATOM     36  C   UNL     1       3.692  -2.030  -7.137  1.00  0.00     0.016 A 
ATOM     37  C   UNL     1       3.644  -1.664  -9.539  1.00  0.00     0.016 A 
ATOM     38  C   UNL     1       4.537  -0.937  -6.977  1.00  0.00     0.010 A 
ATOM     39  C   UNL     1       4.487  -0.563  -9.376  1.00  0.00     0.010 A 
ATOM     40  C   UNL     1       4.926  -0.188  -8.094  1.00  0.00    -0.014 A 
BRANCH  40  41
ATOM     41  C   UNL     1       5.740   1.034  -7.914  1.00  0.00     0.031 A 
ATOM     42  C   UNL     1       5.082   2.380  -8.019  1.00  0.00     0.074 A 
ATOM     43  C   UNL     1       7.055   0.931  -7.651  1.00  0.00     0.049 A 
ATOM     44  N   UNL     1       5.623   3.569  -7.987  1.00  0.00    -0.248 NA
ATOM     45  C   UNL     1       3.620   2.385  -8.186  1.00  0.00     0.031 C 
ATOM     46  C   UNL     1       7.787  -0.326  -7.489  1.00  0.00     0.029 A 
ATOM     47  N   UNL     1       8.011   1.900  -7.485  1.00  0.00    -0.354 N 
ATOM     48  C   UNL     1       4.574   4.465  -8.149  1.00  0.00     0.074 A 
ATOM     49  C   UNL     1       3.366   3.682  -8.293  1.00  0.00     0.031 C 
ATOM     50  C   UNL     1       9.080  -0.051  -7.253  1.00  0.00     0.029 A 
ATOM     51  C   UNL     1       9.274   1.396  -7.290  1.00  0.00     0.049 A 
ATOM     52  H   UNL     1       7.811   2.864  -7.503  1.00  0.00     0.167 HD
ATOM     53  C   UNL     1       4.620   5.818  -8.172  1.00  0.00     0.037 A 
ATOM     54  C   UNL     1      10.457   2.032  -7.184  1.00  0.00     0.037 A 
ATOM     55  C   UNL     1       5.829   6.585  -8.019  1.00  0.00     0.049 A 
ATOM     56  C   UNL     1      10.488   3.535  -7.263  1.00  0.00     0.074 A 
ATOM     57  C   UNL     1       5.983   7.960  -8.018  1.00  0.00     0.029 A 
ATOM     58  N   UNL     1       7.093   6.041  -7.841  1.00  0.00    -0.354 N 
ATOM     59  N   UNL     1       9.489   4.372  -7.420  1.00  0.00    -0.248 NA
ATOM     60  C   UNL     1      11.803   4.179  -7.156  1.00  0.00     0.031 C 
ATOM     61  C   UNL     1       7.346   8.246  -7.875  1.00  0.00     0.029 A 
ATOM     62  C   UNL     1       8.035   7.051  -7.745  1.00  0.00     0.049 A 
ATOM     63  H   UNL     1       7.290   5.078  -7.790  1.00  0.00     0.167 HD
ATOM     64  C   UNL     1      10.054   5.643  -7.414  1.00  0.00     0.074 A 
ATOM     65  C   UNL     1      11.480   5.464  -7.224  1.00  0.00     0.031 C 
ATOM     66  C   UNL     1       9.450   6.848  -7.553  1.00  0.00     0.037 A 
BRANCH  53  67
ATOM     67  C   UNL     1       3.328   6.551  -8.400  1.00  0.00     0.058 A 
ATOM     68  C   UNL     1       2.343   6.640  -7.404  1.00  0.00     0.135 A 
ATOM     69  C   UNL     1       3.079   7.189  -9.626  1.00  0.00     0.135 A 
ATOM     70  F   UNL     1       2.521   6.032  -6.220  1.00  0.00    -0.206 F 
ATOM     71  C   UNL     1       1.145   7.313  -7.624  1.00  0.00     0.059 A 
ATOM     72  C   UNL     1       1.899   7.887  -9.860  1.00  0.00     0.059 A 
ATOM     73  F   UNL     1       3.987   7.132 -10.614  1.00  0.00    -0.206 F 
ATOM     74  C   UNL     1       0.931   7.931  -8.858  1.00  0.00     0.060 A 
BRANCH  74  75
ATOM     75  S   UNL     1      -0.630   8.795  -9.134  1.00  0.00     0.124 S 
ATOM     76  O   UNL     1      -1.552   7.677  -9.317  1.00  0.00    -0.237 OA
ATOM     77  O   UNL     1      -0.793   9.553  -7.897  1.00  0.00    -0.237 OA
ATOM     78  O   UNL     1      -0.370   9.595 -10.326  1.00  0.00    -0.744 OA
ENDBRANCH  74  75
ENDBRANCH  53  67
BRANCH  54  79
ATOM     79  C   UNL     1      11.707   1.248  -7.012  1.00  0.00     0.058 A 
ATOM     80  C   UNL     1      12.404   1.254  -5.796  1.00  0.00     0.135 A 
ATOM     81  C   UNL     1      12.221   0.465  -8.058  1.00  0.00     0.135 A 
ATOM     82  F   UNL     1      11.956   1.995  -4.771  1.00  0.00    -0.206 F 
ATOM     83  C   UNL     1      13.573   0.520  -5.623  1.00  0.00     0.059 A 
ATOM     84  C   UNL     1      13.375  -0.296  -7.902  1.00  0.00     0.059 A 
ATOM     85  F   UNL     1      11.585   0.417  -9.238  1.00  0.00    -0.206 F 
ATOM     86  C   UNL     1      14.049  -0.255  -6.682  1.00  0.00     0.060 A 
BRANCH  86  87
ATOM     87  S   UNL     1      15.538  -1.246  -6.432  1.00  0.00     0.124 S 
ATOM     88  O   UNL     1      16.581  -0.229  -6.494  1.00  0.00    -0.237 OA
ATOM     89  O   UNL     1      15.299  -1.836  -5.119  1.00  0.00    -0.237 OA
ATOM     90  O   UNL     1      15.504  -2.187  -7.548  1.00  0.00    -0.744 OA
ENDBRANCH  86  87
ENDBRANCH  54  79
BRANCH  66  91
ATOM     91  C   UNL     1      10.323   8.068  -7.478  1.00  0.00     0.058 A 
ATOM     92  C   UNL     1      11.161   8.439  -8.541  1.00  0.00     0.135 A 
ATOM     93  C   UNL     1      10.285   8.901  -6.348  1.00  0.00     0.135 A 
ATOM     94  F   UNL     1      11.237   7.672  -9.640  1.00  0.00    -0.206 F 
ATOM     95  C   UNL     1      11.946   9.585  -8.479  1.00  0.00     0.059 A 
ATOM     96  C   UNL     1      11.045  10.064  -6.275  1.00  0.00     0.059 A 
ATOM     97  F   UNL     1       9.493   8.595  -5.309  1.00  0.00    -0.206 F 
ATOM     98  C   UNL     1      11.881  10.392  -7.341  1.00  0.00     0.060 A 
BRANCH  98  99
ATOM     99  S   UNL     1      12.878  11.896  -7.285  1.00  0.00     0.124 S 
ATOM    100  O   UNL     1      14.206  11.357  -7.009  1.00  0.00    -0.237 OA
ATOM    101  O   UNL     1      12.685  12.452  -8.621  1.00  0.00    -0.237 OA
ATOM    102  O   UNL     1      12.273  12.663  -6.201  1.00  0.00    -0.744 OA
ENDBRANCH  98  99
ENDBRANCH  66  91
ENDBRANCH  40  41
ENDBRANCH  33  35
ENDBRANCH  32  33
ENDBRANCH  31  32
ENDBRANCH   1  31
TORSDOF 19
