REMARK SMILES Cn1ccc(C(=O)NCc2ccc(C(=O)OCCOC(=O)c3ccc(-c4c5nc(c(-c6c(F)cc(S(=O)(=O)[O-])cc6F)c6ccc([nH]6)c(-c6c(F)cc(S(=O)(=O)[O-])cc6F)c6nc(c(-c7c(F)cc(S(=O)(=O)[O-])cc7F)c7ccc4[nH]7)C=C6)C=C5)cc3)cc2)cc1=O
REMARK SMILES IDX 17 1 16 2 14 3 15 4 13 5 10 6 11 7 89 8 12 9 88 10 9 11 8 12
REMARK SMILES IDX 6 13 7 14 5 16 1 17 2 18 3 19 91 20 4 21 90 22 92 23 18 24
REMARK SMILES IDX 19 25 20 26 21 27 22 28 23 29 87 30 24 31 86 32 25 33 26 34
REMARK SMILES IDX 27 35 80 36 28 37 85 38 79 39 81 40 29 41 84 42 78 43 77 44
REMARK SMILES IDX 30 46 64 47 43 48 63 49 44 50 47 51 62 52 82 53 45 54 46 55
REMARK SMILES IDX 61 57 83 58 48 59 31 60 32 61 41 62 33 63 34 64 40 65 42 66
REMARK SMILES IDX 35 67 36 68 37 69 38 70 39 71 65 72 66 73 75 74 67 75 68 76
REMARK SMILES IDX 74 77 76 78 69 79 70 80 71 81 72 82 73 83 49 84 50 85 59 86
REMARK SMILES IDX 51 87 52 88 58 89 60 90 53 91 54 92 55 93 56 94 57 95
REMARK H PARENT 8 15 81 45 47 56
REMARK Flexibility Score: inf
ROOT
ATOM      1  C   UNL     1       2.631   7.836   6.274  1.00  0.00     0.275 C 
ENDROOT
BRANCH   1   2
ATOM      2  O   UNL     1       2.743   7.002   5.103  1.00  0.00    -0.458 OA
BRANCH   2   3
ATOM      3  C   UNL     1       1.591   6.430   4.670  1.00  0.00     0.338 C 
ATOM      4  O   UNL     1       0.493   6.522   5.197  1.00  0.00    -0.246 OA
BRANCH   3   5
ATOM      5  C   UNL     1       1.813   5.736   3.378  1.00  0.00     0.060 A 
ATOM      6  C   UNL     1       2.161   4.476   0.880  1.00  0.00    -0.029 A 
ATOM      7  C   UNL     1       0.928   5.044   1.223  1.00  0.00     0.006 A 
ATOM      8  C   UNL     1       3.219   4.559   1.804  1.00  0.00     0.006 A 
ATOM      9  C   UNL     1       0.747   5.637   2.475  1.00  0.00     0.016 A 
ATOM     10  C   UNL     1       3.050   5.186   3.042  1.00  0.00     0.016 A 
BRANCH   6  11
ATOM     11  C   UNL     1       2.339   3.834  -0.479  1.00  0.00     0.152 C 
BRANCH  11  12
ATOM     12  N   UNL     1       3.261   2.716  -0.425  1.00  0.00    -0.348 N 
ATOM     13  C   UNL     1       3.123   1.392  -0.179  1.00  0.00     0.251 C 
ATOM     14  O   UNL     1       4.170   0.739  -0.109  1.00  0.00    -0.269 OA
ATOM     15  H   UNL     1       4.192   2.978  -0.607  1.00  0.00     0.164 HD
BRANCH  13  16
ATOM     16  C   UNL     1       1.805   0.678  -0.069  1.00  0.00     0.046 A 
ATOM     17  C   UNL     1      -1.706  -1.727   0.062  1.00  0.00     0.153 C 
ATOM     18  N   UNL     1      -0.511  -0.897   0.045  1.00  0.00    -0.319 N 
ATOM     19  C   UNL     1       0.698  -1.483  -0.266  1.00  0.00     0.089 A 
ATOM     20  C   UNL     1      -0.615   0.453   0.359  1.00  0.00     0.251 A 
ATOM     21  C   UNL     1       1.817  -0.756  -0.331  1.00  0.00     0.032 A 
ATOM     22  C   UNL     1       0.651   1.239   0.320  1.00  0.00     0.085 A 
ATOM     23  O   UNL     1      -1.657   1.028   0.656  1.00  0.00    -0.269 OA
ENDBRANCH  13  16
ENDBRANCH  11  12
ENDBRANCH   6  11
ENDBRANCH   3   5
ENDBRANCH   2   3
ENDBRANCH   1   2
BRANCH   1  24
ATOM     24  C   UNL     1       2.613   9.313   5.884  1.00  0.00     0.275 C 
BRANCH  24  25
ATOM     25  O   UNL     1       1.422   9.599   5.130  1.00  0.00    -0.458 OA
BRANCH  25  26
ATOM     26  C   UNL     1       1.608  10.156   3.913  1.00  0.00     0.338 C 
ATOM     27  O   UNL     1       2.665  10.506   3.410  1.00  0.00    -0.246 OA
BRANCH  26  28
ATOM     28  C   UNL     1       0.311  10.284   3.230  1.00  0.00     0.060 A 
ATOM     29  C   UNL     1      -0.409   9.136   2.910  1.00  0.00     0.016 A 
ATOM     30  C   UNL     1      -0.138  11.532   2.802  1.00  0.00     0.016 A 
ATOM     31  C   UNL     1      -1.537   9.218   2.095  1.00  0.00     0.010 A 
ATOM     32  C   UNL     1      -1.323  11.621   2.061  1.00  0.00     0.010 A 
ATOM     33  C   UNL     1      -2.019  10.463   1.666  1.00  0.00    -0.014 A 
BRANCH  33  34
ATOM     34  C   UNL     1      -3.217  10.554   0.778  1.00  0.00     0.031 A 
ATOM     35  C   UNL     1      -3.114  11.234  -0.565  1.00  0.00     0.074 A 
ATOM     36  C   UNL     1      -4.401  10.034   1.164  1.00  0.00     0.049 A 
ATOM     37  N   UNL     1      -4.067  11.586  -1.391  1.00  0.00    -0.248 NA
ATOM     38  C   UNL     1      -1.762  11.580  -1.036  1.00  0.00     0.031 C 
ATOM     39  C   UNL     1      -4.649   9.324   2.421  1.00  0.00     0.029 A 
ATOM     40  N   UNL     1      -5.625  10.024   0.537  1.00  0.00    -0.354 N 
ATOM     41  C   UNL     1      -3.441  12.253  -2.438  1.00  0.00     0.074 A 
ATOM     42  C   UNL     1      -2.023  12.248  -2.152  1.00  0.00     0.031 C 
ATOM     43  C   UNL     1      -5.931   8.927   2.460  1.00  0.00     0.029 A 
ATOM     44  C   UNL     1      -6.619   9.424   1.274  1.00  0.00     0.049 A 
ATOM     45  H   UNL     1      -5.775  10.410  -0.356  1.00  0.00     0.167 HD
ATOM     46  C   UNL     1      -3.998  12.819  -3.536  1.00  0.00     0.037 A 
ATOM     47  C   UNL     1      -7.945   9.323   1.054  1.00  0.00     0.037 A 
ATOM     48  C   UNL     1      -5.400  12.752  -3.861  1.00  0.00     0.049 A 
ATOM     49  C   UNL     1      -8.537   9.946  -0.180  1.00  0.00     0.074 A 
ATOM     50  C   UNL     1      -6.049  13.259  -4.974  1.00  0.00     0.029 A 
ATOM     51  N   UNL     1      -6.365  12.127  -3.087  1.00  0.00    -0.354 N 
ATOM     52  N   UNL     1      -7.934  10.608  -1.138  1.00  0.00    -0.248 NA
ATOM     53  C   UNL     1      -9.992   9.828  -0.353  1.00  0.00     0.031 C 
ATOM     54  C   UNL     1      -7.411  12.965  -4.860  1.00  0.00     0.029 A 
ATOM     55  C   UNL     1      -7.605  12.244  -3.694  1.00  0.00     0.049 A 
ATOM     56  H   UNL     1      -6.195  11.668  -2.233  1.00  0.00     0.167 HD
ATOM     57  C   UNL     1      -8.935  10.981  -2.028  1.00  0.00     0.074 A 
ATOM     58  C   UNL     1     -10.178  10.451  -1.509  1.00  0.00     0.031 C 
ATOM     59  C   UNL     1      -8.833  11.706  -3.168  1.00  0.00     0.037 A 
BRANCH  46  60
ATOM     60  C   UNL     1      -3.103  13.587  -4.468  1.00  0.00     0.058 A 
ATOM     61  C   UNL     1      -2.232  12.949  -5.363  1.00  0.00     0.135 A 
ATOM     62  C   UNL     1      -3.177  14.990  -4.514  1.00  0.00     0.135 A 
ATOM     63  F   UNL     1      -2.110  11.612  -5.349  1.00  0.00    -0.206 F 
ATOM     64  C   UNL     1      -1.459  13.674  -6.265  1.00  0.00     0.059 A 
ATOM     65  C   UNL     1      -2.430  15.734  -5.422  1.00  0.00     0.059 A 
ATOM     66  F   UNL     1      -3.994  15.650  -3.678  1.00  0.00    -0.206 F 
ATOM     67  C   UNL     1      -1.567  15.066  -6.289  1.00  0.00     0.060 A 
BRANCH  67  68
ATOM     68  S   UNL     1      -0.584  15.992  -7.488  1.00  0.00     0.124 S 
ATOM     69  O   UNL     1       0.745  15.923  -6.888  1.00  0.00    -0.237 OA
ATOM     70  O   UNL     1      -0.767  15.216  -8.710  1.00  0.00    -0.237 OA
ATOM     71  O   UNL     1      -1.204  17.313  -7.489  1.00  0.00    -0.744 OA
ENDBRANCH  67  68
ENDBRANCH  46  60
BRANCH  47  72
ATOM     72  C   UNL     1      -8.816   8.655   2.058  1.00  0.00     0.058 A 
ATOM     73  C   UNL     1      -9.432   7.425   1.784  1.00  0.00     0.135 A 
ATOM     74  C   UNL     1      -9.048   9.237   3.314  1.00  0.00     0.135 A 
ATOM     75  F   UNL     1      -9.252   6.836   0.592  1.00  0.00    -0.206 F 
ATOM     76  C   UNL     1     -10.257   6.801   2.715  1.00  0.00     0.059 A 
ATOM     77  C   UNL     1      -9.846   8.619   4.271  1.00  0.00     0.059 A 
ATOM     78  F   UNL     1      -8.474  10.408   3.630  1.00  0.00    -0.206 F 
ATOM     79  C   UNL     1     -10.458   7.407   3.957  1.00  0.00     0.060 A 
BRANCH  79  80
ATOM     80  S   UNL     1     -11.493   6.575   5.180  1.00  0.00     0.124 S 
ATOM     81  O   UNL     1     -12.831   6.910   4.707  1.00  0.00    -0.237 OA
ATOM     82  O   UNL     1     -11.095   5.179   5.030  1.00  0.00    -0.237 OA
ATOM     83  O   UNL     1     -11.091   7.201   6.436  1.00  0.00    -0.744 OA
ENDBRANCH  79  80
ENDBRANCH  47  72
BRANCH  59  84
ATOM     84  C   UNL     1     -10.095  11.949  -3.945  1.00  0.00     0.058 A 
ATOM     85  C   UNL     1     -11.044  12.892  -3.524  1.00  0.00     0.135 A 
ATOM     86  C   UNL     1     -10.335  11.263  -5.146  1.00  0.00     0.135 A 
ATOM     87  F   UNL     1     -10.863  13.568  -2.378  1.00  0.00    -0.206 F 
ATOM     88  C   UNL     1     -12.201  13.133  -4.257  1.00  0.00     0.059 A 
ATOM     89  C   UNL     1     -11.475  11.504  -5.907  1.00  0.00     0.059 A 
ATOM     90  F   UNL     1      -9.452  10.357  -5.596  1.00  0.00    -0.206 F 
ATOM     91  C   UNL     1     -12.408  12.434  -5.448  1.00  0.00     0.060 A 
BRANCH  91  92
ATOM     92  S   UNL     1     -13.897  12.776  -6.410  1.00  0.00     0.124 S 
ATOM     93  O   UNL     1     -14.910  12.052  -5.650  1.00  0.00    -0.237 OA
ATOM     94  O   UNL     1     -13.982  14.232  -6.353  1.00  0.00    -0.237 OA
ATOM     95  O   UNL     1     -13.585  12.225  -7.725  1.00  0.00    -0.744 OA
ENDBRANCH  91  92
ENDBRANCH  59  84
ENDBRANCH  33  34
ENDBRANCH  26  28
ENDBRANCH  25  26
ENDBRANCH  24  25
ENDBRANCH   1  24
TORSDOF 17
