REMARK SMILES O=C(OCCOC(=O)[C@H](c1ccccc1)N1C(=O)/C(=C\c2ccc(Br)cc2)SC1=S)c1ccc(-c2c3nc(c(-c4c(F)cc(S(=O)(=O)[O-])cc4F)c4ccc([nH]4)c(-c4c(F)cc(S(=O)(=O)[O-])cc4F)c4nc(c(-c5c(F)cc(S(=O)(=O)[O-])cc5F)c5ccc2[nH]5)C=C4)C=C3)cc1
REMARK SMILES IDX 4 1 3 2 2 3 1 4 31 5 32 6 96 7 33 8 95 9 34 10 35 11 36 12
REMARK SMILES IDX 89 13 37 14 94 15 88 16 90 17 38 18 93 19 87 20 86 21 39 23
REMARK SMILES IDX 73 24 52 25 72 26 53 27 56 28 71 29 91 30 54 31 55 32 70 34
REMARK SMILES IDX 92 35 57 36 40 37 41 38 50 39 42 40 43 41 49 42 51 43 44 44
REMARK SMILES IDX 45 45 46 46 47 47 48 48 74 49 75 50 84 51 76 52 77 53 83 54
REMARK SMILES IDX 85 55 78 56 79 57 80 58 81 59 82 60 58 61 59 62 68 63 60 64
REMARK SMILES IDX 61 65 67 66 69 67 62 68 63 69 64 70 65 71 66 72 5 73 6 74
REMARK SMILES IDX 7 75 8 76 9 77 16 78 17 79 29 80 18 81 19 82 28 83 30 84
REMARK SMILES IDX 20 85 21 86 22 87 27 88 23 89 26 90 24 91 25 92 10 93 11 94
REMARK SMILES IDX 15 95 12 96 14 97 13 98
REMARK H PARENT 90 22 56 33
REMARK Flexibility Score: inf
ROOT
ATOM      1  C   UNL     1       4.005   1.441  -4.572  1.00  0.00     0.275 C 
ENDROOT
BRANCH   1   2
ATOM      2  O   UNL     1       4.639   1.454  -3.285  1.00  0.00    -0.458 OA
BRANCH   2   3
ATOM      3  C   UNL     1       4.044   1.877  -2.140  1.00  0.00     0.338 C 
ATOM      4  O   UNL     1       4.702   2.443  -1.273  1.00  0.00    -0.246 OA
BRANCH   3   5
ATOM      5  C   UNL     1       2.669   1.401  -1.815  1.00  0.00     0.060 A 
ATOM      6  C   UNL     1       1.557   1.504  -2.656  1.00  0.00     0.016 A 
ATOM      7  C   UNL     1       2.495   0.834  -0.548  1.00  0.00     0.016 A 
ATOM      8  C   UNL     1       0.325   0.955  -2.286  1.00  0.00     0.010 A 
ATOM      9  C   UNL     1       1.265   0.289  -0.174  1.00  0.00     0.010 A 
ATOM     10  C   UNL     1       0.171   0.335  -1.045  1.00  0.00    -0.014 A 
BRANCH  10  11
ATOM     11  C   UNL     1      -1.167  -0.113  -0.592  1.00  0.00     0.031 A 
ATOM     12  C   UNL     1      -1.857   0.686   0.476  1.00  0.00     0.074 A 
ATOM     13  C   UNL     1      -1.758  -1.200  -1.125  1.00  0.00     0.049 A 
ATOM     14  N   UNL     1      -3.016   0.482   1.042  1.00  0.00    -0.248 NA
ATOM     15  C   UNL     1      -1.138   1.868   0.980  1.00  0.00     0.031 C 
ATOM     16  C   UNL     1      -1.187  -2.046  -2.172  1.00  0.00     0.029 A 
ATOM     17  N   UNL     1      -2.970  -1.786  -0.854  1.00  0.00    -0.354 N 
ATOM     18  C   UNL     1      -3.163   1.508   1.966  1.00  0.00     0.074 A 
ATOM     19  C   UNL     1      -1.946   2.287   1.940  1.00  0.00     0.031 C 
ATOM     20  C   UNL     1      -2.039  -3.052  -2.441  1.00  0.00     0.029 A 
ATOM     21  C   UNL     1      -3.210  -2.929  -1.582  1.00  0.00     0.049 A 
ATOM     22  H   UNL     1      -3.608  -1.422  -0.199  1.00  0.00     0.167 HD
ATOM     23  C   UNL     1      -4.234   1.804   2.736  1.00  0.00     0.037 A 
ATOM     24  C   UNL     1      -4.257  -3.778  -1.556  1.00  0.00     0.037 A 
ATOM     25  C   UNL     1      -5.453   1.048   2.729  1.00  0.00     0.049 A 
ATOM     26  C   UNL     1      -5.426  -3.452  -0.662  1.00  0.00     0.074 A 
ATOM     27  C   UNL     1      -6.619   1.283   3.433  1.00  0.00     0.029 A 
ATOM     28  N   UNL     1      -5.661  -0.096   1.971  1.00  0.00    -0.354 N 
ATOM     29  N   UNL     1      -5.577  -2.434   0.153  1.00  0.00    -0.248 NA
ATOM     30  C   UNL     1      -6.576  -4.366  -0.703  1.00  0.00     0.031 C 
ATOM     31  C   UNL     1      -7.527   0.266   3.116  1.00  0.00     0.029 A 
ATOM     32  C   UNL     1      -6.935  -0.584   2.194  1.00  0.00     0.049 A 
ATOM     33  H   UNL     1      -4.999  -0.499   1.364  1.00  0.00     0.167 HD
ATOM     34  C   UNL     1      -6.853  -2.562   0.688  1.00  0.00     0.074 A 
ATOM     35  C   UNL     1      -7.432  -3.757   0.107  1.00  0.00     0.031 C 
ATOM     36  C   UNL     1      -7.493  -1.760   1.574  1.00  0.00     0.037 A 
BRANCH  23  37
ATOM     37  C   UNL     1      -4.113   3.007   3.625  1.00  0.00     0.058 A 
ATOM     38  C   UNL     1      -4.096   4.308   3.092  1.00  0.00     0.135 A 
ATOM     39  C   UNL     1      -3.952   2.862   5.011  1.00  0.00     0.135 A 
ATOM     40  F   UNL     1      -4.221   4.498   1.769  1.00  0.00    -0.206 F 
ATOM     41  C   UNL     1      -3.869   5.418   3.896  1.00  0.00     0.059 A 
ATOM     42  C   UNL     1      -3.750   3.963   5.838  1.00  0.00     0.059 A 
ATOM     43  F   UNL     1      -3.957   1.641   5.568  1.00  0.00    -0.206 F 
ATOM     44  C   UNL     1      -3.684   5.234   5.267  1.00  0.00     0.060 A 
BRANCH  44  45
ATOM     45  S   UNL     1      -3.339   6.678   6.292  1.00  0.00     0.124 S 
ATOM     46  O   UNL     1      -1.937   6.931   5.971  1.00  0.00    -0.237 OA
ATOM     47  O   UNL     1      -4.291   7.660   5.783  1.00  0.00    -0.237 OA
ATOM     48  O   UNL     1      -3.598   6.202   7.647  1.00  0.00    -0.744 OA
ENDBRANCH  44  45
ENDBRANCH  23  37
BRANCH  24  49
ATOM     49  C   UNL     1      -4.275  -4.996  -2.413  1.00  0.00     0.058 A 
ATOM     50  C   UNL     1      -5.124  -5.087  -3.526  1.00  0.00     0.135 A 
ATOM     51  C   UNL     1      -3.468  -6.106  -2.119  1.00  0.00     0.135 A 
ATOM     52  F   UNL     1      -5.920  -4.056  -3.847  1.00  0.00    -0.206 F 
ATOM     53  C   UNL     1      -5.197  -6.244  -4.298  1.00  0.00     0.059 A 
ATOM     54  C   UNL     1      -3.507  -7.267  -2.889  1.00  0.00     0.059 A 
ATOM     55  F   UNL     1      -2.634  -6.070  -1.068  1.00  0.00    -0.206 F 
ATOM     56  C   UNL     1      -4.387  -7.332  -3.968  1.00  0.00     0.060 A 
BRANCH  56  57
ATOM     57  S   UNL     1      -4.487  -8.824  -4.984  1.00  0.00     0.124 S 
ATOM     58  O   UNL     1      -5.776  -9.371  -4.578  1.00  0.00    -0.237 OA
ATOM     59  O   UNL     1      -4.424  -8.278  -6.337  1.00  0.00    -0.237 OA
ATOM     60  O   UNL     1      -3.317  -9.592  -4.572  1.00  0.00    -0.744 OA
ENDBRANCH  56  57
ENDBRANCH  24  49
BRANCH  36  61
ATOM     61  C   UNL     1      -8.904  -2.115   1.938  1.00  0.00     0.058 A 
ATOM     62  C   UNL     1      -9.190  -3.155   2.834  1.00  0.00     0.135 A 
ATOM     63  C   UNL     1      -9.971  -1.334   1.467  1.00  0.00     0.135 A 
ATOM     64  F   UNL     1      -8.202  -3.933   3.303  1.00  0.00    -0.206 F 
ATOM     65  C   UNL     1     -10.490  -3.407   3.255  1.00  0.00     0.059 A 
ATOM     66  C   UNL     1     -11.276  -1.554   1.892  1.00  0.00     0.059 A 
ATOM     67  F   UNL     1      -9.744  -0.323   0.613  1.00  0.00    -0.206 F 
ATOM     68  C   UNL     1     -11.525  -2.595   2.787  1.00  0.00     0.060 A 
BRANCH  68  69
ATOM     69  S   UNL     1     -13.195  -2.874   3.411  1.00  0.00     0.124 S 
ATOM     70  O   UNL     1     -13.595  -4.061   2.662  1.00  0.00    -0.237 OA
ATOM     71  O   UNL     1     -12.967  -3.073   4.839  1.00  0.00    -0.237 OA
ATOM     72  O   UNL     1     -13.898  -1.643   3.062  1.00  0.00    -0.744 OA
ENDBRANCH  68  69
ENDBRANCH  36  61
ENDBRANCH  10  11
ENDBRANCH   3   5
ENDBRANCH   2   3
ENDBRANCH   1   2
BRANCH   1  73
ATOM     73  C   UNL     1       3.545   0.052  -5.023  1.00  0.00     0.274 C 
BRANCH  73  74
ATOM     74  O   UNL     1       3.045  -0.781  -3.959  1.00  0.00    -0.460 OA
BRANCH  74  75
ATOM     75  C   UNL     1       3.978  -1.618  -3.404  1.00  0.00     0.334 C 
ATOM     76  O   UNL     1       5.149  -1.620  -3.764  1.00  0.00    -0.249 OA
BRANCH  75  77
ATOM     77  C   UNL     1       3.350  -2.588  -2.363  1.00  0.00     0.232 C 
BRANCH  77  78
ATOM     78  N   UNL     1       3.667  -3.982  -2.745  1.00  0.00    -0.274 N 
ATOM     79  C   UNL     1       4.987  -4.359  -2.883  1.00  0.00     0.267 C 
ATOM     80  C   UNL     1       2.771  -5.027  -2.825  1.00  0.00     0.149 C 
ATOM     81  O   UNL     1       5.965  -3.826  -2.389  1.00  0.00    -0.268 OA
ATOM     82  C   UNL     1       5.050  -5.636  -3.633  1.00  0.00     0.081 C 
ATOM     83  S   UNL     1       3.611  -6.513  -3.297  1.00  0.00    -0.054 SA
ATOM     84  S   UNL     1       1.131  -5.021  -2.562  1.00  0.00    -0.052 S 
ATOM     85  C   UNL     1       5.895  -5.955  -4.623  1.00  0.00     0.029 C 
BRANCH  85  86
ATOM     86  C   UNL     1       6.824  -5.004  -5.249  1.00  0.00    -0.024 A 
ATOM     87  C   UNL     1       6.642  -4.716  -6.610  1.00  0.00     0.009 A 
ATOM     88  C   UNL     1       7.823  -4.328  -4.543  1.00  0.00     0.009 A 
ATOM     89  C   UNL     1       7.407  -3.731  -7.239  1.00  0.00     0.016 A 
ATOM     90  C   UNL     1       8.572  -3.323  -5.162  1.00  0.00     0.016 A 
ATOM     91  C   UNL     1       8.357  -3.025  -6.504  1.00  0.00     0.018 A 
ATOM     92  Br  UNL     1       9.347  -1.645  -7.333  1.00  0.00    -0.051 Br
ENDBRANCH  85  86
ENDBRANCH  77  78
BRANCH  77  93
ATOM     93  C   UNL     1       3.681  -2.303  -0.903  1.00  0.00    -0.014 A 
ATOM     94  C   UNL     1       4.911  -1.766  -0.495  1.00  0.00     0.006 A 
ATOM     95  C   UNL     1       2.738  -2.623   0.093  1.00  0.00     0.006 A 
ATOM     96  C   UNL     1       5.184  -1.543   0.858  1.00  0.00     0.000 A 
ATOM     97  C   UNL     1       3.009  -2.392   1.444  1.00  0.00     0.000 A 
ATOM     98  C   UNL     1       4.232  -1.850   1.826  1.00  0.00     0.000 A 
ENDBRANCH  77  93
ENDBRANCH  75  77
ENDBRANCH  74  75
ENDBRANCH  73  74
ENDBRANCH   1  73
TORSDOF 17
