REMARK SMILES Cc1cc(F)cc(N[C@H](C(=O)OCCOC(=O)c2ccc(-c3c4nc(c(-c5c(F)cc(S(=O)(=O)[O-])cc5F)c5ccc([nH]5)c(-c5c(F)cc(S(=O)(=O)[O-])cc5F)c5nc(c(-c6c(F)cc(S(=O)(=O)[O-])cc6F)c6ccc3[nH]6)C=C5)C=C4)cc2)c2cc(Br)cs2)c1
REMARK SMILES IDX 14 1 13 2 12 3 10 4 11 5 9 6 8 7 7 9 1 10 2 11 3 12 90 13
REMARK SMILES IDX 4 14 5 15 6 16 84 17 85 18 89 19 86 20 88 21 87 22 15 23
REMARK SMILES IDX 16 24 17 25 18 26 19 27 83 28 20 29 82 30 21 31 22 32 23 33
REMARK SMILES IDX 76 34 24 35 81 36 75 37 77 38 25 39 80 40 74 41 73 42 26 44
REMARK SMILES IDX 60 45 39 46 59 47 40 48 43 49 58 50 78 51 41 52 42 53 57 55
REMARK SMILES IDX 79 56 44 57 27 58 28 59 37 60 29 61 30 62 36 63 38 64 31 65
REMARK SMILES IDX 32 66 33 67 34 68 35 69 61 70 62 71 71 72 63 73 64 74 70 75
REMARK SMILES IDX 72 76 65 77 66 78 67 79 68 80 69 81 45 82 46 83 55 84 47 85
REMARK SMILES IDX 48 86 54 87 56 88 49 89 50 90 51 91 52 92 53 93
REMARK H PARENT 8 8 77 43 43 54
REMARK Flexibility Score: inf
ROOT
ATOM      1  C   UNL     1       2.325  -1.329  -1.064  1.00  0.00     0.275 C 
ENDROOT
BRANCH   1   2
ATOM      2  C   UNL     1       2.470  -2.849  -0.936  1.00  0.00     0.274 C 
BRANCH   2   3
ATOM      3  O   UNL     1       1.195  -3.513  -0.939  1.00  0.00    -0.460 OA
BRANCH   3   4
ATOM      4  C   UNL     1       0.686  -3.829   0.297  1.00  0.00     0.334 C 
ATOM      5  O   UNL     1       1.254  -3.527   1.341  1.00  0.00    -0.249 OA
BRANCH   4   6
ATOM      6  C   UNL     1      -0.704  -4.532   0.177  1.00  0.00     0.231 C 
BRANCH   6   7
ATOM      7  N   UNL     1      -0.729  -5.405  -1.015  1.00  0.00    -0.368 N 
ATOM      8  H   UNL     1      -1.300  -5.127  -1.768  1.00  0.00     0.161 HD
BRANCH   7   9
ATOM      9  C   UNL     1      -0.015  -6.580  -1.157  1.00  0.00     0.038 A 
ATOM     10  C   UNL     1      -0.033  -9.538  -3.580  1.00  0.00     0.044 C 
ATOM     11  C   UNL     1       0.292  -8.670  -2.404  1.00  0.00    -0.046 A 
ATOM     12  C   UNL     1       1.130  -9.148  -1.396  1.00  0.00     0.042 A 
ATOM     13  C   UNL     1      -0.281  -7.395  -2.268  1.00  0.00     0.029 A 
ATOM     14  C   UNL     1       1.412  -8.344  -0.303  1.00  0.00     0.125 A 
ATOM     15  F   UNL     1       2.210  -8.807   0.669  1.00  0.00    -0.207 F 
ATOM     16  C   UNL     1       0.862  -7.075  -0.185  1.00  0.00     0.065 A 
ENDBRANCH   7   9
ENDBRANCH   6   7
BRANCH   6  17
ATOM     17  C   UNL     1      -1.125  -5.179   1.506  1.00  0.00     0.039 A 
ATOM     18  C   UNL     1      -0.865  -4.780   2.811  1.00  0.00     0.033 A 
ATOM     19  S   UNL     1      -2.104  -6.612   1.530  1.00  0.00    -0.145 S 
ATOM     20  C   UNL     1      -1.185  -5.789   3.751  1.00  0.00     0.029 A 
ATOM     21  C   UNL     1      -1.801  -6.876   3.191  1.00  0.00     0.080 A 
ATOM     22  Br  UNL     1      -0.730  -5.627   5.573  1.00  0.00    -0.050 Br
ENDBRANCH   6  17
ENDBRANCH   4   6
ENDBRANCH   3   4
ENDBRANCH   2   3
ENDBRANCH   1   2
BRANCH   1  23
ATOM     23  O   UNL     1       1.694  -0.737   0.087  1.00  0.00    -0.458 OA
BRANCH  23  24
ATOM     24  C   UNL     1       0.337  -0.723   0.054  1.00  0.00     0.338 C 
ATOM     25  O   UNL     1      -0.373  -1.104  -0.860  1.00  0.00    -0.246 OA
BRANCH  24  26
ATOM     26  C   UNL     1      -0.200  -0.350   1.379  1.00  0.00     0.060 A 
ATOM     27  C   UNL     1      -1.284  -1.091   1.865  1.00  0.00     0.016 A 
ATOM     28  C   UNL     1       0.317   0.712   2.124  1.00  0.00     0.016 A 
ATOM     29  C   UNL     1      -1.846  -0.787   3.100  1.00  0.00     0.010 A 
ATOM     30  C   UNL     1      -0.262   1.031   3.357  1.00  0.00     0.010 A 
ATOM     31  C   UNL     1      -1.350   0.287   3.846  1.00  0.00    -0.014 A 
BRANCH  31  32
ATOM     32  C   UNL     1      -2.043   0.677   5.095  1.00  0.00     0.031 A 
ATOM     33  C   UNL     1      -3.002   1.832   5.073  1.00  0.00     0.074 A 
ATOM     34  C   UNL     1      -1.849  -0.030   6.223  1.00  0.00     0.049 A 
ATOM     35  N   UNL     1      -3.707   2.341   6.048  1.00  0.00    -0.248 NA
ATOM     36  C   UNL     1      -3.196   2.499   3.775  1.00  0.00     0.031 C 
ATOM     37  C   UNL     1      -0.979  -1.200   6.347  1.00  0.00     0.029 A 
ATOM     38  N   UNL     1      -2.372   0.135   7.481  1.00  0.00    -0.354 N 
ATOM     39  C   UNL     1      -4.427   3.389   5.488  1.00  0.00     0.074 A 
ATOM     40  C   UNL     1      -4.050   3.462   4.092  1.00  0.00     0.031 C 
ATOM     41  C   UNL     1      -1.022  -1.642   7.615  1.00  0.00     0.029 A 
ATOM     42  C   UNL     1      -1.893  -0.769   8.399  1.00  0.00     0.049 A 
ATOM     43  H   UNL     1      -3.029   0.834   7.704  1.00  0.00     0.167 HD
ATOM     44  C   UNL     1      -5.326   4.208   6.083  1.00  0.00     0.037 A 
ATOM     45  C   UNL     1      -2.117  -0.864   9.725  1.00  0.00     0.037 A 
ATOM     46  C   UNL     1      -5.685   4.131   7.476  1.00  0.00     0.049 A 
ATOM     47  C   UNL     1      -3.062   0.111  10.381  1.00  0.00     0.074 A 
ATOM     48  C   UNL     1      -6.588   4.913   8.176  1.00  0.00     0.029 A 
ATOM     49  N   UNL     1      -5.152   3.227   8.385  1.00  0.00    -0.354 N 
ATOM     50  N   UNL     1      -3.750   1.088   9.837  1.00  0.00    -0.248 NA
ATOM     51  C   UNL     1      -3.266  -0.033  11.829  1.00  0.00     0.031 C 
ATOM     52  C   UNL     1      -6.558   4.521   9.518  1.00  0.00     0.029 A 
ATOM     53  C   UNL     1      -5.688   3.449   9.643  1.00  0.00     0.049 A 
ATOM     54  H   UNL     1      -4.491   2.531   8.167  1.00  0.00     0.167 HD
ATOM     55  C   UNL     1      -4.498   1.649  10.869  1.00  0.00     0.074 A 
ATOM     56  C   UNL     1      -4.180   0.899  12.067  1.00  0.00     0.031 C 
ATOM     57  C   UNL     1      -5.372   2.685  10.827  1.00  0.00     0.037 A 
BRANCH  44  58
ATOM     58  C   UNL     1      -5.957   5.281   5.239  1.00  0.00     0.058 A 
ATOM     59  C   UNL     1      -6.888   4.982   4.231  1.00  0.00     0.135 A 
ATOM     60  C   UNL     1      -5.649   6.633   5.462  1.00  0.00     0.135 A 
ATOM     61  F   UNL     1      -7.206   3.706   3.961  1.00  0.00    -0.206 F 
ATOM     62  C   UNL     1      -7.470   5.982   3.458  1.00  0.00     0.059 A 
ATOM     63  C   UNL     1      -6.240   7.651   4.721  1.00  0.00     0.059 A 
ATOM     64  F   UNL     1      -4.762   6.977   6.410  1.00  0.00    -0.206 F 
ATOM     65  C   UNL     1      -7.140   7.314   3.711  1.00  0.00     0.060 A 
BRANCH  65  66
ATOM     66  S   UNL     1      -7.904   8.599   2.700  1.00  0.00     0.124 S 
ATOM     67  O   UNL     1      -7.239   8.394   1.416  1.00  0.00    -0.237 OA
ATOM     68  O   UNL     1      -9.316   8.233   2.747  1.00  0.00    -0.237 OA
ATOM     69  O   UNL     1      -7.556   9.834   3.395  1.00  0.00    -0.744 OA
ENDBRANCH  65  66
ENDBRANCH  44  58
BRANCH  45  70
ATOM     70  C   UNL     1      -1.426  -1.912  10.523  1.00  0.00     0.058 A 
ATOM     71  C   UNL     1      -2.137  -2.971  11.107  1.00  0.00     0.135 A 
ATOM     72  C   UNL     1      -0.037  -1.872  10.724  1.00  0.00     0.135 A 
ATOM     73  F   UNL     1      -3.468  -3.049  10.954  1.00  0.00    -0.206 F 
ATOM     74  C   UNL     1      -1.502  -3.940  11.877  1.00  0.00     0.059 A 
ATOM     75  C   UNL     1       0.626  -2.845  11.465  1.00  0.00     0.059 A 
ATOM     76  F   UNL     1       0.693  -0.885  10.181  1.00  0.00    -0.206 F 
ATOM     77  C   UNL     1      -0.118  -3.869  12.049  1.00  0.00     0.060 A 
BRANCH  77  78
ATOM     78  S   UNL     1       0.701  -5.151  13.023  1.00  0.00     0.124 S 
ATOM     79  O   UNL     1       0.257  -4.823  14.373  1.00  0.00    -0.237 OA
ATOM     80  O   UNL     1       0.147  -6.372  12.447  1.00  0.00    -0.237 OA
ATOM     81  O   UNL     1       2.118  -4.925  12.753  1.00  0.00    -0.744 OA
ENDBRANCH  77  78
ENDBRANCH  45  70
BRANCH  57  82
ATOM     82  C   UNL     1      -6.096   3.041  12.099  1.00  0.00     0.058 A 
ATOM     83  C   UNL     1      -5.445   3.649  13.183  1.00  0.00     0.135 A 
ATOM     84  C   UNL     1      -7.479   2.817  12.210  1.00  0.00     0.135 A 
ATOM     85  F   UNL     1      -4.124   3.883  13.134  1.00  0.00    -0.206 F 
ATOM     86  C   UNL     1      -6.133   3.998  14.342  1.00  0.00     0.059 A 
ATOM     87  C   UNL     1      -8.193   3.187  13.345  1.00  0.00     0.059 A 
ATOM     88  F   UNL     1      -8.155   2.248  11.198  1.00  0.00    -0.206 F 
ATOM     89  C   UNL     1      -7.508   3.766  14.412  1.00  0.00     0.060 A 
BRANCH  89  90
ATOM     90  S   UNL     1      -8.395   4.254  15.907  1.00  0.00     0.124 S 
ATOM     91  O   UNL     1      -7.938   3.249  16.861  1.00  0.00    -0.237 OA
ATOM     92  O   UNL     1      -7.905   5.610  16.131  1.00  0.00    -0.237 OA
ATOM     93  O   UNL     1      -9.799   4.157  15.518  1.00  0.00    -0.744 OA
ENDBRANCH  89  90
ENDBRANCH  57  82
ENDBRANCH  31  32
ENDBRANCH  24  26
ENDBRANCH  23  24
ENDBRANCH   1  23
TORSDOF 17
