REMARK SMILES C[C@@H]1CCC[C@@H](C)[NH+]1Cc1cc2c(cc1Cl)C=C(C(=O)OCCOC(=O)c1ccc(-c3c4nc(c(-c5c(F)cc(S(=O)(=O)[O-])cc5F)c5ccc([nH]5)c(-c5c(F)cc(S(=O)(=O)[O-])cc5F)c5nc(c(-c6c(F)cc(S(=O)(=O)[O-])cc6F)c6ccc3[nH]6)C=C5)C=C4)cc1)[C@@H](C(F)(F)F)O2
REMARK SMILES IDX 23 1 22 2 21 3 19 4 20 5 18 6 10 7 11 8 15 9 12 10 14 11
REMARK SMILES IDX 16 12 13 13 98 14 17 15 93 16 9 17 8 18 1 19 2 20 3 21 4 22
REMARK SMILES IDX 6 23 5 25 7 26 94 27 95 28 96 29 97 30 24 31 25 32 26 33
REMARK SMILES IDX 27 34 28 35 92 36 29 37 91 38 30 39 31 40 32 41 85 42 33 43
REMARK SMILES IDX 90 44 84 45 86 46 34 47 89 48 83 49 82 50 35 52 69 53 48 54
REMARK SMILES IDX 68 55 49 56 52 57 67 58 87 59 50 60 51 61 66 63 88 64 53 65
REMARK SMILES IDX 36 66 37 67 46 68 38 69 39 70 45 71 47 72 40 73 41 74 42 75
REMARK SMILES IDX 43 76 44 77 70 78 71 79 80 80 72 81 73 82 79 83 81 84 74 85
REMARK SMILES IDX 75 86 76 87 77 88 78 89 54 90 55 91 64 92 56 93 57 94 63 95
REMARK SMILES IDX 65 96 58 97 59 98 60 99 61 100 62 101
REMARK H PARENT 8 24 86 51 52 62
REMARK Flexibility Score: inf
ROOT
ATOM      1  C   UNL     1      -4.911  -0.968   8.518  1.00  0.00     0.275 C 
ENDROOT
BRANCH   1   2
ATOM      2  C   UNL     1      -6.038  -0.890   7.487  1.00  0.00     0.275 C 
BRANCH   2   3
ATOM      3  O   UNL     1      -5.535  -0.612   6.164  1.00  0.00    -0.459 OA
BRANCH   3   4
ATOM      4  C   UNL     1      -5.665   0.673   5.750  1.00  0.00     0.338 C 
ATOM      5  O   UNL     1      -6.148   1.588   6.391  1.00  0.00    -0.246 OA
BRANCH   4   6
ATOM      6  C   UNL     1      -5.073   0.849   4.405  1.00  0.00     0.087 C 
ATOM      7  C   UNL     1      -2.313   2.492   0.522  1.00  0.00     0.029 A 
ATOM      8  C   UNL     1      -2.841   1.244   0.910  1.00  0.00     0.058 A 
ATOM      9  C   UNL     1      -2.764   3.626   1.218  1.00  0.00     0.050 A 
ATOM     10  C   UNL     1      -3.654   1.115   2.038  1.00  0.00     0.128 A 
ATOM     11  C   UNL     1      -3.550   3.495   2.369  1.00  0.00     0.033 A 
ATOM     12  Cl  UNL     1      -2.412   5.240   0.710  1.00  0.00    -0.084 Cl
ATOM     13  C   UNL     1      -3.961   2.235   2.803  1.00  0.00     0.019 A 
ATOM     14  O   UNL     1      -4.049  -0.153   2.368  1.00  0.00    -0.475 OA
ATOM     15  C   UNL     1      -4.633   2.072   4.080  1.00  0.00     0.027 C 
ATOM     16  C   UNL     1      -5.035  -0.295   3.429  1.00  0.00     0.316 C 
BRANCH   7  17
ATOM     17  C   UNL     1      -1.292   2.549  -0.601  1.00  0.00     0.301 C 
BRANCH  17  18
ATOM     18  N   UNL     1       0.139   2.453  -0.259  1.00  0.00    -0.327 N 
ATOM     19  C   UNL     1       0.247  -0.058  -0.598  1.00  0.00     0.075 C 
ATOM     20  C   UNL     1       0.714   1.174   0.181  1.00  0.00     0.181 C 
ATOM     21  C   UNL     1       0.618   0.962   1.699  1.00  0.00     0.065 C 
ATOM     22  C   UNL     1       1.236   2.130   2.464  1.00  0.00     0.012 C 
ATOM     23  C   UNL     1       0.711   3.616   0.444  1.00  0.00     0.181 C 
ATOM     24  H   UNL     1       0.478   2.481  -1.221  1.00  0.00     0.348 HD
ATOM     25  C   UNL     1       0.693   3.470   1.977  1.00  0.00     0.065 C 
ATOM     26  C   UNL     1       2.140   3.896  -0.054  1.00  0.00     0.075 C 
ENDBRANCH  17  18
ENDBRANCH   7  17
BRANCH  16  27
ATOM     27  C   UNL     1      -6.434  -0.517   2.831  1.00  0.00     0.430 C 
ATOM     28  F   UNL     1      -6.439  -1.537   1.940  1.00  0.00    -0.167 F 
ATOM     29  F   UNL     1      -7.335  -0.839   3.793  1.00  0.00    -0.167 F 
ATOM     30  F   UNL     1      -6.905   0.578   2.193  1.00  0.00    -0.167 F 
ENDBRANCH  16  27
ENDBRANCH   4   6
ENDBRANCH   3   4
ENDBRANCH   2   3
ENDBRANCH   1   2
BRANCH   1  31
ATOM     31  O   UNL     1      -4.252   0.303   8.652  1.00  0.00    -0.458 OA
BRANCH  31  32
ATOM     32  C   UNL     1      -2.961   0.345   8.247  1.00  0.00     0.338 C 
ATOM     33  O   UNL     1      -2.290  -0.572   7.806  1.00  0.00    -0.246 OA
BRANCH  32  34
ATOM     34  C   UNL     1      -2.479   1.731   8.333  1.00  0.00     0.060 A 
ATOM     35  C   UNL     1      -1.751   2.175   9.435  1.00  0.00     0.016 A 
ATOM     36  C   UNL     1      -2.686   2.570   7.239  1.00  0.00     0.016 A 
ATOM     37  C   UNL     1      -1.257   3.486   9.443  1.00  0.00     0.010 A 
ATOM     38  C   UNL     1      -2.159   3.860   7.231  1.00  0.00     0.010 A 
ATOM     39  C   UNL     1      -1.447   4.340   8.338  1.00  0.00    -0.014 A 
BRANCH  39  40
ATOM     40  C   UNL     1      -0.869   5.712   8.317  1.00  0.00     0.031 A 
ATOM     41  C   UNL     1      -1.756   6.930   8.258  1.00  0.00     0.074 A 
ATOM     42  C   UNL     1       0.471   5.865   8.306  1.00  0.00     0.049 A 
ATOM     43  N   UNL     1      -1.419   8.196   8.254  1.00  0.00    -0.248 NA
ATOM     44  C   UNL     1      -3.205   6.699   8.158  1.00  0.00     0.031 C 
ATOM     45  C   UNL     1       1.445   4.773   8.264  1.00  0.00     0.029 A 
ATOM     46  N   UNL     1       1.246   6.998   8.338  1.00  0.00    -0.354 N 
ATOM     47  C   UNL     1      -2.607   8.908   8.135  1.00  0.00     0.074 A 
ATOM     48  C   UNL     1      -3.669   7.933   8.018  1.00  0.00     0.031 C 
ATOM     49  C   UNL     1       2.684   5.285   8.335  1.00  0.00     0.029 A 
ATOM     50  C   UNL     1       2.595   6.740   8.405  1.00  0.00     0.049 A 
ATOM     51  H   UNL     1       0.872   7.909   8.316  1.00  0.00     0.167 HD
ATOM     52  C   UNL     1      -2.801  10.250   8.154  1.00  0.00     0.037 A 
ATOM     53  C   UNL     1       3.643   7.578   8.535  1.00  0.00     0.037 A 
ATOM     54  C   UNL     1      -1.749  11.219   8.323  1.00  0.00     0.049 A 
ATOM     55  C   UNL     1       3.400   9.057   8.630  1.00  0.00     0.074 A 
ATOM     56  C   UNL     1      -1.855  12.595   8.434  1.00  0.00     0.029 A 
ATOM     57  N   UNL     1      -0.400  10.915   8.418  1.00  0.00    -0.354 N 
ATOM     58  N   UNL     1       2.263   9.709   8.587  1.00  0.00    -0.248 NA
ATOM     59  C   UNL     1       4.581   9.917   8.798  1.00  0.00     0.031 C 
ATOM     60  C   UNL     1      -0.568  13.125   8.578  1.00  0.00     0.029 A 
ATOM     61  C   UNL     1       0.337  12.077   8.584  1.00  0.00     0.049 A 
ATOM     62  H   UNL     1      -0.021  10.008   8.374  1.00  0.00     0.167 HD
ATOM     63  C   UNL     1       2.590  11.052   8.730  1.00  0.00     0.074 A 
ATOM     64  C   UNL     1       4.029  11.120   8.881  1.00  0.00     0.031 C 
ATOM     65  C   UNL     1       1.770  12.131   8.731  1.00  0.00     0.037 A 
BRANCH  52  66
ATOM     66  C   UNL     1      -4.213  10.753   8.027  1.00  0.00     0.058 A 
ATOM     67  C   UNL     1      -5.135  10.608   9.076  1.00  0.00     0.135 A 
ATOM     68  C   UNL     1      -4.640  11.425   6.870  1.00  0.00     0.135 A 
ATOM     69  F   UNL     1      -4.782   9.966  10.201  1.00  0.00    -0.206 F 
ATOM     70  C   UNL     1      -6.438  11.082   8.972  1.00  0.00     0.059 A 
ATOM     71  C   UNL     1      -5.933  11.930   6.753  1.00  0.00     0.059 A 
ATOM     72  F   UNL     1      -3.798  11.597   5.838  1.00  0.00    -0.206 F 
ATOM     73  C   UNL     1      -6.829  11.740   7.805  1.00  0.00     0.060 A 
BRANCH  73  74
ATOM     74  S   UNL     1      -8.524  12.352   7.689  1.00  0.00     0.124 S 
ATOM     75  O   UNL     1      -9.265  11.114   7.470  1.00  0.00    -0.237 OA
ATOM     76  O   UNL     1      -8.719  12.985   8.990  1.00  0.00    -0.237 OA
ATOM     77  O   UNL     1      -8.478  13.266   6.552  1.00  0.00    -0.744 OA
ENDBRANCH  73  74
ENDBRANCH  52  66
BRANCH  53  78
ATOM     78  C   UNL     1       5.014   7.021   8.661  1.00  0.00     0.058 A 
ATOM     79  C   UNL     1       5.654   6.987   9.909  1.00  0.00     0.135 A 
ATOM     80  C   UNL     1       5.689   6.473   7.561  1.00  0.00     0.135 A 
ATOM     81  F   UNL     1       5.047   7.503  10.988  1.00  0.00    -0.206 F 
ATOM     82  C   UNL     1       6.919   6.431  10.062  1.00  0.00     0.059 A 
ATOM     83  C   UNL     1       6.949   5.895   7.693  1.00  0.00     0.059 A 
ATOM     84  F   UNL     1       5.109   6.468   6.351  1.00  0.00    -0.206 F 
ATOM     85  C   UNL     1       7.557   5.882   8.949  1.00  0.00     0.060 A 
BRANCH  85  86
ATOM     86  S   UNL     1       9.167   5.096   9.176  1.00  0.00     0.124 S 
ATOM     87  O   UNL     1      10.039   6.253   9.340  1.00  0.00    -0.237 OA
ATOM     88  O   UNL     1       8.947   4.287  10.371  1.00  0.00    -0.237 OA
ATOM     89  O   UNL     1       9.347   4.338   7.941  1.00  0.00    -0.744 OA
ENDBRANCH  85  86
ENDBRANCH  53  78
BRANCH  65  90
ATOM     90  C   UNL     1       2.402  13.482   8.900  1.00  0.00     0.058 A 
ATOM     91  C   UNL     1       3.074  14.108   7.839  1.00  0.00     0.135 A 
ATOM     92  C   UNL     1       2.277  14.186  10.108  1.00  0.00     0.135 A 
ATOM     93  F   UNL     1       3.226  13.473   6.666  1.00  0.00    -0.206 F 
ATOM     94  C   UNL     1       3.609  15.385   7.972  1.00  0.00     0.059 A 
ATOM     95  C   UNL     1       2.789  15.471  10.258  1.00  0.00     0.059 A 
ATOM     96  F   UNL     1       1.638  13.632  11.150  1.00  0.00    -0.206 F 
ATOM     97  C   UNL     1       3.458  16.060   9.185  1.00  0.00     0.060 A 
BRANCH  97  98
ATOM     98  S   UNL     1       4.114  17.737   9.329  1.00  0.00     0.124 S 
ATOM     99  O   UNL     1       5.546  17.484   9.441  1.00  0.00    -0.237 OA
ATOM    100  O   UNL     1       3.675  18.353   8.081  1.00  0.00    -0.237 OA
ATOM    101  O   UNL     1       3.470  18.251  10.534  1.00  0.00    -0.744 OA
ENDBRANCH  97  98
ENDBRANCH  65  90
ENDBRANCH  39  40
ENDBRANCH  32  34
ENDBRANCH  31  32
ENDBRANCH   1  31
TORSDOF 17
