REMARK SMILES O=C(OCCOC(=O)c1ccc(-c2c3nc(c(-c4c(F)cc(S(=O)(=O)[O-])cc4F)c4ccc([nH]4)c(-c4c(F)cc(S(=O)(=O)[O-])cc4F)c4nc(c(-c5c(F)cc(S(=O)(=O)[O-])cc5F)c5ccc2[nH]5)C=C4)C=C3)cc1)c1ccc(/C=C/c2ccnc(-c3cccc([N+](=O)[O-])c3)[n+]2[O-])cc1
REMARK SMILES IDX 4 1 3 2 2 3 1 4 75 5 76 6 98 7 77 8 97 9 78 10 79 11 80 12
REMARK SMILES IDX 81 13 82 14 95 15 83 16 85 17 96 18 84 19 86 20 87 21 94 22
REMARK SMILES IDX 88 23 90 24 89 25 91 26 92 27 93 28 5 29 6 30 7 31 8 32 9 33
REMARK SMILES IDX 10 34 74 35 11 36 73 37 12 38 13 39 14 40 67 41 15 42 72 43
REMARK SMILES IDX 66 44 68 45 16 46 71 47 65 48 64 49 17 51 51 52 30 53 50 54
REMARK SMILES IDX 31 55 34 56 49 57 69 58 32 59 33 60 48 62 70 63 35 64 18 65
REMARK SMILES IDX 19 66 28 67 20 68 21 69 27 70 29 71 22 72 23 73 24 74 25 75
REMARK SMILES IDX 26 76 52 77 53 78 62 79 54 80 55 81 61 82 63 83 56 84 57 85
REMARK SMILES IDX 58 86 59 87 60 88 36 89 37 90 46 91 38 92 39 93 45 94 47 95
REMARK SMILES IDX 40 96 41 97 42 98 43 99 44 100
REMARK H PARENT 68 50 34 61
REMARK Flexibility Score: inf
ROOT
ATOM      1  C   UNL     1       4.005   1.310  -1.017  1.00  0.00     0.275 C 
ENDROOT
BRANCH   1   2
ATOM      2  O   UNL     1       2.880   0.415  -1.084  1.00  0.00    -0.458 OA
BRANCH   2   3
ATOM      3  C   UNL     1       2.734  -0.849  -0.617  1.00  0.00     0.338 C 
ATOM      4  O   UNL     1       1.798  -1.523  -1.043  1.00  0.00    -0.246 OA
BRANCH   3   5
ATOM      5  C   UNL     1       3.566  -1.435   0.486  1.00  0.00     0.060 A 
ATOM      6  C   UNL     1       4.867  -1.064   0.818  1.00  0.00     0.016 A 
ATOM      7  C   UNL     1       2.970  -2.455   1.251  1.00  0.00     0.016 A 
ATOM      8  C   UNL     1       5.513  -1.602   1.935  1.00  0.00     0.009 A 
ATOM      9  C   UNL     1       3.630  -3.022   2.350  1.00  0.00     0.009 A 
ATOM     10  C   UNL     1       4.890  -2.562   2.732  1.00  0.00    -0.025 A 
BRANCH  10  11
ATOM     11  C   UNL     1       5.588  -3.177   3.865  1.00  0.00     0.012 C 
ATOM     12  C   UNL     1       6.531  -2.563   4.600  1.00  0.00     0.053 C 
BRANCH  12  13
ATOM     13  C   UNL     1       7.355  -3.286   5.583  1.00  0.00     0.134 A 
ATOM     14  C   UNL     1       7.618  -2.711   6.826  1.00  0.00     0.100 A 
ATOM     15  N   UNL     1       7.921  -4.528   5.246  1.00  0.00    -0.228 N 
ATOM     16  C   UNL     1       8.392  -3.424   7.714  1.00  0.00     0.259 A 
ATOM     17  C   UNL     1       8.672  -5.190   6.217  1.00  0.00     0.333 A 
ATOM     18  O   UNL     1       7.783  -5.024   4.069  1.00  0.00    -0.710 OA
ATOM     19  N   UNL     1       8.906  -4.639   7.447  1.00  0.00    -0.049 NA
BRANCH  17  20
ATOM     20  C   UNL     1       9.215  -6.519   5.935  1.00  0.00     0.076 A 
ATOM     21  C   UNL     1       8.817  -7.627   6.703  1.00  0.00     0.017 A 
ATOM     22  C   UNL     1      10.091  -6.734   4.856  1.00  0.00     0.102 A 
ATOM     23  C   UNL     1       9.248  -8.918   6.386  1.00  0.00     0.008 A 
ATOM     24  C   UNL     1      10.527  -8.028   4.544  1.00  0.00     0.270 A 
ATOM     25  C   UNL     1      10.102  -9.124   5.303  1.00  0.00     0.085 A 
BRANCH  24  26
ATOM     26  N   UNL     1      11.435  -8.232   3.410  1.00  0.00     0.062 N 
ATOM     27  O   UNL     1      11.781  -9.394   3.148  1.00  0.00    -0.258 OA
ATOM     28  O   UNL     1      11.831  -7.231   2.794  1.00  0.00    -0.258 OA
ENDBRANCH  24  26
ENDBRANCH  17  20
ENDBRANCH  12  13
ENDBRANCH  10  11
ENDBRANCH   3   5
ENDBRANCH   2   3
ENDBRANCH   1   2
BRANCH   1  29
ATOM     29  C   UNL     1       4.010   2.238   0.203  1.00  0.00     0.275 C 
BRANCH  29  30
ATOM     30  O   UNL     1       3.680   1.564   1.427  1.00  0.00    -0.458 OA
BRANCH  30  31
ATOM     31  C   UNL     1       2.360   1.599   1.747  1.00  0.00     0.338 C 
ATOM     32  O   UNL     1       1.497   2.223   1.149  1.00  0.00    -0.246 OA
BRANCH  31  33
ATOM     33  C   UNL     1       2.055   0.684   2.874  1.00  0.00     0.060 A 
ATOM     34  C   UNL     1       0.797   0.068   2.879  1.00  0.00     0.016 A 
ATOM     35  C   UNL     1       2.946   0.447   3.926  1.00  0.00     0.016 A 
ATOM     36  C   UNL     1       0.406  -0.730   3.956  1.00  0.00     0.010 A 
ATOM     37  C   UNL     1       2.556  -0.369   5.001  1.00  0.00     0.010 A 
ATOM     38  C   UNL     1       1.266  -0.928   5.045  1.00  0.00    -0.014 A 
BRANCH  38  39
ATOM     39  C   UNL     1       0.743  -1.592   6.271  1.00  0.00     0.031 A 
ATOM     40  C   UNL     1       0.360  -0.749   7.460  1.00  0.00     0.074 A 
ATOM     41  C   UNL     1       0.539  -2.923   6.319  1.00  0.00     0.049 A 
ATOM     42  N   UNL     1      -0.232  -1.105   8.573  1.00  0.00    -0.248 NA
ATOM     43  C   UNL     1       0.686   0.684   7.387  1.00  0.00     0.031 C 
ATOM     44  C   UNL     1       0.849  -3.865   5.248  1.00  0.00     0.029 A 
ATOM     45  N   UNL     1       0.005  -3.711   7.312  1.00  0.00    -0.354 N 
ATOM     46  C   UNL     1      -0.363   0.057   9.323  1.00  0.00     0.074 A 
ATOM     47  C   UNL     1       0.264   1.119   8.565  1.00  0.00     0.031 C 
ATOM     48  C   UNL     1       0.497  -5.104   5.636  1.00  0.00     0.029 A 
ATOM     49  C   UNL     1      -0.068  -5.044   6.983  1.00  0.00     0.049 A 
ATOM     50  H   UNL     1      -0.296  -3.353   8.178  1.00  0.00     0.167 HD
ATOM     51  C   UNL     1      -0.972   0.236  10.520  1.00  0.00     0.037 A 
ATOM     52  C   UNL     1      -0.553  -6.095   7.676  1.00  0.00     0.037 A 
ATOM     53  C   UNL     1      -1.608  -0.807  11.280  1.00  0.00     0.049 A 
ATOM     54  C   UNL     1      -1.186  -5.878   9.028  1.00  0.00     0.074 A 
ATOM     55  C   UNL     1      -2.290  -0.702  12.481  1.00  0.00     0.029 A 
ATOM     56  N   UNL     1      -1.632  -2.147  10.926  1.00  0.00    -0.354 N 
ATOM     57  N   UNL     1      -1.372  -4.759   9.686  1.00  0.00    -0.248 NA
ATOM     58  C   UNL     1      -1.695  -7.071   9.723  1.00  0.00     0.031 C 
ATOM     59  C   UNL     1      -2.683  -1.985  12.877  1.00  0.00     0.029 A 
ATOM     60  C   UNL     1      -2.291  -2.883  11.899  1.00  0.00     0.049 A 
ATOM     61  H   UNL     1      -1.240  -2.521  10.104  1.00  0.00     0.167 HD
ATOM     62  C   UNL     1      -2.060  -5.108  10.846  1.00  0.00     0.074 A 
ATOM     63  C   UNL     1      -2.254  -6.541  10.802  1.00  0.00     0.031 C 
ATOM     64  C   UNL     1      -2.498  -4.308  11.850  1.00  0.00     0.037 A 
BRANCH  51  65
ATOM     65  C   UNL     1      -0.971   1.627  11.090  1.00  0.00     0.058 A 
ATOM     66  C   UNL     1      -1.761   2.649  10.541  1.00  0.00     0.135 A 
ATOM     67  C   UNL     1      -0.186   1.934  12.213  1.00  0.00     0.135 A 
ATOM     68  F   UNL     1      -2.518   2.411   9.457  1.00  0.00    -0.206 F 
ATOM     69  C   UNL     1      -1.746   3.938  11.063  1.00  0.00     0.059 A 
ATOM     70  C   UNL     1      -0.177   3.209  12.768  1.00  0.00     0.059 A 
ATOM     71  F   UNL     1       0.587   0.992  12.776  1.00  0.00    -0.206 F 
ATOM     72  C   UNL     1      -0.946   4.209  12.174  1.00  0.00     0.060 A 
BRANCH  72  73
ATOM     73  S   UNL     1      -0.920   5.890  12.830  1.00  0.00     0.124 S 
ATOM     74  O   UNL     1      -0.115   6.579  11.826  1.00  0.00    -0.237 OA
ATOM     75  O   UNL     1      -2.337   6.239  12.855  1.00  0.00    -0.237 OA
ATOM     76  O   UNL     1      -0.292   5.734  14.138  1.00  0.00    -0.744 OA
ENDBRANCH  72  73
ENDBRANCH  51  65
BRANCH  52  77
ATOM     77  C   UNL     1      -0.498  -7.462   7.093  1.00  0.00     0.058 A 
ATOM     78  C   UNL     1      -1.666  -8.118   6.675  1.00  0.00     0.135 A 
ATOM     79  C   UNL     1       0.718  -8.152   6.976  1.00  0.00     0.135 A 
ATOM     80  F   UNL     1      -2.854  -7.503   6.780  1.00  0.00    -0.206 F 
ATOM     81  C   UNL     1      -1.635  -9.418   6.184  1.00  0.00     0.059 A 
ATOM     82  C   UNL     1       0.778  -9.444   6.465  1.00  0.00     0.059 A 
ATOM     83  F   UNL     1       1.864  -7.564   7.355  1.00  0.00    -0.206 F 
ATOM     84  C   UNL     1      -0.407 -10.075   6.085  1.00  0.00     0.060 A 
BRANCH  84  85
ATOM     85  S   UNL     1      -0.374 -11.756   5.427  1.00  0.00     0.124 S 
ATOM     86  O   UNL     1      -0.936 -12.516   6.537  1.00  0.00    -0.237 OA
ATOM     87  O   UNL     1      -1.217 -11.638   4.242  1.00  0.00    -0.237 OA
ATOM     88  O   UNL     1       1.044 -11.983   5.160  1.00  0.00    -0.744 OA
ENDBRANCH  84  85
ENDBRANCH  52  77
BRANCH  64  89
ATOM     89  C   UNL     1      -3.278  -4.948  12.969  1.00  0.00     0.058 A 
ATOM     90  C   UNL     1      -2.667  -5.778  13.923  1.00  0.00     0.135 A 
ATOM     91  C   UNL     1      -4.652  -4.691  13.114  1.00  0.00     0.135 A 
ATOM     92  F   UNL     1      -1.358  -6.060  13.833  1.00  0.00    -0.206 F 
ATOM     93  C   UNL     1      -3.395  -6.354  14.961  1.00  0.00     0.059 A 
ATOM     94  C   UNL     1      -5.393  -5.232  14.160  1.00  0.00     0.059 A 
ATOM     95  F   UNL     1      -5.286  -3.893  12.240  1.00  0.00    -0.206 F 
ATOM     96  C   UNL     1      -4.759  -6.076  15.070  1.00  0.00     0.060 A 
BRANCH  96  97
ATOM     97  S   UNL     1      -5.689  -6.809  16.434  1.00  0.00     0.124 S 
ATOM     98  O   UNL     1      -5.833  -8.189  15.983  1.00  0.00    -0.237 OA
ATOM     99  O   UNL     1      -4.795  -6.604  17.570  1.00  0.00    -0.237 OA
ATOM    100  O   UNL     1      -6.920  -6.025  16.466  1.00  0.00    -0.744 OA
ENDBRANCH  96  97
ENDBRANCH  64  89
ENDBRANCH  38  39
ENDBRANCH  31  33
ENDBRANCH  30  31
ENDBRANCH  29  30
ENDBRANCH   1  29
TORSDOF 18
