REMARK SMILES CC(C)C[C@H](NC(=O)[C@H](Cc1ccccc1)NC(=O)CNC(=O)CNC(=O)OCc1ccccc1)C(=O)OCCOC(=O)c1ccc(-c2c3nc(c(-c4c(F)cc(S(=O)(=O)[O-])cc4F)c4ccc([nH]4)c(-c4c(F)cc(S(=O)(=O)[O-])cc4F)c4nc(c(-c5c(F)cc(S(=O)(=O)[O-])cc5F)c5ccc2[nH]5)C=C4)C=C3)cc1
REMARK SMILES IDX 5 1 4 2 2 3 1 4 3 5 36 6 37 7 38 8 39 9 40 10 41 11 42 12
REMARK SMILES IDX 43 13 44 14 45 15 109 16 46 17 108 18 47 19 48 20 49 21
REMARK SMILES IDX 102 22 50 23 107 24 101 25 103 26 51 27 106 28 100 29 99 30
REMARK SMILES IDX 52 32 86 33 65 34 85 35 66 36 69 37 84 38 104 39 67 40 68 41
REMARK SMILES IDX 83 43 105 44 70 45 53 46 54 47 63 48 55 49 56 50 62 51 64 52
REMARK SMILES IDX 57 53 58 54 59 55 60 56 61 57 87 58 88 59 97 60 89 61 90 62
REMARK SMILES IDX 96 63 98 64 91 65 92 66 93 67 94 68 95 69 71 70 72 71 81 72
REMARK SMILES IDX 73 73 74 74 80 75 82 76 75 77 76 78 77 79 78 80 79 81 6 82
REMARK SMILES IDX 7 83 8 85 9 86 17 87 18 88 19 90 20 91 21 92 22 93 23 95
REMARK SMILES IDX 24 96 25 97 26 98 27 100 28 101 29 102 30 103 31 104 35 105
REMARK SMILES IDX 32 106 34 107 33 108 10 109 11 110 12 111 16 112 13 113
REMARK SMILES IDX 15 114 14 115
REMARK H PARENT 103 31 69 42 6 84 17 89 21 94 25 99
REMARK Flexibility Score: inf
ROOT
ATOM      1  C   UNL     1      -1.780  -2.572  -2.686  1.00  0.00     0.192 C 
ENDROOT
BRANCH   1   2
ATOM      2  C   UNL     1      -2.993  -2.690  -1.724  1.00  0.00     0.040 C 
BRANCH   2   3
ATOM      3  C   UNL     1      -3.103  -1.672  -0.560  1.00  0.00    -0.015 C 
ATOM      4  C   UNL     1      -3.021  -0.207  -0.985  1.00  0.00     0.007 C 
ATOM      5  C   UNL     1      -4.422  -1.900   0.189  1.00  0.00     0.007 C 
ENDBRANCH   2   3
ENDBRANCH   1   2
BRANCH   1   6
ATOM      6  C   UNL     1      -2.112  -1.508  -3.749  1.00  0.00     0.328 C 
ATOM      7  O   UNL     1      -3.063  -1.634  -4.517  1.00  0.00    -0.250 OA
BRANCH   6   8
ATOM      8  O   UNL     1      -1.314  -0.410  -3.703  1.00  0.00    -0.461 OA
BRANCH   8   9
ATOM      9  C   UNL     1      -1.659   0.644  -4.627  1.00  0.00     0.274 C 
BRANCH   9  10
ATOM     10  C   UNL     1      -0.716   0.685  -5.831  1.00  0.00     0.275 C 
BRANCH  10  11
ATOM     11  O   UNL     1      -0.867  -0.468  -6.681  1.00  0.00    -0.458 OA
BRANCH  11  12
ATOM     12  C   UNL     1      -0.064  -1.500  -6.340  1.00  0.00     0.338 C 
ATOM     13  O   UNL     1       0.727  -1.530  -5.408  1.00  0.00    -0.246 OA
BRANCH  12  14
ATOM     14  C   UNL     1      -0.267  -2.663  -7.219  1.00  0.00     0.060 A 
ATOM     15  C   UNL     1      -0.999  -3.731  -6.704  1.00  0.00     0.016 A 
ATOM     16  C   UNL     1       0.584  -2.847  -8.315  1.00  0.00     0.016 A 
ATOM     17  C   UNL     1      -0.729  -5.020  -7.169  1.00  0.00     0.010 A 
ATOM     18  C   UNL     1       0.786  -4.138  -8.831  1.00  0.00     0.010 A 
ATOM     19  C   UNL     1       0.208  -5.253  -8.204  1.00  0.00    -0.014 A 
BRANCH  19  20
ATOM     20  C   UNL     1       0.607  -6.658  -8.546  1.00  0.00     0.031 A 
ATOM     21  C   UNL     1       2.037  -7.169  -8.436  1.00  0.00     0.074 A 
ATOM     22  C   UNL     1      -0.358  -7.533  -8.889  1.00  0.00     0.049 A 
ATOM     23  N   UNL     1       2.498  -8.388  -8.609  1.00  0.00    -0.248 NA
ATOM     24  C   UNL     1       3.082  -6.210  -8.056  1.00  0.00     0.031 C 
ATOM     25  C   UNL     1      -1.782  -7.214  -8.989  1.00  0.00     0.029 A 
ATOM     26  N   UNL     1      -0.291  -8.865  -9.211  1.00  0.00    -0.354 N 
ATOM     27  C   UNL     1       3.862  -8.344  -8.320  1.00  0.00     0.074 A 
ATOM     28  C   UNL     1       4.164  -6.975  -7.968  1.00  0.00     0.031 C 
ATOM     29  C   UNL     1      -2.458  -8.321  -9.316  1.00  0.00     0.029 A 
ATOM     30  C   UNL     1      -1.507  -9.399  -9.556  1.00  0.00     0.049 A 
ATOM     31  H   UNL     1       0.545  -9.385  -9.195  1.00  0.00     0.167 HD
ATOM     32  C   UNL     1       4.786  -9.339  -8.363  1.00  0.00     0.037 A 
ATOM     33  C   UNL     1      -1.831 -10.597 -10.076  1.00  0.00     0.037 A 
ATOM     34  C   UNL     1       4.523 -10.678  -8.831  1.00  0.00     0.049 A 
ATOM     35  C   UNL     1      -0.760 -11.611 -10.326  1.00  0.00     0.074 A 
ATOM     36  C   UNL     1       5.403 -11.742  -8.948  1.00  0.00     0.029 A 
ATOM     37  N   UNL     1       3.301 -11.122  -9.313  1.00  0.00    -0.354 N 
ATOM     38  N   UNL     1       0.515 -11.549 -10.030  1.00  0.00    -0.248 NA
ATOM     39  C   UNL     1      -1.169 -12.848 -11.000  1.00  0.00     0.031 C 
ATOM     40  C   UNL     1       4.733 -12.802  -9.573  1.00  0.00     0.029 A 
ATOM     41  C   UNL     1       3.419 -12.420  -9.787  1.00  0.00     0.049 A 
ATOM     42  H   UNL     1       2.471 -10.593  -9.318  1.00  0.00     0.167 HD
ATOM     43  C   UNL     1       1.062 -12.748 -10.469  1.00  0.00     0.074 A 
ATOM     44  C   UNL     1      -0.024 -13.516 -11.045  1.00  0.00     0.031 C 
ATOM     45  C   UNL     1       2.347 -13.173 -10.389  1.00  0.00     0.037 A 
BRANCH  32  46
ATOM     46  C   UNL     1       6.202  -9.008  -7.961  1.00  0.00     0.058 A 
ATOM     47  C   UNL     1       6.578  -8.875  -6.614  1.00  0.00     0.135 A 
ATOM     48  C   UNL     1       7.209  -8.881  -8.933  1.00  0.00     0.135 A 
ATOM     49  F   UNL     1       5.656  -8.974  -5.643  1.00  0.00    -0.206 F 
ATOM     50  C   UNL     1       7.897  -8.612  -6.247  1.00  0.00     0.059 A 
ATOM     51  C   UNL     1       8.535  -8.632  -8.589  1.00  0.00     0.059 A 
ATOM     52  F   UNL     1       6.907  -9.000 -10.235  1.00  0.00    -0.206 F 
ATOM     53  C   UNL     1       8.868  -8.486  -7.243  1.00  0.00     0.060 A 
BRANCH  53  54
ATOM     54  S   UNL     1      10.567  -8.108  -6.756  1.00  0.00     0.124 S 
ATOM     55  O   UNL     1      10.436  -6.726  -6.303  1.00  0.00    -0.237 OA
ATOM     56  O   UNL     1      10.820  -9.096  -5.713  1.00  0.00    -0.237 OA
ATOM     57  O   UNL     1      11.325  -8.293  -7.989  1.00  0.00    -0.744 OA
ENDBRANCH  53  54
ENDBRANCH  32  46
BRANCH  33  58
ATOM     58  C   UNL     1      -3.243 -10.841 -10.460  1.00  0.00     0.058 A 
ATOM     59  C   UNL     1      -4.057 -11.706  -9.721  1.00  0.00     0.135 A 
ATOM     60  C   UNL     1      -3.828 -10.122 -11.517  1.00  0.00     0.135 A 
ATOM     61  F   UNL     1      -3.537 -12.419  -8.711  1.00  0.00    -0.206 F 
ATOM     62  C   UNL     1      -5.413 -11.833  -9.999  1.00  0.00     0.059 A 
ATOM     63  C   UNL     1      -5.185 -10.209 -11.793  1.00  0.00     0.059 A 
ATOM     64  F   UNL     1      -3.086  -9.269 -12.242  1.00  0.00    -0.206 F 
ATOM     65  C   UNL     1      -5.970 -11.067 -11.026  1.00  0.00     0.060 A 
BRANCH  65  66
ATOM     66  S   UNL     1      -7.753 -11.139 -11.299  1.00  0.00     0.124 S 
ATOM     67  O   UNL     1      -7.888 -12.405 -12.011  1.00  0.00    -0.237 OA
ATOM     68  O   UNL     1      -8.276 -11.113  -9.937  1.00  0.00    -0.237 OA
ATOM     69  O   UNL     1      -8.019  -9.938 -12.085  1.00  0.00    -0.744 OA
ENDBRANCH  65  66
ENDBRANCH  33  58
BRANCH  45  70
ATOM     70  C   UNL     1       2.644 -14.543 -10.928  1.00  0.00     0.058 A 
ATOM     71  C   UNL     1       2.667 -14.804 -12.307  1.00  0.00     0.135 A 
ATOM     72  C   UNL     1       2.899 -15.611 -10.053  1.00  0.00     0.135 A 
ATOM     73  F   UNL     1       2.419 -13.819 -13.185  1.00  0.00    -0.206 F 
ATOM     74  C   UNL     1       2.896 -16.085 -12.800  1.00  0.00     0.059 A 
ATOM     75  C   UNL     1       3.155 -16.895 -10.524  1.00  0.00     0.059 A 
ATOM     76  F   UNL     1       2.897 -15.414  -8.725  1.00  0.00    -0.206 F 
ATOM     77  C   UNL     1       3.131 -17.126 -11.899  1.00  0.00     0.060 A 
BRANCH  77  78
ATOM     78  S   UNL     1       3.417 -18.787 -12.545  1.00  0.00     0.124 S 
ATOM     79  O   UNL     1       2.062 -19.206 -12.886  1.00  0.00    -0.237 OA
ATOM     80  O   UNL     1       4.306 -18.538 -13.676  1.00  0.00    -0.237 OA
ATOM     81  O   UNL     1       4.027 -19.488 -11.419  1.00  0.00    -0.744 OA
ENDBRANCH  77  78
ENDBRANCH  45  70
ENDBRANCH  19  20
ENDBRANCH  12  14
ENDBRANCH  11  12
ENDBRANCH  10  11
ENDBRANCH   9  10
ENDBRANCH   8   9
ENDBRANCH   6   8
ENDBRANCH   1   6
BRANCH   1  82
ATOM     82  N   UNL     1      -0.527  -2.482  -1.931  1.00  0.00    -0.341 N 
ATOM     83  C   UNL     1       0.341  -3.468  -1.547  1.00  0.00     0.243 C 
ATOM     84  H   UNL     1      -0.269  -1.572  -1.659  1.00  0.00     0.164 HD
ATOM     85  O   UNL     1       0.815  -3.357  -0.407  1.00  0.00    -0.273 OA
BRANCH  83  86
ATOM     86  C   UNL     1       0.823  -4.620  -2.492  1.00  0.00     0.175 C 
BRANCH  86  87
ATOM     87  N   UNL     1       1.842  -5.436  -1.778  1.00  0.00    -0.342 N 
ATOM     88  C   UNL     1       3.020  -6.029  -2.108  1.00  0.00     0.240 C 
ATOM     89  H   UNL     1       1.604  -5.583  -0.834  1.00  0.00     0.164 HD
ATOM     90  O   UNL     1       3.585  -6.653  -1.201  1.00  0.00    -0.273 OA
BRANCH  88  91
ATOM     91  C   UNL     1       3.767  -5.820  -3.438  1.00  0.00     0.216 C 
BRANCH  91  92
ATOM     92  N   UNL     1       2.931  -5.648  -4.593  1.00  0.00    -0.346 N 
ATOM     93  C   UNL     1       2.712  -4.521  -5.297  1.00  0.00     0.239 C 
ATOM     94  H   UNL     1       2.461  -6.453  -4.909  1.00  0.00     0.164 HD
ATOM     95  O   UNL     1       1.590  -4.424  -5.784  1.00  0.00    -0.273 OA
BRANCH  93  96
ATOM     96  C   UNL     1       3.681  -3.356  -5.373  1.00  0.00     0.219 C 
BRANCH  96  97
ATOM     97  N   UNL     1       3.237  -2.403  -4.387  1.00  0.00    -0.312 N 
ATOM     98  C   UNL     1       3.848  -2.243  -3.188  1.00  0.00     0.407 C 
ATOM     99  H   UNL     1       2.454  -1.843  -4.594  1.00  0.00     0.167 HD
ATOM    100  O   UNL     1       3.228  -1.858  -2.205  1.00  0.00    -0.225 OA
BRANCH  98 101
ATOM    101  O   UNL     1       5.157  -2.576  -3.254  1.00  0.00    -0.445 OA
BRANCH 101 102
ATOM    102  C   UNL     1       5.937  -2.576  -2.048  1.00  0.00     0.270 C 
BRANCH 102 103
ATOM    103  C   UNL     1       5.839  -1.288  -1.279  1.00  0.00    -0.011 A 
ATOM    104  C   UNL     1       5.440  -1.317   0.063  1.00  0.00     0.007 A 
ATOM    105  C   UNL     1       6.019  -0.055  -1.921  1.00  0.00     0.007 A 
ATOM    106  C   UNL     1       5.166  -0.130   0.737  1.00  0.00     0.000 A 
ATOM    107  C   UNL     1       5.737   1.131  -1.246  1.00  0.00     0.000 A 
ATOM    108  C   UNL     1       5.300   1.091   0.079  1.00  0.00     0.000 A 
ENDBRANCH 102 103
ENDBRANCH 101 102
ENDBRANCH  98 101
ENDBRANCH  96  97
ENDBRANCH  93  96
ENDBRANCH  91  92
ENDBRANCH  88  91
ENDBRANCH  86  87
BRANCH  86 109
ATOM    109  C   UNL     1      -0.239  -5.552  -3.099  1.00  0.00     0.070 C 
BRANCH 109 110
ATOM    110  C   UNL     1      -1.349  -6.112  -2.229  1.00  0.00    -0.045 A 
ATOM    111  C   UNL     1      -2.440  -6.726  -2.870  1.00  0.00     0.004 A 
ATOM    112  C   UNL     1      -1.343  -6.081  -0.829  1.00  0.00     0.004 A 
ATOM    113  C   UNL     1      -3.501  -7.261  -2.135  1.00  0.00     0.000 A 
ATOM    114  C   UNL     1      -2.410  -6.605  -0.094  1.00  0.00     0.000 A 
ATOM    115  C   UNL     1      -3.490  -7.192  -0.746  1.00  0.00     0.000 A 
ENDBRANCH 109 110
ENDBRANCH  86 109
ENDBRANCH  83  86
ENDBRANCH   1  82
TORSDOF 28
