REMARK SMILES Cc1ccc(C(=O)OCCOC(=O)c2ccc(-c3c4nc(c(-c5c(F)cc(S(=O)(=O)[O-])cc5F)c5ccc([nH]5)c(-c5c(F)cc(S(=O)(=O)[O-])cc5F)c5nc(c(-c6c(F)cc(S(=O)(=O)[O-])cc6F)c6ccc3[nH]6)C=C5)C=C4)cc2)c2c1N[C@H](c1ccccc1F)[C@H]1CC=C[C@@H]21
REMARK SMILES IDX 10 1 9 2 8 3 6 4 7 5 5 6 1 7 2 8 3 9 81 10 4 11 80 12 82 13
REMARK SMILES IDX 95 14 83 15 91 17 94 18 92 19 93 20 84 21 85 22 89 23 86 24
REMARK SMILES IDX 88 25 90 26 87 27 11 28 12 29 13 30 14 31 15 32 79 33 16 34
REMARK SMILES IDX 78 35 17 36 18 37 19 38 72 39 20 40 77 41 71 42 73 43 21 44
REMARK SMILES IDX 76 45 70 46 69 47 22 49 56 50 35 51 55 52 36 53 39 54 54 55
REMARK SMILES IDX 74 56 37 57 38 58 53 60 75 61 40 62 23 63 24 64 33 65 25 66
REMARK SMILES IDX 26 67 32 68 34 69 27 70 28 71 29 72 30 73 31 74 57 75 58 76
REMARK SMILES IDX 67 77 59 78 60 79 66 80 68 81 61 82 62 83 63 84 64 85 65 86
REMARK SMILES IDX 41 87 42 88 51 89 43 90 44 91 50 92 52 93 45 94 46 95 47 96
REMARK SMILES IDX 48 97 49 98
REMARK H PARENT 82 16 73 48 39 59
REMARK Flexibility Score: inf
ROOT
ATOM      1  C   UNL     1      -0.088  -6.948   4.582  1.00  0.00     0.275 C 
ENDROOT
BRANCH   1   2
ATOM      2  C   UNL     1       0.004  -6.981   3.059  1.00  0.00     0.275 C 
BRANCH   2   3
ATOM      3  O   UNL     1       0.302  -5.668   2.539  1.00  0.00    -0.458 OA
BRANCH   3   4
ATOM      4  C   UNL     1      -0.736  -5.001   1.956  1.00  0.00     0.338 C 
ATOM      5  O   UNL     1      -1.870  -5.418   1.869  1.00  0.00    -0.246 OA
BRANCH   4   6
ATOM      6  C   UNL     1      -0.251  -3.682   1.428  1.00  0.00     0.065 A 
ATOM      7  C   UNL     1       1.462  -0.013  -0.067  1.00  0.00     0.046 C 
ATOM      8  C   UNL     1       0.854  -1.267   0.507  1.00  0.00    -0.028 A 
ATOM      9  C   UNL     1       1.583  -2.458   0.420  1.00  0.00     0.006 A 
ATOM     10  C   UNL     1      -0.448  -1.272   1.057  1.00  0.00     0.042 A 
ATOM     11  C   UNL     1       1.046  -3.648   0.896  1.00  0.00     0.016 A 
ATOM     12  C   UNL     1      -1.037  -2.498   1.456  1.00  0.00    -0.003 A 
ATOM     13  N   UNL     1      -1.144  -0.080   1.173  1.00  0.00    -0.377 N 
ATOM     14  C   UNL     1      -2.450  -2.491   2.002  1.00  0.00     0.050 C 
ATOM     15  C   UNL     1      -2.588  -0.064   1.267  1.00  0.00     0.117 C 
ATOM     16  H   UNL     1      -0.648   0.770   1.191  1.00  0.00     0.161 HD
ATOM     17  C   UNL     1      -3.072  -1.104   2.284  1.00  0.00     0.031 C 
ATOM     18  C   UNL     1      -3.511  -3.122   1.141  1.00  0.00    -0.023 C 
ATOM     19  C   UNL     1      -4.594  -1.298   2.138  1.00  0.00     0.034 C 
ATOM     20  C   UNL     1      -4.688  -2.497   1.255  1.00  0.00    -0.030 C 
BRANCH  15  21
ATOM     21  C   UNL     1      -3.070   1.359   1.503  1.00  0.00     0.010 A 
ATOM     22  C   UNL     1      -3.354   2.172   0.390  1.00  0.00     0.009 A 
ATOM     23  C   UNL     1      -3.281   1.907   2.775  1.00  0.00     0.128 A 
ATOM     24  C   UNL     1      -3.876   3.458   0.552  1.00  0.00     0.001 A 
ATOM     25  C   UNL     1      -3.817   3.182   2.942  1.00  0.00     0.039 A 
ATOM     26  F   UNL     1      -2.974   1.217   3.880  1.00  0.00    -0.207 F 
ATOM     27  C   UNL     1      -4.120   3.958   1.828  1.00  0.00     0.003 A 
ENDBRANCH  15  21
ENDBRANCH   4   6
ENDBRANCH   3   4
ENDBRANCH   2   3
ENDBRANCH   1   2
BRANCH   1  28
ATOM     28  O   UNL     1      -1.255  -6.204   4.969  1.00  0.00    -0.458 OA
BRANCH  28  29
ATOM     29  C   UNL     1      -1.070  -5.184   5.842  1.00  0.00     0.338 C 
ATOM     30  O   UNL     1      -0.033  -4.905   6.421  1.00  0.00    -0.246 OA
BRANCH  29  31
ATOM     31  C   UNL     1      -2.325  -4.403   5.988  1.00  0.00     0.060 A 
ATOM     32  C   UNL     1      -3.272  -4.374   4.971  1.00  0.00     0.016 A 
ATOM     33  C   UNL     1      -2.516  -3.590   7.108  1.00  0.00     0.016 A 
ATOM     34  C   UNL     1      -4.309  -3.436   5.010  1.00  0.00     0.010 A 
ATOM     35  C   UNL     1      -3.623  -2.723   7.181  1.00  0.00     0.010 A 
ATOM     36  C   UNL     1      -4.505  -2.565   6.096  1.00  0.00    -0.014 A 
BRANCH  36  37
ATOM     37  C   UNL     1      -5.525  -1.446   6.056  1.00  0.00     0.031 A 
ATOM     38  C   UNL     1      -5.148  -0.035   6.497  1.00  0.00     0.074 A 
ATOM     39  C   UNL     1      -6.770  -1.606   5.546  1.00  0.00     0.049 A 
ATOM     40  N   UNL     1      -5.925   0.989   6.766  1.00  0.00    -0.248 NA
ATOM     41  C   UNL     1      -3.717   0.260   6.666  1.00  0.00     0.031 C 
ATOM     42  C   UNL     1      -7.313  -2.836   4.971  1.00  0.00     0.029 A 
ATOM     43  N   UNL     1      -7.801  -0.701   5.384  1.00  0.00    -0.354 N 
ATOM     44  C   UNL     1      -5.087   2.009   7.211  1.00  0.00     0.074 A 
ATOM     45  C   UNL     1      -3.739   1.487   7.170  1.00  0.00     0.031 C 
ATOM     46  C   UNL     1      -8.507  -2.582   4.415  1.00  0.00     0.029 A 
ATOM     47  C   UNL     1      -8.902  -1.215   4.735  1.00  0.00     0.049 A 
ATOM     48  H   UNL     1      -7.753   0.229   5.704  1.00  0.00     0.167 HD
ATOM     49  C   UNL     1      -5.401   3.267   7.611  1.00  0.00     0.037 A 
ATOM     50  C   UNL     1     -10.118  -0.692   4.473  1.00  0.00     0.037 A 
ATOM     51  C   UNL     1      -6.721   3.843   7.554  1.00  0.00     0.049 A 
ATOM     52  C   UNL     1     -10.476   0.671   5.002  1.00  0.00     0.074 A 
ATOM     53  C   UNL     1      -7.131   5.097   7.978  1.00  0.00     0.029 A 
ATOM     54  N   UNL     1      -7.832   3.231   6.999  1.00  0.00    -0.354 N 
ATOM     55  N   UNL     1      -9.712   1.552   5.598  1.00  0.00    -0.248 NA
ATOM     56  C   UNL     1     -11.883   1.084   4.875  1.00  0.00     0.031 C 
ATOM     57  C   UNL     1      -8.495   5.234   7.702  1.00  0.00     0.029 A 
ATOM     58  C   UNL     1      -8.925   4.080   7.072  1.00  0.00     0.049 A 
ATOM     59  H   UNL     1      -7.843   2.326   6.611  1.00  0.00     0.167 HD
ATOM     60  C   UNL     1     -10.545   2.620   5.917  1.00  0.00     0.074 A 
ATOM     61  C   UNL     1     -11.864   2.291   5.424  1.00  0.00     0.031 C 
ATOM     62  C   UNL     1     -10.240   3.763   6.577  1.00  0.00     0.037 A 
BRANCH  49  63
ATOM     63  C   UNL     1      -4.305   4.128   8.183  1.00  0.00     0.058 A 
ATOM     64  C   UNL     1      -3.351   4.759   7.372  1.00  0.00     0.135 A 
ATOM     65  C   UNL     1      -4.277   4.405   9.561  1.00  0.00     0.135 A 
ATOM     66  F   UNL     1      -3.326   4.525   6.051  1.00  0.00    -0.206 F 
ATOM     67  C   UNL     1      -2.403   5.627   7.905  1.00  0.00     0.059 A 
ATOM     68  C   UNL     1      -3.356   5.291  10.113  1.00  0.00     0.059 A 
ATOM     69  F   UNL     1      -5.173   3.836  10.382  1.00  0.00    -0.206 F 
ATOM     70  C   UNL     1      -2.418   5.893   9.277  1.00  0.00     0.060 A 
BRANCH  70  71
ATOM     71  S   UNL     1      -1.209   7.058   9.943  1.00  0.00     0.124 S 
ATOM     72  O   UNL     1       0.028   6.292   9.830  1.00  0.00    -0.237 OA
ATOM     73  O   UNL     1      -1.337   8.192   9.034  1.00  0.00    -0.237 OA
ATOM     74  O   UNL     1      -1.678   7.294  11.305  1.00  0.00    -0.744 OA
ENDBRANCH  70  71
ENDBRANCH  49  63
BRANCH  50  75
ATOM     75  C   UNL     1     -11.140  -1.492   3.739  1.00  0.00     0.058 A 
ATOM     76  C   UNL     1     -11.604  -1.089   2.478  1.00  0.00     0.135 A 
ATOM     77  C   UNL     1     -11.686  -2.664   4.288  1.00  0.00     0.135 A 
ATOM     78  F   UNL     1     -11.138   0.040   1.921  1.00  0.00    -0.206 F 
ATOM     79  C   UNL     1     -12.568  -1.818   1.787  1.00  0.00     0.059 A 
ATOM     80  C   UNL     1     -12.622  -3.429   3.602  1.00  0.00     0.059 A 
ATOM     81  F   UNL     1     -11.286  -3.092   5.496  1.00  0.00    -0.206 F 
ATOM     82  C   UNL     1     -13.065  -2.992   2.355  1.00  0.00     0.060 A 
BRANCH  82  83
ATOM     83  S   UNL     1     -14.271  -3.968   1.431  1.00  0.00     0.124 S 
ATOM     84  O   UNL     1     -15.483  -3.176   1.605  1.00  0.00    -0.237 OA
ATOM     85  O   UNL     1     -13.699  -3.974   0.088  1.00  0.00    -0.237 OA
ATOM     86  O   UNL     1     -14.253  -5.257   2.116  1.00  0.00    -0.744 OA
ENDBRANCH  82  83
ENDBRANCH  50  75
BRANCH  62  87
ATOM     87  C   UNL     1     -11.340   4.764   6.795  1.00  0.00     0.058 A 
ATOM     88  C   UNL     1     -12.341   4.554   7.756  1.00  0.00     0.135 A 
ATOM     89  C   UNL     1     -11.361   5.973   6.081  1.00  0.00     0.135 A 
ATOM     90  F   UNL     1     -12.371   3.412   8.461  1.00  0.00    -0.206 F 
ATOM     91  C   UNL     1     -13.332   5.501   7.993  1.00  0.00     0.059 A 
ATOM     92  C   UNL     1     -12.330   6.945   6.317  1.00  0.00     0.059 A 
ATOM     93  F   UNL     1     -10.422   6.228   5.156  1.00  0.00    -0.206 F 
ATOM     94  C   UNL     1     -13.316   6.696   7.271  1.00  0.00     0.060 A 
BRANCH  94  95
ATOM     95  S   UNL     1     -14.586   7.932   7.619  1.00  0.00     0.124 S 
ATOM     96  O   UNL     1     -15.774   7.304   7.048  1.00  0.00    -0.237 OA
ATOM     97  O   UNL     1     -14.551   8.014   9.076  1.00  0.00    -0.237 OA
ATOM     98  O   UNL     1     -14.108   9.120   6.918  1.00  0.00    -0.744 OA
ENDBRANCH  94  95
ENDBRANCH  62  87
ENDBRANCH  36  37
ENDBRANCH  29  31
ENDBRANCH  28  29
ENDBRANCH   1  28
TORSDOF 15
