REMARK SMILES Cc1cc(C(=O)OCCOC(=O)c2ccc(-c3c4nc(c(-c5c(F)cc(S(=O)(=O)[O-])cc5F)c5ccc([nH]5)c(-c5c(F)cc(S(=O)(=O)[O-])cc5F)c5nc(c(-c6c(F)cc(S(=O)(=O)[O-])cc6F)c6ccc3[nH]6)C=C5)C=C4)cc2)c2c(C)nn(-c3ccccc3)c2n1
REMARK SMILES IDX 9 1 8 2 7 3 5 4 6 5 4 6 1 7 2 8 3 9 91 10 90 11 79 12 83 13
REMARK SMILES IDX 80 14 82 15 81 16 84 17 85 18 89 19 86 20 88 21 87 22 10 23
REMARK SMILES IDX 11 24 12 25 13 26 14 27 78 28 15 29 77 30 16 31 17 32 18 33
REMARK SMILES IDX 71 34 19 35 76 36 70 37 72 38 20 39 75 40 69 41 68 42 21 44
REMARK SMILES IDX 55 45 34 46 54 47 35 48 38 49 53 50 73 51 36 52 37 53 52 55
REMARK SMILES IDX 74 56 39 57 22 58 23 59 32 60 24 61 25 62 31 63 33 64 26 65
REMARK SMILES IDX 27 66 28 67 29 68 30 69 56 70 57 71 66 72 58 73 59 74 65 75
REMARK SMILES IDX 67 76 60 77 61 78 62 79 63 80 64 81 40 82 41 83 50 84 42 85
REMARK SMILES IDX 43 86 49 87 51 88 44 89 45 90 46 91 47 92 48 93
REMARK H PARENT 72 43 38 54
REMARK Flexibility Score: inf
ROOT
ATOM      1  C   UNL     1      -2.498  -3.239  -5.178  1.00  0.00     0.275 C 
ENDROOT
BRANCH   1   2
ATOM      2  C   UNL     1      -0.997  -3.450  -5.019  1.00  0.00     0.275 C 
BRANCH   2   3
ATOM      3  O   UNL     1      -0.423  -2.465  -4.141  1.00  0.00    -0.458 OA
BRANCH   3   4
ATOM      4  C   UNL     1       0.086  -1.354  -4.737  1.00  0.00     0.339 C 
ATOM      5  O   UNL     1       0.332  -1.234  -5.928  1.00  0.00    -0.246 OA
BRANCH   4   6
ATOM      6  C   UNL     1       0.261  -0.269  -3.747  1.00  0.00     0.074 A 
ATOM      7  C   UNL     1       0.942   0.116  -0.038  1.00  0.00     0.067 C 
ATOM      8  C   UNL     1       0.709   0.448  -1.485  1.00  0.00     0.041 A 
ATOM      9  C   UNL     1       0.503  -0.577  -2.400  1.00  0.00     0.040 A 
ATOM     10  N   UNL     1       0.757   1.754  -1.815  1.00  0.00    -0.233 NA
ATOM     11  C   UNL     1       0.438   2.020  -3.103  1.00  0.00     0.164 A 
ATOM     12  C   UNL     1       0.153   1.093  -4.104  1.00  0.00     0.057 A 
ATOM     13  N   UNL     1       0.276   3.271  -3.667  1.00  0.00    -0.214 N 
ATOM     14  C   UNL     1      -0.202   1.899  -5.228  1.00  0.00     0.070 A 
ATOM     15  N   UNL     1      -0.208   3.205  -4.929  1.00  0.00    -0.171 NA
ATOM     16  C   UNL     1      -0.581   1.521  -6.613  1.00  0.00     0.069 C 
BRANCH  13  17
ATOM     17  C   UNL     1       0.650   4.524  -3.138  1.00  0.00     0.067 A 
ATOM     18  C   UNL     1       1.964   4.726  -2.702  1.00  0.00     0.028 A 
ATOM     19  C   UNL     1      -0.268   5.580  -3.161  1.00  0.00     0.028 A 
ATOM     20  C   UNL     1       2.366   6.008  -2.322  1.00  0.00     0.002 A 
ATOM     21  C   UNL     1       0.127   6.842  -2.718  1.00  0.00     0.002 A 
ATOM     22  C   UNL     1       1.447   7.060  -2.319  1.00  0.00     0.000 A 
ENDBRANCH  13  17
ENDBRANCH   4   6
ENDBRANCH   3   4
ENDBRANCH   2   3
ENDBRANCH   1   2
BRANCH   1  23
ATOM     23  O   UNL     1      -2.793  -1.964  -5.745  1.00  0.00    -0.458 OA
BRANCH  23  24
ATOM     24  C   UNL     1      -3.014  -0.988  -4.834  1.00  0.00     0.338 C 
ATOM     25  O   UNL     1      -2.703  -1.000  -3.655  1.00  0.00    -0.246 OA
BRANCH  24  26
ATOM     26  C   UNL     1      -3.878   0.038  -5.420  1.00  0.00     0.060 A 
ATOM     27  C   UNL     1      -4.105   1.195  -4.667  1.00  0.00     0.016 A 
ATOM     28  C   UNL     1      -4.656  -0.287  -6.539  1.00  0.00     0.016 A 
ATOM     29  C   UNL     1      -5.230   1.944  -4.939  1.00  0.00     0.010 A 
ATOM     30  C   UNL     1      -5.795   0.439  -6.784  1.00  0.00     0.010 A 
ATOM     31  C   UNL     1      -6.098   1.505  -5.942  1.00  0.00    -0.014 A 
BRANCH  31  32
ATOM     32  C   UNL     1      -7.329   2.232  -6.148  1.00  0.00     0.031 A 
ATOM     33  C   UNL     1      -7.177   3.407  -7.033  1.00  0.00     0.074 A 
ATOM     34  C   UNL     1      -8.502   1.796  -5.654  1.00  0.00     0.049 A 
ATOM     35  N   UNL     1      -7.193   4.653  -6.694  1.00  0.00    -0.248 NA
ATOM     36  C   UNL     1      -6.770   3.170  -8.427  1.00  0.00     0.031 C 
ATOM     37  C   UNL     1      -8.812   0.514  -5.017  1.00  0.00     0.029 A 
ATOM     38  N   UNL     1      -9.708   2.414  -5.697  1.00  0.00    -0.354 N 
ATOM     39  C   UNL     1      -7.021   5.362  -7.878  1.00  0.00     0.074 A 
ATOM     40  C   UNL     1      -6.546   4.414  -8.849  1.00  0.00     0.031 C 
ATOM     41  C   UNL     1     -10.156   0.374  -4.930  1.00  0.00     0.029 A 
ATOM     42  C   UNL     1     -10.789   1.602  -5.382  1.00  0.00     0.049 A 
ATOM     43  H   UNL     1      -9.809   3.365  -5.933  1.00  0.00     0.167 HD
ATOM     44  C   UNL     1      -7.533   6.614  -8.032  1.00  0.00     0.037 A 
ATOM     45  C   UNL     1     -12.098   1.921  -5.558  1.00  0.00     0.037 A 
ATOM     46  C   UNL     1      -7.859   7.198  -6.754  1.00  0.00     0.049 A 
ATOM     47  C   UNL     1     -12.171   3.407  -5.654  1.00  0.00     0.074 A 
ATOM     48  C   UNL     1      -7.130   7.505  -5.621  1.00  0.00     0.029 A 
ATOM     49  N   UNL     1      -9.177   7.189  -6.361  1.00  0.00    -0.354 N 
ATOM     50  N   UNL     1     -11.903   4.208  -4.657  1.00  0.00    -0.248 NA
ATOM     51  C   UNL     1     -12.051   4.007  -6.977  1.00  0.00     0.031 C 
ATOM     52  C   UNL     1      -7.989   7.184  -4.530  1.00  0.00     0.029 A 
ATOM     53  C   UNL     1      -9.212   6.763  -5.057  1.00  0.00     0.049 A 
ATOM     54  H   UNL     1      -9.952   7.440  -6.913  1.00  0.00     0.167 HD
ATOM     55  C   UNL     1     -11.193   5.262  -5.218  1.00  0.00     0.074 A 
ATOM     56  C   UNL     1     -11.377   5.118  -6.661  1.00  0.00     0.031 C 
ATOM     57  C   UNL     1     -10.290   5.982  -4.488  1.00  0.00     0.037 A 
BRANCH  44  58
ATOM     58  C   UNL     1      -8.087   7.147  -9.334  1.00  0.00     0.058 A 
ATOM     59  C   UNL     1      -8.502   8.493  -9.399  1.00  0.00     0.135 A 
ATOM     60  C   UNL     1      -8.489   6.337 -10.421  1.00  0.00     0.135 A 
ATOM     61  F   UNL     1      -8.173   9.359  -8.427  1.00  0.00    -0.206 F 
ATOM     62  C   UNL     1      -9.334   8.970 -10.412  1.00  0.00     0.059 A 
ATOM     63  C   UNL     1      -9.269   6.807 -11.469  1.00  0.00     0.059 A 
ATOM     64  F   UNL     1      -8.239   5.025 -10.481  1.00  0.00    -0.206 F 
ATOM     65  C   UNL     1      -9.729   8.110 -11.431  1.00  0.00     0.060 A 
BRANCH  65  66
ATOM     66  S   UNL     1     -10.914   8.676 -12.662  1.00  0.00     0.124 S 
ATOM     67  O   UNL     1     -12.113   8.852 -11.850  1.00  0.00    -0.237 OA
ATOM     68  O   UNL     1     -10.282   9.899 -13.147  1.00  0.00    -0.237 OA
ATOM     69  O   UNL     1     -10.956   7.575 -13.620  1.00  0.00    -0.744 OA
ENDBRANCH  65  66
ENDBRANCH  44  58
BRANCH  45  70
ATOM     70  C   UNL     1     -13.203   1.022  -5.988  1.00  0.00     0.058 A 
ATOM     71  C   UNL     1     -14.553   1.400  -5.876  1.00  0.00     0.135 A 
ATOM     72  C   UNL     1     -12.947  -0.127  -6.765  1.00  0.00     0.135 A 
ATOM     73  F   UNL     1     -14.890   2.499  -5.183  1.00  0.00    -0.206 F 
ATOM     74  C   UNL     1     -15.583   0.699  -6.519  1.00  0.00     0.059 A 
ATOM     75  C   UNL     1     -13.955  -0.846  -7.407  1.00  0.00     0.059 A 
ATOM     76  F   UNL     1     -11.692  -0.539  -6.997  1.00  0.00    -0.206 F 
ATOM     77  C   UNL     1     -15.271  -0.416  -7.297  1.00  0.00     0.060 A 
BRANCH  77  78
ATOM     78  S   UNL     1     -16.574  -1.242  -8.243  1.00  0.00     0.124 S 
ATOM     79  O   UNL     1     -17.418  -1.788  -7.186  1.00  0.00    -0.237 OA
ATOM     80  O   UNL     1     -17.145  -0.139  -9.008  1.00  0.00    -0.237 OA
ATOM     81  O   UNL     1     -15.846  -2.233  -9.032  1.00  0.00    -0.744 OA
ENDBRANCH  77  78
ENDBRANCH  45  70
BRANCH  57  82
ATOM     82  C   UNL     1     -10.249   5.777  -2.995  1.00  0.00     0.058 A 
ATOM     83  C   UNL     1      -9.851   4.579  -2.374  1.00  0.00     0.135 A 
ATOM     84  C   UNL     1     -10.441   6.892  -2.166  1.00  0.00     0.135 A 
ATOM     85  F   UNL     1      -9.546   3.496  -3.101  1.00  0.00    -0.206 F 
ATOM     86  C   UNL     1      -9.682   4.487  -0.991  1.00  0.00     0.059 A 
ATOM     87  C   UNL     1     -10.250   6.832  -0.788  1.00  0.00     0.059 A 
ATOM     88  F   UNL     1     -10.758   8.082  -2.704  1.00  0.00    -0.206 F 
ATOM     89  C   UNL     1      -9.880   5.622  -0.205  1.00  0.00     0.060 A 
BRANCH  89  90
ATOM     90  S   UNL     1      -9.580   5.524   1.573  1.00  0.00     0.124 S 
ATOM     91  O   UNL     1     -10.684   4.685   2.026  1.00  0.00    -0.237 OA
ATOM     92  O   UNL     1      -8.253   4.917   1.638  1.00  0.00    -0.237 OA
ATOM     93  O   UNL     1      -9.638   6.918   2.008  1.00  0.00    -0.744 OA
ENDBRANCH  89  90
ENDBRANCH  57  82
ENDBRANCH  31  32
ENDBRANCH  24  26
ENDBRANCH  23  24
ENDBRANCH   1  23
TORSDOF 15
