REMARK SMILES Cc1cccc(-n2ncc(C(=O)Nc3cccc(C(=O)OCCOC(=O)c4ccc(-c5c6nc(c(-c7c(F)cc(S(=O)(=O)[O-])cc7F)c7ccc([nH]7)c(-c7c(F)cc(S(=O)(=O)[O-])cc7F)c7nc(c(-c8c(F)cc(S(=O)(=O)[O-])cc8F)c8ccc5[nH]8)C=C7)C=C6)cc4)c3C)c2C)c1
REMARK SMILES IDX 22 1 21 2 19 3 20 4 18 5 14 6 15 7 93 8 16 9 94 10 17 11
REMARK SMILES IDX 13 12 11 13 12 14 10 16 7 17 8 18 95 19 9 20 96 21 6 22 1 23
REMARK SMILES IDX 2 24 3 25 97 26 4 27 5 28 23 29 24 30 25 31 26 32 27 33
REMARK SMILES IDX 28 34 92 35 29 36 91 37 30 38 31 39 32 40 85 41 33 42 90 43
REMARK SMILES IDX 84 44 86 45 34 46 89 47 83 48 82 49 35 51 69 52 48 53 68 54
REMARK SMILES IDX 49 55 52 56 67 57 87 58 50 59 51 60 66 62 88 63 53 64 36 65
REMARK SMILES IDX 37 66 46 67 38 68 39 69 45 70 47 71 40 72 41 73 42 74 43 75
REMARK SMILES IDX 44 76 70 77 71 78 80 79 72 80 73 81 79 82 81 83 74 84 75 85
REMARK SMILES IDX 76 86 77 87 78 88 54 89 55 90 64 91 56 92 57 93 63 94 65 95
REMARK SMILES IDX 58 96 59 97 60 98 61 99 62 100
REMARK H PARENT 13 15 86 50 52 61
REMARK Flexibility Score: inf
ROOT
ATOM      1  C   UNL     1      -3.492  11.241  -4.389  1.00  0.00     0.275 C 
ENDROOT
BRANCH   1   2
ATOM      2  O   UNL     1      -3.470   9.993  -3.658  1.00  0.00    -0.458 OA
BRANCH   2   3
ATOM      3  C   UNL     1      -4.652   9.434  -3.307  1.00  0.00     0.338 C 
ATOM      4  O   UNL     1      -5.763   9.886  -3.548  1.00  0.00    -0.246 OA
BRANCH   3   5
ATOM      5  C   UNL     1      -4.404   8.066  -2.776  1.00  0.00     0.065 A 
ATOM      6  C   UNL     1      -4.522   6.272  -1.125  1.00  0.00     0.045 A 
ATOM      7  C   UNL     1      -4.107   5.372  -2.113  1.00  0.00     0.026 A 
ATOM      8  C   UNL     1      -4.763   7.626  -1.476  1.00  0.00    -0.013 A 
ATOM      9  C   UNL     1      -3.756   5.812  -3.386  1.00  0.00     0.003 A 
ATOM     10  C   UNL     1      -5.370   8.561  -0.460  1.00  0.00     0.047 C 
ATOM     11  C   UNL     1      -3.871   7.159  -3.705  1.00  0.00     0.016 A 
BRANCH   6  12
ATOM     12  N   UNL     1      -4.760   5.842   0.201  1.00  0.00    -0.322 N 
ATOM     13  C   UNL     1      -4.329   4.746   0.923  1.00  0.00     0.259 C 
ATOM     14  O   UNL     1      -4.974   4.443   1.930  1.00  0.00    -0.269 OA
ATOM     15  H   UNL     1      -5.349   6.443   0.710  1.00  0.00     0.170 HD
BRANCH  13  16
ATOM     16  C   UNL     1      -3.123   4.010   0.553  1.00  0.00     0.081 A 
ATOM     17  N   UNL     1      -1.601   2.397   0.312  1.00  0.00    -0.237 N 
ATOM     18  N   UNL     1      -1.064   3.482  -0.295  1.00  0.00    -0.175 NA
ATOM     19  C   UNL     1      -2.767   2.733   0.988  1.00  0.00     0.054 A 
ATOM     20  C   UNL     1      -1.978   4.437  -0.150  1.00  0.00     0.149 A 
ATOM     21  C   UNL     1      -3.379   1.913   2.071  1.00  0.00     0.068 C 
BRANCH  17  22
ATOM     22  C   UNL     1      -0.954   1.136   0.189  1.00  0.00     0.065 A 
ATOM     23  C   UNL     1       2.613  -0.156  -0.163  1.00  0.00     0.044 C 
ATOM     24  C   UNL     1       1.116  -0.119  -0.065  1.00  0.00    -0.049 A 
ATOM     25  C   UNL     1       0.384  -1.312  -0.009  1.00  0.00     0.003 A 
ATOM     26  C   UNL     1       0.436   1.103   0.004  1.00  0.00     0.031 A 
ATOM     27  C   UNL     1      -1.005  -1.283   0.122  1.00  0.00     0.002 A 
ATOM     28  C   UNL     1      -1.676  -0.063   0.228  1.00  0.00     0.028 A 
ENDBRANCH  17  22
ENDBRANCH  13  16
ENDBRANCH   6  12
ENDBRANCH   3   5
ENDBRANCH   2   3
ENDBRANCH   1   2
BRANCH   1  29
ATOM     29  C   UNL     1      -4.018  12.486  -3.634  1.00  0.00     0.275 C 
BRANCH  29  30
ATOM     30  O   UNL     1      -3.249  12.829  -2.475  1.00  0.00    -0.458 OA
BRANCH  30  31
ATOM     31  C   UNL     1      -3.386  11.934  -1.476  1.00  0.00     0.338 C 
ATOM     32  O   UNL     1      -4.458  11.533  -1.015  1.00  0.00    -0.246 OA
BRANCH  31  33
ATOM     33  C   UNL     1      -2.135  11.168  -1.383  1.00  0.00     0.060 A 
ATOM     34  C   UNL     1      -2.071  10.016  -0.584  1.00  0.00     0.016 A 
ATOM     35  C   UNL     1      -1.140  11.450  -2.332  1.00  0.00     0.016 A 
ATOM     36  C   UNL     1      -0.968   9.190  -0.676  1.00  0.00     0.010 A 
ATOM     37  C   UNL     1      -0.162  10.538  -2.575  1.00  0.00     0.010 A 
ATOM     38  C   UNL     1      -0.011   9.516  -1.639  1.00  0.00    -0.014 A 
BRANCH  38  39
ATOM     39  C   UNL     1       1.395   9.287  -1.400  1.00  0.00     0.031 A 
ATOM     40  C   UNL     1       2.044   8.172  -2.064  1.00  0.00     0.074 A 
ATOM     41  C   UNL     1       1.953  10.318  -0.724  1.00  0.00     0.049 A 
ATOM     42  N   UNL     1       2.962   7.449  -1.539  1.00  0.00    -0.248 NA
ATOM     43  C   UNL     1       1.632   7.727  -3.395  1.00  0.00     0.031 C 
ATOM     44  C   UNL     1       3.324  10.691  -0.462  1.00  0.00     0.029 A 
ATOM     45  N   UNL     1       1.209  11.251   0.021  1.00  0.00    -0.354 N 
ATOM     46  C   UNL     1       3.547   6.793  -2.598  1.00  0.00     0.074 A 
ATOM     47  C   UNL     1       2.550   6.789  -3.643  1.00  0.00     0.031 C 
ATOM     48  C   UNL     1       3.328  11.515   0.611  1.00  0.00     0.029 A 
ATOM     49  C   UNL     1       1.961  11.629   1.128  1.00  0.00     0.049 A 
ATOM     50  H   UNL     1       0.308  11.581  -0.203  1.00  0.00     0.167 HD
ATOM     51  C   UNL     1       4.904   6.633  -2.603  1.00  0.00     0.037 A 
ATOM     52  C   UNL     1       1.490  11.150   2.321  1.00  0.00     0.037 A 
ATOM     53  C   UNL     1       5.487   7.262  -1.400  1.00  0.00     0.049 A 
ATOM     54  C   UNL     1       2.245   9.892   2.741  1.00  0.00     0.074 A 
ATOM     55  C   UNL     1       6.160   8.450  -1.157  1.00  0.00     0.029 A 
ATOM     56  N   UNL     1       5.037   6.850  -0.154  1.00  0.00    -0.354 N 
ATOM     57  N   UNL     1       3.193   9.339   2.025  1.00  0.00    -0.248 NA
ATOM     58  C   UNL     1       2.013   9.156   3.982  1.00  0.00     0.031 C 
ATOM     59  C   UNL     1       6.035   8.768   0.237  1.00  0.00     0.029 A 
ATOM     60  C   UNL     1       5.277   7.782   0.842  1.00  0.00     0.049 A 
ATOM     61  H   UNL     1       4.594   5.986   0.006  1.00  0.00     0.167 HD
ATOM     62  C   UNL     1       3.712   8.255   2.667  1.00  0.00     0.074 A 
ATOM     63  C   UNL     1       2.927   8.171   3.890  1.00  0.00     0.031 C 
ATOM     64  C   UNL     1       4.748   7.508   2.177  1.00  0.00     0.037 A 
BRANCH  51  65
ATOM     65  C   UNL     1       5.658   6.262  -3.866  1.00  0.00     0.058 A 
ATOM     66  C   UNL     1       6.967   6.723  -4.102  1.00  0.00     0.135 A 
ATOM     67  C   UNL     1       5.124   5.463  -4.903  1.00  0.00     0.135 A 
ATOM     68  F   UNL     1       7.653   7.389  -3.164  1.00  0.00    -0.206 F 
ATOM     69  C   UNL     1       7.642   6.512  -5.308  1.00  0.00     0.059 A 
ATOM     70  C   UNL     1       5.749   5.292  -6.143  1.00  0.00     0.059 A 
ATOM     71  F   UNL     1       3.989   4.769  -4.731  1.00  0.00    -0.206 F 
ATOM     72  C   UNL     1       7.014   5.823  -6.337  1.00  0.00     0.060 A 
BRANCH  72  73
ATOM     73  S   UNL     1       7.890   5.590  -7.896  1.00  0.00     0.124 S 
ATOM     74  O   UNL     1       8.297   6.951  -8.230  1.00  0.00    -0.237 OA
ATOM     75  O   UNL     1       8.963   4.683  -7.503  1.00  0.00    -0.237 OA
ATOM     76  O   UNL     1       6.875   5.016  -8.775  1.00  0.00    -0.744 OA
ENDBRANCH  72  73
ENDBRANCH  51  65
BRANCH  52  77
ATOM     77  C   UNL     1       0.042  11.522   2.571  1.00  0.00     0.058 A 
ATOM     78  C   UNL     1      -0.321  12.887   2.414  1.00  0.00     0.135 A 
ATOM     79  C   UNL     1      -1.030  10.632   2.738  1.00  0.00     0.135 A 
ATOM     80  F   UNL     1       0.634  13.822   2.274  1.00  0.00    -0.206 F 
ATOM     81  C   UNL     1      -1.642  13.327   2.325  1.00  0.00     0.059 A 
ATOM     82  C   UNL     1      -2.376  11.059   2.683  1.00  0.00     0.059 A 
ATOM     83  F   UNL     1      -0.806   9.318   2.884  1.00  0.00    -0.206 F 
ATOM     84  C   UNL     1      -2.671  12.403   2.445  1.00  0.00     0.060 A 
BRANCH  84  85
ATOM     85  S   UNL     1      -4.370  12.986   2.183  1.00  0.00     0.124 S 
ATOM     86  O   UNL     1      -4.618  13.736   3.410  1.00  0.00    -0.237 OA
ATOM     87  O   UNL     1      -4.228  13.797   0.978  1.00  0.00    -0.237 OA
ATOM     88  O   UNL     1      -5.128  11.746   2.047  1.00  0.00    -0.744 OA
ENDBRANCH  84  85
ENDBRANCH  52  77
BRANCH  64  89
ATOM     89  C   UNL     1       5.385   6.413   2.978  1.00  0.00     0.058 A 
ATOM     90  C   UNL     1       5.797   6.616   4.304  1.00  0.00     0.135 A 
ATOM     91  C   UNL     1       5.743   5.182   2.389  1.00  0.00     0.135 A 
ATOM     92  F   UNL     1       5.554   7.779   4.929  1.00  0.00    -0.206 F 
ATOM     93  C   UNL     1       6.480   5.635   5.019  1.00  0.00     0.059 A 
ATOM     94  C   UNL     1       6.484   4.221   3.058  1.00  0.00     0.059 A 
ATOM     95  F   UNL     1       5.358   4.854   1.148  1.00  0.00    -0.206 F 
ATOM     96  C   UNL     1       6.820   4.442   4.385  1.00  0.00     0.060 A 
BRANCH  96  97
ATOM     97  S   UNL     1       7.704   3.166   5.292  1.00  0.00     0.124 S 
ATOM     98  O   UNL     1       8.569   3.941   6.176  1.00  0.00    -0.237 OA
ATOM     99  O   UNL     1       6.603   2.462   5.940  1.00  0.00    -0.237 OA
ATOM    100  O   UNL     1       8.396   2.425   4.241  1.00  0.00    -0.744 OA
ENDBRANCH  96  97
ENDBRANCH  64  89
ENDBRANCH  38  39
ENDBRANCH  31  33
ENDBRANCH  30  31
ENDBRANCH  29  30
ENDBRANCH   1  29
TORSDOF 17
