REMARK SMILES Cc1ccc2occ(/C=N/NC(=O)CCC(=O)Nc3ccc(C(=O)OCCOC(=O)c4ccc(-c5c6nc(c(-c7c(F)cc(S(=O)(=O)[O-])cc7F)c7ccc([nH]7)c(-c7c(F)cc(S(=O)(=O)[O-])cc7F)c7nc(c(-c8c(F)cc(S(=O)(=O)[O-])cc8F)c8ccc5[nH]8)C=C7)C=C6)cc4)cc3)c(=O)c2c1
REMARK SMILES IDX 25 1 23 2 24 3 22 4 19 5 20 6 98 7 21 8 97 9 18 10 16 11
REMARK SMILES IDX 17 12 15 14 14 15 12 16 11 17 13 19 10 20 9 21 8 22 1 23
REMARK SMILES IDX 2 24 3 25 102 26 4 27 101 28 5 29 99 30 6 31 100 32 7 33
REMARK SMILES IDX 26 34 27 35 28 36 29 37 30 38 31 39 32 40 96 41 33 42 95 43
REMARK SMILES IDX 34 44 35 45 36 46 89 47 37 48 94 49 88 50 90 51 38 52 93 53
REMARK SMILES IDX 87 54 86 55 39 57 73 58 52 59 72 60 53 61 56 62 71 63 91 64
REMARK SMILES IDX 54 65 55 66 70 68 92 69 57 70 40 71 41 72 50 73 42 74 43 75
REMARK SMILES IDX 49 76 51 77 44 78 45 79 46 80 47 81 48 82 74 83 75 84 84 85
REMARK SMILES IDX 76 86 77 87 83 88 85 89 78 90 79 91 80 92 81 93 82 94 58 95
REMARK SMILES IDX 59 96 68 97 60 98 61 99 67 100 69 101 62 102 63 103 64 104
REMARK SMILES IDX 65 105 66 106
REMARK H PARENT 18 13 11 18 90 56 56 67
REMARK Flexibility Score: inf
ROOT
ATOM      1  O   UNL     1      10.957   2.777  -0.134  1.00  0.00    -0.458 OA
ENDROOT
BRANCH   1   2
ATOM      2  C   UNL     1      10.543   2.464  -1.382  1.00  0.00     0.338 C 
ATOM      3  O   UNL     1      11.169   2.580  -2.420  1.00  0.00    -0.246 OA
BRANCH   2   4
ATOM      4  C   UNL     1       9.131   2.071  -1.376  1.00  0.00     0.060 A 
ATOM      5  C   UNL     1       6.430   1.530  -1.836  1.00  0.00     0.041 A 
ATOM      6  C   UNL     1       7.361   0.487  -1.812  1.00  0.00     0.027 A 
ATOM      7  C   UNL     1       6.881   2.838  -1.670  1.00  0.00     0.027 A 
ATOM      8  C   UNL     1       8.708   0.753  -1.560  1.00  0.00     0.018 A 
ATOM      9  C   UNL     1       8.218   3.112  -1.415  1.00  0.00     0.018 A 
BRANCH   5  10
ATOM     10  N   UNL     1       5.087   1.166  -1.982  1.00  0.00    -0.326 N 
ATOM     11  C   UNL     1       3.922   1.804  -1.700  1.00  0.00     0.224 C 
ATOM     12  O   UNL     1       2.870   1.197  -1.942  1.00  0.00    -0.275 OA
ATOM     13  H   UNL     1       4.961   0.269  -2.366  1.00  0.00     0.169 HD
BRANCH  11  14
ATOM     14  C   UNL     1       3.849   3.201  -1.125  1.00  0.00     0.110 C 
BRANCH  14  15
ATOM     15  C   UNL     1       4.250   3.499   0.322  1.00  0.00     0.112 C 
BRANCH  15  16
ATOM     16  C   UNL     1       5.463   2.878   1.017  1.00  0.00     0.240 C 
ATOM     17  N   UNL     1       5.530   1.536   1.310  1.00  0.00    -0.247 N 
ATOM     18  H   UNL     1       6.313   1.236   1.826  1.00  0.00     0.193 HD
ATOM     19  O   UNL     1       6.393   3.609   1.378  1.00  0.00    -0.273 OA
BRANCH  17  20
ATOM     20  N   UNL     1       4.627   0.580   0.962  1.00  0.00    -0.180 NA
ATOM     21  C   UNL     1       3.428   0.797   1.385  1.00  0.00     0.148 C 
BRANCH  21  22
ATOM     22  C   UNL     1       2.233   0.116   0.876  1.00  0.00     0.078 A 
ATOM     23  C   UNL     1      -3.881   0.840  -0.093  1.00  0.00     0.044 C 
ATOM     24  C   UNL     1      -2.570   0.116  -0.047  1.00  0.00    -0.050 A 
ATOM     25  C   UNL     1      -2.485  -1.273  -0.223  1.00  0.00     0.007 A 
ATOM     26  C   UNL     1      -1.400   0.844   0.177  1.00  0.00     0.019 A 
ATOM     27  C   UNL     1      -1.247  -1.928  -0.172  1.00  0.00     0.048 A 
ATOM     28  C   UNL     1      -0.178   0.177   0.270  1.00  0.00     0.066 A 
ATOM     29  C   UNL     1      -0.089  -1.200   0.083  1.00  0.00     0.137 A 
ATOM     30  C   UNL     1       1.018   0.919   0.664  1.00  0.00     0.201 A 
ATOM     31  O   UNL     1       1.099  -1.888   0.164  1.00  0.00    -0.463 OA
ATOM     32  O   UNL     1       0.999   2.130   0.857  1.00  0.00    -0.288 OA
ATOM     33  C   UNL     1       2.208  -1.189   0.593  1.00  0.00     0.209 A 
ENDBRANCH  21  22
ENDBRANCH  17  20
ENDBRANCH  15  16
ENDBRANCH  14  15
ENDBRANCH  11  14
ENDBRANCH   5  10
ENDBRANCH   2   4
ENDBRANCH   1   2
BRANCH   1  34
ATOM     34  C   UNL     1      12.286   3.324  -0.085  1.00  0.00     0.275 C 
BRANCH  34  35
ATOM     35  C   UNL     1      13.331   2.256   0.238  1.00  0.00     0.275 C 
BRANCH  35  36
ATOM     36  O   UNL     1      13.399   1.245  -0.787  1.00  0.00    -0.458 OA
BRANCH  36  37
ATOM     37  C   UNL     1      12.695   0.125  -0.513  1.00  0.00     0.338 C 
ATOM     38  O   UNL     1      12.064  -0.119   0.506  1.00  0.00    -0.246 OA
BRANCH  37  39
ATOM     39  C   UNL     1      12.676  -0.799  -1.655  1.00  0.00     0.060 A 
ATOM     40  C   UNL     1      11.685  -0.625  -2.613  1.00  0.00     0.016 A 
ATOM     41  C   UNL     1      13.405  -1.984  -1.622  1.00  0.00     0.016 A 
ATOM     42  C   UNL     1      11.283  -1.689  -3.406  1.00  0.00     0.010 A 
ATOM     43  C   UNL     1      13.107  -2.998  -2.543  1.00  0.00     0.010 A 
ATOM     44  C   UNL     1      12.000  -2.888  -3.407  1.00  0.00    -0.014 A 
BRANCH  44  45
ATOM     45  C   UNL     1      11.551  -4.023  -4.265  1.00  0.00     0.031 A 
ATOM     46  C   UNL     1      11.321  -5.385  -3.657  1.00  0.00     0.074 A 
ATOM     47  C   UNL     1      11.311  -3.833  -5.581  1.00  0.00     0.049 A 
ATOM     48  N   UNL     1      11.158  -6.539  -4.251  1.00  0.00    -0.248 NA
ATOM     49  C   UNL     1      11.290  -5.463  -2.187  1.00  0.00     0.031 C 
ATOM     50  C   UNL     1      11.422  -2.557  -6.294  1.00  0.00     0.029 A 
ATOM     51  N   UNL     1      10.915  -4.714  -6.559  1.00  0.00    -0.354 N 
ATOM     52  C   UNL     1      11.087  -7.486  -3.234  1.00  0.00     0.074 A 
ATOM     53  C   UNL     1      11.220  -6.771  -1.984  1.00  0.00     0.031 C 
ATOM     54  C   UNL     1      11.053  -2.724  -7.571  1.00  0.00     0.029 A 
ATOM     55  C   UNL     1      10.809  -4.139  -7.805  1.00  0.00     0.049 A 
ATOM     56  H   UNL     1      10.725  -5.664  -6.384  1.00  0.00     0.167 HD
ATOM     57  C   UNL     1      10.931  -8.828  -3.341  1.00  0.00     0.037 A 
ATOM     58  C   UNL     1      10.610  -4.690  -9.017  1.00  0.00     0.037 A 
ATOM     59  C   UNL     1      10.729  -9.511  -4.594  1.00  0.00     0.049 A 
ATOM     60  C   UNL     1      10.473  -6.182  -9.116  1.00  0.00     0.074 A 
ATOM     61  C   UNL     1      10.552 -10.866  -4.818  1.00  0.00     0.029 A 
ATOM     62  N   UNL     1      10.653  -8.890  -5.833  1.00  0.00    -0.354 N 
ATOM     63  N   UNL     1      10.497  -7.075  -8.155  1.00  0.00    -0.248 NA
ATOM     64  C   UNL     1      10.303  -6.744 -10.461  1.00  0.00     0.031 C 
ATOM     65  C   UNL     1      10.412 -11.068  -6.195  1.00  0.00     0.029 A 
ATOM     66  C   UNL     1      10.442  -9.834  -6.825  1.00  0.00     0.049 A 
ATOM     67  H   UNL     1      10.737  -7.921  -5.985  1.00  0.00     0.167 HD
ATOM     68  C   UNL     1      10.321  -8.305  -8.778  1.00  0.00     0.074 A 
ATOM     69  C   UNL     1      10.177  -8.036 -10.195  1.00  0.00     0.031 C 
ATOM     70  C   UNL     1      10.285  -9.543  -8.228  1.00  0.00     0.037 A 
BRANCH  57  71
ATOM     71  C   UNL     1      11.015  -9.653  -2.084  1.00  0.00     0.058 A 
ATOM     72  C   UNL     1      10.011  -9.640  -1.104  1.00  0.00     0.135 A 
ATOM     73  C   UNL     1      12.112 -10.510  -1.880  1.00  0.00     0.135 A 
ATOM     74  F   UNL     1       8.950  -8.829  -1.234  1.00  0.00    -0.206 F 
ATOM     75  C   UNL     1      10.102 -10.427   0.042  1.00  0.00     0.059 A 
ATOM     76  C   UNL     1      12.208 -11.328  -0.758  1.00  0.00     0.059 A 
ATOM     77  F   UNL     1      13.104 -10.564  -2.783  1.00  0.00    -0.206 F 
ATOM     78  C   UNL     1      11.203 -11.269   0.205  1.00  0.00     0.060 A 
BRANCH  78  79
ATOM     79  S   UNL     1      11.299 -12.293   1.690  1.00  0.00     0.124 S 
ATOM     80  O   UNL     1      11.594 -11.296   2.713  1.00  0.00    -0.237 OA
ATOM     81  O   UNL     1       9.965 -12.884   1.747  1.00  0.00    -0.237 OA
ATOM     82  O   UNL     1      12.382 -13.226   1.392  1.00  0.00    -0.744 OA
ENDBRANCH  78  79
ENDBRANCH  57  71
BRANCH  58  83
ATOM     83  C   UNL     1      10.595  -3.831 -10.234  1.00  0.00     0.058 A 
ATOM     84  C   UNL     1       9.427  -3.664 -10.991  1.00  0.00     0.135 A 
ATOM     85  C   UNL     1      11.748  -3.147 -10.655  1.00  0.00     0.135 A 
ATOM     86  F   UNL     1       8.302  -4.303 -10.638  1.00  0.00    -0.206 F 
ATOM     87  C   UNL     1       9.404  -2.862 -12.128  1.00  0.00     0.059 A 
ATOM     88  C   UNL     1      11.741  -2.311 -11.767  1.00  0.00     0.059 A 
ATOM     89  F   UNL     1      12.891  -3.260  -9.960  1.00  0.00    -0.206 F 
ATOM     90  C   UNL     1      10.566  -2.186 -12.505  1.00  0.00     0.060 A 
BRANCH  90  91
ATOM     91  S   UNL     1      10.516  -1.115 -13.958  1.00  0.00     0.124 S 
ATOM     92  O   UNL     1      10.476  -2.092 -15.040  1.00  0.00    -0.237 OA
ATOM     93  O   UNL     1       9.290  -0.355 -13.737  1.00  0.00    -0.237 OA
ATOM     94  O   UNL     1      11.751  -0.344 -13.849  1.00  0.00    -0.744 OA
ENDBRANCH  90  91
ENDBRANCH  58  83
BRANCH  70  95
ATOM     95  C   UNL     1      10.016 -10.694  -9.156  1.00  0.00     0.058 A 
ATOM     96  C   UNL     1      10.974 -11.149 -10.074  1.00  0.00     0.135 A 
ATOM     97  C   UNL     1       8.784 -11.367  -9.102  1.00  0.00     0.135 A 
ATOM     98  F   UNL     1      12.164 -10.534 -10.171  1.00  0.00    -0.206 F 
ATOM     99  C   UNL     1      10.709 -12.211 -10.932  1.00  0.00     0.059 A 
ATOM    100  C   UNL     1       8.509 -12.451  -9.928  1.00  0.00     0.059 A 
ATOM    101  F   UNL     1       7.837 -10.978  -8.234  1.00  0.00    -0.206 F 
ATOM    102  C   UNL     1       9.472 -12.855 -10.851  1.00  0.00     0.060 A 
BRANCH 102 103
ATOM    103  S   UNL     1       9.146 -14.243 -11.957  1.00  0.00     0.124 S 
ATOM    104  O   UNL     1       8.942 -13.562 -13.231  1.00  0.00    -0.237 OA
ATOM    105  O   UNL     1      10.372 -15.027 -11.846  1.00  0.00    -0.237 OA
ATOM    106  O   UNL     1       7.957 -14.865 -11.380  1.00  0.00    -0.744 OA
ENDBRANCH 102 103
ENDBRANCH  70  95
ENDBRANCH  44  45
ENDBRANCH  37  39
ENDBRANCH  36  37
ENDBRANCH  35  36
ENDBRANCH  34  35
ENDBRANCH   1  34
TORSDOF 20
