REMARK SMILES CC(C)C[C@@H](C[NH3+])C(=O)N1CCOC[C@H]1C(=O)OCCOC(=O)c1ccc(-c2c3nc(c(-c4c(F)cc(S(=O)(=O)[O-])cc4F)c4ccc([nH]4)c(-c4c(F)cc(S(=O)(=O)[O-])cc4F)c4nc(c(-c5c(F)cc(S(=O)(=O)[O-])cc5F)c5ccc2[nH]5)C=C4)C=C3)cc1
REMARK SMILES IDX 19 1 18 2 16 3 17 4 15 5 10 6 11 7 12 8 14 9 13 10 8 11 9 12
REMARK SMILES IDX 5 13 4 14 2 15 1 16 3 17 6 18 7 19 20 23 21 24 22 25 23 26
REMARK SMILES IDX 24 27 25 28 89 29 26 30 88 31 27 32 28 33 29 34 82 35 30 36
REMARK SMILES IDX 87 37 81 38 83 39 31 40 86 41 80 42 79 43 32 45 66 46 45 47
REMARK SMILES IDX 65 48 46 49 49 50 64 51 84 52 47 53 48 54 63 56 85 57 50 58
REMARK SMILES IDX 33 59 34 60 43 61 35 62 36 63 42 64 44 65 37 66 38 67 39 68
REMARK SMILES IDX 40 69 41 70 67 71 68 72 77 73 69 74 70 75 76 76 78 77 71 78
REMARK SMILES IDX 72 79 73 80 74 81 75 82 51 83 52 84 61 85 53 86 54 87 60 88
REMARK SMILES IDX 62 89 55 90 56 91 57 92 58 93 59 94
REMARK H PARENT 7 20 7 21 7 22 83 44 49 55
REMARK Flexibility Score: inf
ROOT
ATOM      1  C   UNL     1      -7.511  -0.899   3.411  1.00  0.00     0.274 C 
ENDROOT
BRANCH   1   2
ATOM      2  O   UNL     1      -6.235  -1.414   2.990  1.00  0.00    -0.460 OA
BRANCH   2   3
ATOM      3  C   UNL     1      -6.226  -2.590   2.311  1.00  0.00     0.331 C 
ATOM      4  O   UNL     1      -7.228  -3.263   2.087  1.00  0.00    -0.250 OA
BRANCH   3   5
ATOM      5  C   UNL     1      -4.812  -3.065   1.933  1.00  0.00     0.221 C 
ATOM      6  N   UNL     1      -3.678  -2.110   1.988  1.00  0.00    -0.324 N 
ATOM      7  C   UNL     1      -3.287  -1.745   3.346  1.00  0.00     0.149 C 
ATOM      8  C   UNL     1      -3.026  -2.992   4.191  1.00  0.00     0.181 C 
ATOM      9  C   UNL     1      -4.478  -4.276   2.821  1.00  0.00     0.197 C 
ATOM     10  O   UNL     1      -4.155  -3.881   4.170  1.00  0.00    -0.377 OA
BRANCH   6  11
ATOM     11  C   UNL     1      -3.096  -1.736   0.793  1.00  0.00     0.232 C 
ATOM     12  O   UNL     1      -3.763  -1.796  -0.251  1.00  0.00    -0.274 OA
BRANCH  11  13
ATOM     13  C   UNL     1      -1.573  -1.533   0.623  1.00  0.00     0.134 C 
BRANCH  13  14
ATOM     14  C   UNL     1      -0.791  -0.661   1.612  1.00  0.00     0.022 C 
BRANCH  14  15
ATOM     15  C   UNL     1       0.704  -0.418   1.301  1.00  0.00    -0.016 C 
ATOM     16  C   UNL     1       0.969   0.210  -0.064  1.00  0.00     0.007 C 
ATOM     17  C   UNL     1       1.306   0.462   2.404  1.00  0.00     0.007 C 
ENDBRANCH  14  15
ENDBRANCH  13  14
BRANCH  13  18
ATOM     18  C   UNL     1      -0.952  -2.922   0.365  1.00  0.00     0.272 C 
BRANCH  18  19
ATOM     19  N   UNL     1      -0.709  -3.709   1.577  1.00  0.00    -0.357 N 
ATOM     20  H   UNL     1      -0.035  -3.223   2.168  1.00  0.00     0.344 HD
ATOM     21  H   UNL     1      -0.338  -4.624   1.319  1.00  0.00     0.344 HD
ATOM     22  H   UNL     1      -1.584  -3.829   2.086  1.00  0.00     0.344 HD
ENDBRANCH  18  19
ENDBRANCH  13  18
ENDBRANCH  11  13
ENDBRANCH   6  11
ENDBRANCH   3   5
ENDBRANCH   2   3
ENDBRANCH   1   2
BRANCH   1  23
ATOM     23  C   UNL     1      -7.837   0.373   2.633  1.00  0.00     0.275 C 
BRANCH  23  24
ATOM     24  O   UNL     1      -8.057   0.064   1.248  1.00  0.00    -0.458 OA
BRANCH  24  25
ATOM     25  C   UNL     1      -6.957   0.143   0.458  1.00  0.00     0.338 C 
ATOM     26  O   UNL     1      -5.850   0.540   0.771  1.00  0.00    -0.246 OA
BRANCH  25  27
ATOM     27  C   UNL     1      -7.305  -0.423  -0.852  1.00  0.00     0.060 A 
ATOM     28  C   UNL     1      -6.812  -1.681  -1.202  1.00  0.00     0.016 A 
ATOM     29  C   UNL     1      -8.101   0.301  -1.738  1.00  0.00     0.016 A 
ATOM     30  C   UNL     1      -7.096  -2.222  -2.453  1.00  0.00     0.010 A 
ATOM     31  C   UNL     1      -8.400  -0.248  -2.986  1.00  0.00     0.010 A 
ATOM     32  C   UNL     1      -7.892  -1.507  -3.354  1.00  0.00    -0.014 A 
BRANCH  32  33
ATOM     33  C   UNL     1      -8.167  -2.044  -4.707  1.00  0.00     0.031 A 
ATOM     34  C   UNL     1      -7.539  -1.385  -5.899  1.00  0.00     0.074 A 
ATOM     35  C   UNL     1      -9.007  -3.084  -4.860  1.00  0.00     0.049 A 
ATOM     36  N   UNL     1      -7.796  -1.555  -7.169  1.00  0.00    -0.248 NA
ATOM     37  C   UNL     1      -6.489  -0.390  -5.624  1.00  0.00     0.031 C 
ATOM     38  C   UNL     1      -9.640  -3.828  -3.769  1.00  0.00     0.029 A 
ATOM     39  N   UNL     1      -9.496  -3.678  -5.997  1.00  0.00    -0.354 N 
ATOM     40  C   UNL     1      -6.972  -0.663  -7.844  1.00  0.00     0.074 A 
ATOM     41  C   UNL     1      -6.206   0.049  -6.843  1.00  0.00     0.031 C 
ATOM     42  C   UNL     1     -10.451  -4.763  -4.290  1.00  0.00     0.029 A 
ATOM     43  C   UNL     1     -10.439  -4.646  -5.745  1.00  0.00     0.049 A 
ATOM     44  H   UNL     1      -9.200  -3.434  -6.904  1.00  0.00     0.167 HD
ATOM     45  C   UNL     1      -6.872  -0.459  -9.178  1.00  0.00     0.037 A 
ATOM     46  C   UNL     1     -11.238  -5.325  -6.591  1.00  0.00     0.037 A 
ATOM     47  C   UNL     1      -7.620  -1.200 -10.160  1.00  0.00     0.049 A 
ATOM     48  C   UNL     1     -11.136  -5.054  -8.068  1.00  0.00     0.074 A 
ATOM     49  C   UNL     1      -7.567  -1.098 -11.539  1.00  0.00     0.029 A 
ATOM     50  N   UNL     1      -8.556  -2.182  -9.867  1.00  0.00    -0.354 N 
ATOM     51  N   UNL     1     -10.354  -4.209  -8.698  1.00  0.00    -0.248 NA
ATOM     52  C   UNL     1     -12.026  -5.821  -8.951  1.00  0.00     0.031 C 
ATOM     53  C   UNL     1      -8.502  -1.986 -12.079  1.00  0.00     0.029 A 
ATOM     54  C   UNL     1      -9.103  -2.678 -11.039  1.00  0.00     0.049 A 
ATOM     55  H   UNL     1      -8.796  -2.482  -8.961  1.00  0.00     0.167 HD
ATOM     56  C   UNL     1     -10.642  -4.359 -10.050  1.00  0.00     0.074 A 
ATOM     57  C   UNL     1     -11.663  -5.381 -10.148  1.00  0.00     0.031 C 
ATOM     58  C   UNL     1     -10.109  -3.708 -11.114  1.00  0.00     0.037 A 
BRANCH  45  59
ATOM     59  C   UNL     1      -5.951   0.627  -9.656  1.00  0.00     0.058 A 
ATOM     60  C   UNL     1      -4.555   0.487  -9.626  1.00  0.00     0.135 A 
ATOM     61  C   UNL     1      -6.479   1.810 -10.201  1.00  0.00     0.135 A 
ATOM     62  F   UNL     1      -3.997  -0.615  -9.100  1.00  0.00    -0.206 F 
ATOM     63  C   UNL     1      -3.714   1.488 -10.104  1.00  0.00     0.059 A 
ATOM     64  C   UNL     1      -5.658   2.813 -10.706  1.00  0.00     0.059 A 
ATOM     65  F   UNL     1      -7.807   1.997 -10.251  1.00  0.00    -0.206 F 
ATOM     66  C   UNL     1      -4.275   2.648 -10.644  1.00  0.00     0.060 A 
BRANCH  66  67
ATOM     67  S   UNL     1      -3.172   3.928 -11.279  1.00  0.00     0.124 S 
ATOM     68  O   UNL     1      -2.645   4.498 -10.043  1.00  0.00    -0.237 OA
ATOM     69  O   UNL     1      -2.223   3.157 -12.075  1.00  0.00    -0.237 OA
ATOM     70  O   UNL     1      -4.062   4.798 -12.041  1.00  0.00    -0.744 OA
ENDBRANCH  66  67
ENDBRANCH  45  59
BRANCH  46  71
ATOM     71  C   UNL     1     -12.235  -6.292  -6.056  1.00  0.00     0.058 A 
ATOM     72  C   UNL     1     -12.090  -7.671  -6.261  1.00  0.00     0.135 A 
ATOM     73  C   UNL     1     -13.349  -5.853  -5.323  1.00  0.00     0.135 A 
ATOM     74  F   UNL     1     -11.048  -8.139  -6.964  1.00  0.00    -0.206 F 
ATOM     75  C   UNL     1     -13.022  -8.582  -5.772  1.00  0.00     0.059 A 
ATOM     76  C   UNL     1     -14.280  -6.745  -4.801  1.00  0.00     0.059 A 
ATOM     77  F   UNL     1     -13.528  -4.544  -5.089  1.00  0.00    -0.206 F 
ATOM     78  C   UNL     1     -14.114  -8.108  -5.041  1.00  0.00     0.060 A 
BRANCH  78  79
ATOM     79  S   UNL     1     -15.297  -9.300  -4.376  1.00  0.00     0.124 S 
ATOM     80  O   UNL     1     -16.032  -9.684  -5.576  1.00  0.00    -0.237 OA
ATOM     81  O   UNL     1     -14.421 -10.322  -3.811  1.00  0.00    -0.237 OA
ATOM     82  O   UNL     1     -16.047  -8.518  -3.398  1.00  0.00    -0.744 OA
ENDBRANCH  78  79
ENDBRANCH  46  71
BRANCH  58  83
ATOM     83  C   UNL     1     -10.587  -4.108 -12.481  1.00  0.00     0.058 A 
ATOM     84  C   UNL     1     -11.844  -3.716 -12.966  1.00  0.00     0.135 A 
ATOM     85  C   UNL     1      -9.743  -4.827 -13.344  1.00  0.00     0.135 A 
ATOM     86  F   UNL     1     -12.691  -3.035 -12.178  1.00  0.00    -0.206 F 
ATOM     87  C   UNL     1     -12.254  -4.034 -14.257  1.00  0.00     0.059 A 
ATOM     88  C   UNL     1     -10.122  -5.133 -14.646  1.00  0.00     0.059 A 
ATOM     89  F   UNL     1      -8.527  -5.216 -12.930  1.00  0.00    -0.206 F 
ATOM     90  C   UNL     1     -11.383  -4.738 -15.092  1.00  0.00     0.060 A 
BRANCH  90  91
ATOM     91  S   UNL     1     -11.903  -5.095 -16.784  1.00  0.00     0.124 S 
ATOM     92  O   UNL     1     -12.867  -6.170 -16.575  1.00  0.00    -0.237 OA
ATOM     93  O   UNL     1     -12.462  -3.817 -17.216  1.00  0.00    -0.237 OA
ATOM     94  O   UNL     1     -10.662  -5.484 -17.446  1.00  0.00    -0.744 OA
ENDBRANCH  90  91
ENDBRANCH  58  83
ENDBRANCH  32  33
ENDBRANCH  25  27
ENDBRANCH  24  25
ENDBRANCH  23  24
ENDBRANCH   1  23
TORSDOF 20
