REMARK SMILES CC1(C)C(=O)N([C@H]2COC[C@@H]2C(=O)OCCOC(=O)c2ccc(-c3c4nc(c(-c5c(F)cc(S(=O)(=O)[O-])cc5F)c5ccc([nH]5)c(-c5c(F)cc(S(=O)(=O)[O-])cc5F)c5nc(c(-c6c(F)cc(S(=O)(=O)[O-])cc6F)c6ccc3[nH]6)C=C5)C=C4)cc2)S1(=O)=O
REMARK SMILES IDX 16 1 15 2 14 3 12 4 13 5 11 6 7 7 8 8 9 9 10 10 6 11 1 12
REMARK SMILES IDX 2 13 3 14 4 15 86 16 5 17 87 18 88 19 17 20 18 21 19 22
REMARK SMILES IDX 20 23 21 24 85 25 22 26 84 27 23 28 24 29 25 30 78 31 26 32
REMARK SMILES IDX 83 33 77 34 79 35 27 36 82 37 76 38 75 39 28 41 62 42 41 43
REMARK SMILES IDX 61 44 42 45 45 46 60 47 80 48 43 49 44 50 59 52 81 53 46 54
REMARK SMILES IDX 29 55 30 56 39 57 31 58 32 59 38 60 40 61 33 62 34 63 35 64
REMARK SMILES IDX 36 65 37 66 63 67 64 68 73 69 65 70 66 71 72 72 74 73 67 74
REMARK SMILES IDX 68 75 69 76 70 77 71 78 47 79 48 80 57 81 49 82 50 83 56 84
REMARK SMILES IDX 58 85 51 86 52 87 53 88 54 89 55 90
REMARK H PARENT 79 40 45 51
REMARK Flexibility Score: inf
ROOT
ATOM      1  C   UNL     1      -5.056  -2.978   2.735  1.00  0.00     0.275 C 
ENDROOT
BRANCH   1   2
ATOM      2  C   UNL     1      -3.969  -2.376   1.846  1.00  0.00     0.274 C 
BRANCH   2   3
ATOM      3  O   UNL     1      -3.383  -3.403   1.022  1.00  0.00    -0.462 OA
BRANCH   3   4
ATOM      4  C   UNL     1      -2.168  -3.849   1.419  1.00  0.00     0.313 C 
ATOM      5  O   UNL     1      -1.490  -3.318   2.291  1.00  0.00    -0.252 OA
BRANCH   4   6
ATOM      6  C   UNL     1      -1.687  -5.071   0.673  1.00  0.00     0.151 C 
ATOM      7  C   UNL     1      -0.595  -4.659  -0.283  1.00  0.00     0.145 C 
ATOM      8  C   UNL     1      -1.387  -4.474  -1.578  1.00  0.00     0.187 C 
ATOM      9  O   UNL     1      -2.535  -5.333  -1.528  1.00  0.00    -0.378 OA
ATOM     10  C   UNL     1      -2.698  -5.795  -0.183  1.00  0.00     0.177 C 
BRANCH   7  11
ATOM     11  N   UNL     1       0.452  -5.703  -0.452  1.00  0.00    -0.231 N 
ATOM     12  C   UNL     1       3.420  -7.284  -0.548  1.00  0.00     0.041 C 
ATOM     13  C   UNL     1       2.615  -6.108  -0.009  1.00  0.00     0.165 C 
ATOM     14  C   UNL     1       3.523  -5.108   0.715  1.00  0.00     0.041 C 
ATOM     15  C   UNL     1       1.703  -5.423  -1.040  1.00  0.00     0.259 C 
ATOM     16  S   UNL     1       1.135  -6.506   0.844  1.00  0.00     0.252 S 
ATOM     17  O   UNL     1       1.890  -4.712  -2.007  1.00  0.00    -0.272 OA
ATOM     18  O   UNL     1       0.765  -7.896   0.744  1.00  0.00    -0.205 OA
ATOM     19  O   UNL     1       0.961  -5.721   2.042  1.00  0.00    -0.205 OA
ENDBRANCH   7  11
ENDBRANCH   4   6
ENDBRANCH   3   4
ENDBRANCH   2   3
ENDBRANCH   1   2
BRANCH   1  20
ATOM     20  O   UNL     1      -4.512  -4.006   3.586  1.00  0.00    -0.458 OA
BRANCH  20  21
ATOM     21  C   UNL     1      -4.808  -5.273   3.212  1.00  0.00     0.338 C 
ATOM     22  O   UNL     1      -5.486  -5.622   2.260  1.00  0.00    -0.246 OA
BRANCH  21  23
ATOM     23  C   UNL     1      -4.135  -6.245   4.085  1.00  0.00     0.060 A 
ATOM     24  C   UNL     1      -2.799  -6.550   3.847  1.00  0.00     0.016 A 
ATOM     25  C   UNL     1      -4.865  -6.983   5.013  1.00  0.00     0.016 A 
ATOM     26  C   UNL     1      -2.210  -7.657   4.449  1.00  0.00     0.010 A 
ATOM     27  C   UNL     1      -4.239  -8.027   5.705  1.00  0.00     0.010 A 
ATOM     28  C   UNL     1      -2.915  -8.398   5.405  1.00  0.00    -0.014 A 
BRANCH  28  29
ATOM     29  C   UNL     1      -2.257  -9.542   6.094  1.00  0.00     0.031 A 
ATOM     30  C   UNL     1      -2.824 -10.933   5.985  1.00  0.00     0.074 A 
ATOM     31  C   UNL     1      -1.146  -9.323   6.827  1.00  0.00     0.049 A 
ATOM     32  N   UNL     1      -2.458 -12.025   6.608  1.00  0.00    -0.248 NA
ATOM     33  C   UNL     1      -3.958 -11.122   5.067  1.00  0.00     0.031 C 
ATOM     34  C   UNL     1      -0.485  -8.026   6.997  1.00  0.00     0.029 A 
ATOM     35  N   UNL     1      -0.377 -10.182   7.573  1.00  0.00    -0.354 N 
ATOM     36  C   UNL     1      -3.336 -13.018   6.189  1.00  0.00     0.074 A 
ATOM     37  C   UNL     1      -4.266 -12.396   5.271  1.00  0.00     0.031 C 
ATOM     38  C   UNL     1       0.594  -8.177   7.778  1.00  0.00     0.029 A 
ATOM     39  C   UNL     1       0.662  -9.562   8.227  1.00  0.00     0.049 A 
ATOM     40  H   UNL     1      -0.552 -11.149   7.633  1.00  0.00     0.167 HD
ATOM     41  C   UNL     1      -3.361 -14.328   6.538  1.00  0.00     0.037 A 
ATOM     42  C   UNL     1       1.548 -10.039   9.122  1.00  0.00     0.037 A 
ATOM     43  C   UNL     1      -2.408 -14.945   7.428  1.00  0.00     0.049 A 
ATOM     44  C   UNL     1       1.479 -11.487   9.515  1.00  0.00     0.074 A 
ATOM     45  C   UNL     1      -2.322 -16.273   7.808  1.00  0.00     0.029 A 
ATOM     46  N   UNL     1      -1.378 -14.279   8.077  1.00  0.00    -0.354 N 
ATOM     47  N   UNL     1       0.649 -12.415   9.101  1.00  0.00    -0.248 NA
ATOM     48  C   UNL     1       2.464 -11.955  10.499  1.00  0.00     0.031 C 
ATOM     49  C   UNL     1      -1.278 -16.400   8.729  1.00  0.00     0.029 A 
ATOM     50  C   UNL     1      -0.672 -15.162   8.879  1.00  0.00     0.049 A 
ATOM     51  H   UNL     1      -1.178 -13.319   7.983  1.00  0.00     0.167 HD
ATOM     52  C   UNL     1       1.022 -13.580   9.761  1.00  0.00     0.074 A 
ATOM     53  C   UNL     1       2.167 -13.244  10.582  1.00  0.00     0.031 C 
ATOM     54  C   UNL     1       0.464 -14.814   9.696  1.00  0.00     0.037 A 
BRANCH  41  55
ATOM     55  C   UNL     1      -4.470 -15.186   5.987  1.00  0.00     0.058 A 
ATOM     56  C   UNL     1      -4.519 -15.568   4.637  1.00  0.00     0.135 A 
ATOM     57  C   UNL     1      -5.470 -15.681   6.841  1.00  0.00     0.135 A 
ATOM     58  F   UNL     1      -3.599 -15.115   3.771  1.00  0.00    -0.206 F 
ATOM     59  C   UNL     1      -5.531 -16.392   4.150  1.00  0.00     0.059 A 
ATOM     60  C   UNL     1      -6.474 -16.529   6.382  1.00  0.00     0.059 A 
ATOM     61  F   UNL     1      -5.473 -15.349   8.142  1.00  0.00    -0.206 F 
ATOM     62  C   UNL     1      -6.503 -16.869   5.031  1.00  0.00     0.060 A 
BRANCH  62  63
ATOM     63  S   UNL     1      -7.797 -17.952   4.387  1.00  0.00     0.124 S 
ATOM     64  O   UNL     1      -8.599 -17.016   3.605  1.00  0.00    -0.237 OA
ATOM     65  O   UNL     1      -7.033 -18.929   3.618  1.00  0.00    -0.237 OA
ATOM     66  O   UNL     1      -8.438 -18.471   5.591  1.00  0.00    -0.744 OA
ENDBRANCH  62  63
ENDBRANCH  41  55
BRANCH  42  67
ATOM     67  C   UNL     1       2.552  -9.124   9.731  1.00  0.00     0.058 A 
ATOM     68  C   UNL     1       3.919  -9.255   9.450  1.00  0.00     0.135 A 
ATOM     69  C   UNL     1       2.160  -8.091  10.598  1.00  0.00     0.135 A 
ATOM     70  F   UNL     1       4.346 -10.230   8.633  1.00  0.00    -0.206 F 
ATOM     71  C   UNL     1       4.864  -8.406  10.018  1.00  0.00     0.059 A 
ATOM     72  C   UNL     1       3.082  -7.210  11.153  1.00  0.00     0.059 A 
ATOM     73  F   UNL     1       0.862  -7.912  10.889  1.00  0.00    -0.206 F 
ATOM     74  C   UNL     1       4.434  -7.384  10.866  1.00  0.00     0.060 A 
BRANCH  74  75
ATOM     75  S   UNL     1       5.665  -6.261  11.563  1.00  0.00     0.124 S 
ATOM     76  O   UNL     1       6.314  -7.113  12.552  1.00  0.00    -0.237 OA
ATOM     77  O   UNL     1       6.465  -5.919  10.391  1.00  0.00    -0.237 OA
ATOM     78  O   UNL     1       4.858  -5.170  12.101  1.00  0.00    -0.744 OA
ENDBRANCH  74  75
ENDBRANCH  42  67
BRANCH  54  79
ATOM     79  C   UNL     1       1.105 -15.900  10.518  1.00  0.00     0.058 A 
ATOM     80  C   UNL     1       1.008 -15.921  11.918  1.00  0.00     0.135 A 
ATOM     81  C   UNL     1       1.805 -16.945   9.894  1.00  0.00     0.135 A 
ATOM     82  F   UNL     1       0.357 -14.942  12.566  1.00  0.00    -0.206 F 
ATOM     83  C   UNL     1       1.613 -16.920  12.674  1.00  0.00     0.059 A 
ATOM     84  C   UNL     1       2.391 -17.972  10.628  1.00  0.00     0.059 A 
ATOM     85  F   UNL     1       1.919 -16.980   8.557  1.00  0.00    -0.206 F 
ATOM     86  C   UNL     1       2.304 -17.941  12.019  1.00  0.00     0.060 A 
BRANCH  86  87
ATOM     87  S   UNL     1       3.075 -19.238  13.009  1.00  0.00     0.124 S 
ATOM     88  O   UNL     1       4.220 -18.532  13.577  1.00  0.00    -0.237 OA
ATOM     89  O   UNL     1       2.015 -19.586  13.950  1.00  0.00    -0.237 OA
ATOM     90  O   UNL     1       3.398 -20.269  12.028  1.00  0.00    -0.744 OA
ENDBRANCH  86  87
ENDBRANCH  54  79
ENDBRANCH  28  29
ENDBRANCH  21  23
ENDBRANCH  20  21
ENDBRANCH   1  20
TORSDOF 15
