REMARK SMILES O=C(OCCOC(=O)c1cc2c(c(S(=O)(=O)Nc3cc(C(F)(F)F)ccc3-n3cccn3)c1)CCC2)c1ccc(-c2c3nc(c(-c4c(F)cc(S(=O)(=O)[O-])cc4F)c4ccc([nH]4)c(-c4c(F)cc(S(=O)(=O)[O-])cc4F)c4nc(c(-c5c(F)cc(S(=O)(=O)[O-])cc5F)c5ccc2[nH]5)C=C4)C=C3)cc1
REMARK SMILES IDX 5 1 4 2 3 3 2 4 1 5 37 6 38 7 102 8 39 9 101 10 40 11 41 12
REMARK SMILES IDX 42 13 95 14 43 15 100 16 94 17 96 18 44 19 99 20 93 21 92 22
REMARK SMILES IDX 45 24 79 25 58 26 78 27 59 28 62 29 77 30 97 31 60 32 61 33
REMARK SMILES IDX 76 35 98 36 63 37 46 38 47 39 56 40 48 41 49 42 55 43 57 44
REMARK SMILES IDX 50 45 51 46 52 47 53 48 54 49 80 50 81 51 90 52 82 53 83 54
REMARK SMILES IDX 89 55 91 56 84 57 85 58 86 59 87 60 88 61 64 62 65 63 74 64
REMARK SMILES IDX 66 65 67 66 73 67 75 68 68 69 69 70 70 71 71 72 72 73 6 74
REMARK SMILES IDX 7 75 8 76 9 77 10 78 33 79 11 80 13 81 12 82 36 83 34 84
REMARK SMILES IDX 35 85 14 86 15 87 16 88 17 89 18 91 19 92 27 93 20 94 26 95
REMARK SMILES IDX 25 96 28 97 29 98 32 99 30 100 31 101 21 102 22 103 23 104
REMARK SMILES IDX 24 105
REMARK H PARENT 96 23 62 34 17 90
REMARK Flexibility Score: inf
ROOT
ATOM      1  C   UNL     1       4.104  -1.438   0.392  1.00  0.00     0.275 C 
ENDROOT
BRANCH   1   2
ATOM      2  C   UNL     1       4.516  -0.143   1.093  1.00  0.00     0.275 C 
BRANCH   2   3
ATOM      3  O   UNL     1       3.477   0.803   1.417  1.00  0.00    -0.458 OA
BRANCH   3   4
ATOM      4  C   UNL     1       2.316   0.749   0.727  1.00  0.00     0.338 C 
ATOM      5  O   UNL     1       1.455  -0.102   0.870  1.00  0.00    -0.246 OA
BRANCH   4   6
ATOM      6  C   UNL     1       2.185   1.926  -0.161  1.00  0.00     0.060 A 
ATOM      7  C   UNL     1       3.310   2.617  -0.626  1.00  0.00     0.016 A 
ATOM      8  C   UNL     1       0.906   2.325  -0.558  1.00  0.00     0.016 A 
ATOM      9  C   UNL     1       3.154   3.732  -1.439  1.00  0.00     0.010 A 
ATOM     10  C   UNL     1       0.754   3.444  -1.375  1.00  0.00     0.010 A 
ATOM     11  C   UNL     1       1.873   4.168  -1.797  1.00  0.00    -0.014 A 
BRANCH  11  12
ATOM     12  C   UNL     1       1.772   5.375  -2.625  1.00  0.00     0.031 A 
ATOM     13  C   UNL     1       2.472   5.365  -3.946  1.00  0.00     0.074 A 
ATOM     14  C   UNL     1       1.023   6.450  -2.310  1.00  0.00     0.049 A 
ATOM     15  N   UNL     1       3.591   5.922  -4.289  1.00  0.00    -0.248 NA
ATOM     16  C   UNL     1       1.874   4.562  -5.014  1.00  0.00     0.031 C 
ATOM     17  C   UNL     1       0.028   6.595  -1.246  1.00  0.00     0.029 A 
ATOM     18  N   UNL     1       0.960   7.646  -2.962  1.00  0.00    -0.354 N 
ATOM     19  C   UNL     1       3.729   5.688  -5.661  1.00  0.00     0.074 A 
ATOM     20  C   UNL     1       2.767   4.675  -5.995  1.00  0.00     0.031 C 
ATOM     21  C   UNL     1      -0.678   7.729  -1.451  1.00  0.00     0.029 A 
ATOM     22  C   UNL     1      -0.090   8.457  -2.562  1.00  0.00     0.049 A 
ATOM     23  H   UNL     1       1.605   7.911  -3.656  1.00  0.00     0.167 HD
ATOM     24  C   UNL     1       4.449   6.498  -6.489  1.00  0.00     0.037 A 
ATOM     25  C   UNL     1      -0.472   9.626  -3.132  1.00  0.00     0.037 A 
ATOM     26  C   UNL     1       5.277   7.414  -5.753  1.00  0.00     0.049 A 
ATOM     27  C   UNL     1       0.689  10.160  -3.889  1.00  0.00     0.074 A 
ATOM     28  C   UNL     1       6.266   7.284  -4.798  1.00  0.00     0.029 A 
ATOM     29  N   UNL     1       4.896   8.734  -5.712  1.00  0.00    -0.354 N 
ATOM     30  N   UNL     1       1.780  10.617  -3.338  1.00  0.00    -0.248 NA
ATOM     31  C   UNL     1       0.799   9.843  -5.306  1.00  0.00     0.031 C 
ATOM     32  C   UNL     1       6.066   8.381  -3.910  1.00  0.00     0.029 A 
ATOM     33  C   UNL     1       4.999   9.133  -4.405  1.00  0.00     0.049 A 
ATOM     34  H   UNL     1       4.606   9.286  -6.474  1.00  0.00     0.167 HD
ATOM     35  C   UNL     1       2.799  10.257  -4.205  1.00  0.00     0.074 A 
ATOM     36  C   UNL     1       2.126   9.893  -5.447  1.00  0.00     0.031 C 
ATOM     37  C   UNL     1       4.068  10.029  -3.755  1.00  0.00     0.037 A 
BRANCH  24  38
ATOM     38  C   UNL     1       4.171   6.692  -7.966  1.00  0.00     0.058 A 
ATOM     39  C   UNL     1       5.138   7.322  -8.778  1.00  0.00     0.135 A 
ATOM     40  C   UNL     1       2.900   6.522  -8.559  1.00  0.00     0.135 A 
ATOM     41  F   UNL     1       6.377   7.551  -8.312  1.00  0.00    -0.206 F 
ATOM     42  C   UNL     1       4.846   7.802 -10.057  1.00  0.00     0.059 A 
ATOM     43  C   UNL     1       2.606   6.936  -9.855  1.00  0.00     0.059 A 
ATOM     44  F   UNL     1       1.854   6.039  -7.877  1.00  0.00    -0.206 F 
ATOM     45  C   UNL     1       3.570   7.617 -10.579  1.00  0.00     0.060 A 
BRANCH  45  46
ATOM     46  S   UNL     1       3.150   8.338 -12.176  1.00  0.00     0.124 S 
ATOM     47  O   UNL     1       3.061   9.754 -11.837  1.00  0.00    -0.237 OA
ATOM     48  O   UNL     1       4.290   7.948 -12.999  1.00  0.00    -0.237 OA
ATOM     49  O   UNL     1       1.888   7.687 -12.514  1.00  0.00    -0.744 OA
ENDBRANCH  45  46
ENDBRANCH  24  38
BRANCH  25  50
ATOM     50  C   UNL     1      -1.841  10.180  -3.266  1.00  0.00     0.058 A 
ATOM     51  C   UNL     1      -2.048  11.519  -3.637  1.00  0.00     0.135 A 
ATOM     52  C   UNL     1      -2.972   9.339  -3.305  1.00  0.00     0.135 A 
ATOM     53  F   UNL     1      -1.023  12.384  -3.648  1.00  0.00    -0.206 F 
ATOM     54  C   UNL     1      -3.290  11.985  -4.076  1.00  0.00     0.059 A 
ATOM     55  C   UNL     1      -4.223   9.785  -3.725  1.00  0.00     0.059 A 
ATOM     56  F   UNL     1      -2.873   8.030  -3.031  1.00  0.00    -0.206 F 
ATOM     57  C   UNL     1      -4.368  11.102  -4.139  1.00  0.00     0.060 A 
BRANCH  57  58
ATOM     58  S   UNL     1      -5.915  11.646  -4.897  1.00  0.00     0.124 S 
ATOM     59  O   UNL     1      -6.434  12.571  -3.895  1.00  0.00    -0.237 OA
ATOM     60  O   UNL     1      -5.453  12.248  -6.143  1.00  0.00    -0.237 OA
ATOM     61  O   UNL     1      -6.670  10.405  -5.053  1.00  0.00    -0.744 OA
ENDBRANCH  57  58
ENDBRANCH  25  50
BRANCH  37  62
ATOM     62  C   UNL     1       4.446  10.516  -2.381  1.00  0.00     0.058 A 
ATOM     63  C   UNL     1       3.836  10.091  -1.189  1.00  0.00     0.135 A 
ATOM     64  C   UNL     1       5.580  11.338  -2.262  1.00  0.00     0.135 A 
ATOM     65  F   UNL     1       2.821   9.215  -1.206  1.00  0.00    -0.206 F 
ATOM     66  C   UNL     1       4.300  10.505   0.061  1.00  0.00     0.059 A 
ATOM     67  C   UNL     1       6.082  11.732  -1.026  1.00  0.00     0.059 A 
ATOM     68  F   UNL     1       6.249  11.726  -3.361  1.00  0.00    -0.206 F 
ATOM     69  C   UNL     1       5.426  11.325   0.133  1.00  0.00     0.060 A 
BRANCH  69  70
ATOM     70  S   UNL     1       6.076  11.789   1.752  1.00  0.00     0.124 S 
ATOM     71  O   UNL     1       5.111  12.789   2.195  1.00  0.00    -0.237 OA
ATOM     72  O   UNL     1       6.057  10.523   2.480  1.00  0.00    -0.237 OA
ATOM     73  O   UNL     1       7.411  12.301   1.450  1.00  0.00    -0.744 OA
ENDBRANCH  69  70
ENDBRANCH  37  62
ENDBRANCH  11  12
ENDBRANCH   4   6
ENDBRANCH   3   4
ENDBRANCH   2   3
ENDBRANCH   1   2
BRANCH   1  74
ATOM     74  O   UNL     1       3.655  -1.141  -0.941  1.00  0.00    -0.458 OA
BRANCH  74  75
ATOM     75  C   UNL     1       2.610  -1.880  -1.398  1.00  0.00     0.338 C 
ATOM     76  O   UNL     1       2.041  -2.806  -0.857  1.00  0.00    -0.246 OA
BRANCH  75  77
ATOM     77  C   UNL     1       2.329  -1.405  -2.760  1.00  0.00     0.061 A 
ATOM     78  C   UNL     1       3.226  -1.752  -3.759  1.00  0.00     0.019 A 
ATOM     79  C   UNL     1       1.213  -0.596  -3.034  1.00  0.00     0.038 A 
ATOM     80  C   UNL     1       3.033  -1.195  -5.006  1.00  0.00    -0.043 A 
ATOM     81  C   UNL     1       1.018  -0.020  -4.315  1.00  0.00     0.092 A 
ATOM     82  C   UNL     1       1.994  -0.267  -5.275  1.00  0.00    -0.024 A 
ATOM     83  C   UNL     1       3.905  -1.433  -6.204  1.00  0.00     0.036 C 
ATOM     84  C   UNL     1       2.318   0.347  -6.600  1.00  0.00     0.037 C 
ATOM     85  C   UNL     1       3.033  -0.819  -7.294  1.00  0.00     0.010 C 
BRANCH  81  86
ATOM     86  S   UNL     1      -0.452   0.978  -4.449  1.00  0.00     0.262 S 
ATOM     87  O   UNL     1      -1.456   0.376  -3.596  1.00  0.00    -0.201 OA
ATOM     88  O   UNL     1      -0.032   2.323  -4.137  1.00  0.00    -0.201 OA
BRANCH  86  89
ATOM     89  N   UNL     1      -1.151   1.129  -5.974  1.00  0.00    -0.277 N 
ATOM     90  H   UNL     1      -1.792   1.869  -6.077  1.00  0.00     0.180 HD
BRANCH  89  91
ATOM     91  C   UNL     1      -0.940   0.329  -7.139  1.00  0.00     0.075 A 
ATOM     92  C   UNL     1      -0.623   1.072  -8.300  1.00  0.00     0.042 A 
ATOM     93  C   UNL     1      -0.911  -1.067  -7.215  1.00  0.00     0.089 A 
ATOM     94  C   UNL     1      -0.117   0.454  -9.458  1.00  0.00     0.058 A 
ATOM     95  C   UNL     1      -0.443  -1.694  -8.386  1.00  0.00     0.031 A 
ATOM     96  C   UNL     1      -0.043  -0.941  -9.493  1.00  0.00     0.015 A 
BRANCH  93  97
ATOM     97  N   UNL     1      -1.294  -1.897  -6.144  1.00  0.00    -0.239 N 
ATOM     98  C   UNL     1      -2.339  -1.724  -5.274  1.00  0.00     0.115 A 
ATOM     99  N   UNL     1      -0.572  -3.007  -5.841  1.00  0.00    -0.177 NA
ATOM    100  C   UNL     1      -2.138  -2.608  -4.240  1.00  0.00     0.042 A 
ATOM    101  C   UNL     1      -1.011  -3.347  -4.626  1.00  0.00     0.135 A 
ENDBRANCH  93  97
BRANCH  94 102
ATOM    102  C   UNL     1       0.430   1.300 -10.588  1.00  0.00     0.416 C 
ATOM    103  F   UNL     1      -0.548   1.905 -11.309  1.00  0.00    -0.166 F 
ATOM    104  F   UNL     1       1.248   2.287 -10.132  1.00  0.00    -0.166 F 
ATOM    105  F   UNL     1       1.174   0.582 -11.476  1.00  0.00    -0.166 F 
ENDBRANCH  94 102
ENDBRANCH  89  91
ENDBRANCH  86  89
ENDBRANCH  81  86
ENDBRANCH  75  77
ENDBRANCH  74  75
ENDBRANCH   1  74
TORSDOF 19
