REMARK SMILES CCN1C(=O)C[C@@H](C(=O)Nc2cccc(C(=O)OCCOC(=O)c3ccc(-c4c5nc(c(-c6c(F)cc(S(=O)(=O)[O-])cc6F)c6ccc([nH]6)c(-c6c(F)cc(S(=O)(=O)[O-])cc6F)c6nc(c(-c7c(F)cc(S(=O)(=O)[O-])cc7F)c7ccc4[nH]7)C=C6)C=C5)cc3)c2)S/C1=[NH+]/c1ccccc1
REMARK SMILES IDX 19 1 18 2 16 3 17 4 15 5 11 6 12 7 90 8 13 9 14 10 10 11
REMARK SMILES IDX 8 12 9 13 7 15 3 16 4 17 92 18 5 19 6 20 91 21 93 22 2 24
REMARK SMILES IDX 1 25 94 26 95 27 99 28 96 29 98 30 97 31 20 32 21 33 22 34
REMARK SMILES IDX 23 35 24 36 25 37 89 38 26 39 88 40 27 41 28 42 29 43 82 44
REMARK SMILES IDX 30 45 87 46 81 47 83 48 31 49 86 50 80 51 79 52 32 54 66 55
REMARK SMILES IDX 45 56 65 57 46 58 49 59 64 60 84 61 47 62 48 63 63 65 85 66
REMARK SMILES IDX 50 67 33 68 34 69 43 70 35 71 36 72 42 73 44 74 37 75 38 76
REMARK SMILES IDX 39 77 40 78 41 79 67 80 68 81 77 82 69 83 70 84 76 85 78 86
REMARK SMILES IDX 71 87 72 88 73 89 74 90 75 91 51 92 52 93 61 94 53 95 54 96
REMARK SMILES IDX 60 97 62 98 55 99 56 100 57 101 58 102 59 103
REMARK H PARENT 10 14 93 23 83 53 49 64
REMARK Flexibility Score: inf
ROOT
ATOM      1  C   UNL     1      -1.823   3.106  -3.195  1.00  0.00     0.275 C 
ENDROOT
BRANCH   1   2
ATOM      2  O   UNL     1      -2.043   1.711  -3.483  1.00  0.00    -0.458 OA
BRANCH   2   3
ATOM      3  C   UNL     1      -2.184   0.891  -2.416  1.00  0.00     0.338 C 
ATOM      4  O   UNL     1      -2.161   1.220  -1.240  1.00  0.00    -0.246 OA
BRANCH   3   5
ATOM      5  C   UNL     1      -2.362  -0.520  -2.844  1.00  0.00     0.062 A 
ATOM      6  C   UNL     1      -1.915  -2.314  -4.396  1.00  0.00     0.042 A 
ATOM      7  C   UNL     1      -2.590  -3.213  -3.569  1.00  0.00     0.026 A 
ATOM      8  C   UNL     1      -1.913  -0.957  -4.090  1.00  0.00     0.041 A 
ATOM      9  C   UNL     1      -3.077  -2.780  -2.336  1.00  0.00     0.003 A 
ATOM     10  C   UNL     1      -2.905  -1.450  -1.949  1.00  0.00     0.016 A 
BRANCH   6  11
ATOM     11  N   UNL     1      -1.181  -2.830  -5.470  1.00  0.00    -0.325 N 
ATOM     12  C   UNL     1       0.114  -2.581  -5.853  1.00  0.00     0.238 C 
ATOM     13  O   UNL     1       0.497  -3.119  -6.901  1.00  0.00    -0.273 OA
ATOM     14  H   UNL     1      -1.668  -3.469  -6.039  1.00  0.00     0.169 HD
BRANCH  12  15
ATOM     15  C   UNL     1       1.125  -1.777  -5.005  1.00  0.00     0.160 C 
ATOM     16  N   UNL     1       1.667   0.075  -2.754  1.00  0.00    -0.191 N 
ATOM     17  C   UNL     1       2.064  -1.247  -2.772  1.00  0.00     0.311 C 
ATOM     18  C   UNL     1       1.604   0.791  -3.941  1.00  0.00     0.319 C 
ATOM     19  O   UNL     1       3.037  -1.682  -2.162  1.00  0.00    -0.247 OA
ATOM     20  C   UNL     1       1.157  -2.153  -3.545  1.00  0.00     0.153 C 
ATOM     21  S   UNL     1       1.013  -0.022  -5.382  1.00  0.00    -0.024 SA
ATOM     22  N   UNL     1       1.899   2.030  -4.176  1.00  0.00    -0.235 N 
ATOM     23  H   UNL     1       1.594   2.411  -5.032  1.00  0.00     0.313 HD
BRANCH  16  24
ATOM     24  C   UNL     1       1.482   0.733  -1.450  1.00  0.00     0.243 C 
ATOM     25  C   UNL     1       1.490  -0.149  -0.207  1.00  0.00     0.054 C 
ENDBRANCH  16  24
BRANCH  22  26
ATOM     26  C   UNL     1       2.611   2.870  -3.321  1.00  0.00     0.125 A 
ATOM     27  C   UNL     1       2.097   4.132  -3.017  1.00  0.00     0.051 A 
ATOM     28  C   UNL     1       3.889   2.532  -2.855  1.00  0.00     0.051 A 
ATOM     29  C   UNL     1       2.814   5.018  -2.209  1.00  0.00     0.004 A 
ATOM     30  C   UNL     1       4.599   3.405  -2.029  1.00  0.00     0.004 A 
ATOM     31  C   UNL     1       4.059   4.648  -1.705  1.00  0.00     0.000 A 
ENDBRANCH  22  26
ENDBRANCH  12  15
ENDBRANCH   6  11
ENDBRANCH   3   5
ENDBRANCH   2   3
ENDBRANCH   1   2
BRANCH   1  32
ATOM     32  C   UNL     1      -3.098   3.929  -3.377  1.00  0.00     0.275 C 
BRANCH  32  33
ATOM     33  O   UNL     1      -4.093   3.554  -2.408  1.00  0.00    -0.458 OA
BRANCH  33  34
ATOM     34  C   UNL     1      -5.090   2.772  -2.878  1.00  0.00     0.338 C 
ATOM     35  O   UNL     1      -5.274   2.413  -4.032  1.00  0.00    -0.246 OA
BRANCH  34  36
ATOM     36  C   UNL     1      -5.878   2.259  -1.751  1.00  0.00     0.060 A 
ATOM     37  C   UNL     1      -5.541   0.999  -1.262  1.00  0.00     0.016 A 
ATOM     38  C   UNL     1      -6.996   2.928  -1.262  1.00  0.00     0.016 A 
ATOM     39  C   UNL     1      -6.317   0.382  -0.291  1.00  0.00     0.010 A 
ATOM     40  C   UNL     1      -7.778   2.313  -0.275  1.00  0.00     0.010 A 
ATOM     41  C   UNL     1      -7.454   1.027   0.200  1.00  0.00    -0.014 A 
BRANCH  41  42
ATOM     42  C   UNL     1      -8.363   0.283   1.105  1.00  0.00     0.031 A 
ATOM     43  C   UNL     1      -9.685  -0.198   0.578  1.00  0.00     0.074 A 
ATOM     44  C   UNL     1      -7.975  -0.035   2.354  1.00  0.00     0.049 A 
ATOM     45  N   UNL     1     -10.675  -0.763   1.218  1.00  0.00    -0.248 NA
ATOM     46  C   UNL     1      -9.924  -0.017  -0.864  1.00  0.00     0.031 C 
ATOM     47  C   UNL     1      -6.679   0.295   2.949  1.00  0.00     0.029 A 
ATOM     48  N   UNL     1      -8.631  -0.721   3.345  1.00  0.00    -0.354 N 
ATOM     49  C   UNL     1     -11.673  -0.958   0.271  1.00  0.00     0.074 A 
ATOM     50  C   UNL     1     -11.166  -0.460  -0.990  1.00  0.00     0.031 C 
ATOM     51  C   UNL     1      -6.629  -0.203   4.196  1.00  0.00     0.029 A 
ATOM     52  C   UNL     1      -7.908  -0.834   4.509  1.00  0.00     0.049 A 
ATOM     53  H   UNL     1      -9.534  -1.098   3.233  1.00  0.00     0.167 HD
ATOM     54  C   UNL     1     -12.903  -1.497   0.443  1.00  0.00     0.037 A 
ATOM     55  C   UNL     1      -8.253  -1.357   5.701  1.00  0.00     0.037 A 
ATOM     56  C   UNL     1     -13.381  -2.027   1.692  1.00  0.00     0.049 A 
ATOM     57  C   UNL     1      -9.632  -1.934   5.875  1.00  0.00     0.074 A 
ATOM     58  C   UNL     1     -14.621  -2.567   1.983  1.00  0.00     0.029 A 
ATOM     59  N   UNL     1     -12.628  -2.103   2.855  1.00  0.00    -0.354 N 
ATOM     60  N   UNL     1     -10.600  -2.033   4.995  1.00  0.00    -0.248 NA
ATOM     61  C   UNL     1      -9.972  -2.456   7.206  1.00  0.00     0.031 C 
ATOM     62  C   UNL     1     -14.624  -2.953   3.329  1.00  0.00     0.029 A 
ATOM     63  C   UNL     1     -13.375  -2.683   3.865  1.00  0.00     0.049 A 
ATOM     64  H   UNL     1     -11.700  -1.790   2.947  1.00  0.00     0.167 HD
ATOM     65  C   UNL     1     -11.660  -2.634   5.662  1.00  0.00     0.074 A 
ATOM     66  C   UNL     1     -11.209  -2.894   7.014  1.00  0.00     0.031 C 
ATOM     67  C   UNL     1     -12.899  -2.938   5.201  1.00  0.00     0.037 A 
BRANCH  54  68
ATOM     68  C   UNL     1     -13.829  -1.488  -0.739  1.00  0.00     0.058 A 
ATOM     69  C   UNL     1     -13.674  -2.377  -1.814  1.00  0.00     0.135 A 
ATOM     70  C   UNL     1     -14.890  -0.570  -0.794  1.00  0.00     0.135 A 
ATOM     71  F   UNL     1     -12.660  -3.257  -1.821  1.00  0.00    -0.206 F 
ATOM     72  C   UNL     1     -14.523  -2.338  -2.916  1.00  0.00     0.059 A 
ATOM     73  C   UNL     1     -15.764  -0.528  -1.876  1.00  0.00     0.059 A 
ATOM     74  F   UNL     1     -15.079   0.306   0.205  1.00  0.00    -0.206 F 
ATOM     75  C   UNL     1     -15.561  -1.405  -2.940  1.00  0.00     0.060 A 
BRANCH  75  76
ATOM     76  S   UNL     1     -16.651  -1.353  -4.379  1.00  0.00     0.124 S 
ATOM     77  O   UNL     1     -15.816  -0.651  -5.349  1.00  0.00    -0.237 OA
ATOM     78  O   UNL     1     -16.884  -2.768  -4.651  1.00  0.00    -0.237 OA
ATOM     79  O   UNL     1     -17.812  -0.612  -3.897  1.00  0.00    -0.744 OA
ENDBRANCH  75  76
ENDBRANCH  54  68
BRANCH  55  80
ATOM     80  C   UNL     1      -7.288  -1.327   6.832  1.00  0.00     0.058 A 
ATOM     81  C   UNL     1      -6.686  -2.503   7.303  1.00  0.00     0.135 A 
ATOM     82  C   UNL     1      -6.941  -0.119   7.455  1.00  0.00     0.135 A 
ATOM     83  F   UNL     1      -6.995  -3.684   6.747  1.00  0.00    -0.206 F 
ATOM     84  C   UNL     1      -5.775  -2.483   8.355  1.00  0.00     0.059 A 
ATOM     85  C   UNL     1      -6.016  -0.070   8.493  1.00  0.00     0.059 A 
ATOM     86  F   UNL     1      -7.484   1.035   7.035  1.00  0.00    -0.206 F 
ATOM     87  C   UNL     1      -5.444  -1.260   8.942  1.00  0.00     0.060 A 
BRANCH  87  88
ATOM     88  S   UNL     1      -4.213  -1.229  10.263  1.00  0.00     0.124 S 
ATOM     89  O   UNL     1      -5.001  -1.668  11.408  1.00  0.00    -0.237 OA
ATOM     90  O   UNL     1      -3.211  -2.173   9.777  1.00  0.00    -0.237 OA
ATOM     91  O   UNL     1      -3.785   0.167  10.286  1.00  0.00    -0.744 OA
ENDBRANCH  87  88
ENDBRANCH  55  80
BRANCH  67  92
ATOM     92  C   UNL     1     -13.838  -3.612   6.158  1.00  0.00     0.058 A 
ATOM     93  C   UNL     1     -14.490  -2.895   7.173  1.00  0.00     0.135 A 
ATOM     94  C   UNL     1     -14.117  -4.982   6.033  1.00  0.00     0.135 A 
ATOM     95  F   UNL     1     -14.250  -1.585   7.335  1.00  0.00    -0.206 F 
ATOM     96  C   UNL     1     -15.373  -3.519   8.047  1.00  0.00     0.059 A 
ATOM     97  C   UNL     1     -15.012  -5.622   6.884  1.00  0.00     0.059 A 
ATOM     98  F   UNL     1     -13.525  -5.708   5.071  1.00  0.00    -0.206 F 
ATOM     99  C   UNL     1     -15.625  -4.885   7.896  1.00  0.00     0.060 A 
BRANCH  99 100
ATOM    100  S   UNL     1     -16.791  -5.684   9.020  1.00  0.00     0.124 S 
ATOM    101  O   UNL     1     -15.969  -5.867  10.211  1.00  0.00    -0.237 OA
ATOM    102  O   UNL     1     -17.856  -4.692   9.130  1.00  0.00    -0.237 OA
ATOM    103  O   UNL     1     -17.155  -6.908   8.312  1.00  0.00    -0.744 OA
ENDBRANCH  99 100
ENDBRANCH  67  92
ENDBRANCH  41  42
ENDBRANCH  34  36
ENDBRANCH  33  34
ENDBRANCH  32  33
ENDBRANCH   1  32
TORSDOF 18
