REMARK SMILES CCCOc1ccc(N[C@H](C)[C@H](C)C(=O)OCCOC(=O)c2ccc(-c3c4nc(c(-c5c(F)cc(S(=O)(=O)[O-])cc5F)c5ccc([nH]5)c(-c5c(F)cc(S(=O)(=O)[O-])cc5F)c5nc(c(-c6c(F)cc(S(=O)(=O)[O-])cc6F)c6ccc3[nH]6)C=C5)C=C4)cc2)cc1
REMARK SMILES IDX 16 1 14 2 15 3 12 4 13 5 10 6 11 7 9 8 8 10 5 11 6 12 89 13
REMARK SMILES IDX 7 14 88 15 4 16 3 17 2 18 1 19 17 20 18 21 19 22 20 23 21 24
REMARK SMILES IDX 22 25 23 26 87 27 24 28 86 29 25 30 26 31 27 32 80 33 28 34
REMARK SMILES IDX 85 35 79 36 81 37 29 38 84 39 78 40 77 41 30 43 64 44 43 45
REMARK SMILES IDX 63 46 44 47 47 48 62 49 82 50 45 51 46 52 61 54 83 55 48 56
REMARK SMILES IDX 31 57 32 58 41 59 33 60 34 61 40 62 42 63 35 64 36 65 37 66
REMARK SMILES IDX 38 67 39 68 65 69 66 70 75 71 67 72 68 73 74 74 76 75 69 76
REMARK SMILES IDX 70 77 71 78 72 79 73 80 49 81 50 82 59 83 51 84 52 85 58 86
REMARK SMILES IDX 60 87 53 88 54 89 55 90 56 91 57 92
REMARK H PARENT 9 9 81 42 47 53
REMARK Flexibility Score: inf
ROOT
ATOM      1  O   UNL     1       2.144   8.611   1.989  1.00  0.00    -0.462 OA
ENDROOT
BRANCH   1   2
ATOM      2  C   UNL     1       1.458   8.640   0.816  1.00  0.00     0.310 C 
ATOM      3  O   UNL     1       1.213   9.662   0.187  1.00  0.00    -0.252 OA
BRANCH   2   4
ATOM      4  C   UNL     1       0.976   7.268   0.368  1.00  0.00     0.118 C 
ATOM      5  C   UNL     1       1.920   6.159   0.840  1.00  0.00     0.022 C 
BRANCH   4   6
ATOM      6  C   UNL     1      -0.501   7.099   0.773  1.00  0.00     0.090 C 
ATOM      7  C   UNL     1      -1.407   8.073  -0.007  1.00  0.00     0.031 C 
BRANCH   6   8
ATOM      8  N   UNL     1      -0.995   5.766   0.444  1.00  0.00    -0.382 N 
ATOM      9  H   UNL     1      -1.227   5.600  -0.498  1.00  0.00     0.160 HD
BRANCH   8  10
ATOM     10  C   UNL     1      -1.169   4.716   1.319  1.00  0.00     0.034 A 
ATOM     11  C   UNL     1      -1.515   2.458   2.948  1.00  0.00     0.119 A 
ATOM     12  C   UNL     1      -0.769   3.534   3.412  1.00  0.00     0.048 A 
ATOM     13  C   UNL     1      -2.179   2.536   1.732  1.00  0.00     0.048 A 
ATOM     14  C   UNL     1      -0.617   4.664   2.603  1.00  0.00     0.029 A 
ATOM     15  C   UNL     1      -1.981   3.647   0.914  1.00  0.00     0.029 A 
BRANCH  11  16
ATOM     16  O   UNL     1      -1.632   1.323   3.700  1.00  0.00    -0.494 OA
BRANCH  16  17
ATOM     17  C   UNL     1      -0.550   0.414   3.427  1.00  0.00     0.229 C 
BRANCH  17  18
ATOM     18  C   UNL     1      -0.896  -0.544   2.282  1.00  0.00     0.038 C 
ATOM     19  C   UNL     1      -0.162  -0.207   0.989  1.00  0.00     0.007 C 
ENDBRANCH  17  18
ENDBRANCH  16  17
ENDBRANCH  11  16
ENDBRANCH   8  10
ENDBRANCH   6   8
ENDBRANCH   4   6
ENDBRANCH   2   4
ENDBRANCH   1   2
BRANCH   1  20
ATOM     20  C   UNL     1       2.642   9.880   2.459  1.00  0.00     0.274 C 
BRANCH  20  21
ATOM     21  C   UNL     1       4.079  10.152   1.999  1.00  0.00     0.275 C 
BRANCH  21  22
ATOM     22  O   UNL     1       4.163  10.354   0.577  1.00  0.00    -0.458 OA
BRANCH  22  23
ATOM     23  C   UNL     1       4.494   9.258  -0.141  1.00  0.00     0.338 C 
ATOM     24  O   UNL     1       4.772   8.148   0.297  1.00  0.00    -0.246 OA
BRANCH  23  25
ATOM     25  C   UNL     1       4.341   9.529  -1.577  1.00  0.00     0.060 A 
ATOM     26  C   UNL     1       3.358   8.825  -2.278  1.00  0.00     0.016 A 
ATOM     27  C   UNL     1       5.203  10.397  -2.248  1.00  0.00     0.016 A 
ATOM     28  C   UNL     1       3.220   8.988  -3.652  1.00  0.00     0.010 A 
ATOM     29  C   UNL     1       5.072  10.553  -3.632  1.00  0.00     0.010 A 
ATOM     30  C   UNL     1       4.086   9.843  -4.342  1.00  0.00    -0.014 A 
BRANCH  30  31
ATOM     31  C   UNL     1       4.000   9.938  -5.817  1.00  0.00     0.031 A 
ATOM     32  C   UNL     1       5.025   9.240  -6.663  1.00  0.00     0.074 A 
ATOM     33  C   UNL     1       2.996  10.627  -6.390  1.00  0.00     0.049 A 
ATOM     34  N   UNL     1       5.200   9.289  -7.957  1.00  0.00    -0.248 NA
ATOM     35  C   UNL     1       5.980   8.371  -5.957  1.00  0.00     0.031 C 
ATOM     36  C   UNL     1       1.909  11.290  -5.670  1.00  0.00     0.029 A 
ATOM     37  N   UNL     1       2.732  10.888  -7.710  1.00  0.00    -0.354 N 
ATOM     38  C   UNL     1       6.299   8.481  -8.221  1.00  0.00     0.074 A 
ATOM     39  C   UNL     1       6.754   7.957  -6.950  1.00  0.00     0.031 C 
ATOM     40  C   UNL     1       1.101  11.893  -6.557  1.00  0.00     0.029 A 
ATOM     41  C   UNL     1       1.639  11.698  -7.901  1.00  0.00     0.049 A 
ATOM     42  H   UNL     1       3.274  10.530  -8.450  1.00  0.00     0.167 HD
ATOM     43  C   UNL     1       6.875   8.207  -9.415  1.00  0.00     0.037 A 
ATOM     44  C   UNL     1       1.150  12.250  -9.029  1.00  0.00     0.037 A 
ATOM     45  C   UNL     1       6.404   8.722 -10.674  1.00  0.00     0.049 A 
ATOM     46  C   UNL     1       1.841  11.978 -10.337  1.00  0.00     0.074 A 
ATOM     47  C   UNL     1       6.916   8.503 -11.941  1.00  0.00     0.029 A 
ATOM     48  N   UNL     1       5.308   9.559 -10.825  1.00  0.00    -0.354 N 
ATOM     49  N   UNL     1       2.896  11.234 -10.572  1.00  0.00    -0.248 NA
ATOM     50  C   UNL     1       1.284  12.626 -11.532  1.00  0.00     0.031 C 
ATOM     51  C   UNL     1       6.149   9.235 -12.854  1.00  0.00     0.029 A 
ATOM     52  C   UNL     1       5.136   9.879 -12.161  1.00  0.00     0.049 A 
ATOM     53  H   UNL     1       4.736   9.878 -10.090  1.00  0.00     0.167 HD
ATOM     54  C   UNL     1       3.119  11.310 -11.941  1.00  0.00     0.074 A 
ATOM     55  C   UNL     1       2.083  12.165 -12.486  1.00  0.00     0.031 C 
ATOM     56  C   UNL     1       4.093  10.727 -12.682  1.00  0.00     0.037 A 
BRANCH  43  57
ATOM     57  C   UNL     1       8.101   7.338  -9.410  1.00  0.00     0.058 A 
ATOM     58  C   UNL     1       8.027   5.954  -9.197  1.00  0.00     0.135 A 
ATOM     59  C   UNL     1       9.367   7.900  -9.642  1.00  0.00     0.135 A 
ATOM     60  F   UNL     1       6.844   5.370  -8.952  1.00  0.00    -0.206 F 
ATOM     61  C   UNL     1       9.169   5.158  -9.190  1.00  0.00     0.059 A 
ATOM     62  C   UNL     1      10.520   7.121  -9.661  1.00  0.00     0.059 A 
ATOM     63  F   UNL     1       9.493   9.221  -9.848  1.00  0.00    -0.206 F 
ATOM     64  C   UNL     1      10.412   5.752  -9.419  1.00  0.00     0.060 A 
BRANCH  64  65
ATOM     65  S   UNL     1      11.887   4.712  -9.403  1.00  0.00     0.124 S 
ATOM     66  O   UNL     1      12.065   4.483  -7.972  1.00  0.00    -0.237 OA
ATOM     67  O   UNL     1      11.463   3.552 -10.181  1.00  0.00    -0.237 OA
ATOM     68  O   UNL     1      12.901   5.550 -10.035  1.00  0.00    -0.744 OA
ENDBRANCH  64  65
ENDBRANCH  43  57
BRANCH  44  69
ATOM     69  C   UNL     1      -0.037  13.143  -8.961  1.00  0.00     0.058 A 
ATOM     70  C   UNL     1      -1.279  12.738  -9.468  1.00  0.00     0.135 A 
ATOM     71  C   UNL     1       0.046  14.413  -8.369  1.00  0.00     0.135 A 
ATOM     72  F   UNL     1      -1.405  11.536 -10.053  1.00  0.00    -0.206 F 
ATOM     73  C   UNL     1      -2.397  13.562  -9.398  1.00  0.00     0.059 A 
ATOM     74  C   UNL     1      -1.063  15.246  -8.267  1.00  0.00     0.059 A 
ATOM     75  F   UNL     1       1.211  14.844  -7.860  1.00  0.00    -0.206 F 
ATOM     76  C   UNL     1      -2.280  14.814  -8.792  1.00  0.00     0.060 A 
BRANCH  76  77
ATOM     77  S   UNL     1      -3.749  15.855  -8.652  1.00  0.00     0.124 S 
ATOM     78  O   UNL     1      -3.876  16.368 -10.011  1.00  0.00    -0.237 OA
ATOM     79  O   UNL     1      -4.768  14.898  -8.233  1.00  0.00    -0.237 OA
ATOM     80  O   UNL     1      -3.369  16.835  -7.639  1.00  0.00    -0.744 OA
ENDBRANCH  76  77
ENDBRANCH  44  69
BRANCH  56  81
ATOM     81  C   UNL     1       4.070  10.967 -14.165  1.00  0.00     0.058 A 
ATOM     82  C   UNL     1       4.502  12.181 -14.718  1.00  0.00     0.135 A 
ATOM     83  C   UNL     1       3.668   9.947 -15.043  1.00  0.00     0.135 A 
ATOM     84  F   UNL     1       4.888  13.188 -13.920  1.00  0.00    -0.206 F 
ATOM     85  C   UNL     1       4.525  12.382 -16.095  1.00  0.00     0.059 A 
ATOM     86  C   UNL     1       3.703  10.119 -16.422  1.00  0.00     0.059 A 
ATOM     87  F   UNL     1       3.254   8.764 -14.561  1.00  0.00    -0.206 F 
ATOM     88  C   UNL     1       4.125  11.344 -16.939  1.00  0.00     0.060 A 
BRANCH  88  89
ATOM     89  S   UNL     1       4.202  11.598 -18.725  1.00  0.00     0.124 S 
ATOM     90  O   UNL     1       3.022  12.426 -18.954  1.00  0.00    -0.237 OA
ATOM     91  O   UNL     1       5.488  12.267 -18.893  1.00  0.00    -0.237 OA
ATOM     92  O   UNL     1       4.133  10.243 -19.263  1.00  0.00    -0.744 OA
ENDBRANCH  88  89
ENDBRANCH  56  81
ENDBRANCH  30  31
ENDBRANCH  23  25
ENDBRANCH  22  23
ENDBRANCH  21  22
ENDBRANCH  20  21
ENDBRANCH   1  20
TORSDOF 20
