REMARK SMILES C[C@@H](CC(=O)OCCOC(=O)c1ccc(-c2c3nc(c(-c4c(F)cc(S(=O)(=O)[O-])cc4F)c4ccc([nH]4)c(-c4c(F)cc(S(=O)(=O)[O-])cc4F)c4nc(c(-c5c(F)cc(S(=O)(=O)[O-])cc5F)c5ccc2[nH]5)C=C4)C=C3)cc1)Cc1nnc(C2C(C)(C)C2(C)C)o1
REMARK SMILES IDX 7 1 6 2 4 3 5 4 3 5 2 6 1 7 78 8 79 9 80 10 90 11 81 12
REMARK SMILES IDX 82 13 83 14 84 15 87 16 85 17 86 18 88 19 89 20 8 21 9 22
REMARK SMILES IDX 10 23 11 24 12 25 13 26 77 27 14 28 76 29 15 30 16 31 17 32
REMARK SMILES IDX 70 33 18 34 75 35 69 36 71 37 19 38 74 39 68 40 67 41 20 43
REMARK SMILES IDX 54 44 33 45 53 46 34 47 37 48 52 49 72 50 35 51 36 52 51 54
REMARK SMILES IDX 73 55 38 56 21 57 22 58 31 59 23 60 24 61 30 62 32 63 25 64
REMARK SMILES IDX 26 65 27 66 28 67 29 68 55 69 56 70 65 71 57 72 58 73 64 74
REMARK SMILES IDX 66 75 59 76 60 77 61 78 62 79 63 80 39 81 40 82 49 83 41 84
REMARK SMILES IDX 42 85 48 86 50 87 43 88 44 89 45 90 46 91 47 92
REMARK H PARENT 71 42 37 53
REMARK Flexibility Score: inf
ROOT
ATOM      1  C   UNL     1       0.525  -3.580  -0.667  1.00  0.00     0.274 C 
ENDROOT
BRANCH   1   2
ATOM      2  O   UNL     1       0.683  -2.148  -0.740  1.00  0.00    -0.462 OA
BRANCH   2   3
ATOM      3  C   UNL     1       1.242  -1.673  -1.876  1.00  0.00     0.306 C 
ATOM      4  O   UNL     1       1.619  -2.368  -2.812  1.00  0.00    -0.252 OA
BRANCH   3   5
ATOM      5  C   UNL     1       1.423  -0.170  -1.894  1.00  0.00     0.126 C 
BRANCH   5   6
ATOM      6  C   UNL     1       0.723   0.724  -0.858  1.00  0.00     0.006 C 
ATOM      7  C   UNL     1       1.172   0.419   0.577  1.00  0.00     0.009 C 
BRANCH   6   8
ATOM      8  C   UNL     1      -0.817   0.757  -1.016  1.00  0.00     0.103 C 
BRANCH   8   9
ATOM      9  C   UNL     1      -1.416   1.811  -0.151  1.00  0.00     0.216 A 
ATOM     10  N   UNL     1      -1.989   1.681   1.025  1.00  0.00    -0.113 NA
ATOM     11  O   UNL     1      -1.132   3.115  -0.461  1.00  0.00    -0.425 OA
ATOM     12  N   UNL     1      -2.000   2.938   1.586  1.00  0.00    -0.113 NA
ATOM     13  C   UNL     1      -1.457   3.759   0.707  1.00  0.00     0.220 A 
BRANCH  13  14
ATOM     14  C   UNL     1      -0.964   5.141   1.115  1.00  0.00     0.090 C 
ATOM     15  C   UNL     1       0.040   5.850   0.190  1.00  0.00    -0.017 C 
ATOM     16  C   UNL     1      -1.297   6.504   0.539  1.00  0.00    -0.017 C 
ATOM     17  C   UNL     1       1.337   6.246   0.860  1.00  0.00     0.012 C 
ATOM     18  C   UNL     1       0.257   5.499  -1.270  1.00  0.00     0.012 C 
ATOM     19  C   UNL     1      -2.416   6.625  -0.471  1.00  0.00     0.012 C 
ATOM     20  C   UNL     1      -1.255   7.699   1.477  1.00  0.00     0.012 C 
ENDBRANCH  13  14
ENDBRANCH   8   9
ENDBRANCH   6   8
ENDBRANCH   5   6
ENDBRANCH   3   5
ENDBRANCH   2   3
ENDBRANCH   1   2
BRANCH   1  21
ATOM     21  C   UNL     1      -0.914  -3.979  -0.974  1.00  0.00     0.275 C 
BRANCH  21  22
ATOM     22  O   UNL     1      -1.273  -3.525  -2.289  1.00  0.00    -0.458 OA
BRANCH  22  23
ATOM     23  C   UNL     1      -2.279  -2.623  -2.342  1.00  0.00     0.338 C 
ATOM     24  O   UNL     1      -2.944  -2.194  -1.417  1.00  0.00    -0.246 OA
BRANCH  23  25
ATOM     25  C   UNL     1      -2.490  -2.218  -3.737  1.00  0.00     0.060 A 
ATOM     26  C   UNL     1      -1.504  -1.508  -4.427  1.00  0.00     0.016 A 
ATOM     27  C   UNL     1      -3.722  -2.490  -4.332  1.00  0.00     0.016 A 
ATOM     28  C   UNL     1      -1.759  -1.048  -5.718  1.00  0.00     0.010 A 
ATOM     29  C   UNL     1      -3.954  -2.074  -5.642  1.00  0.00     0.010 A 
ATOM     30  C   UNL     1      -2.980  -1.340  -6.341  1.00  0.00    -0.014 A 
BRANCH  30  31
ATOM     31  C   UNL     1      -3.259  -0.903  -7.730  1.00  0.00     0.031 A 
ATOM     32  C   UNL     1      -4.327   0.119  -7.996  1.00  0.00     0.074 A 
ATOM     33  C   UNL     1      -2.591  -1.472  -8.751  1.00  0.00     0.049 A 
ATOM     34  N   UNL     1      -4.852   0.487  -9.135  1.00  0.00    -0.248 NA
ATOM     35  C   UNL     1      -4.883   0.812  -6.823  1.00  0.00     0.031 C 
ATOM     36  C   UNL     1      -1.513  -2.454  -8.613  1.00  0.00     0.029 A 
ATOM     37  N   UNL     1      -2.737  -1.325 -10.106  1.00  0.00    -0.354 N 
ATOM     38  C   UNL     1      -5.819   1.433  -8.819  1.00  0.00     0.074 A 
ATOM     39  C   UNL     1      -5.814   1.576  -7.378  1.00  0.00     0.031 C 
ATOM     40  C   UNL     1      -1.097  -2.823  -9.835  1.00  0.00     0.029 A 
ATOM     41  C   UNL     1      -1.918  -2.152 -10.838  1.00  0.00     0.049 A 
ATOM     42  H   UNL     1      -3.366  -0.688 -10.516  1.00  0.00     0.167 HD
ATOM     43  C   UNL     1      -6.636   2.116  -9.656  1.00  0.00     0.037 A 
ATOM     44  C   UNL     1      -1.865  -2.377 -12.164  1.00  0.00     0.037 A 
ATOM     45  C   UNL     1      -6.626   1.970 -11.089  1.00  0.00     0.049 A 
ATOM     46  C   UNL     1      -2.820  -1.653 -13.069  1.00  0.00     0.074 A 
ATOM     47  C   UNL     1      -7.405   2.623 -12.029  1.00  0.00     0.029 A 
ATOM     48  N   UNL     1      -5.791   1.112 -11.790  1.00  0.00    -0.354 N 
ATOM     49  N   UNL     1      -3.745  -0.778 -12.756  1.00  0.00    -0.248 NA
ATOM     50  C   UNL     1      -2.736  -1.957 -14.503  1.00  0.00     0.031 C 
ATOM     51  C   UNL     1      -7.063   2.135 -13.296  1.00  0.00     0.029 A 
ATOM     52  C   UNL     1      -6.046   1.205 -13.148  1.00  0.00     0.049 A 
ATOM     53  H   UNL     1      -5.116   0.522 -11.382  1.00  0.00     0.167 HD
ATOM     54  C   UNL     1      -4.346  -0.416 -13.955  1.00  0.00     0.074 A 
ATOM     55  C   UNL     1      -3.672  -1.160 -15.001  1.00  0.00     0.031 C 
ATOM     56  C   UNL     1      -5.363   0.454 -14.172  1.00  0.00     0.037 A 
BRANCH  43  57
ATOM     57  C   UNL     1      -7.627   3.062  -9.039  1.00  0.00     0.058 A 
ATOM     58  C   UNL     1      -7.231   4.298  -8.505  1.00  0.00     0.135 A 
ATOM     59  C   UNL     1      -8.992   2.736  -8.996  1.00  0.00     0.135 A 
ATOM     60  F   UNL     1      -5.936   4.651  -8.505  1.00  0.00    -0.206 F 
ATOM     61  C   UNL     1      -8.151   5.167  -7.926  1.00  0.00     0.059 A 
ATOM     62  C   UNL     1      -9.932   3.599  -8.440  1.00  0.00     0.059 A 
ATOM     63  F   UNL     1      -9.423   1.565  -9.492  1.00  0.00    -0.206 F 
ATOM     64  C   UNL     1      -9.499   4.806  -7.893  1.00  0.00     0.060 A 
BRANCH  64  65
ATOM     65  S   UNL     1     -10.682   5.937  -7.130  1.00  0.00     0.124 S 
ATOM     66  O   UNL     1     -10.431   5.706  -5.711  1.00  0.00    -0.237 OA
ATOM     67  O   UNL     1     -10.256   7.234  -7.645  1.00  0.00    -0.237 OA
ATOM     68  O   UNL     1     -11.971   5.464  -7.626  1.00  0.00    -0.744 OA
ENDBRANCH  64  65
ENDBRANCH  43  57
BRANCH  44  69
ATOM     69  C   UNL     1      -0.883  -3.352 -12.704  1.00  0.00     0.058 A 
ATOM     70  C   UNL     1       0.249  -2.916 -13.405  1.00  0.00     0.135 A 
ATOM     71  C   UNL     1      -1.036  -4.731 -12.495  1.00  0.00     0.135 A 
ATOM     72  F   UNL     1       0.432  -1.607 -13.635  1.00  0.00    -0.206 F 
ATOM     73  C   UNL     1       1.200  -3.813 -13.880  1.00  0.00     0.059 A 
ATOM     74  C   UNL     1      -0.089  -5.646 -12.943  1.00  0.00     0.059 A 
ATOM     75  F   UNL     1      -2.098  -5.196 -11.819  1.00  0.00    -0.206 F 
ATOM     76  C   UNL     1       1.024  -5.177 -13.640  1.00  0.00     0.060 A 
BRANCH  76  77
ATOM     77  S   UNL     1       2.300  -6.329 -14.195  1.00  0.00     0.124 S 
ATOM     78  O   UNL     1       2.010  -6.421 -15.621  1.00  0.00    -0.237 OA
ATOM     79  O   UNL     1       3.529  -5.627 -13.837  1.00  0.00    -0.237 OA
ATOM     80  O   UNL     1       2.025  -7.532 -13.414  1.00  0.00    -0.744 OA
ENDBRANCH  76  77
ENDBRANCH  44  69
BRANCH  56  81
ATOM     81  C   UNL     1      -5.792   0.663 -15.595  1.00  0.00     0.058 A 
ATOM     82  C   UNL     1      -6.585  -0.279 -16.267  1.00  0.00     0.135 A 
ATOM     83  C   UNL     1      -5.440   1.838 -16.278  1.00  0.00     0.135 A 
ATOM     84  F   UNL     1      -6.938  -1.422 -15.659  1.00  0.00    -0.206 F 
ATOM     85  C   UNL     1      -7.003  -0.070 -17.577  1.00  0.00     0.059 A 
ATOM     86  C   UNL     1      -5.863   2.076 -17.581  1.00  0.00     0.059 A 
ATOM     87  F   UNL     1      -4.687   2.771 -15.674  1.00  0.00    -0.206 F 
ATOM     88  C   UNL     1      -6.636   1.111 -18.226  1.00  0.00     0.060 A 
BRANCH  88  89
ATOM     89  S   UNL     1      -7.213   1.391 -19.914  1.00  0.00     0.124 S 
ATOM     90  O   UNL     1      -6.301   0.548 -20.679  1.00  0.00    -0.237 OA
ATOM     91  O   UNL     1      -8.598   0.935 -19.854  1.00  0.00    -0.237 OA
ATOM     92  O   UNL     1      -7.041   2.830 -20.095  1.00  0.00    -0.744 OA
ENDBRANCH  88  89
ENDBRANCH  56  81
ENDBRANCH  30  31
ENDBRANCH  23  25
ENDBRANCH  22  23
ENDBRANCH  21  22
ENDBRANCH   1  21
TORSDOF 18
