REMARK SMILES COc1cc2c(c(OC)c1)[C@H](C)C[C@H](CC(=O)OCCOC(=O)c1ccc(-c3c4nc(c(-c5c(F)cc(S(=O)(=O)[O-])cc5F)c5ccc([nH]5)c(-c5c(F)cc(S(=O)(=O)[O-])cc5F)c5nc(c(-c6c(F)cc(S(=O)(=O)[O-])cc6F)c6ccc3[nH]6)C=C5)C=C4)cc1)C2
REMARK SMILES IDX 20 1 19 2 18 3 16 4 17 5 15 6 14 7 3 8 4 9 10 10 5 11 7 12
REMARK SMILES IDX 6 13 90 14 11 15 12 16 13 17 2 18 1 19 8 20 9 21 21 22 22 23
REMARK SMILES IDX 23 24 24 25 25 26 89 27 26 28 88 29 27 30 28 31 29 32 82 33
REMARK SMILES IDX 30 34 87 35 81 36 83 37 31 38 86 39 80 40 79 41 32 43 66 44
REMARK SMILES IDX 45 45 65 46 46 47 49 48 64 49 84 50 47 51 48 52 63 54 85 55
REMARK SMILES IDX 50 56 33 57 34 58 43 59 35 60 36 61 42 62 44 63 37 64 38 65
REMARK SMILES IDX 39 66 40 67 41 68 67 69 68 70 77 71 69 72 70 73 76 74 78 75
REMARK SMILES IDX 71 76 72 77 73 78 74 79 75 80 51 81 52 82 61 83 53 84 54 85
REMARK SMILES IDX 60 86 62 87 55 88 56 89 57 90 58 91 59 92
REMARK H PARENT 83 42 49 53
REMARK Flexibility Score: inf
ROOT
ATOM      1  C   UNL     1       1.521   0.866  11.542  1.00  0.00     0.275 C 
ENDROOT
BRANCH   1   2
ATOM      2  C   UNL     1       0.722  -0.436  11.466  1.00  0.00     0.274 C 
BRANCH   2   3
ATOM      3  O   UNL     1       0.324  -0.718  10.111  1.00  0.00    -0.462 OA
BRANCH   3   4
ATOM      4  C   UNL     1      -0.972  -0.478   9.791  1.00  0.00     0.306 C 
ATOM      5  O   UNL     1      -1.825  -0.091  10.581  1.00  0.00    -0.252 OA
BRANCH   4   6
ATOM      6  C   UNL     1      -1.298  -0.805   8.348  1.00  0.00     0.126 C 
BRANCH   6   7
ATOM      7  C   UNL     1      -0.148  -0.647   7.338  1.00  0.00     0.005 C 
ATOM      8  C   UNL     1       0.921   0.143   2.556  1.00  0.00     0.122 A 
ATOM      9  C   UNL     1       0.014   0.137   3.612  1.00  0.00     0.050 A 
ATOM     10  C   UNL     1       2.199  -0.361   2.759  1.00  0.00     0.093 A 
ATOM     11  C   UNL     1       0.342  -0.443   4.852  1.00  0.00    -0.037 A 
ATOM     12  C   UNL     1       2.546  -0.917   3.996  1.00  0.00     0.126 A 
ATOM     13  C   UNL     1       1.604  -1.045   5.040  1.00  0.00     0.000 A 
ATOM     14  C   UNL     1      -0.717  -0.436   5.928  1.00  0.00     0.040 C 
ATOM     15  C   UNL     1       1.930  -1.757   6.345  1.00  0.00     0.020 C 
ATOM     16  C   UNL     1       2.484  -3.177   6.143  1.00  0.00     0.013 C 
ATOM     17  C   UNL     1       0.732  -1.895   7.305  1.00  0.00     0.012 C 
BRANCH   8  18
ATOM     18  O   UNL     1       0.472   0.703   1.391  1.00  0.00    -0.497 OA
ATOM     19  C   UNL     1       1.031   0.151   0.204  1.00  0.00     0.278 C 
ENDBRANCH   8  18
BRANCH  12  20
ATOM     20  O   UNL     1       3.837  -1.376   4.080  1.00  0.00    -0.496 OA
ATOM     21  C   UNL     1       4.627  -0.611   4.992  1.00  0.00     0.278 C 
ENDBRANCH  12  20
ENDBRANCH   6   7
ENDBRANCH   4   6
ENDBRANCH   3   4
ENDBRANCH   2   3
ENDBRANCH   1   2
BRANCH   1  22
ATOM     22  O   UNL     1       0.675   2.002  11.298  1.00  0.00    -0.458 OA
BRANCH  22  23
ATOM     23  C   UNL     1       0.661   2.453  10.024  1.00  0.00     0.338 C 
ATOM     24  O   UNL     1       1.342   2.054   9.089  1.00  0.00    -0.246 OA
BRANCH  23  25
ATOM     25  C   UNL     1      -0.418   3.438   9.876  1.00  0.00     0.060 A 
ATOM     26  C   UNL     1      -1.513   3.107   9.073  1.00  0.00     0.016 A 
ATOM     27  C   UNL     1      -0.332   4.691  10.484  1.00  0.00     0.016 A 
ATOM     28  C   UNL     1      -2.537   4.030   8.880  1.00  0.00     0.010 A 
ATOM     29  C   UNL     1      -1.360   5.616  10.287  1.00  0.00     0.010 A 
ATOM     30  C   UNL     1      -2.465   5.294   9.479  1.00  0.00    -0.014 A 
BRANCH  30  31
ATOM     31  C   UNL     1      -3.529   6.294   9.230  1.00  0.00     0.031 A 
ATOM     32  C   UNL     1      -3.265   7.447   8.305  1.00  0.00     0.074 A 
ATOM     33  C   UNL     1      -4.722   6.168   9.841  1.00  0.00     0.049 A 
ATOM     34  N   UNL     1      -4.024   8.476   8.030  1.00  0.00    -0.248 NA
ATOM     35  C   UNL     1      -1.973   7.446   7.600  1.00  0.00     0.031 C 
ATOM     36  C   UNL     1      -5.098   5.077  10.742  1.00  0.00     0.029 A 
ATOM     37  N   UNL     1      -5.834   6.972   9.807  1.00  0.00    -0.354 N 
ATOM     38  C   UNL     1      -3.297   9.256   7.140  1.00  0.00     0.074 A 
ATOM     39  C   UNL     1      -2.031   8.587   6.927  1.00  0.00     0.031 C 
ATOM     40  C   UNL     1      -6.348   5.288  11.187  1.00  0.00     0.029 A 
ATOM     41  C   UNL     1      -6.846   6.545  10.634  1.00  0.00     0.049 A 
ATOM     42  H   UNL     1      -5.900   7.777   9.245  1.00  0.00     0.167 HD
ATOM     43  C   UNL     1      -3.657  10.423   6.555  1.00  0.00     0.037 A 
ATOM     44  C   UNL     1      -8.027   7.120  10.935  1.00  0.00     0.037 A 
ATOM     45  C   UNL     1      -4.928  11.068   6.754  1.00  0.00     0.049 A 
ATOM     46  C   UNL     1      -8.392   8.429  10.289  1.00  0.00     0.074 A 
ATOM     47  C   UNL     1      -5.400  12.235   6.179  1.00  0.00     0.029 A 
ATOM     48  N   UNL     1      -5.930  10.604   7.594  1.00  0.00    -0.354 N 
ATOM     49  N   UNL     1      -7.701   9.147   9.435  1.00  0.00    -0.248 NA
ATOM     50  C   UNL     1      -9.695   9.008  10.645  1.00  0.00     0.031 C 
ATOM     51  C   UNL     1      -6.673  12.496   6.698  1.00  0.00     0.029 A 
ATOM     52  C   UNL     1      -7.010  11.470   7.567  1.00  0.00     0.049 A 
ATOM     53  H   UNL     1      -5.880   9.779   8.130  1.00  0.00     0.167 HD
ATOM     54  C   UNL     1      -8.492  10.252   9.140  1.00  0.00     0.074 A 
ATOM     55  C   UNL     1      -9.720  10.100   9.894  1.00  0.00     0.031 C 
ATOM     56  C   UNL     1      -8.227  11.298   8.319  1.00  0.00     0.037 A 
BRANCH  43  57
ATOM     57  C   UNL     1      -2.657  11.094   5.657  1.00  0.00     0.058 A 
ATOM     58  C   UNL     1      -2.385  10.618   4.366  1.00  0.00     0.135 A 
ATOM     59  C   UNL     1      -2.004  12.265   6.076  1.00  0.00     0.135 A 
ATOM     60  F   UNL     1      -2.969   9.493   3.923  1.00  0.00    -0.206 F 
ATOM     61  C   UNL     1      -1.492  11.274   3.523  1.00  0.00     0.059 A 
ATOM     62  C   UNL     1      -1.123  12.948   5.244  1.00  0.00     0.059 A 
ATOM     63  F   UNL     1      -2.226  12.759   7.304  1.00  0.00    -0.206 F 
ATOM     64  C   UNL     1      -0.867  12.440   3.971  1.00  0.00     0.060 A 
BRANCH  64  65
ATOM     65  S   UNL     1       0.269  13.295   2.859  1.00  0.00     0.124 S 
ATOM     66  O   UNL     1       1.437  12.421   2.907  1.00  0.00    -0.237 OA
ATOM     67  O   UNL     1      -0.468  13.298   1.599  1.00  0.00    -0.237 OA
ATOM     68  O   UNL     1       0.438  14.603   3.485  1.00  0.00    -0.744 OA
ENDBRANCH  64  65
ENDBRANCH  43  57
BRANCH  44  69
ATOM     69  C   UNL     1      -8.937   6.477  11.919  1.00  0.00     0.058 A 
ATOM     70  C   UNL     1     -10.149   5.898  11.518  1.00  0.00     0.135 A 
ATOM     71  C   UNL     1      -8.611   6.435  13.284  1.00  0.00     0.135 A 
ATOM     72  F   UNL     1     -10.509   5.922  10.226  1.00  0.00    -0.206 F 
ATOM     73  C   UNL     1     -11.018   5.317  12.437  1.00  0.00     0.059 A 
ATOM     74  C   UNL     1      -9.451   5.838  14.218  1.00  0.00     0.059 A 
ATOM     75  F   UNL     1      -7.457   6.965  13.717  1.00  0.00    -0.206 F 
ATOM     76  C   UNL     1     -10.659   5.293  13.787  1.00  0.00     0.060 A 
BRANCH  76  77
ATOM     77  S   UNL     1     -11.773   4.506  14.971  1.00  0.00     0.124 S 
ATOM     78  O   UNL     1     -12.803   5.527  15.126  1.00  0.00    -0.237 OA
ATOM     79  O   UNL     1     -12.176   3.296  14.261  1.00  0.00    -0.237 OA
ATOM     80  O   UNL     1     -10.920   4.285  16.135  1.00  0.00    -0.744 OA
ENDBRANCH  76  77
ENDBRANCH  44  69
BRANCH  56  81
ATOM     81  C   UNL     1      -9.293  12.346   8.171  1.00  0.00     0.058 A 
ATOM     82  C   UNL     1      -9.542  13.288   9.180  1.00  0.00     0.135 A 
ATOM     83  C   UNL     1     -10.038  12.439   6.985  1.00  0.00     0.135 A 
ATOM     84  F   UNL     1      -8.860  13.238  10.335  1.00  0.00    -0.206 F 
ATOM     85  C   UNL     1     -10.509  14.277   9.027  1.00  0.00     0.059 A 
ATOM     86  C   UNL     1     -10.994  13.433   6.801  1.00  0.00     0.059 A 
ATOM     87  F   UNL     1      -9.831  11.567   5.986  1.00  0.00    -0.206 F 
ATOM     88  C   UNL     1     -11.230  14.341   7.833  1.00  0.00     0.060 A 
BRANCH  88  89
ATOM     89  S   UNL     1     -12.459  15.648   7.629  1.00  0.00     0.124 S 
ATOM     90  O   UNL     1     -13.565  15.138   8.433  1.00  0.00    -0.237 OA
ATOM     91  O   UNL     1     -11.770  16.816   8.169  1.00  0.00    -0.237 OA
ATOM     92  O   UNL     1     -12.689  15.675   6.188  1.00  0.00    -0.744 OA
ENDBRANCH  88  89
ENDBRANCH  56  81
ENDBRANCH  30  31
ENDBRANCH  23  25
ENDBRANCH  22  23
ENDBRANCH   1  22
TORSDOF 17
