REMARK SMILES Cc1nccn1CCC[NH+]1CCC2(CC1)[C@@H](C(=O)OCCOC(=O)c1ccc(-c3c4nc(c(-c5c(F)cc(S(=O)(=O)[O-])cc5F)c5ccc([nH]5)c(-c5c(F)cc(S(=O)(=O)[O-])cc5F)c5nc(c(-c6c(F)cc(S(=O)(=O)[O-])cc6F)c6ccc3[nH]6)C=C5)C=C4)cc1)CC(=O)N2C
REMARK SMILES IDX 20 1 19 2 17 3 18 4 16 5 10 6 11 7 15 8 12 10 14 11 13 12
REMARK SMILES IDX 94 13 91 14 92 15 95 16 93 17 9 18 8 19 7 20 6 21 1 22 2 23
REMARK SMILES IDX 3 24 4 25 5 26 21 27 22 28 23 29 24 30 25 31 26 32 90 33
REMARK SMILES IDX 27 34 89 35 28 36 29 37 30 38 83 39 31 40 88 41 82 42 84 43
REMARK SMILES IDX 32 44 87 45 81 46 80 47 33 49 67 50 46 51 66 52 47 53 50 54
REMARK SMILES IDX 65 55 85 56 48 57 49 58 64 60 86 61 51 62 34 63 35 64 44 65
REMARK SMILES IDX 36 66 37 67 43 68 45 69 38 70 39 71 40 72 41 73 42 74 68 75
REMARK SMILES IDX 69 76 78 77 70 78 71 79 77 80 79 81 72 82 73 83 74 84 75 85
REMARK SMILES IDX 76 86 52 87 53 88 62 89 54 90 55 91 61 92 63 93 56 94 57 95
REMARK SMILES IDX 58 96 59 97 60 98
REMARK H PARENT 10 9 84 48 50 59
REMARK Flexibility Score: inf
ROOT
ATOM      1  C   UNL     1      -1.195   3.453   1.762  1.00  0.00     0.274 C 
ENDROOT
BRANCH   1   2
ATOM      2  O   UNL     1      -0.868   2.172   2.365  1.00  0.00    -0.462 OA
BRANCH   2   3
ATOM      3  C   UNL     1      -1.866   1.563   3.082  1.00  0.00     0.311 C 
ATOM      4  O   UNL     1      -2.915   2.104   3.365  1.00  0.00    -0.252 OA
BRANCH   3   5
ATOM      5  C   UNL     1      -1.455   0.133   3.507  1.00  0.00     0.134 C 
ATOM      6  N   UNL     1      -3.988  -2.854   1.889  1.00  0.00    -0.335 N 
ATOM      7  C   UNL     1      -3.051  -3.398   2.854  1.00  0.00     0.264 C 
ATOM      8  C   UNL     1      -4.720  -1.705   2.359  1.00  0.00     0.264 C 
ATOM      9  H   UNL     1      -4.689  -3.594   1.864  1.00  0.00     0.348 HD
ATOM     10  C   UNL     1      -2.097  -2.409   3.557  1.00  0.00     0.091 C 
ATOM     11  C   UNL     1      -3.812  -0.572   2.801  1.00  0.00     0.091 C 
ATOM     12  C   UNL     1      -2.611  -0.928   3.719  1.00  0.00     0.067 C 
ATOM     13  N   UNL     1      -2.896  -0.749   5.151  1.00  0.00    -0.339 N 
ATOM     14  C   UNL     1      -0.760   0.229   4.857  1.00  0.00     0.118 C 
ATOM     15  C   UNL     1      -1.812  -0.211   5.840  1.00  0.00     0.223 C 
ATOM     16  C   UNL     1      -3.882  -1.531   5.869  1.00  0.00     0.147 C 
ATOM     17  O   UNL     1      -1.679  -0.173   7.054  1.00  0.00    -0.275 OA
BRANCH   6  18
ATOM     18  C   UNL     1      -3.736  -2.993   0.460  1.00  0.00     0.264 C 
BRANCH  18  19
ATOM     19  C   UNL     1      -2.789  -2.012  -0.246  1.00  0.00     0.083 C 
BRANCH  19  20
ATOM     20  C   UNL     1      -1.437  -1.815   0.426  1.00  0.00     0.129 C 
BRANCH  20  21
ATOM     21  N   UNL     1      -0.359  -2.748   0.234  1.00  0.00    -0.335 N 
ATOM     22  C   UNL     1       1.609  -1.128   0.511  1.00  0.00     0.087 C 
ATOM     23  C   UNL     1       0.994  -2.474   0.353  1.00  0.00     0.105 A 
ATOM     24  N   UNL     1       1.691  -3.591   0.316  1.00  0.00    -0.242 NA
ATOM     25  C   UNL     1       0.793  -4.594   0.112  1.00  0.00     0.131 A 
ATOM     26  C   UNL     1      -0.484  -4.096   0.059  1.00  0.00     0.107 A 
ENDBRANCH  20  21
ENDBRANCH  19  20
ENDBRANCH  18  19
ENDBRANCH   6  18
ENDBRANCH   3   5
ENDBRANCH   2   3
ENDBRANCH   1   2
BRANCH   1  27
ATOM     27  C   UNL     1      -0.288   3.809   0.558  1.00  0.00     0.275 C 
BRANCH  27  28
ATOM     28  O   UNL     1      -0.693   3.282  -0.728  1.00  0.00    -0.458 OA
BRANCH  28  29
ATOM     29  C   UNL     1      -0.519   1.954  -0.822  1.00  0.00     0.338 C 
ATOM     30  O   UNL     1      -0.368   1.207   0.136  1.00  0.00    -0.246 OA
BRANCH  29  31
ATOM     31  C   UNL     1      -0.344   1.422  -2.184  1.00  0.00     0.060 A 
ATOM     32  C   UNL     1      -0.437   0.037  -2.275  1.00  0.00     0.016 A 
ATOM     33  C   UNL     1       0.208   2.140  -3.236  1.00  0.00     0.016 A 
ATOM     34  C   UNL     1       0.278  -0.670  -3.200  1.00  0.00     0.010 A 
ATOM     35  C   UNL     1       0.785   1.427  -4.290  1.00  0.00     0.010 A 
ATOM     36  C   UNL     1       0.911   0.028  -4.212  1.00  0.00    -0.014 A 
BRANCH  36  37
ATOM     37  C   UNL     1       1.586  -0.819  -5.198  1.00  0.00     0.031 A 
ATOM     38  C   UNL     1       0.737  -1.931  -5.770  1.00  0.00     0.074 A 
ATOM     39  C   UNL     1       2.834  -0.525  -5.603  1.00  0.00     0.049 A 
ATOM     40  N   UNL     1       1.030  -3.175  -6.003  1.00  0.00    -0.248 NA
ATOM     41  C   UNL     1      -0.698  -1.624  -5.975  1.00  0.00     0.031 C 
ATOM     42  C   UNL     1       3.635   0.653  -5.251  1.00  0.00     0.029 A 
ATOM     43  N   UNL     1       3.578  -1.105  -6.578  1.00  0.00    -0.354 N 
ATOM     44  C   UNL     1      -0.124  -3.746  -6.547  1.00  0.00     0.074 A 
ATOM     45  C   UNL     1      -1.189  -2.803  -6.344  1.00  0.00     0.031 C 
ATOM     46  C   UNL     1       4.525   0.878  -6.239  1.00  0.00     0.029 A 
ATOM     47  C   UNL     1       4.411  -0.196  -7.210  1.00  0.00     0.049 A 
ATOM     48  H   UNL     1       3.532  -2.060  -6.809  1.00  0.00     0.167 HD
ATOM     49  C   UNL     1      -0.123  -4.864  -7.324  1.00  0.00     0.037 A 
ATOM     50  C   UNL     1       4.762  -0.229  -8.519  1.00  0.00     0.037 A 
ATOM     51  C   UNL     1       1.023  -5.692  -7.091  1.00  0.00     0.049 A 
ATOM     52  C   UNL     1       4.525  -1.618  -9.007  1.00  0.00     0.074 A 
ATOM     53  C   UNL     1       1.516  -6.363  -5.987  1.00  0.00     0.029 A 
ATOM     54  N   UNL     1       2.051  -5.678  -8.001  1.00  0.00    -0.354 N 
ATOM     55  N   UNL     1       5.171  -2.669  -8.571  1.00  0.00    -0.248 NA
ATOM     56  C   UNL     1       3.251  -1.902  -9.655  1.00  0.00     0.031 C 
ATOM     57  C   UNL     1       2.933  -6.251  -6.092  1.00  0.00     0.029 A 
ATOM     58  C   UNL     1       3.204  -5.550  -7.266  1.00  0.00     0.049 A 
ATOM     59  H   UNL     1       1.977  -5.745  -8.980  1.00  0.00     0.167 HD
ATOM     60  C   UNL     1       4.228  -3.689  -8.536  1.00  0.00     0.074 A 
ATOM     61  C   UNL     1       3.085  -3.175  -9.287  1.00  0.00     0.031 C 
ATOM     62  C   UNL     1       4.333  -4.747  -7.677  1.00  0.00     0.037 A 
BRANCH  49  63
ATOM     63  C   UNL     1      -1.031  -5.021  -8.524  1.00  0.00     0.058 A 
ATOM     64  C   UNL     1      -1.150  -6.266  -9.172  1.00  0.00     0.135 A 
ATOM     65  C   UNL     1      -1.582  -3.919  -9.219  1.00  0.00     0.135 A 
ATOM     66  F   UNL     1      -0.645  -7.378  -8.615  1.00  0.00    -0.206 F 
ATOM     67  C   UNL     1      -1.721  -6.393 -10.442  1.00  0.00     0.059 A 
ATOM     68  C   UNL     1      -2.207  -4.032 -10.453  1.00  0.00     0.059 A 
ATOM     69  F   UNL     1      -1.452  -2.660  -8.782  1.00  0.00    -0.206 F 
ATOM     70  C   UNL     1      -2.230  -5.264 -11.080  1.00  0.00     0.060 A 
BRANCH  70  71
ATOM     71  S   UNL     1      -2.844  -5.386 -12.769  1.00  0.00     0.124 S 
ATOM     72  O   UNL     1      -1.603  -5.559 -13.514  1.00  0.00    -0.237 OA
ATOM     73  O   UNL     1      -3.715  -6.554 -12.694  1.00  0.00    -0.237 OA
ATOM     74  O   UNL     1      -3.530  -4.113 -12.968  1.00  0.00    -0.744 OA
ENDBRANCH  70  71
ENDBRANCH  49  63
BRANCH  50  75
ATOM     75  C   UNL     1       4.782   0.971  -9.404  1.00  0.00     0.058 A 
ATOM     76  C   UNL     1       5.451   0.962 -10.636  1.00  0.00     0.135 A 
ATOM     77  C   UNL     1       3.973   2.103  -9.149  1.00  0.00     0.135 A 
ATOM     78  F   UNL     1       6.193  -0.098 -10.990  1.00  0.00    -0.206 F 
ATOM     79  C   UNL     1       5.338   2.017 -11.553  1.00  0.00     0.059 A 
ATOM     80  C   UNL     1       3.869   3.176 -10.029  1.00  0.00     0.059 A 
ATOM     81  F   UNL     1       3.186   2.174  -8.065  1.00  0.00    -0.206 F 
ATOM     82  C   UNL     1       4.544   3.121 -11.238  1.00  0.00     0.060 A 
BRANCH  82  83
ATOM     83  S   UNL     1       4.317   4.443 -12.448  1.00  0.00     0.124 S 
ATOM     84  O   UNL     1       5.657   5.014 -12.525  1.00  0.00    -0.237 OA
ATOM     85  O   UNL     1       3.866   3.707 -13.624  1.00  0.00    -0.237 OA
ATOM     86  O   UNL     1       3.310   5.302 -11.829  1.00  0.00    -0.744 OA
ENDBRANCH  82  83
ENDBRANCH  50  75
BRANCH  62  87
ATOM     87  C   UNL     1       5.600  -4.920  -6.881  1.00  0.00     0.058 A 
ATOM     88  C   UNL     1       6.040  -3.995  -5.918  1.00  0.00     0.135 A 
ATOM     89  C   UNL     1       6.279  -6.146  -6.943  1.00  0.00     0.135 A 
ATOM     90  F   UNL     1       5.372  -2.855  -5.706  1.00  0.00    -0.206 F 
ATOM     91  C   UNL     1       7.131  -4.253  -5.088  1.00  0.00     0.059 A 
ATOM     92  C   UNL     1       7.352  -6.439  -6.102  1.00  0.00     0.059 A 
ATOM     93  F   UNL     1       5.862  -7.104  -7.787  1.00  0.00    -0.206 F 
ATOM     94  C   UNL     1       7.781  -5.481  -5.185  1.00  0.00     0.060 A 
BRANCH  94  95
ATOM     95  S   UNL     1       9.136  -5.845  -4.048  1.00  0.00     0.124 S 
ATOM     96  O   UNL     1      10.207  -5.003  -4.571  1.00  0.00    -0.237 OA
ATOM     97  O   UNL     1       8.588  -5.443  -2.756  1.00  0.00    -0.237 OA
ATOM     98  O   UNL     1       9.338  -7.283  -4.208  1.00  0.00    -0.744 OA
ENDBRANCH  94  95
ENDBRANCH  62  87
ENDBRANCH  36  37
ENDBRANCH  29  31
ENDBRANCH  28  29
ENDBRANCH  27  28
ENDBRANCH   1  27
TORSDOF 18
