REMARK SMILES Cc1ccc(C(=O)OCCOC(=O)c2ccc(-c3c4nc(c(-c5c(F)cc(S(=O)(=O)[O-])cc5F)c5ccc([nH]5)c(-c5c(F)cc(S(=O)(=O)[O-])cc5F)c5nc(c(-c6c(F)cc(S(=O)(=O)[O-])cc6F)c6ccc3[nH]6)C=C5)C=C4)cc2)cc1N[C@H]1CCCc2cccnc21
REMARK SMILES IDX 10 1 9 2 8 3 6 4 7 5 5 6 1 7 2 8 3 9 81 10 4 11 80 12 82 13
REMARK SMILES IDX 83 15 84 16 92 17 85 18 87 19 91 20 86 21 88 22 90 23 89 24
REMARK SMILES IDX 11 25 12 26 13 27 14 28 15 29 79 30 16 31 78 32 17 33 18 34
REMARK SMILES IDX 19 35 72 36 20 37 77 38 71 39 73 40 21 41 76 42 70 43 69 44
REMARK SMILES IDX 22 46 56 47 35 48 55 49 36 50 39 51 54 52 74 53 37 54 38 55
REMARK SMILES IDX 53 57 75 58 40 59 23 60 24 61 33 62 25 63 26 64 32 65 34 66
REMARK SMILES IDX 27 67 28 68 29 69 30 70 31 71 57 72 58 73 67 74 59 75 60 76
REMARK SMILES IDX 66 77 68 78 61 79 62 80 63 81 64 82 65 83 41 84 42 85 51 86
REMARK SMILES IDX 43 87 44 88 50 89 52 90 45 91 46 92 47 93 48 94 49 95
REMARK H PARENT 82 14 73 45 39 56
REMARK Flexibility Score: inf
ROOT
ATOM      1  C   UNL     1       2.791  -0.932   4.643  1.00  0.00     0.275 C 
ENDROOT
BRANCH   1   2
ATOM      2  C   UNL     1       1.945   0.016   3.779  1.00  0.00     0.275 C 
BRANCH   2   3
ATOM      3  O   UNL     1       2.743   1.054   3.191  1.00  0.00    -0.458 OA
BRANCH   3   4
ATOM      4  C   UNL     1       2.090   2.234   3.083  1.00  0.00     0.338 C 
ATOM      5  O   UNL     1       0.913   2.432   3.357  1.00  0.00    -0.246 OA
BRANCH   4   6
ATOM      6  C   UNL     1       2.839   3.226   2.302  1.00  0.00     0.062 A 
ATOM      7  C   UNL     1       3.136   6.936   0.165  1.00  0.00     0.046 C 
ATOM      8  C   UNL     1       3.047   5.594   0.836  1.00  0.00    -0.028 A 
ATOM      9  C   UNL     1       3.686   5.457   2.089  1.00  0.00     0.006 A 
ATOM     10  C   UNL     1       2.311   4.512   0.322  1.00  0.00     0.038 A 
ATOM     11  C   UNL     1       3.529   4.297   2.851  1.00  0.00     0.016 A 
ATOM     12  C   UNL     1       2.367   3.296   1.003  1.00  0.00     0.041 A 
BRANCH  10  13
ATOM     13  N   UNL     1       1.355   4.652  -0.679  1.00  0.00    -0.376 N 
ATOM     14  H   UNL     1       1.524   5.243  -1.448  1.00  0.00     0.161 HD
BRANCH  13  15
ATOM     15  C   UNL     1       0.083   3.906  -0.577  1.00  0.00     0.128 C 
ATOM     16  C   UNL     1      -0.780   4.416   0.595  1.00  0.00     0.032 C 
ATOM     17  C   UNL     1      -0.645   3.906  -1.907  1.00  0.00     0.066 A 
ATOM     18  C   UNL     1      -1.557   5.663   0.207  1.00  0.00     0.007 C 
ATOM     19  C   UNL     1      -1.854   4.585  -2.071  1.00  0.00    -0.024 A 
ATOM     20  N   UNL     1      -0.076   3.161  -2.898  1.00  0.00    -0.259 NA
ATOM     21  C   UNL     1      -2.504   5.352  -0.949  1.00  0.00     0.037 C 
ATOM     22  C   UNL     1      -2.505   4.458  -3.301  1.00  0.00     0.007 A 
ATOM     23  C   UNL     1      -0.731   3.067  -4.067  1.00  0.00     0.111 A 
ATOM     24  C   UNL     1      -1.938   3.689  -4.314  1.00  0.00     0.020 A 
ENDBRANCH  13  15
ENDBRANCH  10  13
ENDBRANCH   4   6
ENDBRANCH   3   4
ENDBRANCH   2   3
ENDBRANCH   1   2
BRANCH   1  25
ATOM     25  O   UNL     1       3.470  -0.411   5.812  1.00  0.00    -0.458 OA
BRANCH  25  26
ATOM     26  C   UNL     1       3.823   0.895   5.804  1.00  0.00     0.338 C 
ATOM     27  O   UNL     1       4.824   1.322   5.223  1.00  0.00    -0.246 OA
BRANCH  26  28
ATOM     28  C   UNL     1       2.711   1.708   6.352  1.00  0.00     0.060 A 
ATOM     29  C   UNL     1       2.671   3.084   6.095  1.00  0.00     0.016 A 
ATOM     30  C   UNL     1       1.575   1.039   6.820  1.00  0.00     0.016 A 
ATOM     31  C   UNL     1       1.462   3.768   6.150  1.00  0.00     0.010 A 
ATOM     32  C   UNL     1       0.364   1.678   6.777  1.00  0.00     0.010 A 
ATOM     33  C   UNL     1       0.312   3.041   6.451  1.00  0.00    -0.014 A 
BRANCH  33  34
ATOM     34  C   UNL     1      -0.939   3.658   6.838  1.00  0.00     0.031 A 
ATOM     35  C   UNL     1      -2.022   3.945   5.885  1.00  0.00     0.074 A 
ATOM     36  C   UNL     1      -1.017   3.729   8.183  1.00  0.00     0.049 A 
ATOM     37  N   UNL     1      -2.935   4.832   6.082  1.00  0.00    -0.248 NA
ATOM     38  C   UNL     1      -2.160   3.273   4.593  1.00  0.00     0.031 C 
ATOM     39  C   UNL     1      -2.138   3.908   9.078  1.00  0.00     0.029 A 
ATOM     40  N   UNL     1       0.087   3.752   9.033  1.00  0.00    -0.354 N 
ATOM     41  C   UNL     1      -3.937   4.599   5.159  1.00  0.00     0.074 A 
ATOM     42  C   UNL     1      -3.344   3.735   4.167  1.00  0.00     0.031 C 
ATOM     43  C   UNL     1      -1.661   4.293  10.281  1.00  0.00     0.029 A 
ATOM     44  C   UNL     1      -0.222   4.519  10.138  1.00  0.00     0.049 A 
ATOM     45  H   UNL     1       0.945   3.296   8.872  1.00  0.00     0.167 HD
ATOM     46  C   UNL     1      -5.219   4.960   5.466  1.00  0.00     0.037 A 
ATOM     47  C   UNL     1       0.405   5.731  10.246  1.00  0.00     0.037 A 
ATOM     48  C   UNL     1      -5.248   5.529   6.812  1.00  0.00     0.049 A 
ATOM     49  C   UNL     1      -0.602   6.842  10.073  1.00  0.00     0.074 A 
ATOM     50  C   UNL     1      -5.472   4.911   8.032  1.00  0.00     0.029 A 
ATOM     51  N   UNL     1      -4.623   6.741   7.089  1.00  0.00    -0.354 N 
ATOM     52  N   UNL     1      -1.620   6.800   9.255  1.00  0.00    -0.248 NA
ATOM     53  C   UNL     1      -0.599   8.022  10.928  1.00  0.00     0.031 C 
ATOM     54  C   UNL     1      -4.898   5.715   9.042  1.00  0.00     0.029 A 
ATOM     55  C   UNL     1      -4.328   6.823   8.439  1.00  0.00     0.049 A 
ATOM     56  H   UNL     1      -4.419   7.437   6.423  1.00  0.00     0.167 HD
ATOM     57  C   UNL     1      -2.457   7.848   9.544  1.00  0.00     0.074 A 
ATOM     58  C   UNL     1      -1.754   8.605  10.568  1.00  0.00     0.031 C 
ATOM     59  C   UNL     1      -3.703   8.002   9.006  1.00  0.00     0.037 A 
BRANCH  46  60
ATOM     60  C   UNL     1      -6.453   4.412   4.766  1.00  0.00     0.058 A 
ATOM     61  C   UNL     1      -7.634   4.141   5.498  1.00  0.00     0.135 A 
ATOM     62  C   UNL     1      -6.528   4.093   3.396  1.00  0.00     0.135 A 
ATOM     63  F   UNL     1      -7.762   4.486   6.785  1.00  0.00    -0.206 F 
ATOM     64  C   UNL     1      -8.744   3.498   4.952  1.00  0.00     0.059 A 
ATOM     65  C   UNL     1      -7.625   3.423   2.828  1.00  0.00     0.059 A 
ATOM     66  F   UNL     1      -5.548   4.448   2.551  1.00  0.00    -0.206 F 
ATOM     67  C   UNL     1      -8.723   3.112   3.622  1.00  0.00     0.060 A 
BRANCH  67  68
ATOM     68  S   UNL     1     -10.153   2.226   2.970  1.00  0.00     0.124 S 
ATOM     69  O   UNL     1     -10.204   1.049   3.834  1.00  0.00    -0.237 OA
ATOM     70  O   UNL     1     -11.227   3.195   3.158  1.00  0.00    -0.237 OA
ATOM     71  O   UNL     1      -9.786   1.961   1.582  1.00  0.00    -0.744 OA
ENDBRANCH  67  68
ENDBRANCH  46  60
BRANCH  47  72
ATOM     72  C   UNL     1       1.831   5.755   9.763  1.00  0.00     0.058 A 
ATOM     73  C   UNL     1       2.742   4.818  10.305  1.00  0.00     0.135 A 
ATOM     74  C   UNL     1       2.271   6.467   8.636  1.00  0.00     0.135 A 
ATOM     75  F   UNL     1       2.401   4.101  11.389  1.00  0.00    -0.206 F 
ATOM     76  C   UNL     1       3.967   4.525   9.707  1.00  0.00     0.059 A 
ATOM     77  C   UNL     1       3.508   6.199   8.025  1.00  0.00     0.059 A 
ATOM     78  F   UNL     1       1.480   7.383   8.061  1.00  0.00    -0.206 F 
ATOM     79  C   UNL     1       4.335   5.205   8.551  1.00  0.00     0.060 A 
BRANCH  79  80
ATOM     80  S   UNL     1       5.808   4.641   7.655  1.00  0.00     0.124 S 
ATOM     81  O   UNL     1       6.878   5.311   8.383  1.00  0.00    -0.237 OA
ATOM     82  O   UNL     1       5.731   3.194   7.832  1.00  0.00    -0.237 OA
ATOM     83  O   UNL     1       5.566   5.119   6.296  1.00  0.00    -0.744 OA
ENDBRANCH  79  80
ENDBRANCH  47  72
BRANCH  59  84
ATOM     84  C   UNL     1      -4.535   9.249   9.115  1.00  0.00     0.058 A 
ATOM     85  C   UNL     1      -3.976  10.534   9.160  1.00  0.00     0.135 A 
ATOM     86  C   UNL     1      -5.946   9.189   9.003  1.00  0.00     0.135 A 
ATOM     87  F   UNL     1      -2.647  10.717   9.155  1.00  0.00    -0.206 F 
ATOM     88  C   UNL     1      -4.762  11.682   9.171  1.00  0.00     0.059 A 
ATOM     89  C   UNL     1      -6.744  10.322   8.948  1.00  0.00     0.059 A 
ATOM     90  F   UNL     1      -6.602   8.021   8.927  1.00  0.00    -0.206 F 
ATOM     91  C   UNL     1      -6.144  11.566   9.063  1.00  0.00     0.060 A 
BRANCH  91  92
ATOM     92  S   UNL     1      -7.159  13.049   9.024  1.00  0.00     0.124 S 
ATOM     93  O   UNL     1      -7.379  13.283  10.447  1.00  0.00    -0.237 OA
ATOM     94  O   UNL     1      -6.292  14.013   8.351  1.00  0.00    -0.237 OA
ATOM     95  O   UNL     1      -8.331  12.633   8.261  1.00  0.00    -0.744 OA
ENDBRANCH  91  92
ENDBRANCH  59  84
ENDBRANCH  33  34
ENDBRANCH  26  28
ENDBRANCH  25  26
ENDBRANCH   1  25
TORSDOF 16
