REMARK SMILES CCCC1CN(c2ccc(C(=O)NCC(=O)OCCOC(=O)c3ccc(-c4c5nc(c(-c6c(F)cc(S(=O)(=O)[O-])cc6F)c6ccc([nH]6)c(-c6c(F)cc(S(=O)(=O)[O-])cc6F)c6nc(c(-c7c(F)cc(S(=O)(=O)[O-])cc7F)c7ccc4[nH]7)C=C6)C=C5)cc3)cc2)C1
REMARK SMILES IDX 18 1 17 2 15 3 16 4 14 5 13 6 11 7 12 8 10 10 7 11 8 12
REMARK SMILES IDX 90 13 9 14 89 15 6 16 4 17 5 18 91 19 3 20 2 21 1 22 19 23
REMARK SMILES IDX 20 24 21 25 22 26 23 27 24 28 88 29 25 30 87 31 26 32 27 33
REMARK SMILES IDX 28 34 81 35 29 36 86 37 80 38 82 39 30 40 85 41 79 42 78 43
REMARK SMILES IDX 31 45 65 46 44 47 64 48 45 49 48 50 63 51 83 52 46 53 47 54
REMARK SMILES IDX 62 56 84 57 49 58 32 59 33 60 42 61 34 62 35 63 41 64 43 65
REMARK SMILES IDX 36 66 37 67 38 68 39 69 40 70 66 71 67 72 76 73 68 74 69 75
REMARK SMILES IDX 75 76 77 77 70 78 71 79 72 80 73 81 74 82 50 83 51 84 60 85
REMARK SMILES IDX 52 86 53 87 59 88 61 89 54 90 55 91 56 92 57 93 58 94
REMARK H PARENT 13 9 82 44 48 55
REMARK Flexibility Score: inf
ROOT
ATOM      1  C   UNL     1      -2.992   0.668  10.828  1.00  0.00     0.274 C 
ENDROOT
BRANCH   1   2
ATOM      2  O   UNL     1      -1.793   1.238  10.274  1.00  0.00    -0.461 OA
BRANCH   2   3
ATOM      3  C   UNL     1      -1.944   2.014   9.166  1.00  0.00     0.325 C 
ATOM      4  O   UNL     1      -2.991   2.142   8.542  1.00  0.00    -0.250 OA
BRANCH   3   5
ATOM      5  C   UNL     1      -0.686   2.829   8.853  1.00  0.00     0.239 C 
BRANCH   5   6
ATOM      6  N   UNL     1       0.513   2.333   9.501  1.00  0.00    -0.341 N 
ATOM      7  C   UNL     1       1.523   1.548   9.020  1.00  0.00     0.251 C 
ATOM      8  O   UNL     1       2.484   1.304   9.748  1.00  0.00    -0.269 OA
ATOM      9  H   UNL     1       0.617   2.606  10.441  1.00  0.00     0.164 HD
BRANCH   7  10
ATOM     10  C   UNL     1       1.515   1.014   7.632  1.00  0.00     0.039 A 
ATOM     11  C   UNL     1       1.673  -0.037   5.023  1.00  0.00     0.037 A 
ATOM     12  C   UNL     1       2.829   0.361   5.698  1.00  0.00     0.027 A 
ATOM     13  C   UNL     1       0.440   0.076   5.669  1.00  0.00     0.027 A 
ATOM     14  C   UNL     1       2.752   0.889   6.989  1.00  0.00     0.016 A 
ATOM     15  C   UNL     1       0.363   0.570   6.974  1.00  0.00     0.016 A 
BRANCH  11  16
ATOM     16  N   UNL     1       1.788  -0.571   3.727  1.00  0.00    -0.371 N 
ATOM     17  C   UNL     1       0.791  -1.586   2.195  1.00  0.00     0.028 C 
ATOM     18  C   UNL     1       1.628  -1.964   3.422  1.00  0.00     0.122 C 
ATOM     19  C   UNL     1       1.054  -0.126   2.578  1.00  0.00     0.122 C 
BRANCH  17  20
ATOM     20  C   UNL     1       1.339  -2.119   0.875  1.00  0.00     0.007 C 
BRANCH  20  21
ATOM     21  C   UNL     1       0.530  -1.640  -0.331  1.00  0.00    -0.003 C 
ATOM     22  C   UNL     1       0.816  -0.198  -0.724  1.00  0.00     0.004 C 
ENDBRANCH  20  21
ENDBRANCH  17  20
ENDBRANCH  11  16
ENDBRANCH   7  10
ENDBRANCH   5   6
ENDBRANCH   3   5
ENDBRANCH   2   3
ENDBRANCH   1   2
BRANCH   1  23
ATOM     23  C   UNL     1      -3.477   1.492  12.025  1.00  0.00     0.275 C 
BRANCH  23  24
ATOM     24  O   UNL     1      -3.985   2.778  11.617  1.00  0.00    -0.458 OA
BRANCH  24  25
ATOM     25  C   UNL     1      -3.082   3.781  11.599  1.00  0.00     0.338 C 
ATOM     26  O   UNL     1      -1.894   3.717  11.899  1.00  0.00    -0.246 OA
BRANCH  25  27
ATOM     27  C   UNL     1      -3.685   4.981  11.010  1.00  0.00     0.060 A 
ATOM     28  C   UNL     1      -3.407   5.273   9.674  1.00  0.00     0.016 A 
ATOM     29  C   UNL     1      -4.438   5.861  11.786  1.00  0.00     0.016 A 
ATOM     30  C   UNL     1      -3.848   6.461   9.111  1.00  0.00     0.010 A 
ATOM     31  C   UNL     1      -4.926   7.035  11.203  1.00  0.00     0.010 A 
ATOM     32  C   UNL     1      -4.626   7.346   9.864  1.00  0.00    -0.014 A 
BRANCH  32  33
ATOM     33  C   UNL     1      -5.132   8.582   9.225  1.00  0.00     0.031 A 
ATOM     34  C   UNL     1      -4.624   9.923   9.661  1.00  0.00     0.074 A 
ATOM     35  C   UNL     1      -6.034   8.482   8.230  1.00  0.00     0.049 A 
ATOM     36  N   UNL     1      -5.021  11.112   9.293  1.00  0.00    -0.248 NA
ATOM     37  C   UNL     1      -3.530   9.929  10.644  1.00  0.00     0.031 C 
ATOM     38  C   UNL     1      -6.568   7.224   7.700  1.00  0.00     0.029 A 
ATOM     39  N   UNL     1      -6.660   9.448   7.487  1.00  0.00    -0.354 N 
ATOM     40  C   UNL     1      -4.259  12.010  10.028  1.00  0.00     0.074 A 
ATOM     41  C   UNL     1      -3.372  11.227  10.863  1.00  0.00     0.031 C 
ATOM     42  C   UNL     1      -7.431   7.496   6.710  1.00  0.00     0.029 A 
ATOM     43  C   UNL     1      -7.561   8.943   6.581  1.00  0.00     0.049 A 
ATOM     44  H   UNL     1      -6.482  10.411   7.593  1.00  0.00     0.167 HD
ATOM     45  C   UNL     1      -4.306  13.364  10.010  1.00  0.00     0.037 A 
ATOM     46  C   UNL     1      -8.428   9.573   5.767  1.00  0.00     0.037 A 
ATOM     47  C   UNL     1      -5.171  14.128   9.149  1.00  0.00     0.049 A 
ATOM     48  C   UNL     1      -8.481  11.072   5.783  1.00  0.00     0.074 A 
ATOM     49  C   UNL     1      -5.264  15.502   9.020  1.00  0.00     0.029 A 
ATOM     50  N   UNL     1      -6.095  13.580   8.270  1.00  0.00    -0.354 N 
ATOM     51  N   UNL     1      -7.765  11.910   6.494  1.00  0.00    -0.248 NA
ATOM     52  C   UNL     1      -9.470  11.710   4.906  1.00  0.00     0.031 C 
ATOM     53  C   UNL     1      -6.271  15.786   8.089  1.00  0.00     0.029 A 
ATOM     54  C   UNL     1      -6.783  14.588   7.614  1.00  0.00     0.049 A 
ATOM     55  H   UNL     1      -6.240  12.616   8.132  1.00  0.00     0.167 HD
ATOM     56  C   UNL     1      -8.223  13.177   6.161  1.00  0.00     0.074 A 
ATOM     57  C   UNL     1      -9.260  12.995   5.163  1.00  0.00     0.031 C 
ATOM     58  C   UNL     1      -7.828  14.381   6.643  1.00  0.00     0.037 A 
BRANCH  45  59
ATOM     59  C   UNL     1      -3.430  14.096  10.985  1.00  0.00     0.058 A 
ATOM     60  C   UNL     1      -2.044  14.212  10.800  1.00  0.00     0.135 A 
ATOM     61  C   UNL     1      -3.992  14.691  12.126  1.00  0.00     0.135 A 
ATOM     62  F   UNL     1      -1.454  13.645   9.736  1.00  0.00    -0.206 F 
ATOM     63  C   UNL     1      -1.240  14.865  11.730  1.00  0.00     0.059 A 
ATOM     64  C   UNL     1      -3.210  15.366  13.059  1.00  0.00     0.059 A 
ATOM     65  F   UNL     1      -5.312  14.606  12.351  1.00  0.00    -0.206 F 
ATOM     66  C   UNL     1      -1.832  15.432  12.861  1.00  0.00     0.060 A 
BRANCH  66  67
ATOM     67  S   UNL     1      -0.779  16.256  14.075  1.00  0.00     0.124 S 
ATOM     68  O   UNL     1      -0.205  15.115  14.782  1.00  0.00    -0.237 OA
ATOM     69  O   UNL     1       0.146  17.009  13.232  1.00  0.00    -0.237 OA
ATOM     70  O   UNL     1      -1.719  17.065  14.845  1.00  0.00    -0.744 OA
ENDBRANCH  66  67
ENDBRANCH  45  59
BRANCH  46  71
ATOM     71  C   UNL     1      -9.341   8.767   4.919  1.00  0.00     0.058 A 
ATOM     72  C   UNL     1      -9.135   8.652   3.538  1.00  0.00     0.135 A 
ATOM     73  C   UNL     1     -10.391   8.030   5.491  1.00  0.00     0.135 A 
ATOM     74  F   UNL     1      -8.150   9.344   2.947  1.00  0.00    -0.206 F 
ATOM     75  C   UNL     1      -9.929   7.821   2.753  1.00  0.00     0.059 A 
ATOM     76  C   UNL     1     -11.184   7.177   4.731  1.00  0.00     0.059 A 
ATOM     77  F   UNL     1     -10.618   8.098   6.812  1.00  0.00    -0.206 F 
ATOM     78  C   UNL     1     -10.944   7.079   3.361  1.00  0.00     0.060 A 
BRANCH  78  79
ATOM     79  S   UNL     1     -11.898   5.918   2.358  1.00  0.00     0.124 S 
ATOM     80  O   UNL     1     -12.831   6.812   1.683  1.00  0.00    -0.237 OA
ATOM     81  O   UNL     1     -10.869   5.316   1.516  1.00  0.00    -0.237 OA
ATOM     82  O   UNL     1     -12.483   5.023   3.352  1.00  0.00    -0.744 OA
ENDBRANCH  78  79
ENDBRANCH  46  71
BRANCH  58  83
ATOM     83  C   UNL     1      -8.537  15.590   6.109  1.00  0.00     0.058 A 
ATOM     84  C   UNL     1      -9.825  15.930   6.550  1.00  0.00     0.135 A 
ATOM     85  C   UNL     1      -7.914  16.435   5.178  1.00  0.00     0.135 A 
ATOM     86  F   UNL     1     -10.465  15.146   7.432  1.00  0.00    -0.206 F 
ATOM     87  C   UNL     1     -10.480  17.059   6.073  1.00  0.00     0.059 A 
ATOM     88  C   UNL     1      -8.543  17.580   4.701  1.00  0.00     0.059 A 
ATOM     89  F   UNL     1      -6.679  16.154   4.731  1.00  0.00    -0.206 F 
ATOM     90  C   UNL     1      -9.831  17.878   5.147  1.00  0.00     0.060 A 
BRANCH  90  91
ATOM     91  S   UNL     1     -10.676  19.359   4.554  1.00  0.00     0.124 S 
ATOM     92  O   UNL     1     -11.604  18.795   3.578  1.00  0.00    -0.237 OA
ATOM     93  O   UNL     1     -11.282  19.887   5.772  1.00  0.00    -0.237 OA
ATOM     94  O   UNL     1      -9.594  20.166   3.999  1.00  0.00    -0.744 OA
ENDBRANCH  90  91
ENDBRANCH  58  83
ENDBRANCH  32  33
ENDBRANCH  25  27
ENDBRANCH  24  25
ENDBRANCH  23  24
ENDBRANCH   1  23
TORSDOF 19
