REMARK SMILES O=C(OCCOC(=O)[C@@H]1CC=CC[C@H]1C(=O)N1CC[NH+](Cc2ccc3c(c2)OCO3)CC1)c1ccc(-c2c3nc(c(-c4c(F)cc(S(=O)(=O)[O-])cc4F)c4ccc([nH]4)c(-c4c(F)cc(S(=O)(=O)[O-])cc4F)c4nc(c(-c5c(F)cc(S(=O)(=O)[O-])cc5F)c5ccc2[nH]5)C=C4)C=C3)cc1
REMARK SMILES IDX 4 1 3 2 2 3 1 4 33 5 34 6 98 7 35 8 97 9 36 10 37 11 38 12
REMARK SMILES IDX 91 13 39 14 96 15 90 16 92 17 40 18 95 19 89 20 88 21 41 23
REMARK SMILES IDX 75 24 54 25 74 26 55 27 58 28 73 29 93 30 56 31 57 32 72 34
REMARK SMILES IDX 94 35 59 36 42 37 43 38 52 39 44 40 45 41 51 42 53 43 46 44
REMARK SMILES IDX 47 45 48 46 49 47 50 48 76 49 77 50 86 51 78 52 79 53 85 54
REMARK SMILES IDX 87 55 80 56 81 57 82 58 83 59 84 60 60 61 61 62 70 63 62 64
REMARK SMILES IDX 63 65 69 66 71 67 64 68 65 69 66 70 67 71 68 72 5 73 6 74
REMARK SMILES IDX 7 75 8 76 9 77 10 78 14 79 11 80 13 81 12 82 15 83 16 84
REMARK SMILES IDX 17 85 18 86 32 87 19 88 31 89 20 90 21 92 22 93 23 94 27 95
REMARK SMILES IDX 24 96 26 97 25 98 28 99 30 100 29 101
REMARK H PARENT 92 22 58 33 20 91
REMARK Flexibility Score: inf
ROOT
ATOM      1  C   UNL     1      -0.082  -3.533   2.815  1.00  0.00     0.275 C 
ENDROOT
BRANCH   1   2
ATOM      2  O   UNL     1       0.144  -2.998   1.496  1.00  0.00    -0.458 OA
BRANCH   2   3
ATOM      3  C   UNL     1       0.838  -1.891   1.147  1.00  0.00     0.338 C 
ATOM      4  O   UNL     1       1.218  -1.766  -0.014  1.00  0.00    -0.246 OA
BRANCH   3   5
ATOM      5  C   UNL     1       1.268  -0.852   2.131  1.00  0.00     0.060 A 
ATOM      6  C   UNL     1       0.584  -0.714   3.714  1.00  0.00     0.016 A 
ATOM      7  C   UNL     1       2.652   0.069   1.650  1.00  0.00     0.016 A 
ATOM      8  C   UNL     1       1.284   0.164   5.004  1.00  0.00     0.010 A 
ATOM      9  C   UNL     1       3.404   1.099   2.848  1.00  0.00     0.010 A 
ATOM     10  C   UNL     1       2.686   1.150   4.682  1.00  0.00    -0.014 A 
BRANCH  10  11
ATOM     11  C   UNL     1       3.020   1.805   6.130  1.00  0.00     0.031 A 
ATOM     12  C   UNL     1       2.376   3.094   6.619  1.00  0.00     0.074 A 
ATOM     13  C   UNL     1       3.734   1.184   7.106  1.00  0.00     0.049 A 
ATOM     14  N   UNL     1       2.793   3.946   7.528  1.00  0.00    -0.248 NA
ATOM     15  C   UNL     1       1.064   3.438   6.062  1.00  0.00     0.031 C 
ATOM     16  C   UNL     1       4.120  -0.209   7.131  1.00  0.00     0.029 A 
ATOM     17  N   UNL     1       4.372   1.678   8.229  1.00  0.00    -0.354 N 
ATOM     18  C   UNL     1       1.835   4.955   7.591  1.00  0.00     0.074 A 
ATOM     19  C   UNL     1       0.835   4.630   6.597  1.00  0.00     0.031 C 
ATOM     20  C   UNL     1       5.128  -0.413   7.983  1.00  0.00     0.029 A 
ATOM     21  C   UNL     1       5.377   0.833   8.672  1.00  0.00     0.049 A 
ATOM     22  H   UNL     1       4.140   2.530   8.664  1.00  0.00     0.167 HD
ATOM     23  C   UNL     1       1.757   6.019   8.432  1.00  0.00     0.037 A 
ATOM     24  C   UNL     1       6.410   1.015   9.513  1.00  0.00     0.037 A 
ATOM     25  C   UNL     1       2.639   6.237   9.555  1.00  0.00     0.049 A 
ATOM     26  C   UNL     1       6.415   2.238  10.363  1.00  0.00     0.074 A 
ATOM     27  C   UNL     1       2.611   7.264  10.487  1.00  0.00     0.029 A 
ATOM     28  N   UNL     1       3.660   5.383   9.945  1.00  0.00    -0.354 N 
ATOM     29  N   UNL     1       5.614   3.271  10.298  1.00  0.00    -0.248 NA
ATOM     30  C   UNL     1       7.382   2.278  11.464  1.00  0.00     0.031 C 
ATOM     31  C   UNL     1       3.616   7.033  11.435  1.00  0.00     0.029 A 
ATOM     32  C   UNL     1       4.255   5.850  11.109  1.00  0.00     0.049 A 
ATOM     33  H   UNL     1       3.924   4.564   9.466  1.00  0.00     0.167 HD
ATOM     34  C   UNL     1       5.922   4.047  11.402  1.00  0.00     0.074 A 
ATOM     35  C   UNL     1       7.005   3.380  12.098  1.00  0.00     0.031 C 
ATOM     36  C   UNL     1       5.324   5.189  11.813  1.00  0.00     0.037 A 
BRANCH  23  37
ATOM     37  C   UNL     1       0.668   7.037   8.192  1.00  0.00     0.058 A 
ATOM     38  C   UNL     1      -0.688   6.763   8.432  1.00  0.00     0.135 A 
ATOM     39  C   UNL     1       0.999   8.334   7.760  1.00  0.00     0.135 A 
ATOM     40  F   UNL     1      -1.069   5.543   8.843  1.00  0.00    -0.206 F 
ATOM     41  C   UNL     1      -1.677   7.718   8.210  1.00  0.00     0.059 A 
ATOM     42  C   UNL     1       0.030   9.316   7.566  1.00  0.00     0.059 A 
ATOM     43  F   UNL     1       2.280   8.664   7.531  1.00  0.00    -0.206 F 
ATOM     44  C   UNL     1      -1.309   8.991   7.773  1.00  0.00     0.060 A 
BRANCH  44  45
ATOM     45  S   UNL     1      -2.601  10.220   7.488  1.00  0.00     0.124 S 
ATOM     46  O   UNL     1      -3.150   9.773   6.211  1.00  0.00    -0.237 OA
ATOM     47  O   UNL     1      -3.469  10.041   8.647  1.00  0.00    -0.237 OA
ATOM     48  O   UNL     1      -1.867  11.482   7.449  1.00  0.00    -0.744 OA
ENDBRANCH  44  45
ENDBRANCH  23  37
BRANCH  24  49
ATOM     49  C   UNL     1       7.490  -0.003   9.610  1.00  0.00     0.058 A 
ATOM     50  C   UNL     1       7.559  -0.912  10.674  1.00  0.00     0.135 A 
ATOM     51  C   UNL     1       8.480  -0.083   8.616  1.00  0.00     0.135 A 
ATOM     52  F   UNL     1       6.630  -0.881  11.641  1.00  0.00    -0.206 F 
ATOM     53  C   UNL     1       8.589  -1.843  10.770  1.00  0.00     0.059 A 
ATOM     54  C   UNL     1       9.513  -1.014   8.683  1.00  0.00     0.059 A 
ATOM     55  F   UNL     1       8.444   0.749   7.563  1.00  0.00    -0.206 F 
ATOM     56  C   UNL     1       9.567  -1.881   9.773  1.00  0.00     0.060 A 
BRANCH  56  57
ATOM     57  S   UNL     1      10.896  -3.097   9.912  1.00  0.00     0.124 S 
ATOM     58  O   UNL     1      11.672  -2.559  11.024  1.00  0.00    -0.237 OA
ATOM     59  O   UNL     1      10.159  -4.327  10.184  1.00  0.00    -0.237 OA
ATOM     60  O   UNL     1      11.545  -3.040   8.605  1.00  0.00    -0.744 OA
ENDBRANCH  56  57
ENDBRANCH  24  49
BRANCH  36  61
ATOM     61  C   UNL     1       5.792   5.762  13.116  1.00  0.00     0.058 A 
ATOM     62  C   UNL     1       7.039   6.392  13.237  1.00  0.00     0.135 A 
ATOM     63  C   UNL     1       4.984   5.671  14.261  1.00  0.00     0.135 A 
ATOM     64  F   UNL     1       7.854   6.487  12.174  1.00  0.00    -0.206 F 
ATOM     65  C   UNL     1       7.484   6.888  14.457  1.00  0.00     0.059 A 
ATOM     66  C   UNL     1       5.399   6.183  15.486  1.00  0.00     0.059 A 
ATOM     67  F   UNL     1       3.783   5.076  14.197  1.00  0.00    -0.206 F 
ATOM     68  C   UNL     1       6.657   6.776  15.576  1.00  0.00     0.060 A 
BRANCH  68  69
ATOM     69  S   UNL     1       7.240   7.439  17.150  1.00  0.00     0.124 S 
ATOM     70  O   UNL     1       8.202   6.421  17.559  1.00  0.00    -0.237 OA
ATOM     71  O   UNL     1       7.807   8.725  16.758  1.00  0.00    -0.237 OA
ATOM     72  O   UNL     1       6.025   7.516  17.956  1.00  0.00    -0.744 OA
ENDBRANCH  68  69
ENDBRANCH  36  61
ENDBRANCH  10  11
ENDBRANCH   3   5
ENDBRANCH   2   3
ENDBRANCH   1   2
BRANCH   1  73
ATOM     73  C   UNL     1       1.181  -3.821   3.650  1.00  0.00     0.274 C 
BRANCH  73  74
ATOM     74  O   UNL     1       2.235  -2.888   3.355  1.00  0.00    -0.462 OA
BRANCH  74  75
ATOM     75  C   UNL     1       2.587  -2.010   4.361  1.00  0.00     0.310 C 
ATOM     76  O   UNL     1       2.571  -2.344   5.532  1.00  0.00    -0.252 OA
BRANCH  75  77
ATOM     77  C   UNL     1       2.876  -0.492   3.681  1.00  0.00     0.115 C 
ATOM     78  C   UNL     1       4.676   0.143   4.223  1.00  0.00     0.043 C 
ATOM     79  C   UNL     1       1.559   1.195   3.085  1.00  0.00     0.097 C 
ATOM     80  C   UNL     1       5.001   1.965   4.325  1.00  0.00    -0.030 C 
ATOM     81  C   UNL     1       2.457   2.944   3.211  1.00  0.00     0.041 C 
ATOM     82  C   UNL     1       4.129   3.046   3.939  1.00  0.00    -0.030 C 
BRANCH  79  83
ATOM     83  C   UNL     1       0.430   1.508   1.823  1.00  0.00     0.227 C 
ATOM     84  O   UNL     1      -0.766   1.244   2.031  1.00  0.00    -0.275 OA
ATOM     85  N   UNL     1       0.784   2.144   0.630  1.00  0.00    -0.331 N 
ATOM     86  C   UNL     1      -0.170   3.146   0.121  1.00  0.00     0.181 C 
ATOM     87  C   UNL     1       1.200   1.327  -0.500  1.00  0.00     0.181 C 
ATOM     88  C   UNL     1       0.300   3.873  -1.182  1.00  0.00     0.284 C 
ATOM     89  C   UNL     1       1.951   2.150  -1.540  1.00  0.00     0.284 C 
ATOM     90  N   UNL     1       1.068   3.114  -2.193  1.00  0.00    -0.328 N 
ATOM     91  H   UNL     1       1.628   3.825  -2.663  1.00  0.00     0.348 HD
BRANCH  90  92
ATOM     92  C   UNL     1       0.346   2.573  -3.359  1.00  0.00     0.299 C 
BRANCH  92  93
ATOM     93  C   UNL     1      -0.359   1.237  -3.198  1.00  0.00     0.010 A 
ATOM     94  C   UNL     1      -1.665   1.185  -2.660  1.00  0.00     0.013 A 
ATOM     95  C   UNL     1       0.329   0.027  -3.447  1.00  0.00     0.060 A 
ATOM     96  C   UNL     1      -2.244  -0.035  -2.289  1.00  0.00     0.051 A 
ATOM     97  C   UNL     1      -0.260  -1.157  -3.051  1.00  0.00     0.166 A 
ATOM     98  C   UNL     1      -1.505  -1.184  -2.470  1.00  0.00     0.165 A 
ATOM     99  O   UNL     1       0.308  -2.393  -3.116  1.00  0.00    -0.454 OA
ATOM    100  O   UNL     1      -1.871  -2.438  -2.086  1.00  0.00    -0.454 OA
ATOM    101  C   UNL     1      -0.656  -3.165  -2.368  1.00  0.00     0.468 C 
ENDBRANCH  92  93
ENDBRANCH  90  92
ENDBRANCH  79  83
ENDBRANCH  75  77
ENDBRANCH  74  75
ENDBRANCH  73  74
ENDBRANCH   1  73
TORSDOF 17
