REMARK SMILES O=C(OCCOC(=O)[C@@H]1c2[nH]cnc2CCN1C(=O)CCCc1c[nH]c2ccccc12)c1ccc(-c2c3nc(c(-c4c(F)cc(S(=O)(=O)[O-])cc4F)c4ccc([nH]4)c(-c4c(F)cc(S(=O)(=O)[O-])cc4F)c4nc(c(-c5c(F)cc(S(=O)(=O)[O-])cc5F)c5ccc2[nH]5)C=C4)C=C3)cc1
REMARK SMILES IDX 5 1 4 2 3 3 2 4 1 5 32 6 33 7 97 8 34 9 96 10 35 11 36 12
REMARK SMILES IDX 37 13 90 14 38 15 95 16 89 17 91 18 39 19 94 20 88 21 87 22
REMARK SMILES IDX 40 24 74 25 53 26 73 27 54 28 57 29 72 30 92 31 55 32 56 33
REMARK SMILES IDX 71 35 93 36 58 37 41 38 42 39 51 40 43 41 44 42 50 43 52 44
REMARK SMILES IDX 45 45 46 46 47 47 48 48 49 49 75 50 76 51 85 52 77 53 78 54
REMARK SMILES IDX 84 55 86 56 79 57 80 58 81 59 82 60 83 61 59 62 60 63 69 64
REMARK SMILES IDX 61 65 62 66 68 67 70 68 63 69 64 70 65 71 66 72 67 73 6 74
REMARK SMILES IDX 7 75 8 76 9 77 10 78 17 79 11 80 14 81 16 82 12 83 13 85
REMARK SMILES IDX 15 86 18 87 19 88 20 89 21 90 22 91 23 92 24 93 31 94 25 95
REMARK SMILES IDX 26 96 30 97 27 99 29 100 28 101
REMARK H PARENT 91 23 57 34 11 84 25 98
REMARK Flexibility Score: inf
ROOT
ATOM      1  C   UNL     1       1.705   1.529   3.914  1.00  0.00     0.274 C 
ENDROOT
BRANCH   1   2
ATOM      2  C   UNL     1       2.760   0.499   4.316  1.00  0.00     0.275 C 
BRANCH   2   3
ATOM      3  O   UNL     1       4.139   0.940   4.306  1.00  0.00    -0.458 OA
BRANCH   3   4
ATOM      4  C   UNL     1       4.520   1.880   3.411  1.00  0.00     0.338 C 
ATOM      5  O   UNL     1       4.433   3.084   3.596  1.00  0.00    -0.246 OA
BRANCH   4   6
ATOM      6  C   UNL     1       5.176   1.302   2.212  1.00  0.00     0.060 A 
ATOM      7  C   UNL     1       4.983  -0.027   1.822  1.00  0.00     0.016 A 
ATOM      8  C   UNL     1       5.997   2.143   1.447  1.00  0.00     0.016 A 
ATOM      9  C   UNL     1       5.660  -0.529   0.720  1.00  0.00     0.010 A 
ATOM     10  C   UNL     1       6.663   1.646   0.336  1.00  0.00     0.010 A 
ATOM     11  C   UNL     1       6.530   0.297   0.007  1.00  0.00    -0.014 A 
BRANCH  11  12
ATOM     12  C   UNL     1       7.294  -0.295  -1.085  1.00  0.00     0.031 A 
ATOM     13  C   UNL     1       6.517  -0.695  -2.287  1.00  0.00     0.074 A 
ATOM     14  C   UNL     1       8.639  -0.372  -1.055  1.00  0.00     0.049 A 
ATOM     15  N   UNL     1       6.345  -1.881  -2.776  1.00  0.00    -0.248 NA
ATOM     16  C   UNL     1       5.753   0.351  -2.982  1.00  0.00     0.031 C 
ATOM     17  C   UNL     1       9.542   0.244  -0.078  1.00  0.00     0.029 A 
ATOM     18  N   UNL     1       9.495  -0.921  -1.963  1.00  0.00    -0.354 N 
ATOM     19  C   UNL     1       5.653  -1.703  -3.974  1.00  0.00     0.074 A 
ATOM     20  C   UNL     1       5.163  -0.350  -3.951  1.00  0.00     0.031 C 
ATOM     21  C   UNL     1      10.799   0.233  -0.569  1.00  0.00     0.029 A 
ATOM     22  C   UNL     1      10.811  -0.500  -1.823  1.00  0.00     0.049 A 
ATOM     23  H   UNL     1       9.206  -1.558  -2.656  1.00  0.00     0.167 HD
ATOM     24  C   UNL     1       5.756  -2.600  -4.996  1.00  0.00     0.037 A 
ATOM     25  C   UNL     1      11.822  -0.673  -2.711  1.00  0.00     0.037 A 
ATOM     26  C   UNL     1       6.244  -3.876  -4.527  1.00  0.00     0.049 A 
ATOM     27  C   UNL     1      11.449  -1.803  -3.600  1.00  0.00     0.074 A 
ATOM     28  C   UNL     1       5.841  -4.787  -3.568  1.00  0.00     0.029 A 
ATOM     29  N   UNL     1       7.526  -4.242  -4.861  1.00  0.00    -0.354 N 
ATOM     30  N   UNL     1      11.352  -3.043  -3.206  1.00  0.00    -0.248 NA
ATOM     31  C   UNL     1      10.780  -1.497  -4.855  1.00  0.00     0.031 C 
ATOM     32  C   UNL     1       7.049  -5.327  -3.036  1.00  0.00     0.029 A 
ATOM     33  C   UNL     1       8.111  -4.751  -3.733  1.00  0.00     0.049 A 
ATOM     34  H   UNL     1       7.945  -4.155  -5.748  1.00  0.00     0.167 HD
ATOM     35  C   UNL     1      10.277  -3.557  -3.915  1.00  0.00     0.074 A 
ATOM     36  C   UNL     1      10.042  -2.600  -4.992  1.00  0.00     0.031 C 
ATOM     37  C   UNL     1       9.504  -4.558  -3.398  1.00  0.00     0.037 A 
BRANCH  24  38
ATOM     38  C   UNL     1       5.819  -2.216  -6.468  1.00  0.00     0.058 A 
ATOM     39  C   UNL     1       5.914  -3.242  -7.436  1.00  0.00     0.135 A 
ATOM     40  C   UNL     1       6.123  -0.919  -6.939  1.00  0.00     0.135 A 
ATOM     41  F   UNL     1       5.612  -4.511  -7.120  1.00  0.00    -0.206 F 
ATOM     42  C   UNL     1       6.421  -3.020  -8.717  1.00  0.00     0.059 A 
ATOM     43  C   UNL     1       6.578  -0.668  -8.229  1.00  0.00     0.059 A 
ATOM     44  F   UNL     1       6.091   0.163  -6.154  1.00  0.00    -0.206 F 
ATOM     45  C   UNL     1       6.785  -1.731  -9.089  1.00  0.00     0.060 A 
BRANCH  45  46
ATOM     46  S   UNL     1       7.605  -1.461 -10.669  1.00  0.00     0.124 S 
ATOM     47  O   UNL     1       8.911  -2.057 -10.415  1.00  0.00    -0.237 OA
ATOM     48  O   UNL     1       6.736  -2.187 -11.589  1.00  0.00    -0.237 OA
ATOM     49  O   UNL     1       7.585  -0.008 -10.809  1.00  0.00    -0.744 OA
ENDBRANCH  45  46
ENDBRANCH  24  38
BRANCH  25  50
ATOM     50  C   UNL     1      12.926   0.273  -3.026  1.00  0.00     0.058 A 
ATOM     51  C   UNL     1      14.033  -0.126  -3.797  1.00  0.00     0.135 A 
ATOM     52  C   UNL     1      12.796   1.660  -2.804  1.00  0.00     0.135 A 
ATOM     53  F   UNL     1      14.225  -1.424  -4.080  1.00  0.00    -0.206 F 
ATOM     54  C   UNL     1      14.928   0.796  -4.352  1.00  0.00     0.059 A 
ATOM     55  C   UNL     1      13.684   2.595  -3.330  1.00  0.00     0.059 A 
ATOM     56  F   UNL     1      11.743   2.163  -2.143  1.00  0.00    -0.206 F 
ATOM     57  C   UNL     1      14.734   2.158  -4.127  1.00  0.00     0.060 A 
BRANCH  57  58
ATOM     58  S   UNL     1      15.780   3.363  -4.976  1.00  0.00     0.124 S 
ATOM     59  O   UNL     1      17.061   3.177  -4.303  1.00  0.00    -0.237 OA
ATOM     60  O   UNL     1      15.714   2.910  -6.361  1.00  0.00    -0.237 OA
ATOM     61  O   UNL     1      15.116   4.637  -4.709  1.00  0.00    -0.744 OA
ENDBRANCH  57  58
ENDBRANCH  25  50
BRANCH  37  62
ATOM     62  C   UNL     1      10.036  -5.347  -2.233  1.00  0.00     0.058 A 
ATOM     63  C   UNL     1      10.315  -4.805  -0.967  1.00  0.00     0.135 A 
ATOM     64  C   UNL     1      10.131  -6.741  -2.369  1.00  0.00     0.135 A 
ATOM     65  F   UNL     1      10.140  -3.499  -0.721  1.00  0.00    -0.206 F 
ATOM     66  C   UNL     1      10.716  -5.608   0.102  1.00  0.00     0.059 A 
ATOM     67  C   UNL     1      10.498  -7.564  -1.309  1.00  0.00     0.059 A 
ATOM     68  F   UNL     1       9.815  -7.327  -3.537  1.00  0.00    -0.206 F 
ATOM     69  C   UNL     1      10.803  -6.989  -0.078  1.00  0.00     0.060 A 
BRANCH  69  70
ATOM     70  S   UNL     1      11.239  -8.032   1.329  1.00  0.00     0.124 S 
ATOM     71  O   UNL     1      12.660  -7.746   1.495  1.00  0.00    -0.237 OA
ATOM     72  O   UNL     1      10.364  -7.526   2.383  1.00  0.00    -0.237 OA
ATOM     73  O   UNL     1      10.923  -9.381   0.866  1.00  0.00    -0.744 OA
ENDBRANCH  69  70
ENDBRANCH  37  62
ENDBRANCH  11  12
ENDBRANCH   4   6
ENDBRANCH   3   4
ENDBRANCH   2   3
ENDBRANCH   1   2
BRANCH   1  74
ATOM     74  O   UNL     1       1.916   1.863   2.542  1.00  0.00    -0.460 OA
BRANCH  74  75
ATOM     75  C   UNL     1       1.775   3.184   2.192  1.00  0.00     0.335 C 
ATOM     76  O   UNL     1       1.364   4.076   2.921  1.00  0.00    -0.249 OA
BRANCH  75  77
ATOM     77  C   UNL     1       2.251   3.315   0.730  1.00  0.00     0.244 C 
ATOM     78  C   UNL     1       3.208   4.469   0.596  1.00  0.00     0.072 A 
ATOM     79  N   UNL     1       1.259   3.464  -0.368  1.00  0.00    -0.323 N 
ATOM     80  N   UNL     1       4.052   4.998   1.535  1.00  0.00    -0.346 N 
ATOM     81  C   UNL     1       3.443   5.206  -0.541  1.00  0.00     0.066 A 
ATOM     82  C   UNL     1       1.902   3.675  -1.685  1.00  0.00     0.127 C 
ATOM     83  C   UNL     1       4.762   5.995   0.917  1.00  0.00     0.197 A 
ATOM     84  H   UNL     1       4.134   4.716   2.475  1.00  0.00     0.167 HD
ATOM     85  N   UNL     1       4.401   6.153  -0.339  1.00  0.00    -0.242 NA
ATOM     86  C   UNL     1       2.694   4.998  -1.794  1.00  0.00     0.080 C 
BRANCH  79  87
ATOM     87  C   UNL     1      -0.030   3.009  -0.147  1.00  0.00     0.223 C 
ATOM     88  O   UNL     1      -0.361   2.549   0.954  1.00  0.00    -0.275 OA
BRANCH  87  89
ATOM     89  C   UNL     1      -1.109   2.986  -1.222  1.00  0.00     0.100 C 
BRANCH  89  90
ATOM     90  C   UNL     1      -1.619   4.276  -1.838  1.00  0.00     0.015 C 
BRANCH  90  91
ATOM     91  C   UNL     1      -0.800   4.971  -2.915  1.00  0.00     0.038 C 
BRANCH  91  92
ATOM     92  C   UNL     1      -0.578   4.317  -4.262  1.00  0.00    -0.023 A 
ATOM     93  C   UNL     1      -0.602   5.088  -5.416  1.00  0.00     0.087 A 
ATOM     94  C   UNL     1      -0.225   2.977  -4.708  1.00  0.00     0.003 A 
ATOM     95  N   UNL     1      -0.488   4.275  -6.502  1.00  0.00    -0.361 N 
ATOM     96  C   UNL     1      -0.337   2.973  -6.103  1.00  0.00     0.046 A 
ATOM     97  C   UNL     1       0.194   1.749  -4.132  1.00  0.00     0.010 A 
ATOM     98  H   UNL     1      -0.511   4.579  -7.438  1.00  0.00     0.166 HD
ATOM     99  C   UNL     1      -0.238   1.816  -6.889  1.00  0.00     0.026 A 
ATOM    100  C   UNL     1       0.347   0.589  -4.903  1.00  0.00     0.001 A 
ATOM    101  C   UNL     1       0.091   0.616  -6.262  1.00  0.00     0.002 A 
ENDBRANCH  91  92
ENDBRANCH  90  91
ENDBRANCH  89  90
ENDBRANCH  87  89
ENDBRANCH  79  87
ENDBRANCH  75  77
ENDBRANCH  74  75
ENDBRANCH   1  74
TORSDOF 19
