REMARK SMILES CCOc1ccc2[nH]c(C)c/c(=N\c3cccc(C(=O)OCCOC(=O)c4ccc(-c5c6nc(c(-c7c(F)cc(S(=O)(=O)[O-])cc7F)c7ccc([nH]7)c(-c7c(F)cc(S(=O)(=O)[O-])cc7F)c7nc(c(-c8c(F)cc(S(=O)(=O)[O-])cc8F)c8ccc5[nH]8)C=C7)C=C6)cc4)c3)c2c1
REMARK SMILES IDX 22 1 21 2 19 3 20 4 18 5 14 6 15 7 93 8 16 9 17 10 13 11
REMARK SMILES IDX 4 12 5 13 95 14 6 15 94 16 7 17 12 18 8 19 11 20 9 21 10 23
REMARK SMILES IDX 3 24 2 25 1 26 23 27 24 28 25 29 26 30 27 31 28 32 92 33
REMARK SMILES IDX 29 34 91 35 30 36 31 37 32 38 85 39 33 40 90 41 84 42 86 43
REMARK SMILES IDX 34 44 89 45 83 46 82 47 35 49 69 50 48 51 68 52 49 53 52 54
REMARK SMILES IDX 67 55 87 56 50 57 51 58 66 60 88 61 53 62 36 63 37 64 46 65
REMARK SMILES IDX 38 66 39 67 45 68 47 69 40 70 41 71 42 72 43 73 44 74 70 75
REMARK SMILES IDX 71 76 80 77 72 78 73 79 79 80 81 81 74 82 75 83 76 84 77 85
REMARK SMILES IDX 78 86 54 87 55 88 64 89 56 90 57 91 63 92 65 93 58 94 59 95
REMARK SMILES IDX 60 96 61 97 62 98
REMARK H PARENT 8 22 86 48 52 59
REMARK Flexibility Score: inf
ROOT
ATOM      1  C   UNL     1       5.204   9.411   5.012  1.00  0.00     0.275 C 
ENDROOT
BRANCH   1   2
ATOM      2  O   UNL     1       4.992   8.903   3.681  1.00  0.00    -0.458 OA
BRANCH   2   3
ATOM      3  C   UNL     1       4.863   9.834   2.700  1.00  0.00     0.338 C 
ATOM      4  O   UNL     1       4.888  11.040   2.846  1.00  0.00    -0.246 OA
BRANCH   3   5
ATOM      5  C   UNL     1       4.785   9.183   1.365  1.00  0.00     0.062 A 
ATOM      6  C   UNL     1       4.390   7.272  -0.067  1.00  0.00     0.065 A 
ATOM      7  C   UNL     1       4.757   8.041  -1.180  1.00  0.00     0.028 A 
ATOM      8  C   UNL     1       4.404   7.848   1.205  1.00  0.00     0.044 A 
ATOM      9  C   UNL     1       5.138   9.372  -1.030  1.00  0.00     0.003 A 
ATOM     10  C   UNL     1       5.123   9.949   0.238  1.00  0.00     0.016 A 
BRANCH   6  11
ATOM     11  N   UNL     1       3.946   5.955  -0.224  1.00  0.00    -0.248 NA
ATOM     12  C   UNL     1       2.358   2.101  -0.888  1.00  0.00     0.120 A 
ATOM     13  C   UNL     1       3.204   1.099  -1.357  1.00  0.00     0.048 A 
ATOM     14  C   UNL     1       2.850   3.373  -0.614  1.00  0.00     0.059 A 
ATOM     15  C   UNL     1       4.567   1.353  -1.512  1.00  0.00     0.030 A 
ATOM     16  C   UNL     1       4.219   3.632  -0.781  1.00  0.00     0.027 A 
ATOM     17  C   UNL     1       5.087   2.620  -1.229  1.00  0.00     0.048 A 
ATOM     18  C   UNL     1       4.774   5.002  -0.538  1.00  0.00     0.075 A 
ATOM     19  N   UNL     1       6.448   2.882  -1.412  1.00  0.00    -0.359 N 
ATOM     20  C   UNL     1       6.258   5.149  -0.705  1.00  0.00     0.050 A 
ATOM     21  C   UNL     1       6.995   4.114  -1.140  1.00  0.00     0.014 A 
ATOM     22  H   UNL     1       7.033   2.163  -1.744  1.00  0.00     0.166 HD
ATOM     23  C   UNL     1       8.475   4.267  -1.363  1.00  0.00     0.064 C 
BRANCH  12  24
ATOM     24  O   UNL     1       1.012   1.871  -0.818  1.00  0.00    -0.494 OA
BRANCH  24  25
ATOM     25  C   UNL     1       0.628   1.249   0.414  1.00  0.00     0.226 C 
ATOM     26  C   UNL     1       0.619  -0.266   0.280  1.00  0.00     0.049 C 
ENDBRANCH  24  25
ENDBRANCH  12  24
ENDBRANCH   6  11
ENDBRANCH   3   5
ENDBRANCH   2   3
ENDBRANCH   1   2
BRANCH   1  27
ATOM     27  C   UNL     1       6.662   9.235   5.443  1.00  0.00     0.275 C 
BRANCH  27  28
ATOM     28  O   UNL     1       7.526  10.141   4.734  1.00  0.00    -0.458 OA
BRANCH  28  29
ATOM     29  C   UNL     1       8.210   9.612   3.693  1.00  0.00     0.338 C 
ATOM     30  O   UNL     1       8.222   8.451   3.320  1.00  0.00    -0.246 OA
BRANCH  29  31
ATOM     31  C   UNL     1       8.874  10.707   2.971  1.00  0.00     0.060 A 
ATOM     32  C   UNL     1      10.097  11.228   3.389  1.00  0.00     0.016 A 
ATOM     33  C   UNL     1       8.254  11.197   1.824  1.00  0.00     0.016 A 
ATOM     34  C   UNL     1      10.670  12.283   2.667  1.00  0.00     0.010 A 
ATOM     35  C   UNL     1       8.842  12.219   1.085  1.00  0.00     0.010 A 
ATOM     36  C   UNL     1      10.044  12.794   1.513  1.00  0.00    -0.014 A 
BRANCH  36  37
ATOM     37  C   UNL     1      10.621  13.938   0.756  1.00  0.00     0.031 A 
ATOM     38  C   UNL     1       9.875  15.247   0.666  1.00  0.00     0.074 A 
ATOM     39  C   UNL     1      11.794  13.788   0.110  1.00  0.00     0.049 A 
ATOM     40  N   UNL     1      10.201  16.342   0.027  1.00  0.00    -0.248 NA
ATOM     41  C   UNL     1       8.580  15.326   1.361  1.00  0.00     0.031 C 
ATOM     42  C   UNL     1      12.579  12.554   0.062  1.00  0.00     0.029 A 
ATOM     43  N   UNL     1      12.531  14.679  -0.629  1.00  0.00    -0.354 N 
ATOM     44  C   UNL     1       9.151  17.232   0.232  1.00  0.00     0.074 A 
ATOM     45  C   UNL     1       8.151  16.529   1.006  1.00  0.00     0.031 C 
ATOM     46  C   UNL     1      13.709  12.778  -0.629  1.00  0.00     0.029 A 
ATOM     47  C   UNL     1      13.713  14.160  -1.102  1.00  0.00     0.049 A 
ATOM     48  H   UNL     1      12.241  15.604  -0.804  1.00  0.00     0.167 HD
ATOM     49  C   UNL     1       9.042  18.525  -0.159  1.00  0.00     0.037 A 
ATOM     50  C   UNL     1      14.693  14.733  -1.828  1.00  0.00     0.037 A 
ATOM     51  C   UNL     1      10.058  19.234  -0.894  1.00  0.00     0.049 A 
ATOM     52  C   UNL     1      14.562  16.177  -2.227  1.00  0.00     0.074 A 
ATOM     53  C   UNL     1      10.073  20.563  -1.280  1.00  0.00     0.029 A 
ATOM     54  N   UNL     1      11.243  18.674  -1.349  1.00  0.00    -0.354 N 
ATOM     55  N   UNL     1      13.585  17.017  -1.978  1.00  0.00    -0.248 NA
ATOM     56  C   UNL     1      15.668  16.752  -3.005  1.00  0.00     0.031 C 
ATOM     57  C   UNL     1      11.252  20.800  -1.995  1.00  0.00     0.029 A 
ATOM     58  C   UNL     1      11.991  19.628  -2.022  1.00  0.00     0.049 A 
ATOM     59  H   UNL     1      11.514  17.738  -1.212  1.00  0.00     0.167 HD
ATOM     60  C   UNL     1      13.961  18.221  -2.563  1.00  0.00     0.074 A 
ATOM     61  C   UNL     1      15.268  18.008  -3.151  1.00  0.00     0.031 C 
ATOM     62  C   UNL     1      13.282  19.394  -2.617  1.00  0.00     0.037 A 
BRANCH  49  63
ATOM     63  C   UNL     1       7.791  19.271   0.225  1.00  0.00     0.058 A 
ATOM     64  C   UNL     1       7.537  19.637   1.557  1.00  0.00     0.135 A 
ATOM     65  C   UNL     1       6.863  19.673  -0.750  1.00  0.00     0.135 A 
ATOM     66  F   UNL     1       8.383  19.269   2.532  1.00  0.00    -0.206 F 
ATOM     67  C   UNL     1       6.397  20.351   1.912  1.00  0.00     0.059 A 
ATOM     68  C   UNL     1       5.729  20.413  -0.421  1.00  0.00     0.059 A 
ATOM     69  F   UNL     1       7.056  19.354  -2.040  1.00  0.00    -0.206 F 
ATOM     70  C   UNL     1       5.500  20.737   0.915  1.00  0.00     0.060 A 
BRANCH  70  71
ATOM     71  S   UNL     1       4.039  21.684   1.396  1.00  0.00     0.124 S 
ATOM     72  O   UNL     1       3.250  20.673   2.091  1.00  0.00    -0.237 OA
ATOM     73  O   UNL     1       4.610  22.730   2.238  1.00  0.00    -0.237 OA
ATOM     74  O   UNL     1       3.493  22.139   0.121  1.00  0.00    -0.744 OA
ENDBRANCH  70  71
ENDBRANCH  49  63
BRANCH  50  75
ATOM     75  C   UNL     1      15.904  13.947  -2.186  1.00  0.00     0.058 A 
ATOM     76  C   UNL     1      17.136  14.209  -1.570  1.00  0.00     0.135 A 
ATOM     77  C   UNL     1      15.850  12.905  -3.124  1.00  0.00     0.135 A 
ATOM     78  F   UNL     1      17.240  15.202  -0.673  1.00  0.00    -0.206 F 
ATOM     79  C   UNL     1      18.275  13.472  -1.875  1.00  0.00     0.059 A 
ATOM     80  C   UNL     1      16.970  12.137  -3.428  1.00  0.00     0.059 A 
ATOM     81  F   UNL     1      14.691  12.606  -3.731  1.00  0.00    -0.206 F 
ATOM     82  C   UNL     1      18.180  12.432  -2.801  1.00  0.00     0.060 A 
BRANCH  82  83
ATOM     83  S   UNL     1      19.651  11.439  -3.138  1.00  0.00     0.124 S 
ATOM     84  O   UNL     1      20.473  12.376  -3.894  1.00  0.00    -0.237 OA
ATOM     85  O   UNL     1      20.118  11.121  -1.792  1.00  0.00    -0.237 OA
ATOM     86  O   UNL     1      19.125  10.306  -3.894  1.00  0.00    -0.744 OA
ENDBRANCH  82  83
ENDBRANCH  50  75
BRANCH  62  87
ATOM     87  C   UNL     1      13.941  20.533  -3.345  1.00  0.00     0.058 A 
ATOM     88  C   UNL     1      14.049  20.540  -4.745  1.00  0.00     0.135 A 
ATOM     89  C   UNL     1      14.445  21.639  -2.643  1.00  0.00     0.135 A 
ATOM     90  F   UNL     1      13.587  19.504  -5.463  1.00  0.00    -0.206 F 
ATOM     91  C   UNL     1      14.664  21.587  -5.421  1.00  0.00     0.059 A 
ATOM     92  C   UNL     1      15.040  22.712  -3.301  1.00  0.00     0.059 A 
ATOM     93  F   UNL     1      14.356  21.689  -1.304  1.00  0.00    -0.206 F 
ATOM     94  C   UNL     1      15.160  22.668  -4.690  1.00  0.00     0.060 A 
BRANCH  94  95
ATOM     95  S   UNL     1      15.953  24.023  -5.582  1.00  0.00     0.124 S 
ATOM     96  O   UNL     1      17.222  23.416  -5.969  1.00  0.00    -0.237 OA
ATOM     97  O   UNL     1      15.012  24.274  -6.669  1.00  0.00    -0.237 OA
ATOM     98  O   UNL     1      16.043  25.082  -4.582  1.00  0.00    -0.744 OA
ENDBRANCH  94  95
ENDBRANCH  62  87
ENDBRANCH  36  37
ENDBRANCH  29  31
ENDBRANCH  28  29
ENDBRANCH  27  28
ENDBRANCH   1  27
TORSDOF 17
