REMARK SMILES Cc1nn([C@H]2CCS(=O)(=O)C2)c(C)c1/C=C(\CC(=O)OCCOC(=O)c1ccc(-c2c3nc(c(-c4c(F)cc(S(=O)(=O)[O-])cc4F)c4ccc([nH]4)c(-c4c(F)cc(S(=O)(=O)[O-])cc4F)c4nc(c(-c5c(F)cc(S(=O)(=O)[O-])cc5F)c5ccc2[nH]5)C=C4)C=C3)cc1)c1nc2ccccc2s1
REMARK SMILES IDX 21 1 20 2 18 3 19 4 17 5 16 6 15 7 14 8 1 9 2 10 3 11 4 12
REMARK SMILES IDX 12 13 13 14 5 15 6 16 11 17 7 18 8 19 9 20 10 21 92 22 93 23
REMARK SMILES IDX 100 24 94 25 99 26 95 27 98 28 96 29 97 30 22 31 23 32 24 33
REMARK SMILES IDX 25 34 26 35 27 36 91 37 28 38 90 39 29 40 30 41 31 42 84 43
REMARK SMILES IDX 32 44 89 45 83 46 85 47 33 48 88 49 82 50 81 51 34 53 68 54
REMARK SMILES IDX 47 55 67 56 48 57 51 58 66 59 86 60 49 61 50 62 65 64 87 65
REMARK SMILES IDX 52 66 35 67 36 68 45 69 37 70 38 71 44 72 46 73 39 74 40 75
REMARK SMILES IDX 41 76 42 77 43 78 69 79 70 80 79 81 71 82 72 83 78 84 80 85
REMARK SMILES IDX 73 86 74 87 75 88 76 89 77 90 53 91 54 92 63 93 55 94 56 95
REMARK SMILES IDX 62 96 64 97 57 98 58 99 59 100 60 101 61 102
REMARK H PARENT 85 52 51 63
REMARK Flexibility Score: inf
ROOT
ATOM      1  C   UNL     1      -0.876 -11.810  -0.182  1.00  0.00     0.274 C 
ENDROOT
BRANCH   1   2
ATOM      2  O   UNL     1      -0.215 -10.763   0.558  1.00  0.00    -0.462 OA
BRANCH   2   3
ATOM      3  C   UNL     1      -1.024  -9.725   0.862  1.00  0.00     0.310 C 
ATOM      4  O   UNL     1      -2.131  -9.539   0.349  1.00  0.00    -0.252 OA
BRANCH   3   5
ATOM      5  C   UNL     1      -0.497  -8.727   1.870  1.00  0.00     0.161 C 
BRANCH   5   6
ATOM      6  C   UNL     1       0.782  -8.779   2.697  1.00  0.00    -0.000 C 
ATOM      7  C   UNL     1       1.760  -7.844   2.552  1.00  0.00     0.019 C 
BRANCH   7   8
ATOM      8  C   UNL     1       1.799  -6.805   1.563  1.00  0.00     0.019 A 
ATOM      9  C   UNL     1       4.350  -6.682   0.974  1.00  0.00     0.069 C 
ATOM     10  C   UNL     1       2.910  -6.373   0.798  1.00  0.00     0.067 A 
ATOM     11  N   UNL     1       2.515  -5.577  -0.207  1.00  0.00    -0.177 NA
ATOM     12  N   UNL     1       1.174  -5.517  -0.064  1.00  0.00    -0.265 N 
ATOM     13  C   UNL     1       0.787  -5.926   1.191  1.00  0.00     0.043 A 
ATOM     14  C   UNL     1      -0.483  -5.521   1.860  1.00  0.00     0.067 C 
BRANCH  12  15
ATOM     15  C   UNL     1       0.373  -5.081  -1.199  1.00  0.00     0.123 C 
ATOM     16  C   UNL     1       0.909  -5.638  -2.542  1.00  0.00     0.044 C 
ATOM     17  C   UNL     1      -1.092  -5.527  -1.194  1.00  0.00     0.164 C 
ATOM     18  C   UNL     1      -0.068  -5.209  -3.627  1.00  0.00     0.139 C 
ATOM     19  S   UNL     1      -1.664  -5.178  -2.841  1.00  0.00     0.152 S 
ATOM     20  O   UNL     1      -2.154  -3.816  -2.870  1.00  0.00    -0.229 OA
ATOM     21  O   UNL     1      -2.450  -6.293  -3.324  1.00  0.00    -0.229 OA
ENDBRANCH  12  15
ENDBRANCH   7   8
BRANCH   6  22
ATOM     22  C   UNL     1       0.898  -9.668   3.831  1.00  0.00     0.121 A 
ATOM     23  N   UNL     1       1.139 -10.965   3.808  1.00  0.00    -0.236 NA
ATOM     24  S   UNL     1       0.554  -9.054   5.423  1.00  0.00    -0.114 S 
ATOM     25  C   UNL     1       0.693 -11.552   4.992  1.00  0.00     0.082 A 
ATOM     26  C   UNL     1       0.337 -10.659   6.004  1.00  0.00     0.055 A 
ATOM     27  C   UNL     1       0.509 -12.934   5.225  1.00  0.00     0.030 A 
ATOM     28  C   UNL     1      -0.160 -11.094   7.246  1.00  0.00     0.021 A 
ATOM     29  C   UNL     1      -0.050 -13.373   6.432  1.00  0.00     0.002 A 
ATOM     30  C   UNL     1      -0.371 -12.463   7.433  1.00  0.00     0.002 A 
ENDBRANCH   6  22
ENDBRANCH   5   6
ENDBRANCH   3   5
ENDBRANCH   2   3
ENDBRANCH   1   2
BRANCH   1  31
ATOM     31  C   UNL     1      -1.440 -12.897   0.738  1.00  0.00     0.275 C 
BRANCH  31  32
ATOM     32  O   UNL     1      -2.647 -12.538   1.431  1.00  0.00    -0.458 OA
BRANCH  32  33
ATOM     33  C   UNL     1      -2.437 -11.847   2.566  1.00  0.00     0.338 C 
ATOM     34  O   UNL     1      -1.439 -11.191   2.840  1.00  0.00    -0.246 OA
BRANCH  33  35
ATOM     35  C   UNL     1      -3.398 -12.114   3.622  1.00  0.00     0.060 A 
ATOM     36  C   UNL     1      -3.189 -11.420   4.823  1.00  0.00     0.016 A 
ATOM     37  C   UNL     1      -4.240 -13.222   3.542  1.00  0.00     0.016 A 
ATOM     38  C   UNL     1      -3.686 -11.945   5.989  1.00  0.00     0.010 A 
ATOM     39  C   UNL     1      -4.758 -13.732   4.713  1.00  0.00     0.010 A 
ATOM     40  C   UNL     1      -4.410 -13.136   5.929  1.00  0.00    -0.014 A 
BRANCH  40  41
ATOM     41  C   UNL     1      -4.863 -13.685   7.193  1.00  0.00     0.031 A 
ATOM     42  C   UNL     1      -5.834 -12.828   7.916  1.00  0.00     0.074 A 
ATOM     43  C   UNL     1      -4.537 -14.924   7.602  1.00  0.00     0.049 A 
ATOM     44  N   UNL     1      -5.762 -12.369   9.122  1.00  0.00    -0.248 NA
ATOM     45  C   UNL     1      -6.982 -12.325   7.143  1.00  0.00     0.031 C 
ATOM     46  C   UNL     1      -3.811 -15.951   6.851  1.00  0.00     0.029 A 
ATOM     47  N   UNL     1      -4.925 -15.577   8.731  1.00  0.00    -0.354 N 
ATOM     48  C   UNL     1      -6.963 -11.699   9.332  1.00  0.00     0.074 A 
ATOM     49  C   UNL     1      -7.599 -11.567   8.046  1.00  0.00     0.031 C 
ATOM     50  C   UNL     1      -4.037 -17.151   7.427  1.00  0.00     0.029 A 
ATOM     51  C   UNL     1      -4.824 -16.957   8.633  1.00  0.00     0.049 A 
ATOM     52  H   UNL     1      -5.247 -15.114   9.539  1.00  0.00     0.167 HD
ATOM     53  C   UNL     1      -7.479 -11.514  10.575  1.00  0.00     0.037 A 
ATOM     54  C   UNL     1      -5.448 -17.866   9.422  1.00  0.00     0.037 A 
ATOM     55  C   UNL     1      -6.483 -11.620  11.605  1.00  0.00     0.049 A 
ATOM     56  C   UNL     1      -5.842 -17.175  10.679  1.00  0.00     0.074 A 
ATOM     57  C   UNL     1      -5.283 -10.982  11.858  1.00  0.00     0.029 A 
ATOM     58  N   UNL     1      -6.484 -12.736  12.406  1.00  0.00    -0.354 N 
ATOM     59  N   UNL     1      -5.001 -16.742  11.578  1.00  0.00    -0.248 NA
ATOM     60  C   UNL     1      -7.181 -16.607  10.762  1.00  0.00     0.031 C 
ATOM     61  C   UNL     1      -4.437 -11.983  12.419  1.00  0.00     0.029 A 
ATOM     62  C   UNL     1      -5.181 -13.160  12.499  1.00  0.00     0.049 A 
ATOM     63  H   UNL     1      -7.268 -13.151  12.833  1.00  0.00     0.167 HD
ATOM     64  C   UNL     1      -5.562 -15.567  12.055  1.00  0.00     0.074 A 
ATOM     65  C   UNL     1      -6.949 -15.599  11.606  1.00  0.00     0.031 C 
ATOM     66  C   UNL     1      -4.783 -14.549  12.530  1.00  0.00     0.037 A 
BRANCH  53  67
ATOM     67  C   UNL     1      -8.958 -11.590  10.841  1.00  0.00     0.058 A 
ATOM     68  C   UNL     1      -9.486 -11.093  12.044  1.00  0.00     0.135 A 
ATOM     69  C   UNL     1      -9.835 -12.379  10.058  1.00  0.00     0.135 A 
ATOM     70  F   UNL     1      -8.723 -10.364  12.873  1.00  0.00    -0.206 F 
ATOM     71  C   UNL     1     -10.783 -11.394  12.462  1.00  0.00     0.059 A 
ATOM     72  C   UNL     1     -11.146 -12.639  10.425  1.00  0.00     0.059 A 
ATOM     73  F   UNL     1      -9.423 -13.014   8.953  1.00  0.00    -0.206 F 
ATOM     74  C   UNL     1     -11.599 -12.180  11.650  1.00  0.00     0.060 A 
BRANCH  74  75
ATOM     75  S   UNL     1     -13.229 -12.673  12.234  1.00  0.00     0.124 S 
ATOM     76  O   UNL     1     -12.882 -13.688  13.222  1.00  0.00    -0.237 OA
ATOM     77  O   UNL     1     -13.758 -11.419  12.761  1.00  0.00    -0.237 OA
ATOM     78  O   UNL     1     -13.882 -13.162  11.023  1.00  0.00    -0.744 OA
ENDBRANCH  74  75
ENDBRANCH  53  67
BRANCH  54  79
ATOM     79  C   UNL     1      -6.000 -19.188   9.027  1.00  0.00     0.058 A 
ATOM     80  C   UNL     1      -6.442 -20.103   9.999  1.00  0.00     0.135 A 
ATOM     81  C   UNL     1      -6.352 -19.485   7.693  1.00  0.00     0.135 A 
ATOM     82  F   UNL     1      -6.177 -19.889  11.297  1.00  0.00    -0.206 F 
ATOM     83  C   UNL     1      -7.226 -21.214   9.676  1.00  0.00     0.059 A 
ATOM     84  C   UNL     1      -7.111 -20.599   7.345  1.00  0.00     0.059 A 
ATOM     85  F   UNL     1      -6.054 -18.651   6.687  1.00  0.00    -0.206 F 
ATOM     86  C   UNL     1      -7.571 -21.444   8.345  1.00  0.00     0.060 A 
BRANCH  86  87
ATOM     87  S   UNL     1      -8.733 -22.767   7.941  1.00  0.00     0.124 S 
ATOM     88  O   UNL     1      -7.929 -23.959   8.183  1.00  0.00    -0.237 OA
ATOM     89  O   UNL     1      -9.817 -22.523   8.886  1.00  0.00    -0.237 OA
ATOM     90  O   UNL     1      -9.063 -22.510   6.541  1.00  0.00    -0.744 OA
ENDBRANCH  86  87
ENDBRANCH  54  79
BRANCH  66  91
ATOM     91  C   UNL     1      -3.341 -14.846  12.848  1.00  0.00     0.058 A 
ATOM     92  C   UNL     1      -2.395 -15.283  11.904  1.00  0.00     0.135 A 
ATOM     93  C   UNL     1      -2.869 -14.559  14.139  1.00  0.00     0.135 A 
ATOM     94  F   UNL     1      -2.732 -15.460  10.619  1.00  0.00    -0.206 F 
ATOM     95  C   UNL     1      -1.058 -15.489  12.244  1.00  0.00     0.059 A 
ATOM     96  C   UNL     1      -1.532 -14.723  14.491  1.00  0.00     0.059 A 
ATOM     97  F   UNL     1      -3.706 -14.070  15.069  1.00  0.00    -0.206 F 
ATOM     98  C   UNL     1      -0.635 -15.210  13.543  1.00  0.00     0.060 A 
BRANCH  98  99
ATOM     99  S   UNL     1       1.110 -15.414  13.960  1.00  0.00     0.124 S 
ATOM    100  O   UNL     1       1.233 -16.864  14.059  1.00  0.00    -0.237 OA
ATOM    101  O   UNL     1       1.784 -14.797  12.821  1.00  0.00    -0.237 OA
ATOM    102  O   UNL     1       1.246 -14.687  15.220  1.00  0.00    -0.744 OA
ENDBRANCH  98  99
ENDBRANCH  66  91
ENDBRANCH  40  41
ENDBRANCH  33  35
ENDBRANCH  32  33
ENDBRANCH  31  32
ENDBRANCH   1  31
TORSDOF 18
