REMARK SMILES O=C(COc1cc(-c2ccccc2)nc(NCc2ccc(Cl)c(Cl)c2)n1)OCCOC(=O)c1ccc(-c2c3nc(c(-c4c(F)cc(S(=O)(=O)[O-])cc4F)c4ccc([nH]4)c(-c4c(F)cc(S(=O)(=O)[O-])cc4F)c4nc(c(-c5c(F)cc(S(=O)(=O)[O-])cc5F)c5ccc2[nH]5)C=C4)C=C3)cc1
REMARK SMILES IDX 28 1 27 2 2 3 1 4 3 5 4 6 5 7 6 8 26 9 7 10 15 11 14 12 8 13
REMARK SMILES IDX 9 14 13 15 10 16 12 17 11 18 16 19 17 21 18 22 19 23 25 24
REMARK SMILES IDX 20 25 23 26 21 27 24 28 22 29 29 30 30 31 31 32 32 33 33 34
REMARK SMILES IDX 34 35 98 36 35 37 97 38 36 39 37 40 38 41 91 42 39 43 96 44
REMARK SMILES IDX 90 45 92 46 40 47 95 48 89 49 88 50 41 52 75 53 54 54 74 55
REMARK SMILES IDX 55 56 58 57 73 58 93 59 56 60 57 61 72 63 94 64 59 65 42 66
REMARK SMILES IDX 43 67 52 68 44 69 45 70 51 71 53 72 46 73 47 74 48 75 49 76
REMARK SMILES IDX 50 77 76 78 77 79 86 80 78 81 79 82 85 83 87 84 80 85 81 86
REMARK SMILES IDX 82 87 83 88 84 89 60 90 61 91 70 92 62 93 63 94 69 95 71 96
REMARK SMILES IDX 64 97 65 98 66 99 67 100 68 101
REMARK H PARENT 16 20 92 51 58 62
REMARK Flexibility Score: inf
ROOT
ATOM      1  C   UNL     1       4.653   0.867  -0.782  1.00  0.00     0.274 C 
ENDROOT
BRANCH   1   2
ATOM      2  O   UNL     1       3.290   0.435  -0.969  1.00  0.00    -0.460 OA
BRANCH   2   3
ATOM      3  C   UNL     1       2.640  -0.362  -0.083  1.00  0.00     0.344 C 
ATOM      4  O   UNL     1       1.415  -0.446  -0.106  1.00  0.00    -0.248 OA
BRANCH   3   5
ATOM      5  C   UNL     1       3.481  -1.228   0.845  1.00  0.00     0.353 C 
BRANCH   5   6
ATOM      6  O   UNL     1       4.270  -2.154   0.094  1.00  0.00    -0.466 OA
BRANCH   6   7
ATOM      7  C   UNL     1       3.524  -3.290  -0.086  1.00  0.00     0.219 A 
ATOM      8  C   UNL     1       2.611  -3.351  -1.097  1.00  0.00     0.097 A 
ATOM      9  N   UNL     1       3.695  -4.237   0.833  1.00  0.00    -0.177 NA
ATOM     10  C   UNL     1       1.766  -4.436  -1.064  1.00  0.00     0.080 A 
ATOM     11  C   UNL     1       2.859  -5.278   0.787  1.00  0.00     0.226 A 
ATOM     12  N   UNL     1       1.883  -5.406  -0.124  1.00  0.00    -0.213 NA
BRANCH  10  13
ATOM     13  C   UNL     1       0.623  -4.508  -1.992  1.00  0.00     0.000 A 
ATOM     14  C   UNL     1      -0.642  -4.922  -1.545  1.00  0.00     0.010 A 
ATOM     15  C   UNL     1       0.731  -4.065  -3.326  1.00  0.00     0.010 A 
ATOM     16  C   UNL     1      -1.760  -4.855  -2.381  1.00  0.00     0.001 A 
ATOM     17  C   UNL     1      -0.385  -3.997  -4.163  1.00  0.00     0.001 A 
ATOM     18  C   UNL     1      -1.633  -4.385  -3.686  1.00  0.00     0.000 A 
ENDBRANCH  10  13
BRANCH  11  19
ATOM     19  N   UNL     1       2.982  -6.255   1.744  1.00  0.00    -0.350 N 
ATOM     20  H   UNL     1       2.231  -6.854   1.955  1.00  0.00     0.164 HD
BRANCH  19  21
ATOM     21  C   UNL     1       4.240  -6.376   2.427  1.00  0.00     0.152 C 
BRANCH  21  22
ATOM     22  C   UNL     1       4.093  -7.008   3.788  1.00  0.00    -0.027 A 
ATOM     23  C   UNL     1       3.932  -6.200   4.925  1.00  0.00     0.007 A 
ATOM     24  C   UNL     1       4.231  -8.392   3.950  1.00  0.00     0.027 A 
ATOM     25  C   UNL     1       4.037  -6.753   6.202  1.00  0.00     0.022 A 
ATOM     26  C   UNL     1       4.337  -8.949   5.229  1.00  0.00     0.060 A 
ATOM     27  C   UNL     1       4.290  -8.120   6.354  1.00  0.00     0.059 A 
ATOM     28  Cl  UNL     1       4.621 -10.650   5.333  1.00  0.00    -0.083 Cl
ATOM     29  Cl  UNL     1       4.673  -8.697   7.932  1.00  0.00    -0.083 Cl
ENDBRANCH  21  22
ENDBRANCH  19  21
ENDBRANCH  11  19
ENDBRANCH   6   7
ENDBRANCH   5   6
ENDBRANCH   3   5
ENDBRANCH   2   3
ENDBRANCH   1   2
BRANCH   1  30
ATOM     30  C   UNL     1       4.704   2.156   0.040  1.00  0.00     0.275 C 
BRANCH  30  31
ATOM     31  O   UNL     1       4.236   1.905   1.379  1.00  0.00    -0.458 OA
BRANCH  31  32
ATOM     32  C   UNL     1       2.947   2.255   1.628  1.00  0.00     0.338 C 
ATOM     33  O   UNL     1       2.200   2.851   0.873  1.00  0.00    -0.246 OA
BRANCH  32  34
ATOM     34  C   UNL     1       2.516   1.627   2.898  1.00  0.00     0.060 A 
ATOM     35  C   UNL     1       1.233   1.069   2.963  1.00  0.00     0.016 A 
ATOM     36  C   UNL     1       3.356   1.585   4.015  1.00  0.00     0.016 A 
ATOM     37  C   UNL     1       0.773   0.505   4.156  1.00  0.00     0.010 A 
ATOM     38  C   UNL     1       2.892   1.026   5.210  1.00  0.00     0.010 A 
ATOM     39  C   UNL     1       1.586   0.513   5.297  1.00  0.00    -0.014 A 
BRANCH  39  40
ATOM     40  C   UNL     1       1.013   0.164   6.621  1.00  0.00     0.031 A 
ATOM     41  C   UNL     1       0.516   1.280   7.504  1.00  0.00     0.074 A 
ATOM     42  C   UNL     1       0.924  -1.112   7.038  1.00  0.00     0.049 A 
ATOM     43  N   UNL     1      -0.010   1.223   8.701  1.00  0.00    -0.248 NA
ATOM     44  C   UNL     1       0.634   2.645   6.964  1.00  0.00     0.031 C 
ATOM     45  C   UNL     1       1.345  -2.293   6.283  1.00  0.00     0.029 A 
ATOM     46  N   UNL     1       0.442  -1.623   8.217  1.00  0.00    -0.354 N 
ATOM     47  C   UNL     1      -0.290   2.538   9.055  1.00  0.00     0.074 A 
ATOM     48  C   UNL     1       0.159   3.374   7.963  1.00  0.00     0.031 C 
ATOM     49  C   UNL     1       1.103  -3.393   7.022  1.00  0.00     0.029 A 
ATOM     50  C   UNL     1       0.521  -2.992   8.301  1.00  0.00     0.049 A 
ATOM     51  H   UNL     1       0.073  -1.061   8.936  1.00  0.00     0.167 HD
ATOM     52  C   UNL     1      -0.880   3.010  10.179  1.00  0.00     0.037 A 
ATOM     53  C   UNL     1       0.166  -3.820   9.302  1.00  0.00     0.037 A 
ATOM     54  C   UNL     1      -1.324   2.189  11.273  1.00  0.00     0.049 A 
ATOM     55  C   UNL     1      -0.428  -3.265  10.570  1.00  0.00     0.074 A 
ATOM     56  C   UNL     1      -1.952   2.579  12.443  1.00  0.00     0.029 A 
ATOM     57  N   UNL     1      -1.182   0.812  11.336  1.00  0.00    -0.354 N 
ATOM     58  N   UNL     1      -0.695  -2.021  10.885  1.00  0.00    -0.248 NA
ATOM     59  C   UNL     1      -0.771  -4.239  11.618  1.00  0.00     0.031 C 
ATOM     60  C   UNL     1      -2.152   1.442  13.234  1.00  0.00     0.029 A 
ATOM     61  C   UNL     1      -1.689   0.339  12.535  1.00  0.00     0.049 A 
ATOM     62  H   UNL     1      -0.779   0.253  10.634  1.00  0.00     0.167 HD
ATOM     63  C   UNL     1      -1.256  -2.067  12.158  1.00  0.00     0.074 A 
ATOM     64  C   UNL     1      -1.293  -3.458  12.554  1.00  0.00     0.031 C 
ATOM     65  C   UNL     1      -1.709  -1.046  12.927  1.00  0.00     0.037 A 
BRANCH  52  66
ATOM     66  C   UNL     1      -1.064   4.497  10.287  1.00  0.00     0.058 A 
ATOM     67  C   UNL     1      -2.032   5.174   9.529  1.00  0.00     0.135 A 
ATOM     68  C   UNL     1      -0.282   5.249  11.178  1.00  0.00     0.135 A 
ATOM     69  F   UNL     1      -2.793   4.503   8.650  1.00  0.00    -0.206 F 
ATOM     70  C   UNL     1      -2.200   6.551   9.630  1.00  0.00     0.059 A 
ATOM     71  C   UNL     1      -0.449   6.624  11.312  1.00  0.00     0.059 A 
ATOM     72  F   UNL     1       0.660   4.649  11.923  1.00  0.00    -0.206 F 
ATOM     73  C   UNL     1      -1.401   7.268  10.522  1.00  0.00     0.060 A 
BRANCH  73  74
ATOM     74  S   UNL     1      -1.625   9.055  10.639  1.00  0.00     0.124 S 
ATOM     75  O   UNL     1      -0.989   9.508   9.406  1.00  0.00    -0.237 OA
ATOM     76  O   UNL     1      -3.078   9.186  10.688  1.00  0.00    -0.237 OA
ATOM     77  O   UNL     1      -0.925   9.405  11.871  1.00  0.00    -0.744 OA
ENDBRANCH  73  74
ENDBRANCH  52  66
BRANCH  53  78
ATOM     78  C   UNL     1       0.354  -5.285   9.180  1.00  0.00     0.058 A 
ATOM     79  C   UNL     1      -0.729  -6.122   8.875  1.00  0.00     0.135 A 
ATOM     80  C   UNL     1       1.586  -5.878   9.483  1.00  0.00     0.135 A 
ATOM     81  F   UNL     1      -1.932  -5.593   8.609  1.00  0.00    -0.206 F 
ATOM     82  C   UNL     1      -0.600  -7.506   8.893  1.00  0.00     0.059 A 
ATOM     83  C   UNL     1       1.735  -7.261   9.518  1.00  0.00     0.059 A 
ATOM     84  F   UNL     1       2.647  -5.111   9.776  1.00  0.00    -0.206 F 
ATOM     85  C   UNL     1       0.636  -8.066   9.220  1.00  0.00     0.060 A 
BRANCH  85  86
ATOM     86  S   UNL     1       0.767  -9.867   9.269  1.00  0.00     0.124 S 
ATOM     87  O   UNL     1      -0.260 -10.214  10.245  1.00  0.00    -0.237 OA
ATOM     88  O   UNL     1       0.474 -10.217   7.883  1.00  0.00    -0.237 OA
ATOM     89  O   UNL     1       2.140 -10.099   9.701  1.00  0.00    -0.744 OA
ENDBRANCH  85  86
ENDBRANCH  53  78
BRANCH  65  90
ATOM     90  C   UNL     1      -2.305  -1.396  14.261  1.00  0.00     0.058 A 
ATOM     91  C   UNL     1      -1.507  -1.788  15.347  1.00  0.00     0.135 A 
ATOM     92  C   UNL     1      -3.692  -1.306  14.465  1.00  0.00     0.135 A 
ATOM     93  F   UNL     1      -0.176  -1.897  15.202  1.00  0.00    -0.206 F 
ATOM     94  C   UNL     1      -2.064  -2.099  16.583  1.00  0.00     0.059 A 
ATOM     95  C   UNL     1      -4.268  -1.590  15.699  1.00  0.00     0.059 A 
ATOM     96  F   UNL     1      -4.499  -0.929  13.461  1.00  0.00    -0.206 F 
ATOM     97  C   UNL     1      -3.447  -1.998  16.749  1.00  0.00     0.060 A 
BRANCH  97  98
ATOM     98  S   UNL     1      -4.158  -2.375  18.366  1.00  0.00     0.124 S 
ATOM     99  O   UNL     1      -4.106  -3.833  18.377  1.00  0.00    -0.237 OA
ATOM    100  O   UNL     1      -3.240  -1.700  19.279  1.00  0.00    -0.237 OA
ATOM    101  O   UNL     1      -5.496  -1.794  18.291  1.00  0.00    -0.744 OA
ENDBRANCH  97  98
ENDBRANCH  65  90
ENDBRANCH  39  40
ENDBRANCH  32  34
ENDBRANCH  31  32
ENDBRANCH  30  31
ENDBRANCH   1  30
TORSDOF 20
