REMARK SMILES C[NH2+][C@]1(C(=O)OCCOC(=O)c2ccc(-c3c4nc(c(-c5c(F)cc(S(=O)(=O)[O-])cc5F)c5ccc([nH]5)c(-c5c(F)cc(S(=O)(=O)[O-])cc5F)c5nc(c(-c6c(F)cc(S(=O)(=O)[O-])cc6F)c6ccc3[nH]6)C=C5)C=C4)cc2)CCC[C@@H]([N@H+]2CC[C@@H](C)C2)C1
REMARK SMILES IDX 8 1 7 2 6 3 4 4 5 5 3 6 78 7 88 8 79 9 81 10 80 11 2 12 1 13
REMARK SMILES IDX 82 16 83 17 87 18 84 20 85 21 86 22 9 23 10 24 11 25 12 26
REMARK SMILES IDX 13 27 77 28 14 29 76 30 15 31 16 32 17 33 70 34 18 35 75 36
REMARK SMILES IDX 69 37 71 38 19 39 74 40 68 41 67 42 20 44 54 45 33 46 53 47
REMARK SMILES IDX 34 48 37 49 52 50 72 51 35 52 36 53 51 55 73 56 38 57 21 58
REMARK SMILES IDX 22 59 31 60 23 61 24 62 30 63 32 64 25 65 26 66 27 67 28 68
REMARK SMILES IDX 29 69 55 70 56 71 65 72 57 73 58 74 64 75 66 76 59 77 60 78
REMARK SMILES IDX 61 79 62 80 63 81 39 82 40 83 49 84 41 85 42 86 48 87 50 88
REMARK SMILES IDX 43 89 44 90 45 91 46 92 47 93
REMARK H PARENT 2 14 2 15 82 19 71 43 37 54
REMARK Flexibility Score: inf
ROOT
ATOM      1  C   UNL     1       3.264  -0.554   0.882  1.00  0.00     0.275 C 
ENDROOT
BRANCH   1   2
ATOM      2  C   UNL     1       2.572   0.502   1.750  1.00  0.00     0.274 C 
BRANCH   2   3
ATOM      3  O   UNL     1       1.137   0.406   1.683  1.00  0.00    -0.457 OA
BRANCH   3   4
ATOM      4  C   UNL     1       0.544   1.233   0.772  1.00  0.00     0.368 C 
ATOM      5  O   UNL     1       1.183   2.035   0.097  1.00  0.00    -0.245 OA
BRANCH   4   6
ATOM      6  C   UNL     1      -1.018   1.176   0.831  1.00  0.00     0.199 C 
ATOM      7  C   UNL     1      -1.568  -0.152   1.407  1.00  0.00     0.081 C 
ATOM      8  C   UNL     1      -1.393   2.287   1.806  1.00  0.00     0.146 C 
ATOM      9  C   UNL     1      -3.068  -0.098   1.744  1.00  0.00     0.013 C 
ATOM     10  C   UNL     1      -2.897   2.430   2.042  1.00  0.00     0.190 C 
ATOM     11  C   UNL     1      -3.448   1.110   2.618  1.00  0.00     0.065 C 
BRANCH   6  12
ATOM     12  N   UNL     1      -1.634   1.390  -0.514  1.00  0.00    -0.334 N 
ATOM     13  C   UNL     1      -1.293   2.623  -1.222  1.00  0.00     0.331 C 
ATOM     14  H   UNL     1      -1.353   0.609  -1.107  1.00  0.00     0.347 HD
ATOM     15  H   UNL     1      -2.636   1.462  -0.334  1.00  0.00     0.347 HD
ENDBRANCH   6  12
BRANCH  10  16
ATOM     16  N   UNL     1      -3.230   3.638   2.820  1.00  0.00    -0.332 N 
ATOM     17  C   UNL     1      -2.724   3.697   4.191  1.00  0.00     0.262 C 
ATOM     18  C   UNL     1      -2.837   4.886   2.137  1.00  0.00     0.265 C 
ATOM     19  H   UNL     1      -4.245   3.558   2.883  1.00  0.00     0.348 HD
ATOM     20  C   UNL     1      -2.067   5.064   4.375  1.00  0.00     0.070 C 
ATOM     21  C   UNL     1      -1.748   5.559   2.973  1.00  0.00     0.047 C 
ATOM     22  C   UNL     1      -0.302   5.247   2.576  1.00  0.00     0.014 C 
ENDBRANCH  10  16
ENDBRANCH   4   6
ENDBRANCH   3   4
ENDBRANCH   2   3
ENDBRANCH   1   2
BRANCH   1  23
ATOM     23  O   UNL     1       2.914  -0.433  -0.509  1.00  0.00    -0.458 OA
BRANCH  23  24
ATOM     24  C   UNL     1       1.851  -1.187  -0.896  1.00  0.00     0.338 C 
ATOM     25  O   UNL     1       1.255  -1.998  -0.213  1.00  0.00    -0.246 OA
BRANCH  24  26
ATOM     26  C   UNL     1       1.371  -0.736  -2.221  1.00  0.00     0.060 A 
ATOM     27  C   UNL     1       0.005  -0.478  -2.339  1.00  0.00     0.016 A 
ATOM     28  C   UNL     1       2.205  -0.568  -3.327  1.00  0.00     0.016 A 
ATOM     29  C   UNL     1      -0.526   0.041  -3.516  1.00  0.00     0.010 A 
ATOM     30  C   UNL     1       1.659  -0.117  -4.539  1.00  0.00     0.010 A 
ATOM     31  C   UNL     1       0.294   0.208  -4.633  1.00  0.00    -0.014 A 
BRANCH  31  32
ATOM     32  C   UNL     1      -0.333   0.577  -5.924  1.00  0.00     0.031 A 
ATOM     33  C   UNL     1      -0.932  -0.513  -6.765  1.00  0.00     0.074 A 
ATOM     34  C   UNL     1      -0.429   1.862  -6.312  1.00  0.00     0.049 A 
ATOM     35  N   UNL     1      -1.482  -0.440  -7.948  1.00  0.00    -0.248 NA
ATOM     36  C   UNL     1      -0.922  -1.865  -6.184  1.00  0.00     0.031 C 
ATOM     37  C   UNL     1       0.012   3.017  -5.531  1.00  0.00     0.029 A 
ATOM     38  N   UNL     1      -0.930   2.409  -7.468  1.00  0.00    -0.354 N 
ATOM     39  C   UNL     1      -1.884  -1.734  -8.255  1.00  0.00     0.074 A 
ATOM     40  C   UNL     1      -1.506  -2.573  -7.138  1.00  0.00     0.031 C 
ATOM     41  C   UNL     1      -0.208   4.135  -6.246  1.00  0.00     0.029 A 
ATOM     42  C   UNL     1      -0.769   3.773  -7.548  1.00  0.00     0.049 A 
ATOM     43  H   UNL     1      -1.363   1.876  -8.173  1.00  0.00     0.167 HD
ATOM     44  C   UNL     1      -2.503  -2.183  -9.371  1.00  0.00     0.037 A 
ATOM     45  C   UNL     1      -1.010   4.620  -8.570  1.00  0.00     0.037 A 
ATOM     46  C   UNL     1      -2.842  -1.348 -10.494  1.00  0.00     0.049 A 
ATOM     47  C   UNL     1      -1.581   4.077  -9.858  1.00  0.00     0.074 A 
ATOM     48  C   UNL     1      -3.436  -1.714 -11.689  1.00  0.00     0.029 A 
ATOM     49  N   UNL     1      -2.603   0.017 -10.568  1.00  0.00    -0.354 N 
ATOM     50  N   UNL     1      -1.938   2.848 -10.151  1.00  0.00    -0.248 NA
ATOM     51  C   UNL     1      -1.780   5.033 -10.957  1.00  0.00     0.031 C 
ATOM     52  C   UNL     1      -3.502  -0.582 -12.508  1.00  0.00     0.029 A 
ATOM     53  C   UNL     1      -3.012   0.503 -11.798  1.00  0.00     0.049 A 
ATOM     54  H   UNL     1      -2.202   0.559  -9.851  1.00  0.00     0.167 HD
ATOM     55  C   UNL     1      -2.431   2.890 -11.453  1.00  0.00     0.074 A 
ATOM     56  C   UNL     1      -2.335   4.268 -11.888  1.00  0.00     0.031 C 
ATOM     57  C   UNL     1      -2.921   1.881 -12.217  1.00  0.00     0.037 A 
BRANCH  44  58
ATOM     58  C   UNL     1      -2.792  -3.655  -9.454  1.00  0.00     0.058 A 
ATOM     59  C   UNL     1      -3.786  -4.263  -8.670  1.00  0.00     0.135 A 
ATOM     60  C   UNL     1      -2.067  -4.469 -10.338  1.00  0.00     0.135 A 
ATOM     61  F   UNL     1      -4.492  -3.536  -7.790  1.00  0.00    -0.206 F 
ATOM     62  C   UNL     1      -4.031  -5.630  -8.741  1.00  0.00     0.059 A 
ATOM     63  C   UNL     1      -2.315  -5.833 -10.447  1.00  0.00     0.059 A 
ATOM     64  F   UNL     1      -1.100  -3.941 -11.105  1.00  0.00    -0.206 F 
ATOM     65  C   UNL     1      -3.289  -6.407  -9.633  1.00  0.00     0.060 A 
BRANCH  65  66
ATOM     66  S   UNL     1      -3.617  -8.181  -9.711  1.00  0.00     0.124 S 
ATOM     67  O   UNL     1      -3.070  -8.635  -8.436  1.00  0.00    -0.237 OA
ATOM     68  O   UNL     1      -5.071  -8.223  -9.827  1.00  0.00    -0.237 OA
ATOM     69  O   UNL     1      -2.883  -8.611 -10.897  1.00  0.00    -0.744 OA
ENDBRANCH  65  66
ENDBRANCH  44  58
BRANCH  45  70
ATOM     70  C   UNL     1      -0.668   6.065  -8.444  1.00  0.00     0.058 A 
ATOM     71  C   UNL     1      -1.660   7.057  -8.453  1.00  0.00     0.135 A 
ATOM     72  C   UNL     1       0.668   6.486  -8.341  1.00  0.00     0.135 A 
ATOM     73  F   UNL     1      -2.952   6.713  -8.571  1.00  0.00    -0.206 F 
ATOM     74  C   UNL     1      -1.342   8.411  -8.379  1.00  0.00     0.059 A 
ATOM     75  C   UNL     1       1.010   7.831  -8.235  1.00  0.00     0.059 A 
ATOM     76  F   UNL     1       1.660   5.581  -8.329  1.00  0.00    -0.206 F 
ATOM     77  C   UNL     1      -0.002   8.787  -8.266  1.00  0.00     0.060 A 
BRANCH  77  78
ATOM     78  S   UNL     1       0.397  10.544  -8.126  1.00  0.00     0.124 S 
ATOM     79  O   UNL     1       0.108  11.021  -9.473  1.00  0.00    -0.237 OA
ATOM     80  O   UNL     1      -0.522  10.983  -7.081  1.00  0.00    -0.237 OA
ATOM     81  O   UNL     1       1.807  10.539  -7.747  1.00  0.00    -0.744 OA
ENDBRANCH  77  78
ENDBRANCH  45  70
BRANCH  57  82
ATOM     82  C   UNL     1      -3.438   2.227 -13.589  1.00  0.00     0.058 A 
ATOM     83  C   UNL     1      -2.579   2.579 -14.642  1.00  0.00     0.135 A 
ATOM     84  C   UNL     1      -4.812   2.136 -13.870  1.00  0.00     0.135 A 
ATOM     85  F   UNL     1      -1.258   2.685 -14.430  1.00  0.00    -0.206 F 
ATOM     86  C   UNL     1      -3.066   2.850 -15.918  1.00  0.00     0.059 A 
ATOM     87  C   UNL     1      -5.317   2.371 -15.146  1.00  0.00     0.059 A 
ATOM     88  F   UNL     1      -5.679   1.791 -12.905  1.00  0.00    -0.206 F 
ATOM     89  C   UNL     1      -4.436   2.739 -16.161  1.00  0.00     0.060 A 
BRANCH  89  90
ATOM     90  S   UNL     1      -5.048   3.054 -17.830  1.00  0.00     0.124 S 
ATOM     91  O   UNL     1      -4.902   4.503 -17.929  1.00  0.00    -0.237 OA
ATOM     92  O   UNL     1      -4.133   2.268 -18.652  1.00  0.00    -0.237 OA
ATOM     93  O   UNL     1      -6.423   2.564 -17.788  1.00  0.00    -0.744 OA
ENDBRANCH  89  90
ENDBRANCH  57  82
ENDBRANCH  31  32
ENDBRANCH  24  26
ENDBRANCH  23  24
ENDBRANCH   1  23
TORSDOF 16
