REMARK SMILES COC(=O)c1nccc(N2CCO[C@H](CC(=O)OCCOC(=O)c3ccc(-c4c5nc(c(-c6c(F)cc(S(=O)(=O)[O-])cc6F)c6ccc([nH]6)c(-c6c(F)cc(S(=O)(=O)[O-])cc6F)c6nc(c(-c7c(F)cc(S(=O)(=O)[O-])cc7F)c7ccc4[nH]7)C=C6)C=C5)cc3)C2)n1
REMARK SMILES IDX 19 1 18 2 16 3 17 4 15 5 14 6 10 7 11 8 90 9 12 10 13 11
REMARK SMILES IDX 9 12 5 13 6 14 91 15 7 16 8 17 3 18 4 19 2 20 1 21 20 22
REMARK SMILES IDX 21 23 22 24 23 25 24 26 25 27 89 28 26 29 88 30 27 31 28 32
REMARK SMILES IDX 29 33 82 34 30 35 87 36 81 37 83 38 31 39 86 40 80 41 79 42
REMARK SMILES IDX 32 44 66 45 45 46 65 47 46 48 49 49 64 50 84 51 47 52 48 53
REMARK SMILES IDX 63 55 85 56 50 57 33 58 34 59 43 60 35 61 36 62 42 63 44 64
REMARK SMILES IDX 37 65 38 66 39 67 40 68 41 69 67 70 68 71 77 72 69 73 70 74
REMARK SMILES IDX 76 75 78 76 71 77 72 78 73 79 74 80 75 81 51 82 52 83 61 84
REMARK SMILES IDX 53 85 54 86 60 87 62 88 55 89 56 90 57 91 58 92 59 93
REMARK H PARENT 83 43 49 54
REMARK Flexibility Score: inf
ROOT
ATOM      1  C   UNL     1      -0.968   2.640  -7.389  1.00  0.00     0.274 C 
ENDROOT
BRANCH   1   2
ATOM      2  O   UNL     1      -2.316   2.832  -6.902  1.00  0.00    -0.462 OA
BRANCH   2   3
ATOM      3  C   UNL     1      -2.650   4.052  -6.419  1.00  0.00     0.308 C 
ATOM      4  O   UNL     1      -1.909   5.030  -6.447  1.00  0.00    -0.252 OA
BRANCH   3   5
ATOM      5  C   UNL     1      -4.074   4.135  -5.904  1.00  0.00     0.156 C 
BRANCH   5   6
ATOM      6  C   UNL     1      -4.509   3.260  -4.724  1.00  0.00     0.148 C 
ATOM      7  N   UNL     1      -2.469   2.072  -4.116  1.00  0.00    -0.352 N 
ATOM      8  C   UNL     1      -3.029   0.783  -4.544  1.00  0.00     0.146 C 
ATOM      9  C   UNL     1      -3.453   3.035  -3.637  1.00  0.00     0.150 C 
ATOM     10  C   UNL     1      -4.216   1.001  -5.520  1.00  0.00     0.182 C 
ATOM     11  O   UNL     1      -5.136   2.023  -5.110  1.00  0.00    -0.374 OA
BRANCH   7  12
ATOM     12  C   UNL     1      -1.159   2.203  -3.696  1.00  0.00     0.133 A 
ATOM     13  C   UNL     1       0.746   1.453  -2.675  1.00  0.00     0.241 A 
ATOM     14  N   UNL     1       1.512   2.480  -3.104  1.00  0.00    -0.231 NA
ATOM     15  N   UNL     1      -0.551   1.227  -3.009  1.00  0.00    -0.205 NA
ATOM     16  C   UNL     1       0.872   3.425  -3.783  1.00  0.00     0.117 A 
ATOM     17  C   UNL     1      -0.473   3.364  -4.026  1.00  0.00     0.067 A 
BRANCH  13  18
ATOM     18  C   UNL     1       1.342   0.709  -1.512  1.00  0.00     0.376 C 
ATOM     19  O   UNL     1       2.466   0.920  -1.072  1.00  0.00    -0.242 OA
BRANCH  18  20
ATOM     20  O   UNL     1       0.425  -0.111  -0.930  1.00  0.00    -0.463 OA
ATOM     21  C   UNL     1       0.801  -0.547   0.376  1.00  0.00     0.282 C 
ENDBRANCH  18  20
ENDBRANCH  13  18
ENDBRANCH   7  12
ENDBRANCH   5   6
ENDBRANCH   3   5
ENDBRANCH   2   3
ENDBRANCH   1   2
BRANCH   1  22
ATOM     22  C   UNL     1      -0.989   1.730  -8.613  1.00  0.00     0.275 C 
BRANCH  22  23
ATOM     23  O   UNL     1      -1.806   2.350  -9.611  1.00  0.00    -0.458 OA
BRANCH  23  24
ATOM     24  C   UNL     1      -3.058   1.847  -9.717  1.00  0.00     0.338 C 
ATOM     25  O   UNL     1      -3.496   0.806  -9.267  1.00  0.00    -0.246 OA
BRANCH  24  26
ATOM     26  C   UNL     1      -3.869   2.870 -10.382  1.00  0.00     0.060 A 
ATOM     27  C   UNL     1      -4.219   4.013  -9.660  1.00  0.00     0.016 A 
ATOM     28  C   UNL     1      -4.281   2.698 -11.696  1.00  0.00     0.016 A 
ATOM     29  C   UNL     1      -5.015   4.992 -10.233  1.00  0.00     0.010 A 
ATOM     30  C   UNL     1      -5.020   3.713 -12.297  1.00  0.00     0.010 A 
ATOM     31  C   UNL     1      -5.390   4.862 -11.570  1.00  0.00    -0.014 A 
BRANCH  31  32
ATOM     32  C   UNL     1      -6.152   5.928 -12.251  1.00  0.00     0.031 A 
ATOM     33  C   UNL     1      -7.520   5.617 -12.769  1.00  0.00     0.074 A 
ATOM     34  C   UNL     1      -5.562   7.115 -12.482  1.00  0.00     0.049 A 
ATOM     35  N   UNL     1      -8.219   6.242 -13.674  1.00  0.00    -0.248 NA
ATOM     36  C   UNL     1      -8.173   4.422 -12.211  1.00  0.00     0.031 C 
ATOM     37  C   UNL     1      -4.253   7.529 -11.969  1.00  0.00     0.029 A 
ATOM     38  N   UNL     1      -5.970   8.177 -13.246  1.00  0.00    -0.354 N 
ATOM     39  C   UNL     1      -9.372   5.486 -13.841  1.00  0.00     0.074 A 
ATOM     40  C   UNL     1      -9.281   4.360 -12.937  1.00  0.00     0.031 C 
ATOM     41  C   UNL     1      -3.953   8.743 -12.456  1.00  0.00     0.029 A 
ATOM     42  C   UNL     1      -5.008   9.152 -13.373  1.00  0.00     0.049 A 
ATOM     43  H   UNL     1      -6.861   8.236 -13.661  1.00  0.00     0.167 HD
ATOM     44  C   UNL     1     -10.400   5.717 -14.691  1.00  0.00     0.037 A 
ATOM     45  C   UNL     1      -4.955  10.217 -14.194  1.00  0.00     0.037 A 
ATOM     46  C   UNL     1     -10.461   6.864 -15.559  1.00  0.00     0.049 A 
ATOM     47  C   UNL     1      -6.086  10.433 -15.157  1.00  0.00     0.074 A 
ATOM     48  C   UNL     1     -11.458   7.224 -16.447  1.00  0.00     0.029 A 
ATOM     49  N   UNL     1      -9.477   7.841 -15.642  1.00  0.00    -0.354 N 
ATOM     50  N   UNL     1      -7.160   9.700 -15.340  1.00  0.00    -0.248 NA
ATOM     51  C   UNL     1      -5.994  11.603 -16.037  1.00  0.00     0.031 C 
ATOM     52  C   UNL     1     -11.062   8.403 -17.089  1.00  0.00     0.029 A 
ATOM     53  C   UNL     1      -9.836   8.798 -16.575  1.00  0.00     0.049 A 
ATOM     54  H   UNL     1      -8.647   7.852 -15.113  1.00  0.00     0.167 HD
ATOM     55  C   UNL     1      -7.878  10.325 -16.350  1.00  0.00     0.074 A 
ATOM     56  C   UNL     1      -7.123  11.505 -16.727  1.00  0.00     0.031 C 
ATOM     57  C   UNL     1      -9.053   9.959 -16.921  1.00  0.00     0.037 A 
BRANCH  44  58
ATOM     58  C   UNL     1     -11.503   4.699 -14.745  1.00  0.00     0.058 A 
ATOM     59  C   UNL     1     -12.429   4.549 -13.701  1.00  0.00     0.135 A 
ATOM     60  C   UNL     1     -11.642   3.864 -15.866  1.00  0.00     0.135 A 
ATOM     61  F   UNL     1     -12.329   5.305 -12.596  1.00  0.00    -0.206 F 
ATOM     62  C   UNL     1     -13.438   3.593 -13.755  1.00  0.00     0.059 A 
ATOM     63  C   UNL     1     -12.658   2.916 -15.952  1.00  0.00     0.059 A 
ATOM     64  F   UNL     1     -10.779   3.958 -16.890  1.00  0.00    -0.206 F 
ATOM     65  C   UNL     1     -13.543   2.778 -14.884  1.00  0.00     0.060 A 
BRANCH  65  66
ATOM     66  S   UNL     1     -14.858   1.542 -14.940  1.00  0.00     0.124 S 
ATOM     67  O   UNL     1     -14.345   0.531 -14.020  1.00  0.00    -0.237 OA
ATOM     68  O   UNL     1     -16.017   2.294 -14.471  1.00  0.00    -0.237 OA
ATOM     69  O   UNL     1     -14.896   1.150 -16.345  1.00  0.00    -0.744 OA
ENDBRANCH  65  66
ENDBRANCH  44  58
BRANCH  45  70
ATOM     70  C   UNL     1      -3.771  11.115 -14.165  1.00  0.00     0.058 A 
ATOM     71  C   UNL     1      -3.863  12.405 -13.625  1.00  0.00     0.135 A 
ATOM     72  C   UNL     1      -2.515  10.689 -14.629  1.00  0.00     0.135 A 
ATOM     73  F   UNL     1      -5.042  12.860 -13.175  1.00  0.00    -0.206 F 
ATOM     74  C   UNL     1      -2.755  13.243 -13.547  1.00  0.00     0.059 A 
ATOM     75  C   UNL     1      -1.388  11.499 -14.540  1.00  0.00     0.059 A 
ATOM     76  F   UNL     1      -2.370   9.456 -15.139  1.00  0.00    -0.206 F 
ATOM     77  C   UNL     1      -1.520  12.779 -14.002  1.00  0.00     0.060 A 
BRANCH  77  78
ATOM     78  S   UNL     1      -0.074  13.849 -13.830  1.00  0.00     0.124 S 
ATOM     79  O   UNL     1      -0.297  14.816 -14.898  1.00  0.00    -0.237 OA
ATOM     80  O   UNL     1      -0.226  14.354 -12.469  1.00  0.00    -0.237 OA
ATOM     81  O   UNL     1       1.045  12.933 -14.028  1.00  0.00    -0.744 OA
ENDBRANCH  77  78
ENDBRANCH  45  70
BRANCH  57  82
ATOM     82  C   UNL     1      -9.594  10.859 -17.991  1.00  0.00     0.058 A 
ATOM     83  C   UNL     1      -9.058  10.857 -19.287  1.00  0.00     0.135 A 
ATOM     84  C   UNL     1     -10.690  11.694 -17.728  1.00  0.00     0.135 A 
ATOM     85  F   UNL     1      -8.002  10.082 -19.581  1.00  0.00    -0.206 F 
ATOM     86  C   UNL     1      -9.583  11.667 -20.287  1.00  0.00     0.059 A 
ATOM     87  C   UNL     1     -11.246  12.495 -18.718  1.00  0.00     0.059 A 
ATOM     88  F   UNL     1     -11.239  11.724 -16.503  1.00  0.00    -0.206 F 
ATOM     89  C   UNL     1     -10.679  12.481 -19.992  1.00  0.00     0.060 A 
BRANCH  89  90
ATOM     90  S   UNL     1     -11.380  13.498 -21.308  1.00  0.00     0.124 S 
ATOM     91  O   UNL     1     -10.402  14.576 -21.397  1.00  0.00    -0.237 OA
ATOM     92  O   UNL     1     -11.409  12.573 -22.437  1.00  0.00    -0.237 OA
ATOM     93  O   UNL     1     -12.688  13.877 -20.783  1.00  0.00    -0.744 OA
ENDBRANCH  89  90
ENDBRANCH  57  82
ENDBRANCH  31  32
ENDBRANCH  24  26
ENDBRANCH  23  24
ENDBRANCH  22  23
ENDBRANCH   1  22
TORSDOF 18
