REMARK SMILES CS(=O)(=O)c1ccc(-c2cc(Cl)cc3c2O[C@H](C(F)(F)F)C(C(=O)OCCOC(=O)c2ccc(-c4c5nc(c(-c6c(F)cc(S(=O)(=O)[O-])cc6F)c6ccc([nH]6)c(-c6c(F)cc(S(=O)(=O)[O-])cc6F)c6nc(c(-c7c(F)cc(S(=O)(=O)[O-])cc7F)c7ccc4[nH]7)C=C6)C=C5)cc2)=C3)cc1
REMARK SMILES IDX 27 1 26 2 25 3 23 4 24 5 22 6 9 7 10 8 15 9 11 10 14 11
REMARK SMILES IDX 16 12 12 13 13 14 97 15 17 16 8 17 5 18 6 19 99 20 7 21
REMARK SMILES IDX 98 22 2 23 1 24 3 25 4 26 18 27 19 28 20 29 21 30 28 31
REMARK SMILES IDX 29 32 30 33 31 34 32 35 96 36 33 37 95 38 34 39 35 40 36 41
REMARK SMILES IDX 89 42 37 43 94 44 88 45 90 46 38 47 93 48 87 49 86 50 39 52
REMARK SMILES IDX 73 53 52 54 72 55 53 56 56 57 71 58 91 59 54 60 55 61 70 63
REMARK SMILES IDX 92 64 57 65 40 66 41 67 50 68 42 69 43 70 49 71 51 72 44 73
REMARK SMILES IDX 45 74 46 75 47 76 48 77 74 78 75 79 84 80 76 81 77 82 83 83
REMARK SMILES IDX 85 84 78 85 79 86 80 87 81 88 82 89 58 90 59 91 68 92 60 93
REMARK SMILES IDX 61 94 67 95 69 96 62 97 63 98 64 99 65 100 66 101
REMARK H PARENT 90 51 56 62
REMARK Flexibility Score: inf
ROOT
ATOM      1  C   UNL     1       1.646 -12.561   4.017  1.00  0.00     0.275 C 
ENDROOT
BRANCH   1   2
ATOM      2  C   UNL     1       2.496 -12.346   5.274  1.00  0.00     0.275 C 
BRANCH   2   3
ATOM      3  O   UNL     1       2.136 -11.158   6.025  1.00  0.00    -0.459 OA
BRANCH   3   4
ATOM      4  C   UNL     1       3.175 -10.651   6.740  1.00  0.00     0.338 C 
ATOM      5  O   UNL     1       4.296 -11.148   6.768  1.00  0.00    -0.246 OA
BRANCH   4   6
ATOM      6  C   UNL     1       2.866  -9.398   7.477  1.00  0.00     0.087 C 
ATOM      7  C   UNL     1       2.296  -5.995   5.356  1.00  0.00     0.026 A 
ATOM      8  C   UNL     1       3.020  -6.322   4.185  1.00  0.00     0.033 A 
ATOM      9  C   UNL     1       2.506  -6.887   6.412  1.00  0.00     0.135 A 
ATOM     10  C   UNL     1       4.005  -7.316   4.129  1.00  0.00     0.042 A 
ATOM     11  C   UNL     1       3.685  -7.678   6.425  1.00  0.00     0.019 A 
ATOM     12  O   UNL     1       1.537  -7.245   7.346  1.00  0.00    -0.475 OA
ATOM     13  Cl  UNL     1       4.681  -7.938   2.680  1.00  0.00    -0.084 Cl
ATOM     14  C   UNL     1       4.439  -7.895   5.289  1.00  0.00     0.032 A 
ATOM     15  C   UNL     1       3.922  -8.573   7.571  1.00  0.00     0.027 C 
ATOM     16  C   UNL     1       1.498  -8.744   7.571  1.00  0.00     0.316 C 
BRANCH   7  17
ATOM     17  C   UNL     1       1.618  -4.654   5.321  1.00  0.00    -0.015 A 
ATOM     18  C   UNL     1       0.803  -2.062   4.394  1.00  0.00     0.067 A 
ATOM     19  C   UNL     1      -0.066  -3.152   4.317  1.00  0.00     0.021 A 
ATOM     20  C   UNL     1       2.043  -2.229   5.005  1.00  0.00     0.021 A 
ATOM     21  C   UNL     1       0.328  -4.421   4.815  1.00  0.00     0.010 A 
ATOM     22  C   UNL     1       2.440  -3.507   5.448  1.00  0.00     0.010 A 
BRANCH  18  23
ATOM     23  S   UNL     1       0.275  -0.424   3.890  1.00  0.00     0.175 S 
ATOM     24  C   UNL     1       0.979  -0.146   2.293  1.00  0.00     0.163 C 
ATOM     25  O   UNL     1       0.882   0.510   4.817  1.00  0.00    -0.224 OA
ATOM     26  O   UNL     1      -1.172  -0.473   3.750  1.00  0.00    -0.224 OA
ENDBRANCH  18  23
ENDBRANCH   7  17
BRANCH  16  27
ATOM     27  C   UNL     1       0.996  -9.077   8.982  1.00  0.00     0.430 C 
ATOM     28  F   UNL     1       1.748  -8.479   9.939  1.00  0.00    -0.167 F 
ATOM     29  F   UNL     1      -0.287  -8.710   9.178  1.00  0.00    -0.167 F 
ATOM     30  F   UNL     1       1.063 -10.415   9.217  1.00  0.00    -0.167 F 
ENDBRANCH  16  27
ENDBRANCH   4   6
ENDBRANCH   3   4
ENDBRANCH   2   3
ENDBRANCH   1   2
BRANCH   1  31
ATOM     31  O   UNL     1       1.653 -11.403   3.159  1.00  0.00    -0.458 OA
BRANCH  31  32
ATOM     32  C   UNL     1       0.602 -10.569   3.354  1.00  0.00     0.338 C 
ATOM     33  O   UNL     1      -0.310 -10.751   4.150  1.00  0.00    -0.246 OA
BRANCH  32  34
ATOM     34  C   UNL     1       0.739  -9.310   2.576  1.00  0.00     0.060 A 
ATOM     35  C   UNL     1       0.153  -8.180   3.134  1.00  0.00     0.016 A 
ATOM     36  C   UNL     1       1.392  -9.188   1.341  1.00  0.00     0.016 A 
ATOM     37  C   UNL     1       0.272  -6.946   2.493  1.00  0.00     0.010 A 
ATOM     38  C   UNL     1       1.514  -7.922   0.706  1.00  0.00     0.010 A 
ATOM     39  C   UNL     1       0.986  -6.766   1.294  1.00  0.00    -0.014 A 
BRANCH  39  40
ATOM     40  C   UNL     1       1.084  -5.359   0.744  1.00  0.00     0.031 A 
ATOM     41  C   UNL     1      -0.184  -4.628   0.401  1.00  0.00     0.074 A 
ATOM     42  C   UNL     1       2.226  -4.627   0.754  1.00  0.00     0.049 A 
ATOM     43  N   UNL     1      -0.340  -3.374   0.060  1.00  0.00    -0.248 NA
ATOM     44  C   UNL     1      -1.435  -5.400   0.460  1.00  0.00     0.031 C 
ATOM     45  C   UNL     1       3.528  -5.139   1.126  1.00  0.00     0.029 A 
ATOM     46  N   UNL     1       2.484  -3.285   0.540  1.00  0.00    -0.354 N 
ATOM     47  C   UNL     1      -1.702  -3.206  -0.133  1.00  0.00     0.074 A 
ATOM     48  C   UNL     1      -2.333  -4.476   0.160  1.00  0.00     0.031 C 
ATOM     49  C   UNL     1       4.391  -4.133   1.329  1.00  0.00     0.029 A 
ATOM     50  C   UNL     1       3.774  -2.897   0.869  1.00  0.00     0.049 A 
ATOM     51  H   UNL     1       1.811  -2.661   0.185  1.00  0.00     0.167 HD
ATOM     52  C   UNL     1      -2.368  -2.106  -0.550  1.00  0.00     0.037 A 
ATOM     53  C   UNL     1       4.425  -1.715   0.759  1.00  0.00     0.037 A 
ATOM     54  C   UNL     1      -1.744  -0.863  -0.918  1.00  0.00     0.049 A 
ATOM     55  C   UNL     1       3.716  -0.574   0.079  1.00  0.00     0.074 A 
ATOM     56  C   UNL     1      -2.359   0.313  -1.308  1.00  0.00     0.029 A 
ATOM     57  N   UNL     1      -0.377  -0.638  -0.983  1.00  0.00    -0.354 N 
ATOM     58  N   UNL     1       2.478  -0.528  -0.352  1.00  0.00    -0.248 NA
ATOM     59  C   UNL     1       4.480   0.658  -0.164  1.00  0.00     0.031 C 
ATOM     60  C   UNL     1      -1.364   1.241  -1.630  1.00  0.00     0.029 A 
ATOM     61  C   UNL     1      -0.131   0.680  -1.338  1.00  0.00     0.049 A 
ATOM     62  H   UNL     1       0.316  -1.314  -0.804  1.00  0.00     0.167 HD
ATOM     63  C   UNL     1       2.302   0.746  -0.875  1.00  0.00     0.074 A 
ATOM     64  C   UNL     1       3.572   1.430  -0.746  1.00  0.00     0.031 C 
ATOM     65  C   UNL     1       1.166   1.316  -1.346  1.00  0.00     0.037 A 
BRANCH  52  66
ATOM     66  C   UNL     1      -3.854  -2.240  -0.704  1.00  0.00     0.058 A 
ATOM     67  C   UNL     1      -4.713  -2.334   0.403  1.00  0.00     0.135 A 
ATOM     68  C   UNL     1      -4.420  -2.308  -1.986  1.00  0.00     0.135 A 
ATOM     69  F   UNL     1      -4.214  -2.314   1.650  1.00  0.00    -0.206 F 
ATOM     70  C   UNL     1      -6.081  -2.527   0.243  1.00  0.00     0.059 A 
ATOM     71  C   UNL     1      -5.787  -2.476  -2.170  1.00  0.00     0.059 A 
ATOM     72  F   UNL     1      -3.637  -2.239  -3.074  1.00  0.00    -0.206 F 
ATOM     73  C   UNL     1      -6.606  -2.604  -1.049  1.00  0.00     0.060 A 
BRANCH  73  74
ATOM     74  S   UNL     1      -8.373  -2.909  -1.245  1.00  0.00     0.124 S 
ATOM     75  O   UNL     1      -8.481  -4.292  -0.791  1.00  0.00    -0.237 OA
ATOM     76  O   UNL     1      -8.962  -1.905  -0.366  1.00  0.00    -0.237 OA
ATOM     77  O   UNL     1      -8.598  -2.700  -2.672  1.00  0.00    -0.744 OA
ENDBRANCH  73  74
ENDBRANCH  52  66
BRANCH  53  78
ATOM     78  C   UNL     1       5.847  -1.550   1.206  1.00  0.00     0.058 A 
ATOM     79  C   UNL     1       6.205  -0.624   2.204  1.00  0.00     0.135 A 
ATOM     80  C   UNL     1       6.891  -2.276   0.611  1.00  0.00     0.135 A 
ATOM     81  F   UNL     1       5.257   0.119   2.797  1.00  0.00    -0.206 F 
ATOM     82  C   UNL     1       7.535  -0.412   2.575  1.00  0.00     0.059 A 
ATOM     83  C   UNL     1       8.220  -2.116   0.995  1.00  0.00     0.059 A 
ATOM     84  F   UNL     1       6.623  -3.170  -0.353  1.00  0.00    -0.206 F 
ATOM     85  C   UNL     1       8.536  -1.168   1.965  1.00  0.00     0.060 A 
BRANCH  85  86
ATOM     86  S   UNL     1      10.258  -0.916   2.459  1.00  0.00     0.124 S 
ATOM     87  O   UNL     1      10.552   0.375   1.849  1.00  0.00    -0.237 OA
ATOM     88  O   UNL     1      10.165  -0.930   3.915  1.00  0.00    -0.237 OA
ATOM     89  O   UNL     1      10.945  -2.062   1.871  1.00  0.00    -0.744 OA
ENDBRANCH  85  86
ENDBRANCH  53  78
BRANCH  65  90
ATOM     90  C   UNL     1       1.242   2.764  -1.744  1.00  0.00     0.058 A 
ATOM     91  C   UNL     1       1.887   3.192  -2.914  1.00  0.00     0.135 A 
ATOM     92  C   UNL     1       0.626   3.739  -0.940  1.00  0.00     0.135 A 
ATOM     93  F   UNL     1       2.520   2.307  -3.700  1.00  0.00    -0.206 F 
ATOM     94  C   UNL     1       1.915   4.537  -3.273  1.00  0.00     0.059 A 
ATOM     95  C   UNL     1       0.612   5.081  -1.297  1.00  0.00     0.059 A 
ATOM     96  F   UNL     1       0.014   3.383   0.201  1.00  0.00    -0.206 F 
ATOM     97  C   UNL     1       1.264   5.472  -2.464  1.00  0.00     0.060 A 
BRANCH  97  98
ATOM     98  S   UNL     1       1.250   7.203  -2.977  1.00  0.00     0.124 S 
ATOM     99  O   UNL     1       2.627   7.601  -2.711  1.00  0.00    -0.237 OA
ATOM    100  O   UNL     1       0.878   7.105  -4.385  1.00  0.00    -0.237 OA
ATOM    101  O   UNL     1       0.242   7.805  -2.110  1.00  0.00    -0.744 OA
ENDBRANCH  97  98
ENDBRANCH  65  90
ENDBRANCH  39  40
ENDBRANCH  32  34
ENDBRANCH  31  32
ENDBRANCH   1  31
TORSDOF 17
