REMARK SMILES Cc1nc2cc(S(=O)(=O)N3CCC(C(=O)OCCOC(=O)c4ccc(-c5c6nc(c(-c7c(F)cc(S(=O)(=O)[O-])cc7F)c7ccc([nH]7)c(-c7c(F)cc(S(=O)(=O)[O-])cc7F)c7nc(c(-c8c(F)cc(S(=O)(=O)[O-])cc8F)c8ccc5[nH]8)C=C7)C=C6)cc4)CC3)ccc2n1C1CCCC1
REMARK SMILES IDX 17 1 16 2 14 3 15 4 13 5 10 6 11 7 89 8 12 9 88 10 7 11 8 12
REMARK SMILES IDX 9 13 6 14 1 15 2 16 3 17 93 18 4 19 92 20 5 21 91 22 90 23
REMARK SMILES IDX 94 24 95 25 98 26 96 27 97 28 18 29 19 30 20 31 21 32 22 33
REMARK SMILES IDX 23 34 87 35 24 36 86 37 25 38 26 39 27 40 80 41 28 42 85 43
REMARK SMILES IDX 79 44 81 45 29 46 84 47 78 48 77 49 30 51 64 52 43 53 63 54
REMARK SMILES IDX 44 55 47 56 62 57 82 58 45 59 46 60 61 62 83 63 48 64 31 65
REMARK SMILES IDX 32 66 41 67 33 68 34 69 40 70 42 71 35 72 36 73 37 74 38 75
REMARK SMILES IDX 39 76 65 77 66 78 75 79 67 80 68 81 74 82 76 83 69 84 70 85
REMARK SMILES IDX 71 86 72 87 73 88 49 89 50 90 59 91 51 92 52 93 58 94 60 95
REMARK SMILES IDX 53 96 54 97 55 98 56 99 57 100
REMARK H PARENT 81 50 47 61
REMARK Flexibility Score: inf
ROOT
ATOM      1  C   UNL     1      -0.312  13.913   2.795  1.00  0.00     0.274 C 
ENDROOT
BRANCH   1   2
ATOM      2  O   UNL     1      -0.671  12.542   3.065  1.00  0.00    -0.462 OA
BRANCH   2   3
ATOM      3  C   UNL     1      -1.068  11.816   1.990  1.00  0.00     0.309 C 
ATOM      4  O   UNL     1      -1.250  12.271   0.868  1.00  0.00    -0.252 OA
BRANCH   3   5
ATOM      5  C   UNL     1      -1.180  10.338   2.289  1.00  0.00     0.102 C 
ATOM      6  N   UNL     1      -1.917   7.726   3.203  1.00  0.00    -0.198 NA
ATOM      7  C   UNL     1      -0.657   8.330   3.703  1.00  0.00     0.103 C 
ATOM      8  C   UNL     1      -2.465   8.263   1.934  1.00  0.00     0.103 C 
ATOM      9  C   UNL     1      -0.702   9.859   3.655  1.00  0.00     0.032 C 
ATOM     10  C   UNL     1      -2.565   9.785   2.005  1.00  0.00     0.032 C 
BRANCH   6  11
ATOM     11  S   UNL     1      -2.166   6.057   3.493  1.00  0.00     0.243 S 
ATOM     12  O   UNL     1      -3.538   5.763   3.124  1.00  0.00    -0.207 OA
ATOM     13  O   UNL     1      -1.679   5.786   4.827  1.00  0.00    -0.207 OA
BRANCH  11  14
ATOM     14  C   UNL     1      -1.127   5.118   2.387  1.00  0.00     0.085 A 
ATOM     15  C   UNL     1       0.954  -0.018   0.103  1.00  0.00     0.088 C 
ATOM     16  C   UNL     1       0.563   1.336   0.575  1.00  0.00     0.106 A 
ATOM     17  N   UNL     1      -0.353   1.577   1.492  1.00  0.00    -0.233 NA
ATOM     18  N   UNL     1       1.116   2.512   0.106  1.00  0.00    -0.325 N 
ATOM     19  C   UNL     1      -0.430   2.939   1.603  1.00  0.00     0.090 A 
ATOM     20  C   UNL     1       0.499   3.555   0.770  1.00  0.00     0.068 A 
ATOM     21  C   UNL     1      -1.264   3.721   2.420  1.00  0.00     0.052 A 
ATOM     22  C   UNL     1       0.648   4.945   0.728  1.00  0.00     0.030 A 
ATOM     23  C   UNL     1      -0.188   5.710   1.547  1.00  0.00     0.024 A 
BRANCH  18  24
ATOM     24  C   UNL     1       2.185   2.618  -0.870  1.00  0.00     0.089 C 
ATOM     25  C   UNL     1       1.876   3.482  -2.091  1.00  0.00     0.025 C 
ATOM     26  C   UNL     1       3.478   3.205  -0.297  1.00  0.00     0.025 C 
ATOM     27  C   UNL     1       3.242   3.865  -2.639  1.00  0.00     0.002 C 
ATOM     28  C   UNL     1       4.242   3.746  -1.496  1.00  0.00     0.002 C 
ENDBRANCH  18  24
ENDBRANCH  11  14
ENDBRANCH   6  11
ENDBRANCH   3   5
ENDBRANCH   2   3
ENDBRANCH   1   2
BRANCH   1  29
ATOM     29  C   UNL     1       1.214  14.052   2.787  1.00  0.00     0.275 C 
BRANCH  29  30
ATOM     30  O   UNL     1       1.742  13.387   1.626  1.00  0.00    -0.458 OA
BRANCH  30  31
ATOM     31  C   UNL     1       2.398  12.217   1.832  1.00  0.00     0.338 C 
ATOM     32  O   UNL     1       2.903  11.837   2.876  1.00  0.00    -0.246 OA
BRANCH  31  33
ATOM     33  C   UNL     1       2.104  11.329   0.680  1.00  0.00     0.060 A 
ATOM     34  C   UNL     1       1.795  11.839  -0.583  1.00  0.00     0.016 A 
ATOM     35  C   UNL     1       1.908   9.970   0.948  1.00  0.00     0.016 A 
ATOM     36  C   UNL     1       1.111  11.036  -1.496  1.00  0.00     0.010 A 
ATOM     37  C   UNL     1       1.220   9.175   0.027  1.00  0.00     0.010 A 
ATOM     38  C   UNL     1       0.731   9.726  -1.159  1.00  0.00    -0.014 A 
BRANCH  38  39
ATOM     39  C   UNL     1       0.143   8.863  -2.199  1.00  0.00     0.031 A 
ATOM     40  C   UNL     1       1.188   8.488  -3.177  1.00  0.00     0.074 A 
ATOM     41  C   UNL     1      -1.112   8.376  -2.362  1.00  0.00     0.049 A 
ATOM     42  N   UNL     1       1.354   9.026  -4.337  1.00  0.00    -0.248 NA
ATOM     43  C   UNL     1       2.289   7.618  -2.750  1.00  0.00     0.031 C 
ATOM     44  C   UNL     1      -2.275   8.489  -1.490  1.00  0.00     0.029 A 
ATOM     45  N   UNL     1      -1.615   7.625  -3.399  1.00  0.00    -0.354 N 
ATOM     46  C   UNL     1       2.461   8.403  -4.889  1.00  0.00     0.074 A 
ATOM     47  C   UNL     1       3.095   7.691  -3.811  1.00  0.00     0.031 C 
ATOM     48  C   UNL     1      -3.269   7.659  -1.903  1.00  0.00     0.029 A 
ATOM     49  C   UNL     1      -2.894   7.091  -3.189  1.00  0.00     0.049 A 
ATOM     50  H   UNL     1      -1.112   7.473  -4.231  1.00  0.00     0.167 HD
ATOM     51  C   UNL     1       2.612   8.351  -6.240  1.00  0.00     0.037 A 
ATOM     52  C   UNL     1      -3.659   6.364  -4.055  1.00  0.00     0.037 A 
ATOM     53  C   UNL     1       1.766   9.328  -6.885  1.00  0.00     0.049 A 
ATOM     54  C   UNL     1      -3.198   6.725  -5.413  1.00  0.00     0.074 A 
ATOM     55  C   UNL     1       1.669  10.705  -6.867  1.00  0.00     0.029 A 
ATOM     56  N   UNL     1       0.580   8.871  -7.403  1.00  0.00    -0.354 N 
ATOM     57  N   UNL     1      -3.384   7.893  -5.957  1.00  0.00    -0.248 NA
ATOM     58  C   UNL     1      -2.168   5.902  -6.019  1.00  0.00     0.031 C 
ATOM     59  C   UNL     1       0.274  10.986  -6.968  1.00  0.00     0.029 A 
ATOM     60  C   UNL     1      -0.404   9.774  -7.101  1.00  0.00     0.049 A 
ATOM     61  H   UNL     1       0.457   8.034  -7.908  1.00  0.00     0.167 HD
ATOM     62  C   UNL     1      -2.219   8.133  -6.663  1.00  0.00     0.074 A 
ATOM     63  C   UNL     1      -1.552   6.835  -6.746  1.00  0.00     0.031 C 
ATOM     64  C   UNL     1      -1.785   9.409  -6.874  1.00  0.00     0.037 A 
BRANCH  51  65
ATOM     65  C   UNL     1       3.174   7.161  -6.981  1.00  0.00     0.058 A 
ATOM     66  C   UNL     1       3.303   7.224  -8.383  1.00  0.00     0.135 A 
ATOM     67  C   UNL     1       3.300   5.871  -6.423  1.00  0.00     0.135 A 
ATOM     68  F   UNL     1       3.205   8.399  -9.026  1.00  0.00    -0.206 F 
ATOM     69  C   UNL     1       3.444   6.083  -9.173  1.00  0.00     0.059 A 
ATOM     70  C   UNL     1       3.493   4.726  -7.184  1.00  0.00     0.059 A 
ATOM     71  F   UNL     1       3.142   5.636  -5.120  1.00  0.00    -0.206 F 
ATOM     72  C   UNL     1       3.520   4.836  -8.561  1.00  0.00     0.060 A 
BRANCH  72  73
ATOM     73  S   UNL     1       3.590   3.352  -9.575  1.00  0.00     0.124 S 
ATOM     74  O   UNL     1       2.294   3.395 -10.242  1.00  0.00    -0.237 OA
ATOM     75  O   UNL     1       4.755   3.620 -10.411  1.00  0.00    -0.237 OA
ATOM     76  O   UNL     1       3.760   2.285  -8.593  1.00  0.00    -0.744 OA
ENDBRANCH  72  73
ENDBRANCH  51  65
BRANCH  52  77
ATOM     77  C   UNL     1      -4.514   5.151  -3.855  1.00  0.00     0.058 A 
ATOM     78  C   UNL     1      -5.296   4.628  -4.913  1.00  0.00     0.135 A 
ATOM     79  C   UNL     1      -4.307   4.285  -2.767  1.00  0.00     0.135 A 
ATOM     80  F   UNL     1      -5.548   5.375  -5.999  1.00  0.00    -0.206 F 
ATOM     81  C   UNL     1      -5.760   3.306  -4.932  1.00  0.00     0.059 A 
ATOM     82  C   UNL     1      -4.766   2.960  -2.762  1.00  0.00     0.059 A 
ATOM     83  F   UNL     1      -3.562   4.678  -1.723  1.00  0.00    -0.206 F 
ATOM     84  C   UNL     1      -5.460   2.466  -3.864  1.00  0.00     0.060 A 
BRANCH  84  85
ATOM     85  S   UNL     1      -5.869   0.702  -3.987  1.00  0.00     0.124 S 
ATOM     86  O   UNL     1      -7.328   0.723  -3.957  1.00  0.00    -0.237 OA
ATOM     87  O   UNL     1      -5.267   0.334  -5.264  1.00  0.00    -0.237 OA
ATOM     88  O   UNL     1      -5.228   0.120  -2.811  1.00  0.00    -0.744 OA
ENDBRANCH  84  85
ENDBRANCH  52  77
BRANCH  64  89
ATOM     89  C   UNL     1      -2.769  10.534  -6.683  1.00  0.00     0.058 A 
ATOM     90  C   UNL     1      -3.364  10.899  -5.461  1.00  0.00     0.135 A 
ATOM     91  C   UNL     1      -3.018  11.364  -7.788  1.00  0.00     0.135 A 
ATOM     92  F   UNL     1      -3.115  10.207  -4.338  1.00  0.00    -0.206 F 
ATOM     93  C   UNL     1      -4.185  12.025  -5.353  1.00  0.00     0.059 A 
ATOM     94  C   UNL     1      -3.806  12.506  -7.697  1.00  0.00     0.059 A 
ATOM     95  F   UNL     1      -2.445  11.093  -8.973  1.00  0.00    -0.206 F 
ATOM     96  C   UNL     1      -4.394  12.827  -6.477  1.00  0.00     0.060 A 
BRANCH  96  97
ATOM     97  S   UNL     1      -5.383  14.331  -6.322  1.00  0.00     0.124 S 
ATOM     98  O   UNL     1      -6.723  13.799  -6.100  1.00  0.00    -0.237 OA
ATOM     99  O   UNL     1      -4.768  14.998  -5.178  1.00  0.00    -0.237 OA
ATOM    100  O   UNL     1      -5.185  15.005  -7.604  1.00  0.00    -0.744 OA
ENDBRANCH  96  97
ENDBRANCH  64  89
ENDBRANCH  38  39
ENDBRANCH  31  33
ENDBRANCH  30  31
ENDBRANCH  29  30
ENDBRANCH   1  29
TORSDOF 17
