REMARK SMILES O=C(OCCOC(=O)[C@H]1CCc2[nH]nc(C(F)(F)F)c2C1)c1ccc(-c2c3nc(c(-c4c(F)cc(S(=O)(=O)[O-])cc4F)c4ccc([nH]4)c(-c4c(F)cc(S(=O)(=O)[O-])cc4F)c4nc(c(-c5c(F)cc(S(=O)(=O)[O-])cc5F)c5ccc2[nH]5)C=C4)C=C3)cc1
REMARK SMILES IDX 4 1 3 2 2 3 1 4 22 5 23 6 87 7 24 8 86 9 25 10 26 11 27 12
REMARK SMILES IDX 80 13 28 14 85 15 79 16 81 17 29 18 84 19 78 20 77 21 30 23
REMARK SMILES IDX 64 24 43 25 63 26 44 27 47 28 62 29 82 30 45 31 46 32 61 34
REMARK SMILES IDX 83 35 48 36 31 37 32 38 41 39 33 40 34 41 40 42 42 43 35 44
REMARK SMILES IDX 36 45 37 46 38 47 39 48 65 49 66 50 75 51 67 52 68 53 74 54
REMARK SMILES IDX 76 55 69 56 70 57 71 58 72 59 73 60 49 61 50 62 59 63 51 64
REMARK SMILES IDX 52 65 58 66 60 67 53 68 54 69 55 70 56 71 57 72 5 73 6 74
REMARK SMILES IDX 7 75 8 76 9 77 10 78 21 79 11 80 20 81 12 82 15 83 13 84
REMARK SMILES IDX 14 85 16 87 17 88 18 89 19 90
REMARK H PARENT 81 22 47 33 13 86
REMARK Flexibility Score: inf
ROOT
ATOM      1  C   UNL     1       5.344   3.801   4.039  1.00  0.00     0.275 C 
ENDROOT
BRANCH   1   2
ATOM      2  O   UNL     1       4.990   2.397   4.096  1.00  0.00    -0.458 OA
BRANCH   2   3
ATOM      3  C   UNL     1       3.842   1.811   3.650  1.00  0.00     0.338 C 
ATOM      4  O   UNL     1       3.615   0.620   3.800  1.00  0.00    -0.246 OA
BRANCH   3   5
ATOM      5  C   UNL     1       2.843   2.651   2.961  1.00  0.00     0.060 A 
ATOM      6  C   UNL     1       3.363   4.428   2.385  1.00  0.00     0.016 A 
ATOM      7  C   UNL     1       1.017   2.092   2.472  1.00  0.00     0.016 A 
ATOM      8  C   UNL     1       2.421   5.859   1.523  1.00  0.00     0.010 A 
ATOM      9  C   UNL     1       0.027   3.371   1.379  1.00  0.00     0.010 A 
ATOM     10  C   UNL     1       0.485   5.191   0.814  1.00  0.00    -0.014 A 
BRANCH  10  11
ATOM     11  C   UNL     1      -0.753   5.720   0.099  1.00  0.00     0.031 A 
ATOM     12  C   UNL     1      -1.876   6.147   0.971  1.00  0.00     0.074 A 
ATOM     13  C   UNL     1      -0.766   5.851  -1.240  1.00  0.00     0.049 A 
ATOM     14  N   UNL     1      -2.812   7.004   0.712  1.00  0.00    -0.248 NA
ATOM     15  C   UNL     1      -1.974   5.541   2.315  1.00  0.00     0.031 C 
ATOM     16  C   UNL     1       0.216   5.273  -2.153  1.00  0.00     0.029 A 
ATOM     17  N   UNL     1      -1.477   6.701  -2.035  1.00  0.00    -0.354 N 
ATOM     18  C   UNL     1      -3.574   7.065   1.863  1.00  0.00     0.074 A 
ATOM     19  C   UNL     1      -3.031   6.144   2.821  1.00  0.00     0.031 C 
ATOM     20  C   UNL     1       0.265   6.005  -3.269  1.00  0.00     0.029 A 
ATOM     21  C   UNL     1      -0.852   6.925  -3.246  1.00  0.00     0.049 A 
ATOM     22  H   UNL     1      -2.335   7.107  -1.776  1.00  0.00     0.167 HD
ATOM     23  C   UNL     1      -4.657   7.833   2.063  1.00  0.00     0.037 A 
ATOM     24  C   UNL     1      -1.161   7.777  -4.236  1.00  0.00     0.037 A 
ATOM     25  C   UNL     1      -5.194   8.646   1.016  1.00  0.00     0.049 A 
ATOM     26  C   UNL     1      -2.394   8.582  -4.006  1.00  0.00     0.074 A 
ATOM     27  C   UNL     1      -6.320   9.436   1.040  1.00  0.00     0.029 A 
ATOM     28  N   UNL     1      -4.656   8.726  -0.266  1.00  0.00    -0.354 N 
ATOM     29  N   UNL     1      -3.108   8.671  -2.907  1.00  0.00    -0.248 NA
ATOM     30  C   UNL     1      -2.902   9.348  -5.139  1.00  0.00     0.031 C 
ATOM     31  C   UNL     1      -6.526   9.905  -0.258  1.00  0.00     0.029 A 
ATOM     32  C   UNL     1      -5.456   9.520  -1.058  1.00  0.00     0.049 A 
ATOM     33  H   UNL     1      -3.829   8.281  -0.562  1.00  0.00     0.167 HD
ATOM     34  C   UNL     1      -4.158   9.512  -3.209  1.00  0.00     0.074 A 
ATOM     35  C   UNL     1      -3.956   9.932  -4.588  1.00  0.00     0.031 C 
ATOM     36  C   UNL     1      -5.197   9.896  -2.428  1.00  0.00     0.037 A 
BRANCH  23  37
ATOM     37  C   UNL     1      -5.355   7.691   3.375  1.00  0.00     0.058 A 
ATOM     38  C   UNL     1      -4.762   8.062   4.594  1.00  0.00     0.135 A 
ATOM     39  C   UNL     1      -6.631   7.111   3.410  1.00  0.00     0.135 A 
ATOM     40  F   UNL     1      -3.512   8.555   4.623  1.00  0.00    -0.206 F 
ATOM     41  C   UNL     1      -5.413   7.859   5.803  1.00  0.00     0.059 A 
ATOM     42  C   UNL     1      -7.319   6.944   4.601  1.00  0.00     0.059 A 
ATOM     43  F   UNL     1      -7.214   6.686   2.278  1.00  0.00    -0.206 F 
ATOM     44  C   UNL     1      -6.701   7.321   5.792  1.00  0.00     0.060 A 
BRANCH  44  45
ATOM     45  S   UNL     1      -7.570   7.152   7.359  1.00  0.00     0.124 S 
ATOM     46  O   UNL     1      -6.760   6.144   8.037  1.00  0.00    -0.237 OA
ATOM     47  O   UNL     1      -7.481   8.505   7.898  1.00  0.00    -0.237 OA
ATOM     48  O   UNL     1      -8.906   6.720   6.963  1.00  0.00    -0.744 OA
ENDBRANCH  44  45
ENDBRANCH  23  37
BRANCH  24  49
ATOM     49  C   UNL     1      -0.378   7.816  -5.500  1.00  0.00     0.058 A 
ATOM     50  C   UNL     1       0.198   9.000  -5.982  1.00  0.00     0.135 A 
ATOM     51  C   UNL     1      -0.184   6.648  -6.263  1.00  0.00     0.135 A 
ATOM     52  F   UNL     1       0.056  10.145  -5.298  1.00  0.00    -0.206 F 
ATOM     53  C   UNL     1       0.909   9.030  -7.179  1.00  0.00     0.059 A 
ATOM     54  C   UNL     1       0.573   6.641  -7.425  1.00  0.00     0.059 A 
ATOM     55  F   UNL     1      -0.702   5.478  -5.857  1.00  0.00    -0.206 F 
ATOM     56  C   UNL     1       1.098   7.842  -7.888  1.00  0.00     0.060 A 
BRANCH  56  57
ATOM     57  S   UNL     1       2.046   7.881  -9.421  1.00  0.00     0.124 S 
ATOM     58  O   UNL     1       1.182   8.681 -10.281  1.00  0.00    -0.237 OA
ATOM     59  O   UNL     1       3.288   8.515  -8.991  1.00  0.00    -0.237 OA
ATOM     60  O   UNL     1       2.161   6.471  -9.783  1.00  0.00    -0.744 OA
ENDBRANCH  56  57
ENDBRANCH  24  49
BRANCH  36  61
ATOM     61  C   UNL     1      -6.126  10.893  -3.034  1.00  0.00     0.058 A 
ATOM     62  C   UNL     1      -6.945  10.587  -4.129  1.00  0.00     0.135 A 
ATOM     63  C   UNL     1      -6.194  12.179  -2.478  1.00  0.00     0.135 A 
ATOM     64  F   UNL     1      -6.909   9.367  -4.689  1.00  0.00    -0.206 F 
ATOM     65  C   UNL     1      -7.756  11.554  -4.699  1.00  0.00     0.059 A 
ATOM     66  C   UNL     1      -7.052  13.136  -2.985  1.00  0.00     0.059 A 
ATOM     67  F   UNL     1      -5.440  12.505  -1.415  1.00  0.00    -0.206 F 
ATOM     68  C   UNL     1      -7.809  12.820  -4.111  1.00  0.00     0.060 A 
BRANCH  68  69
ATOM     69  S   UNL     1      -8.903  14.050  -4.832  1.00  0.00     0.124 S 
ATOM     70  O   UNL     1      -8.261  14.294  -6.119  1.00  0.00    -0.237 OA
ATOM     71  O   UNL     1     -10.173  13.332  -4.880  1.00  0.00    -0.237 OA
ATOM     72  O   UNL     1      -8.846  15.155  -3.881  1.00  0.00    -0.744 OA
ENDBRANCH  68  69
ENDBRANCH  36  61
ENDBRANCH  10  11
ENDBRANCH   3   5
ENDBRANCH   2   3
ENDBRANCH   1   2
BRANCH   1  73
ATOM     73  C   UNL     1       6.089   4.192   2.728  1.00  0.00     0.274 C 
BRANCH  73  74
ATOM     74  O   UNL     1       5.912   3.279   1.541  1.00  0.00    -0.462 OA
BRANCH  74  75
ATOM     75  C   UNL     1       5.042   2.536   0.819  1.00  0.00     0.309 C 
ATOM     76  O   UNL     1       5.504   1.468   0.391  1.00  0.00    -0.252 OA
BRANCH  75  77
ATOM     77  C   UNL     1       3.572   2.882   0.367  1.00  0.00     0.104 C 
ATOM     78  C   UNL     1       2.200   2.790   1.181  1.00  0.00     0.022 C 
ATOM     79  C   UNL     1       3.146   3.943  -0.561  1.00  0.00     0.055 C 
ATOM     80  C   UNL     1       1.414   3.799   2.967  1.00  0.00     0.057 C 
ATOM     81  C   UNL     1       2.115   4.707   0.245  1.00  0.00     0.006 A 
ATOM     82  C   UNL     1       1.391   4.706   2.125  1.00  0.00     0.039 A 
ATOM     83  C   UNL     1       1.771   6.558  -0.228  1.00  0.00     0.169 A 
ATOM     84  N   UNL     1       0.771   6.407   2.392  1.00  0.00    -0.282 N 
ATOM     85  N   UNL     1       1.056   7.378   0.964  1.00  0.00    -0.171 NA
ATOM     86  H   UNL     1       0.340   6.728   3.217  1.00  0.00     0.190 HD
BRANCH  83  87
ATOM     87  C   UNL     1       2.585   7.295  -1.282  1.00  0.00     0.435 C 
ATOM     88  F   UNL     1       1.933   8.312  -1.889  1.00  0.00    -0.164 F 
ATOM     89  F   UNL     1       3.702   7.836  -0.705  1.00  0.00    -0.164 F 
ATOM     90  F   UNL     1       3.054   6.462  -2.249  1.00  0.00    -0.164 F 
ENDBRANCH  83  87
ENDBRANCH  75  77
ENDBRANCH  74  75
ENDBRANCH  73  74
ENDBRANCH   1  73
TORSDOF 15
