REMARK SMILES O=C(CCOc1cc(-c2ccncc2)nc(-c2ccc(C(F)(F)F)cc2)n1)OCCOC(=O)c1ccc(-c2c3nc(c(-c4c(F)cc(S(=O)(=O)[O-])cc4F)c4ccc([nH]4)c(-c4c(F)cc(S(=O)(=O)[O-])cc4F)c4nc(c(-c5c(F)cc(S(=O)(=O)[O-])cc5F)c5ccc2[nH]5)C=C4)C=C3)cc1
REMARK SMILES IDX 29 1 28 2 2 3 1 4 3 5 4 6 5 7 6 8 7 9 27 10 8 11 16 12 15 13
REMARK SMILES IDX 9 14 10 15 14 16 11 17 13 18 12 19 17 20 18 21 26 22 19 23
REMARK SMILES IDX 25 24 20 25 21 26 22 27 23 28 24 29 30 30 31 31 32 32 33 33
REMARK SMILES IDX 34 34 35 35 99 36 36 37 98 38 37 39 38 40 39 41 92 42 40 43
REMARK SMILES IDX 97 44 91 45 93 46 41 47 96 48 90 49 89 50 42 52 76 53 55 54
REMARK SMILES IDX 75 55 56 56 59 57 74 58 94 59 57 60 58 61 73 63 95 64 60 65
REMARK SMILES IDX 43 66 44 67 53 68 45 69 46 70 52 71 54 72 47 73 48 74 49 75
REMARK SMILES IDX 50 76 51 77 77 78 78 79 87 80 79 81 80 82 86 83 88 84 81 85
REMARK SMILES IDX 82 86 83 87 84 88 85 89 61 90 62 91 71 92 63 93 64 94 70 95
REMARK SMILES IDX 72 96 65 97 66 98 67 99 68 100 69 101
REMARK H PARENT 93 51 59 62
REMARK Flexibility Score: inf
ROOT
ATOM      1  C   UNL     1       4.691   0.731  -0.794  1.00  0.00     0.274 C 
ENDROOT
BRANCH   1   2
ATOM      2  O   UNL     1       3.280   0.504  -0.589  1.00  0.00    -0.462 OA
BRANCH   2   3
ATOM      3  C   UNL     1       2.671   0.248   0.590  1.00  0.00     0.309 C 
ATOM      4  O   UNL     1       1.442   0.252   0.654  1.00  0.00    -0.252 OA
BRANCH   3   5
ATOM      5  C   UNL     1       3.477  -0.216   1.766  1.00  0.00     0.164 C 
BRANCH   5   6
ATOM      6  C   UNL     1       3.343  -1.729   1.915  1.00  0.00     0.243 C 
BRANCH   6   7
ATOM      7  O   UNL     1       4.201  -2.459   1.038  1.00  0.00    -0.477 OA
BRANCH   7   8
ATOM      8  C   UNL     1       3.800  -2.742  -0.233  1.00  0.00     0.217 A 
ATOM      9  C   UNL     1       2.612  -2.380  -0.812  1.00  0.00     0.097 A 
ATOM     10  N   UNL     1       4.740  -3.389  -0.924  1.00  0.00    -0.193 NA
ATOM     11  C   UNL     1       2.559  -2.438  -2.192  1.00  0.00     0.078 A 
ATOM     12  C   UNL     1       4.485  -3.635  -2.220  1.00  0.00     0.163 A 
ATOM     13  N   UNL     1       3.484  -3.083  -2.924  1.00  0.00    -0.228 NA
BRANCH  11  14
ATOM     14  C   UNL     1       1.547  -1.665  -2.917  1.00  0.00     0.003 A 
ATOM     15  C   UNL     1       1.890  -0.429  -3.484  1.00  0.00     0.030 A 
ATOM     16  C   UNL     1       0.208  -2.057  -2.961  1.00  0.00     0.030 A 
ATOM     17  C   UNL     1       0.896   0.353  -4.047  1.00  0.00     0.111 A 
ATOM     18  C   UNL     1      -0.712  -1.211  -3.563  1.00  0.00     0.111 A 
ATOM     19  N   UNL     1      -0.398  -0.020  -4.114  1.00  0.00    -0.265 NA
ENDBRANCH  11  14
BRANCH  12  20
ATOM     20  C   UNL     1       5.098  -4.852  -2.762  1.00  0.00     0.019 A 
ATOM     21  C   UNL     1       5.147  -5.998  -1.943  1.00  0.00     0.012 A 
ATOM     22  C   UNL     1       5.552  -4.966  -4.082  1.00  0.00     0.012 A 
ATOM     23  C   UNL     1       5.605  -7.220  -2.423  1.00  0.00     0.014 A 
ATOM     24  C   UNL     1       6.031  -6.192  -4.566  1.00  0.00     0.014 A 
ATOM     25  C   UNL     1       6.048  -7.331  -3.744  1.00  0.00     0.056 A 
BRANCH  25  26
ATOM     26  C   UNL     1       6.504  -8.676  -4.248  1.00  0.00     0.416 C 
ATOM     27  F   UNL     1       7.511  -9.202  -3.497  1.00  0.00    -0.166 F 
ATOM     28  F   UNL     1       5.505  -9.603  -4.229  1.00  0.00    -0.166 F 
ATOM     29  F   UNL     1       6.966  -8.655  -5.529  1.00  0.00    -0.166 F 
ENDBRANCH  25  26
ENDBRANCH  12  20
ENDBRANCH   7   8
ENDBRANCH   6   7
ENDBRANCH   5   6
ENDBRANCH   3   5
ENDBRANCH   2   3
ENDBRANCH   1   2
BRANCH   1  30
ATOM     30  C   UNL     1       4.958   2.231  -0.881  1.00  0.00     0.275 C 
BRANCH  30  31
ATOM     31  O   UNL     1       4.453   2.867   0.303  1.00  0.00    -0.458 OA
BRANCH  31  32
ATOM     32  C   UNL     1       3.186   3.354   0.187  1.00  0.00     0.338 C 
ATOM     33  O   UNL     1       2.551   3.492  -0.839  1.00  0.00    -0.246 OA
BRANCH  32  34
ATOM     34  C   UNL     1       2.615   3.478   1.547  1.00  0.00     0.060 A 
ATOM     35  C   UNL     1       1.277   3.109   1.738  1.00  0.00     0.016 A 
ATOM     36  C   UNL     1       3.389   3.912   2.627  1.00  0.00     0.016 A 
ATOM     37  C   UNL     1       0.703   3.194   3.004  1.00  0.00     0.010 A 
ATOM     38  C   UNL     1       2.809   4.020   3.890  1.00  0.00     0.010 A 
ATOM     39  C   UNL     1       1.456   3.692   4.074  1.00  0.00    -0.014 A 
BRANCH  39  40
ATOM     40  C   UNL     1       0.763   4.100   5.314  1.00  0.00     0.031 A 
ATOM     41  C   UNL     1       0.271   5.518   5.401  1.00  0.00     0.074 A 
ATOM     42  C   UNL     1       0.563   3.235   6.323  1.00  0.00     0.049 A 
ATOM     43  N   UNL     1      -0.364   6.118   6.372  1.00  0.00    -0.248 NA
ATOM     44  C   UNL     1       0.536   6.375   4.232  1.00  0.00     0.031 C 
ATOM     45  C   UNL     1       0.987   1.835   6.338  1.00  0.00     0.029 A 
ATOM     46  N   UNL     1      -0.045   3.416   7.538  1.00  0.00    -0.354 N 
ATOM     47  C   UNL     1      -0.596   7.412   5.921  1.00  0.00     0.074 A 
ATOM     48  C   UNL     1       0.011   7.528   4.614  1.00  0.00     0.031 C 
ATOM     49  C   UNL     1       0.644   1.290   7.520  1.00  0.00     0.029 A 
ATOM     50  C   UNL     1      -0.015   2.303   8.343  1.00  0.00     0.049 A 
ATOM     51  H   UNL     1      -0.465   4.265   7.809  1.00  0.00     0.167 HD
ATOM     52  C   UNL     1      -1.273   8.410   6.534  1.00  0.00     0.037 A 
ATOM     53  C   UNL     1      -0.462   2.134   9.603  1.00  0.00     0.037 A 
ATOM     54  C   UNL     1      -1.846   8.299   7.847  1.00  0.00     0.049 A 
ATOM     55  C   UNL     1      -1.163   3.279  10.290  1.00  0.00     0.074 A 
ATOM     56  C   UNL     1      -2.530   9.255   8.575  1.00  0.00     0.029 A 
ATOM     57  N   UNL     1      -1.795   7.156   8.632  1.00  0.00    -0.354 N 
ATOM     58  N   UNL     1      -1.401   4.490   9.843  1.00  0.00    -0.248 NA
ATOM     59  C   UNL     1      -1.671   3.030  11.646  1.00  0.00     0.031 C 
ATOM     60  C   UNL     1      -2.864   8.700   9.816  1.00  0.00     0.029 A 
ATOM     61  C   UNL     1      -2.426   7.385   9.842  1.00  0.00     0.049 A 
ATOM     62  H   UNL     1      -1.372   6.307   8.368  1.00  0.00     0.167 HD
ATOM     63  C   UNL     1      -2.107   5.138  10.852  1.00  0.00     0.074 A 
ATOM     64  C   UNL     1      -2.271   4.179  11.925  1.00  0.00     0.031 C 
ATOM     65  C   UNL     1      -2.578   6.410  10.892  1.00  0.00     0.037 A 
BRANCH  52  66
ATOM     66  C   UNL     1      -1.416   9.703   5.783  1.00  0.00     0.058 A 
ATOM     67  C   UNL     1      -2.269   9.810   4.672  1.00  0.00     0.135 A 
ATOM     68  C   UNL     1      -0.700  10.844   6.173  1.00  0.00     0.135 A 
ATOM     69  F   UNL     1      -2.955   8.740   4.241  1.00  0.00    -0.206 F 
ATOM     70  C   UNL     1      -2.391  10.999   3.961  1.00  0.00     0.059 A 
ATOM     71  C   UNL     1      -0.825  12.051   5.491  1.00  0.00     0.059 A 
ATOM     72  F   UNL     1       0.138  10.791   7.221  1.00  0.00    -0.206 F 
ATOM     73  C   UNL     1      -1.663  12.114   4.379  1.00  0.00     0.060 A 
BRANCH  73  74
ATOM     74  S   UNL     1      -1.835  13.652   3.449  1.00  0.00     0.124 S 
ATOM     75  O   UNL     1      -1.082  13.345   2.237  1.00  0.00    -0.237 OA
ATOM     76  O   UNL     1      -3.281  13.760   3.287  1.00  0.00    -0.237 OA
ATOM     77  O   UNL     1      -1.229  14.649   4.327  1.00  0.00    -0.744 OA
ENDBRANCH  73  74
ENDBRANCH  52  66
BRANCH  53  78
ATOM     78  C   UNL     1      -0.259   0.836  10.302  1.00  0.00     0.058 A 
ATOM     79  C   UNL     1      -1.336  -0.013  10.594  1.00  0.00     0.135 A 
ATOM     80  C   UNL     1       1.022   0.430  10.710  1.00  0.00     0.135 A 
ATOM     81  F   UNL     1      -2.580   0.335  10.232  1.00  0.00    -0.206 F 
ATOM     82  C   UNL     1      -1.157  -1.207  11.287  1.00  0.00     0.059 A 
ATOM     83  C   UNL     1       1.229  -0.770  11.383  1.00  0.00     0.059 A 
ATOM     84  F   UNL     1       2.089   1.199  10.444  1.00  0.00    -0.206 F 
ATOM     85  C   UNL     1       0.131  -1.576  11.679  1.00  0.00     0.060 A 
BRANCH  85  86
ATOM     86  S   UNL     1       0.361  -3.143  12.547  1.00  0.00     0.124 S 
ATOM     87  O   UNL     1      -0.131  -2.816  13.880  1.00  0.00    -0.237 OA
ATOM     88  O   UNL     1      -0.469  -4.054  11.764  1.00  0.00    -0.237 OA
ATOM     89  O   UNL     1       1.799  -3.374  12.442  1.00  0.00    -0.744 OA
ENDBRANCH  85  86
ENDBRANCH  53  78
BRANCH  65  90
ATOM     90  C   UNL     1      -3.339   6.823  12.120  1.00  0.00     0.058 A 
ATOM     91  C   UNL     1      -2.693   7.056  13.344  1.00  0.00     0.135 A 
ATOM     92  C   UNL     1      -4.728   7.021  12.062  1.00  0.00     0.135 A 
ATOM     93  F   UNL     1      -1.367   6.879  13.452  1.00  0.00    -0.206 F 
ATOM     94  C   UNL     1      -3.402   7.439  14.477  1.00  0.00     0.059 A 
ATOM     95  C   UNL     1      -5.454   7.430  13.176  1.00  0.00     0.059 A 
ATOM     96  F   UNL     1      -5.392   6.827  10.911  1.00  0.00    -0.206 F 
ATOM     97  C   UNL     1      -4.784   7.620  14.384  1.00  0.00     0.060 A 
BRANCH  97  98
ATOM     98  S   UNL     1      -5.694   8.126  15.858  1.00  0.00     0.124 S 
ATOM     99  O   UNL     1      -5.758   6.875  16.606  1.00  0.00    -0.237 OA
ATOM    100  O   UNL     1      -4.830   9.159  16.422  1.00  0.00    -0.237 OA
ATOM    101  O   UNL     1      -6.965   8.605  15.323  1.00  0.00    -0.744 OA
ENDBRANCH  97  98
ENDBRANCH  65  90
ENDBRANCH  39  40
ENDBRANCH  32  34
ENDBRANCH  31  32
ENDBRANCH  30  31
ENDBRANCH   1  30
TORSDOF 20
