REMARK SMILES Cc1cc(CS(=O)(=O)N[C@@H]2C=C[C@H](C(=O)OCCOC(=O)c3ccc(-c4c5nc(c(-c6c(F)cc(S(=O)(=O)[O-])cc6F)c6ccc([nH]6)c(-c6c(F)cc(S(=O)(=O)[O-])cc6F)c6nc(c(-c7c(F)cc(S(=O)(=O)[O-])cc7F)c7ccc4[nH]7)C=C6)C=C5)cc3)C2)no1
REMARK SMILES IDX 17 1 16 2 14 3 15 4 13 5 10 6 11 7 88 8 12 9 9 10 6 12 7 13
REMARK SMILES IDX 8 14 5 15 4 16 1 17 2 18 3 19 90 20 89 21 18 22 19 23 20 24
REMARK SMILES IDX 21 25 22 26 23 27 87 28 24 29 86 30 25 31 26 32 27 33 80 34
REMARK SMILES IDX 28 35 85 36 79 37 81 38 29 39 84 40 78 41 77 42 30 44 64 45
REMARK SMILES IDX 43 46 63 47 44 48 47 49 62 50 82 51 45 52 46 53 61 55 83 56
REMARK SMILES IDX 48 57 31 58 32 59 41 60 33 61 34 62 40 63 42 64 35 65 36 66
REMARK SMILES IDX 37 67 38 68 39 69 65 70 66 71 75 72 67 73 68 74 74 75 76 76
REMARK SMILES IDX 69 77 70 78 71 79 72 80 73 81 49 82 50 83 59 84 51 85 52 86
REMARK SMILES IDX 58 87 60 88 53 89 54 90 55 91 56 92 57 93
REMARK H PARENT 9 11 81 43 47 54
REMARK Flexibility Score: inf
ROOT
ATOM      1  C   UNL     1       3.838   1.192   3.655  1.00  0.00     0.274 C 
ENDROOT
BRANCH   1   2
ATOM      2  O   UNL     1       2.417   1.319   3.819  1.00  0.00    -0.462 OA
BRANCH   2   3
ATOM      3  C   UNL     1       1.689   0.190   3.584  1.00  0.00     0.312 C 
ATOM      4  O   UNL     1       2.128  -0.831   3.074  1.00  0.00    -0.252 OA
BRANCH   3   5
ATOM      5  C   UNL     1       0.285   0.340   4.149  1.00  0.00     0.123 C 
ATOM      6  C   UNL     1      -1.674  -0.355   2.837  1.00  0.00     0.093 C 
ATOM      7  C   UNL     1      -1.510   1.129   2.879  1.00  0.00    -0.011 C 
ATOM      8  C   UNL     1      -0.613  -0.863   3.808  1.00  0.00     0.043 C 
ATOM      9  C   UNL     1      -0.446   1.511   3.584  1.00  0.00    -0.015 C 
BRANCH   6  10
ATOM     10  N   UNL     1      -1.434  -0.722   1.446  1.00  0.00    -0.208 NA
ATOM     11  H   UNL     1      -1.391   0.145   0.911  1.00  0.00     0.141 HD
BRANCH  10  12
ATOM     12  S   UNL     1      -2.535  -1.726   0.669  1.00  0.00     0.218 S 
ATOM     13  O   UNL     1      -2.760  -2.862   1.532  1.00  0.00    -0.212 OA
ATOM     14  O   UNL     1      -1.968  -1.916  -0.652  1.00  0.00    -0.212 OA
BRANCH  12  15
ATOM     15  C   UNL     1      -4.042  -0.735   0.461  1.00  0.00     0.213 C 
BRANCH  15  16
ATOM     16  C   UNL     1      -4.703  -0.349   1.731  1.00  0.00     0.100 A 
ATOM     17  C   UNL     1      -5.349   1.494   4.827  1.00  0.00     0.091 C 
ATOM     18  C   UNL     1      -5.242   0.690   3.596  1.00  0.00     0.133 A 
ATOM     19  C   UNL     1      -4.808   0.939   2.317  1.00  0.00     0.073 A 
ATOM     20  O   UNL     1      -5.561  -0.625   3.708  1.00  0.00    -0.361 OA
ATOM     21  N   UNL     1      -5.264  -1.271   2.522  1.00  0.00    -0.084 NA
ENDBRANCH  15  16
ENDBRANCH  12  15
ENDBRANCH  10  12
ENDBRANCH   6  10
ENDBRANCH   3   5
ENDBRANCH   2   3
ENDBRANCH   1   2
BRANCH   1  22
ATOM     22  C   UNL     1       4.518   1.067   5.022  1.00  0.00     0.275 C 
BRANCH  22  23
ATOM     23  O   UNL     1       4.179  -0.166   5.690  1.00  0.00    -0.458 OA
BRANCH  23  24
ATOM     24  C   UNL     1       3.103  -0.106   6.513  1.00  0.00     0.338 C 
ATOM     25  O   UNL     1       2.409   0.872   6.737  1.00  0.00    -0.246 OA
BRANCH  24  26
ATOM     26  C   UNL     1       2.778  -1.448   7.031  1.00  0.00     0.060 A 
ATOM     27  C   UNL     1       1.469  -1.915   6.879  1.00  0.00     0.016 A 
ATOM     28  C   UNL     1       3.717  -2.211   7.726  1.00  0.00     0.016 A 
ATOM     29  C   UNL     1       1.090  -3.144   7.410  1.00  0.00     0.010 A 
ATOM     30  C   UNL     1       3.334  -3.443   8.271  1.00  0.00     0.010 A 
ATOM     31  C   UNL     1       2.017  -3.912   8.121  1.00  0.00    -0.014 A 
BRANCH  31  32
ATOM     32  C   UNL     1       1.579  -5.178   8.753  1.00  0.00     0.031 A 
ATOM     33  C   UNL     1       1.319  -5.221  10.231  1.00  0.00     0.074 A 
ATOM     34  C   UNL     1       1.376  -6.270   7.993  1.00  0.00     0.049 A 
ATOM     35  N   UNL     1       0.991  -6.238  10.983  1.00  0.00    -0.248 NA
ATOM     36  C   UNL     1       1.443  -3.947  10.959  1.00  0.00     0.031 C 
ATOM     37  C   UNL     1       1.536  -6.327   6.539  1.00  0.00     0.029 A 
ATOM     38  N   UNL     1       0.992  -7.540   8.338  1.00  0.00    -0.354 N 
ATOM     39  C   UNL     1       0.882  -5.736  12.274  1.00  0.00     0.074 A 
ATOM     40  C   UNL     1       1.195  -4.324  12.206  1.00  0.00     0.031 C 
ATOM     41  C   UNL     1       1.258  -7.571   6.118  1.00  0.00     0.029 A 
ATOM     42  C   UNL     1       0.944  -8.408   7.273  1.00  0.00     0.049 A 
ATOM     43  H   UNL     1       0.772  -7.806   9.260  1.00  0.00     0.167 HD
ATOM     44  C   UNL     1       0.551  -6.395  13.410  1.00  0.00     0.037 A 
ATOM     45  C   UNL     1       0.703  -9.733   7.239  1.00  0.00     0.037 A 
ATOM     46  C   UNL     1       0.235  -7.799  13.465  1.00  0.00     0.049 A 
ATOM     47  C   UNL     1       0.405 -10.457   8.524  1.00  0.00     0.074 A 
ATOM     48  C   UNL     1      -0.114  -8.561  14.566  1.00  0.00     0.029 A 
ATOM     49  N   UNL     1       0.234  -8.655  12.372  1.00  0.00    -0.354 N 
ATOM     50  N   UNL     1       0.318  -9.973   9.742  1.00  0.00    -0.248 NA
ATOM     51  C   UNL     1       0.179 -11.905   8.435  1.00  0.00     0.031 C 
ATOM     52  C   UNL     1      -0.287  -9.885  14.146  1.00  0.00     0.029 A 
ATOM     53  C   UNL     1      -0.090  -9.940  12.775  1.00  0.00     0.049 A 
ATOM     54  H   UNL     1       0.433  -8.387  11.446  1.00  0.00     0.167 HD
ATOM     55  C   UNL     1       0.005 -11.054  10.559  1.00  0.00     0.074 A 
ATOM     56  C   UNL     1      -0.091 -12.214   9.697  1.00  0.00     0.031 C 
ATOM     57  C   UNL     1      -0.186 -11.083  11.901  1.00  0.00     0.037 A 
BRANCH  44  58
ATOM     58  C   UNL     1       0.549  -5.611  14.692  1.00  0.00     0.058 A 
ATOM     59  C   UNL     1      -0.458  -4.680  14.990  1.00  0.00     0.135 A 
ATOM     60  C   UNL     1       1.558  -5.813  15.648  1.00  0.00     0.135 A 
ATOM     61  F   UNL     1      -1.436  -4.435  14.104  1.00  0.00    -0.206 F 
ATOM     62  C   UNL     1      -0.451  -3.958  16.180  1.00  0.00     0.059 A 
ATOM     63  C   UNL     1       1.573  -5.119  16.854  1.00  0.00     0.059 A 
ATOM     64  F   UNL     1       2.547  -6.689  15.411  1.00  0.00    -0.206 F 
ATOM     65  C   UNL     1       0.572  -4.182  17.104  1.00  0.00     0.060 A 
BRANCH  65  66
ATOM     66  S   UNL     1       0.573  -3.232  18.640  1.00  0.00     0.124 S 
ATOM     67  O   UNL     1       1.003  -1.919  18.169  1.00  0.00    -0.237 OA
ATOM     68  O   UNL     1      -0.818  -3.327  19.069  1.00  0.00    -0.237 OA
ATOM     69  O   UNL     1       1.534  -3.943  19.478  1.00  0.00    -0.744 OA
ENDBRANCH  65  66
ENDBRANCH  44  58
BRANCH  45  70
ATOM     70  C   UNL     1       0.763 -10.464   5.946  1.00  0.00     0.058 A 
ATOM     71  C   UNL     1      -0.393 -10.988   5.352  1.00  0.00     0.135 A 
ATOM     72  C   UNL     1       1.984 -10.651   5.277  1.00  0.00     0.135 A 
ATOM     73  F   UNL     1      -1.581 -10.847   5.959  1.00  0.00    -0.206 F 
ATOM     74  C   UNL     1      -0.343 -11.683   4.147  1.00  0.00     0.059 A 
ATOM     75  C   UNL     1       2.057 -11.320   4.060  1.00  0.00     0.059 A 
ATOM     76  F   UNL     1       3.119 -10.161   5.799  1.00  0.00    -0.206 F 
ATOM     77  C   UNL     1       0.888 -11.844   3.508  1.00  0.00     0.060 A 
BRANCH  77  78
ATOM     78  S   UNL     1       0.942 -12.717   1.928  1.00  0.00     0.124 S 
ATOM     79  O   UNL     1       0.783 -14.103   2.354  1.00  0.00    -0.237 OA
ATOM     80  O   UNL     1      -0.189 -12.135   1.213  1.00  0.00    -0.237 OA
ATOM     81  O   UNL     1       2.257 -12.367   1.397  1.00  0.00    -0.744 OA
ENDBRANCH  77  78
ENDBRANCH  45  70
BRANCH  57  82
ATOM     82  C   UNL     1      -0.549 -12.405  12.518  1.00  0.00     0.058 A 
ATOM     83  C   UNL     1       0.399 -13.425  12.687  1.00  0.00     0.135 A 
ATOM     84  C   UNL     1      -1.851 -12.633  12.994  1.00  0.00     0.135 A 
ATOM     85  F   UNL     1       1.656 -13.259  12.244  1.00  0.00    -0.206 F 
ATOM     86  C   UNL     1       0.066 -14.634  13.288  1.00  0.00     0.059 A 
ATOM     87  C   UNL     1      -2.200 -13.825  13.620  1.00  0.00     0.059 A 
ATOM     88  F   UNL     1      -2.793 -11.685  12.866  1.00  0.00    -0.206 F 
ATOM     89  C   UNL     1      -1.238 -14.824  13.753  1.00  0.00     0.060 A 
BRANCH  89  90
ATOM     90  S   UNL     1      -1.650 -16.383  14.566  1.00  0.00     0.124 S 
ATOM     91  O   UNL     1      -1.747 -17.291  13.429  1.00  0.00    -0.237 OA
ATOM     92  O   UNL     1      -0.505 -16.590  15.448  1.00  0.00    -0.237 OA
ATOM     93  O   UNL     1      -2.909 -16.089  15.245  1.00  0.00    -0.744 OA
ENDBRANCH  89  90
ENDBRANCH  57  82
ENDBRANCH  31  32
ENDBRANCH  24  26
ENDBRANCH  23  24
ENDBRANCH  22  23
ENDBRANCH   1  22
TORSDOF 18
