REMARK SMILES Nc1nc(Nc2ccc(C(=O)OCCOC(=O)c3ccc(-c4c5nc(c(-c6c(F)cc(S(=O)(=O)[O-])cc6F)c6ccc([nH]6)c(-c6c(F)cc(S(=O)(=O)[O-])cc6F)c6nc(c(-c7c(F)cc(S(=O)(=O)[O-])cc7F)c7ccc4[nH]7)C=C6)C=C5)cc3)cc2)ccc1[N+](=O)[O-]
REMARK SMILES IDX 13 1 12 2 10 3 11 4 9 5 6 6 7 7 85 8 8 9 84 10 5 11 4 13
REMARK SMILES IDX 2 14 3 15 88 16 87 17 86 18 1 19 89 22 90 23 91 24 14 25
REMARK SMILES IDX 15 26 16 27 17 28 18 29 19 30 83 31 20 32 82 33 21 34 22 35
REMARK SMILES IDX 23 36 76 37 24 38 81 39 75 40 77 41 25 42 80 43 74 44 73 45
REMARK SMILES IDX 26 47 60 48 39 49 59 50 40 51 43 52 58 53 78 54 41 55 42 56
REMARK SMILES IDX 57 58 79 59 44 60 27 61 28 62 37 63 29 64 30 65 36 66 38 67
REMARK SMILES IDX 31 68 32 69 33 70 34 71 35 72 61 73 62 74 71 75 63 76 64 77
REMARK SMILES IDX 70 78 72 79 65 80 66 81 67 82 68 83 69 84 45 85 46 86 55 87
REMARK SMILES IDX 47 88 48 89 54 90 56 91 49 92 50 93 51 94 52 95 53 96
REMARK H PARENT 5 12 1 20 1 21 77 46 43 57
REMARK Flexibility Score: inf
ROOT
ATOM      1  C   UNL     1       3.062   8.470  -0.693  1.00  0.00     0.275 C 
ENDROOT
BRANCH   1   2
ATOM      2  O   UNL     1       2.204   7.329  -0.894  1.00  0.00    -0.458 OA
BRANCH   2   3
ATOM      3  C   UNL     1       1.919   6.623   0.228  1.00  0.00     0.338 C 
ATOM      4  O   UNL     1       2.347   6.834   1.351  1.00  0.00    -0.246 OA
BRANCH   3   5
ATOM      5  C   UNL     1       0.931   5.560  -0.058  1.00  0.00     0.060 A 
ATOM      6  C   UNL     1      -0.828   3.399  -0.395  1.00  0.00     0.040 A 
ATOM      7  C   UNL     1      -0.921   4.213   0.737  1.00  0.00     0.027 A 
ATOM      8  C   UNL     1       0.138   3.695  -1.368  1.00  0.00     0.027 A 
ATOM      9  C   UNL     1      -0.028   5.266   0.917  1.00  0.00     0.018 A 
ATOM     10  C   UNL     1       1.000   4.787  -1.218  1.00  0.00     0.018 A 
BRANCH   6  11
ATOM     11  N   UNL     1      -1.562   2.196  -0.425  1.00  0.00    -0.340 N 
ATOM     12  H   UNL     1      -2.541   2.251  -0.515  1.00  0.00     0.168 HD
BRANCH  11  13
ATOM     13  C   UNL     1      -0.975   0.917  -0.335  1.00  0.00     0.133 A 
ATOM     14  C   UNL     1       0.947  -0.416  -0.178  1.00  0.00     0.204 A 
ATOM     15  N   UNL     1       0.374   0.795  -0.326  1.00  0.00    -0.207 NA
ATOM     16  C   UNL     1       0.171  -1.562  -0.074  1.00  0.00     0.311 A 
ATOM     17  C   UNL     1      -1.223  -1.460  -0.119  1.00  0.00     0.093 A 
ATOM     18  C   UNL     1      -1.800  -0.200  -0.260  1.00  0.00     0.054 A 
BRANCH  14  19
ATOM     19  N   UNL     1       2.326  -0.389  -0.234  1.00  0.00    -0.378 N 
ATOM     20  H   UNL     1       2.799   0.472  -0.308  1.00  0.00     0.158 HD
ATOM     21  H   UNL     1       2.837  -1.230  -0.199  1.00  0.00     0.158 HD
ENDBRANCH  14  19
BRANCH  16  22
ATOM     22  N   UNL     1       0.782  -2.869   0.090  1.00  0.00     0.066 N 
ATOM     23  O   UNL     1       0.158  -3.847  -0.349  1.00  0.00    -0.258 OA
ATOM     24  O   UNL     1       1.869  -2.941   0.685  1.00  0.00    -0.258 OA
ENDBRANCH  16  22
ENDBRANCH  11  13
ENDBRANCH   6  11
ENDBRANCH   3   5
ENDBRANCH   2   3
ENDBRANCH   1   2
BRANCH   1  25
ATOM     25  C   UNL     1       2.237   9.746  -0.535  1.00  0.00     0.275 C 
BRANCH  25  26
ATOM     26  O   UNL     1       1.440   9.663   0.658  1.00  0.00    -0.458 OA
BRANCH  26  27
ATOM     27  C   UNL     1       0.156  10.076   0.543  1.00  0.00     0.338 C 
ATOM     28  O   UNL     1      -0.369  10.569  -0.440  1.00  0.00    -0.246 OA
BRANCH  27  29
ATOM     29  C   UNL     1      -0.560   9.858   1.819  1.00  0.00     0.060 A 
ATOM     30  C   UNL     1      -0.453   8.645   2.495  1.00  0.00     0.016 A 
ATOM     31  C   UNL     1      -1.429  10.838   2.295  1.00  0.00     0.016 A 
ATOM     32  C   UNL     1      -1.280   8.367   3.585  1.00  0.00     0.010 A 
ATOM     33  C   UNL     1      -2.181  10.599   3.452  1.00  0.00     0.010 A 
ATOM     34  C   UNL     1      -2.150   9.345   4.090  1.00  0.00    -0.014 A 
BRANCH  34  35
ATOM     35  C   UNL     1      -3.059   9.053   5.240  1.00  0.00     0.031 A 
ATOM     36  C   UNL     1      -4.550   9.246   5.094  1.00  0.00     0.074 A 
ATOM     37  C   UNL     1      -2.571   8.612   6.419  1.00  0.00     0.049 A 
ATOM     38  N   UNL     1      -5.479   9.259   6.017  1.00  0.00    -0.248 NA
ATOM     39  C   UNL     1      -5.061   9.472   3.732  1.00  0.00     0.031 C 
ATOM     40  C   UNL     1      -1.163   8.337   6.710  1.00  0.00     0.029 A 
ATOM     41  N   UNL     1      -3.213   8.310   7.597  1.00  0.00    -0.354 N 
ATOM     42  C   UNL     1      -6.666   9.568   5.361  1.00  0.00     0.074 A 
ATOM     43  C   UNL     1      -6.343   9.723   3.959  1.00  0.00     0.031 C 
ATOM     44  C   UNL     1      -1.053   7.865   7.962  1.00  0.00     0.029 A 
ATOM     45  C   UNL     1      -2.367   7.887   8.596  1.00  0.00     0.049 A 
ATOM     46  H   UNL     1      -4.187   8.389   7.715  1.00  0.00     0.167 HD
ATOM     47  C   UNL     1      -7.910   9.712   5.878  1.00  0.00     0.037 A 
ATOM     48  C   UNL     1      -2.605   7.589   9.888  1.00  0.00     0.037 A 
ATOM     49  C   UNL     1      -8.248   9.483   7.259  1.00  0.00     0.049 A 
ATOM     50  C   UNL     1      -3.995   7.742  10.440  1.00  0.00     0.074 A 
ATOM     51  C   UNL     1      -9.483   9.600   7.876  1.00  0.00     0.029 A 
ATOM     52  N   UNL     1      -7.356   9.061   8.233  1.00  0.00    -0.354 N 
ATOM     53  N   UNL     1      -5.088   8.121   9.822  1.00  0.00    -0.248 NA
ATOM     54  C   UNL     1      -4.178   7.453  11.869  1.00  0.00     0.031 C 
ATOM     55  C   UNL     1      -9.334   9.262   9.226  1.00  0.00     0.029 A 
ATOM     56  C   UNL     1      -8.012   8.909   9.443  1.00  0.00     0.049 A 
ATOM     57  H   UNL     1      -6.397   8.895   8.085  1.00  0.00     0.167 HD
ATOM     58  C   UNL     1      -6.087   8.119  10.788  1.00  0.00     0.074 A 
ATOM     59  C   UNL     1      -5.476   7.678  12.025  1.00  0.00     0.031 C 
ATOM     60  C   UNL     1      -7.391   8.465  10.664  1.00  0.00     0.037 A 
BRANCH  47  61
ATOM     61  C   UNL     1      -9.002  10.167   4.951  1.00  0.00     0.058 A 
ATOM     62  C   UNL     1      -9.591   9.304   4.016  1.00  0.00     0.135 A 
ATOM     63  C   UNL     1      -9.489  11.483   5.028  1.00  0.00     0.135 A 
ATOM     64  F   UNL     1      -9.151   8.042   3.890  1.00  0.00    -0.206 F 
ATOM     65  C   UNL     1     -10.612   9.735   3.174  1.00  0.00     0.059 A 
ATOM     66  C   UNL     1     -10.522  11.929   4.210  1.00  0.00     0.059 A 
ATOM     67  F   UNL     1      -8.959  12.349   5.906  1.00  0.00    -0.206 F 
ATOM     68  C   UNL     1     -11.068  11.051   3.276  1.00  0.00     0.060 A 
BRANCH  68  69
ATOM     69  S   UNL     1     -12.396  11.599   2.181  1.00  0.00     0.124 S 
ATOM     70  O   UNL     1     -11.670  11.816   0.933  1.00  0.00    -0.237 OA
ATOM     71  O   UNL     1     -13.307  10.459   2.193  1.00  0.00    -0.237 OA
ATOM     72  O   UNL     1     -12.897  12.804   2.835  1.00  0.00    -0.744 OA
ENDBRANCH  68  69
ENDBRANCH  47  61
BRANCH  48  73
ATOM     73  C   UNL     1      -1.487   7.153  10.766  1.00  0.00     0.058 A 
ATOM     74  C   UNL     1      -1.390   5.824  11.201  1.00  0.00     0.135 A 
ATOM     75  C   UNL     1      -0.485   8.050  11.167  1.00  0.00     0.135 A 
ATOM     76  F   UNL     1      -2.332   4.934  10.854  1.00  0.00    -0.206 F 
ATOM     77  C   UNL     1      -0.339   5.398  12.007  1.00  0.00     0.059 A 
ATOM     78  C   UNL     1       0.588   7.642  11.952  1.00  0.00     0.059 A 
ATOM     79  F   UNL     1      -0.529   9.331  10.768  1.00  0.00    -0.206 F 
ATOM     80  C   UNL     1       0.648   6.315  12.374  1.00  0.00     0.060 A 
BRANCH  80  81
ATOM     81  S   UNL     1       2.050   5.745  13.361  1.00  0.00     0.124 S 
ATOM     82  O   UNL     1       1.485   5.756  14.705  1.00  0.00    -0.237 OA
ATOM     83  O   UNL     1       2.319   4.428  12.792  1.00  0.00    -0.237 OA
ATOM     84  O   UNL     1       3.072   6.753  13.094  1.00  0.00    -0.744 OA
ENDBRANCH  80  81
ENDBRANCH  48  73
BRANCH  60  85
ATOM     85  C   UNL     1      -8.248   8.360  11.891  1.00  0.00     0.058 A 
ATOM     86  C   UNL     1      -8.197   9.331  12.902  1.00  0.00     0.135 A 
ATOM     87  C   UNL     1      -9.153   7.297  12.041  1.00  0.00     0.135 A 
ATOM     88  F   UNL     1      -7.343  10.362  12.806  1.00  0.00    -0.206 F 
ATOM     89  C   UNL     1      -9.002   9.242  14.033  1.00  0.00     0.059 A 
ATOM     90  C   UNL     1      -9.979   7.198  13.155  1.00  0.00     0.059 A 
ATOM     91  F   UNL     1      -9.242   6.348  11.097  1.00  0.00    -0.206 F 
ATOM     92  C   UNL     1      -9.888   8.169  14.152  1.00  0.00     0.060 A 
BRANCH  92  93
ATOM     93  S   UNL     1     -10.948   8.073  15.611  1.00  0.00     0.124 S 
ATOM     94  O   UNL     1     -10.025   7.544  16.609  1.00  0.00    -0.237 OA
ATOM     95  O   UNL     1     -11.357   9.462  15.798  1.00  0.00    -0.237 OA
ATOM     96  O   UNL     1     -12.013   7.165  15.195  1.00  0.00    -0.744 OA
ENDBRANCH  92  93
ENDBRANCH  60  85
ENDBRANCH  34  35
ENDBRANCH  27  29
ENDBRANCH  26  27
ENDBRANCH  25  26
ENDBRANCH   1  25
TORSDOF 18
