REMARK SMILES Cc1cc([N+](=O)[O-])c(-c2ccc(C(=O)OCCOC(=O)c3ccc(-c4c5nc(c(-c6c(F)cc(S(=O)(=O)[O-])cc6F)c6ccc([nH]6)c(-c6c(F)cc(S(=O)(=O)[O-])cc6F)c6nc(c(-c7c(F)cc(S(=O)(=O)[O-])cc7F)c7ccc4[nH]7)C=C6)C=C5)cc3)o2)cc1Cl
REMARK SMILES IDX 17 1 16 2 15 3 13 4 14 5 12 6 9 7 10 8 87 9 11 10 8 11 1 12
REMARK SMILES IDX 2 13 3 14 89 15 4 16 88 17 90 18 5 19 6 20 7 21 18 22 19 23
REMARK SMILES IDX 20 24 21 25 22 26 86 27 23 28 85 29 24 30 25 31 26 32 79 33
REMARK SMILES IDX 27 34 84 35 78 36 80 37 28 38 83 39 77 40 76 41 29 43 63 44
REMARK SMILES IDX 42 45 62 46 43 47 46 48 61 49 81 50 44 51 45 52 60 54 82 55
REMARK SMILES IDX 47 56 30 57 31 58 40 59 32 60 33 61 39 62 41 63 34 64 35 65
REMARK SMILES IDX 36 66 37 67 38 68 64 69 65 70 74 71 66 72 67 73 73 74 75 75
REMARK SMILES IDX 68 76 69 77 70 78 71 79 72 80 48 81 49 82 58 83 50 84 51 85
REMARK SMILES IDX 57 86 59 87 52 88 53 89 54 90 55 91 56 92
REMARK H PARENT 80 42 46 53
REMARK Flexibility Score: inf
ROOT
ATOM      1  C   UNL     1      -3.999  -8.306   1.876  1.00  0.00     0.275 C 
ENDROOT
BRANCH   1   2
ATOM      2  C   UNL     1      -5.247  -7.418   1.794  1.00  0.00     0.275 C 
BRANCH   2   3
ATOM      3  O   UNL     1      -5.066  -6.328   0.871  1.00  0.00    -0.456 OA
BRANCH   3   4
ATOM      4  C   UNL     1      -4.680  -5.138   1.427  1.00  0.00     0.374 C 
ATOM      5  O   UNL     1      -4.609  -4.935   2.631  1.00  0.00    -0.242 OA
BRANCH   4   6
ATOM      6  C   UNL     1      -4.288  -4.211   0.390  1.00  0.00     0.212 A 
ATOM      7  C   UNL     1      -3.219  -2.434  -0.362  1.00  0.00     0.142 A 
ATOM      8  C   UNL     1      -3.712  -3.080  -1.472  1.00  0.00     0.052 A 
ATOM      9  O   UNL     1      -3.591  -3.091   0.767  1.00  0.00    -0.449 OA
ATOM     10  C   UNL     1      -4.396  -4.227  -0.990  1.00  0.00     0.059 A 
BRANCH   7  11
ATOM     11  C   UNL     1      -2.341  -1.298  -0.156  1.00  0.00     0.096 A 
ATOM     12  C   UNL     1       0.485   1.987   0.204  1.00  0.00     0.046 C 
ATOM     13  C   UNL     1      -0.480   0.838   0.104  1.00  0.00    -0.026 A 
ATOM     14  C   UNL     1      -1.861   1.089   0.077  1.00  0.00     0.091 A 
ATOM     15  C   UNL     1      -0.041  -0.492   0.024  1.00  0.00     0.045 A 
ATOM     16  C   UNL     1      -2.776   0.027  -0.047  1.00  0.00     0.280 A 
ATOM     17  C   UNL     1      -0.958  -1.542  -0.105  1.00  0.00     0.040 A 
ATOM     18  Cl  UNL     1       1.637  -0.895   0.056  1.00  0.00    -0.084 Cl
BRANCH  16  19
ATOM     19  N   UNL     1      -4.193   0.363  -0.105  1.00  0.00     0.063 N 
ATOM     20  O   UNL     1      -4.979  -0.278   0.603  1.00  0.00    -0.258 OA
ATOM     21  O   UNL     1      -4.514   1.295  -0.857  1.00  0.00    -0.258 OA
ENDBRANCH  16  19
ENDBRANCH   7  11
ENDBRANCH   4   6
ENDBRANCH   3   4
ENDBRANCH   2   3
ENDBRANCH   1   2
BRANCH   1  22
ATOM     22  O   UNL     1      -2.915  -7.662   2.572  1.00  0.00    -0.458 OA
BRANCH  22  23
ATOM     23  C   UNL     1      -2.065  -6.957   1.787  1.00  0.00     0.338 C 
ATOM     24  O   UNL     1      -2.119  -6.845   0.573  1.00  0.00    -0.246 OA
BRANCH  23  25
ATOM     25  C   UNL     1      -1.109  -6.203   2.619  1.00  0.00     0.060 A 
ATOM     26  C   UNL     1      -1.018  -4.825   2.411  1.00  0.00     0.016 A 
ATOM     27  C   UNL     1      -0.261  -6.836   3.530  1.00  0.00     0.016 A 
ATOM     28  C   UNL     1      -0.072  -4.071   3.099  1.00  0.00     0.010 A 
ATOM     29  C   UNL     1       0.695  -6.078   4.219  1.00  0.00     0.010 A 
ATOM     30  C   UNL     1       0.804  -4.694   3.995  1.00  0.00    -0.014 A 
BRANCH  30  31
ATOM     31  C   UNL     1       1.879  -3.892   4.627  1.00  0.00     0.031 A 
ATOM     32  C   UNL     1       3.282  -3.982   4.096  1.00  0.00     0.074 A 
ATOM     33  C   UNL     1       1.585  -3.040   5.628  1.00  0.00     0.049 A 
ATOM     34  N   UNL     1       4.365  -3.382   4.516  1.00  0.00    -0.248 NA
ATOM     35  C   UNL     1       3.493  -4.864   2.938  1.00  0.00     0.031 C 
ATOM     36  C   UNL     1       0.252  -2.831   6.194  1.00  0.00     0.029 A 
ATOM     37  N   UNL     1       2.388  -2.186   6.339  1.00  0.00    -0.354 N 
ATOM     38  C   UNL     1       5.388  -3.817   3.681  1.00  0.00     0.074 A 
ATOM     39  C   UNL     1       4.800  -4.749   2.743  1.00  0.00     0.031 C 
ATOM     40  C   UNL     1       0.328  -1.901   7.161  1.00  0.00     0.029 A 
ATOM     41  C   UNL     1       1.718  -1.474   7.304  1.00  0.00     0.049 A 
ATOM     42  H   UNL     1       3.354  -2.091   6.173  1.00  0.00     0.167 HD
ATOM     43  C   UNL     1       6.696  -3.465   3.692  1.00  0.00     0.037 A 
ATOM     44  C   UNL     1       2.176  -0.587   8.209  1.00  0.00     0.037 A 
ATOM     45  C   UNL     1       7.275  -2.528   4.619  1.00  0.00     0.049 A 
ATOM     46  C   UNL     1       3.642  -0.244   8.226  1.00  0.00     0.074 A 
ATOM     47  C   UNL     1       8.594  -2.123   4.726  1.00  0.00     0.029 A 
ATOM     48  N   UNL     1       6.567  -1.843   5.595  1.00  0.00    -0.354 N 
ATOM     49  N   UNL     1       4.601  -0.682   7.446  1.00  0.00    -0.248 NA
ATOM     50  C   UNL     1       4.089   0.715   9.247  1.00  0.00     0.031 C 
ATOM     51  C   UNL     1       8.688  -1.209   5.781  1.00  0.00     0.029 A 
ATOM     52  C   UNL     1       7.421  -1.020   6.310  1.00  0.00     0.049 A 
ATOM     53  H   UNL     1       5.599  -1.928   5.756  1.00  0.00     0.167 HD
ATOM     54  C   UNL     1       5.758  -0.037   7.866  1.00  0.00     0.074 A 
ATOM     55  C   UNL     1       5.379   0.830   8.963  1.00  0.00     0.031 C 
ATOM     56  C   UNL     1       7.021  -0.152   7.388  1.00  0.00     0.037 A 
BRANCH  43  57
ATOM     57  C   UNL     1       7.595  -4.112   2.678  1.00  0.00     0.058 A 
ATOM     58  C   UNL     1       7.577  -3.729   1.329  1.00  0.00     0.135 A 
ATOM     59  C   UNL     1       8.506  -5.107   3.066  1.00  0.00     0.135 A 
ATOM     60  F   UNL     1       6.711  -2.795   0.903  1.00  0.00    -0.206 F 
ATOM     61  C   UNL     1       8.417  -4.324   0.393  1.00  0.00     0.059 A 
ATOM     62  C   UNL     1       9.370  -5.702   2.152  1.00  0.00     0.059 A 
ATOM     63  F   UNL     1       8.561  -5.512   4.345  1.00  0.00    -0.206 F 
ATOM     64  C   UNL     1       9.309  -5.313   0.814  1.00  0.00     0.060 A 
BRANCH  64  65
ATOM     65  S   UNL     1      10.397  -6.076  -0.408  1.00  0.00     0.124 S 
ATOM     66  O   UNL     1       9.475  -6.974  -1.097  1.00  0.00    -0.237 OA
ATOM     67  O   UNL     1      10.858  -4.928  -1.181  1.00  0.00    -0.237 OA
ATOM     68  O   UNL     1      11.417  -6.729   0.407  1.00  0.00    -0.744 OA
ENDBRANCH  64  65
ENDBRANCH  43  57
BRANCH  44  69
ATOM     69  C   UNL     1       1.243   0.034   9.185  1.00  0.00     0.058 A 
ATOM     70  C   UNL     1       0.900   1.391   9.098  1.00  0.00     0.135 A 
ATOM     71  C   UNL     1       0.687  -0.716  10.233  1.00  0.00     0.135 A 
ATOM     72  F   UNL     1       1.414   2.151   8.118  1.00  0.00    -0.206 F 
ATOM     73  C   UNL     1       0.056   1.990  10.027  1.00  0.00     0.059 A 
ATOM     74  C   UNL     1      -0.178  -0.145  11.161  1.00  0.00     0.059 A 
ATOM     75  F   UNL     1       0.976  -2.021  10.353  1.00  0.00    -0.206 F 
ATOM     76  C   UNL     1      -0.476   1.213  11.058  1.00  0.00     0.060 A 
BRANCH  76  77
ATOM     77  S   UNL     1      -1.595   1.986  12.246  1.00  0.00     0.124 S 
ATOM     78  O   UNL     1      -0.657   2.682  13.120  1.00  0.00    -0.237 OA
ATOM     79  O   UNL     1      -2.420   2.834  11.391  1.00  0.00    -0.237 OA
ATOM     80  O   UNL     1      -2.288   0.847  12.841  1.00  0.00    -0.744 OA
ENDBRANCH  76  77
ENDBRANCH  44  69
BRANCH  56  81
ATOM     81  C   UNL     1       8.077   0.709   8.020  1.00  0.00     0.058 A 
ATOM     82  C   UNL     1       8.618   0.404   9.278  1.00  0.00     0.135 A 
ATOM     83  C   UNL     1       8.584   1.826   7.338  1.00  0.00     0.135 A 
ATOM     84  F   UNL     1       8.163  -0.652   9.972  1.00  0.00    -0.206 F 
ATOM     85  C   UNL     1       9.613   1.191   9.850  1.00  0.00     0.059 A 
ATOM     86  C   UNL     1       9.592   2.615   7.882  1.00  0.00     0.059 A 
ATOM     87  F   UNL     1       8.105   2.154   6.128  1.00  0.00    -0.206 F 
ATOM     88  C   UNL     1      10.092   2.296   9.144  1.00  0.00     0.060 A 
BRANCH  88  89
ATOM     89  S   UNL     1      11.405   3.296   9.879  1.00  0.00     0.124 S 
ATOM     90  O   UNL     1      10.657   4.102  10.838  1.00  0.00    -0.237 OA
ATOM     91  O   UNL     1      12.289   2.286  10.453  1.00  0.00    -0.237 OA
ATOM     92  O   UNL     1      11.954   4.023   8.738  1.00  0.00    -0.744 OA
ENDBRANCH  88  89
ENDBRANCH  56  81
ENDBRANCH  30  31
ENDBRANCH  23  25
ENDBRANCH  22  23
ENDBRANCH   1  22
TORSDOF 16
