REMARK SMILES C[C@H](Sc1ccccn1)C(=O)N[C@H](C(=O)OCCOC(=O)c1ccc(-c2c3nc(c(-c4c(F)cc(S(=O)(=O)[O-])cc4F)c4ccc([nH]4)c(-c4c(F)cc(S(=O)(=O)[O-])cc4F)c4nc(c(-c5c(F)cc(S(=O)(=O)[O-])cc5F)c5ccc2[nH]5)C=C4)C=C3)cc1)c1ccc(F)cc1
REMARK SMILES IDX 17 1 16 2 14 3 15 4 13 5 12 6 10 7 11 8 2 10 1 11 3 12 4 13
REMARK SMILES IDX 5 14 9 15 6 16 8 17 7 18 88 19 89 20 94 21 90 22 93 23 91 24
REMARK SMILES IDX 92 25 18 26 19 27 20 28 21 29 22 30 23 31 87 32 24 33 86 34
REMARK SMILES IDX 25 35 26 36 27 37 80 38 28 39 85 40 79 41 81 42 29 43 84 44
REMARK SMILES IDX 78 45 77 46 30 48 64 49 43 50 63 51 44 52 47 53 62 54 82 55
REMARK SMILES IDX 45 56 46 57 61 59 83 60 48 61 31 62 32 63 41 64 33 65 34 66
REMARK SMILES IDX 40 67 42 68 35 69 36 70 37 71 38 72 39 73 65 74 66 75 75 76
REMARK SMILES IDX 67 77 68 78 74 79 76 80 69 81 70 82 71 83 72 84 73 85 49 86
REMARK SMILES IDX 50 87 59 88 51 89 52 90 58 91 60 92 53 93 54 94 55 95 56 96
REMARK SMILES IDX 57 97
REMARK H PARENT 12 9 81 47 47 58
REMARK Flexibility Score: inf
ROOT
ATOM      1  C   UNL     1      -2.127   0.002   1.667  1.00  0.00     0.274 C 
ENDROOT
BRANCH   1   2
ATOM      2  O   UNL     1      -1.441   0.530   0.515  1.00  0.00    -0.460 OA
BRANCH   2   3
ATOM      3  C   UNL     1      -2.051   1.561  -0.149  1.00  0.00     0.333 C 
ATOM      4  O   UNL     1      -3.032   2.173   0.249  1.00  0.00    -0.249 OA
BRANCH   3   5
ATOM      5  C   UNL     1      -1.381   1.784  -1.514  1.00  0.00     0.223 C 
BRANCH   5   6
ATOM      6  N   UNL     1      -1.835   0.918  -2.616  1.00  0.00    -0.338 N 
ATOM      7  C   UNL     1      -2.993   0.551  -3.210  1.00  0.00     0.234 C 
ATOM      8  O   UNL     1      -2.836  -0.091  -4.262  1.00  0.00    -0.274 OA
ATOM      9  H   UNL     1      -1.068   0.476  -3.048  1.00  0.00     0.164 HD
BRANCH   7  10
ATOM     10  C   UNL     1      -4.431   0.812  -2.725  1.00  0.00     0.139 C 
ATOM     11  C   UNL     1      -4.885   2.244  -2.913  1.00  0.00     0.030 C 
BRANCH  10  12
ATOM     12  S   UNL     1      -4.797  -0.172  -1.211  1.00  0.00    -0.093 SA
BRANCH  12  13
ATOM     13  C   UNL     1      -5.888   0.772  -0.164  1.00  0.00     0.097 A 
ATOM     14  C   UNL     1      -6.902   1.616  -0.597  1.00  0.00     0.035 A 
ATOM     15  N   UNL     1      -5.694   0.535   1.159  1.00  0.00    -0.250 NA
ATOM     16  C   UNL     1      -7.663   2.316   0.343  1.00  0.00     0.004 A 
ATOM     17  C   UNL     1      -6.452   1.212   2.050  1.00  0.00     0.112 A 
ATOM     18  C   UNL     1      -7.433   2.116   1.695  1.00  0.00     0.020 A 
ENDBRANCH  12  13
ENDBRANCH  10  12
ENDBRANCH   7  10
ENDBRANCH   5   6
BRANCH   5  19
ATOM     19  C   UNL     1      -1.192   3.243  -1.930  1.00  0.00    -0.014 A 
ATOM     20  C   UNL     1       0.100   3.770  -2.134  1.00  0.00     0.009 A 
ATOM     21  C   UNL     1      -2.272   4.124  -2.072  1.00  0.00     0.009 A 
ATOM     22  C   UNL     1       0.283   5.115  -2.480  1.00  0.00     0.039 A 
ATOM     23  C   UNL     1      -2.100   5.450  -2.474  1.00  0.00     0.039 A 
ATOM     24  C   UNL     1      -0.819   5.937  -2.669  1.00  0.00     0.123 A 
ATOM     25  F   UNL     1      -0.643   7.223  -2.993  1.00  0.00    -0.207 F 
ENDBRANCH   5  19
ENDBRANCH   3   5
ENDBRANCH   2   3
ENDBRANCH   1   2
BRANCH   1  26
ATOM     26  C   UNL     1      -1.591   0.537   2.997  1.00  0.00     0.275 C 
BRANCH  26  27
ATOM     27  O   UNL     1      -1.918   1.926   3.177  1.00  0.00    -0.458 OA
BRANCH  27  28
ATOM     28  C   UNL     1      -0.934   2.787   2.829  1.00  0.00     0.338 C 
ATOM     29  O   UNL     1       0.210   2.502   2.515  1.00  0.00    -0.246 OA
BRANCH  28  30
ATOM     30  C   UNL     1      -1.503   4.131   2.635  1.00  0.00     0.060 A 
ATOM     31  C   UNL     1      -1.321   4.684   1.370  1.00  0.00     0.016 A 
ATOM     32  C   UNL     1      -2.162   4.856   3.631  1.00  0.00     0.016 A 
ATOM     33  C   UNL     1      -1.828   5.939   1.072  1.00  0.00     0.010 A 
ATOM     34  C   UNL     1      -2.644   6.143   3.339  1.00  0.00     0.010 A 
ATOM     35  C   UNL     1      -2.485   6.683   2.052  1.00  0.00    -0.014 A 
BRANCH  35  36
ATOM     36  C   UNL     1      -2.856   8.074   1.704  1.00  0.00     0.031 A 
ATOM     37  C   UNL     1      -1.872   9.172   1.982  1.00  0.00     0.074 A 
ATOM     38  C   UNL     1      -3.966   8.331   0.988  1.00  0.00     0.049 A 
ATOM     39  N   UNL     1      -1.988  10.458   1.782  1.00  0.00    -0.248 NA
ATOM     40  C   UNL     1      -0.571   8.759   2.535  1.00  0.00     0.031 C 
ATOM     41  C   UNL     1      -4.913   7.325   0.506  1.00  0.00     0.029 A 
ATOM     42  N   UNL     1      -4.468   9.518   0.514  1.00  0.00    -0.354 N 
ATOM     43  C   UNL     1      -0.784  11.012   2.198  1.00  0.00     0.074 A 
ATOM     44  C   UNL     1       0.052   9.922   2.653  1.00  0.00     0.031 C 
ATOM     45  C   UNL     1      -5.882   7.940  -0.195  1.00  0.00     0.029 A 
ATOM     46  C   UNL     1      -5.654   9.384  -0.167  1.00  0.00     0.049 A 
ATOM     47  H   UNL     1      -4.019  10.384   0.650  1.00  0.00     0.167 HD
ATOM     48  C   UNL     1      -0.416  12.314   2.212  1.00  0.00     0.037 A 
ATOM     49  C   UNL     1      -6.478  10.324  -0.672  1.00  0.00     0.037 A 
ATOM     50  C   UNL     1      -1.254  13.393   1.761  1.00  0.00     0.049 A 
ATOM     51  C   UNL     1      -6.110  11.779  -0.524  1.00  0.00     0.074 A 
ATOM     52  C   UNL     1      -1.005  14.753   1.804  1.00  0.00     0.029 A 
ATOM     53  N   UNL     1      -2.503  13.232   1.180  1.00  0.00    -0.354 N 
ATOM     54  N   UNL     1      -5.014  12.307  -0.031  1.00  0.00    -0.248 NA
ATOM     55  C   UNL     1      -7.100  12.768  -0.976  1.00  0.00     0.031 C 
ATOM     56  C   UNL     1      -2.123  15.417   1.287  1.00  0.00     0.029 A 
ATOM     57  C   UNL     1      -3.049  14.469   0.881  1.00  0.00     0.049 A 
ATOM     58  H   UNL     1      -2.938  12.366   1.006  1.00  0.00     0.167 HD
ATOM     59  C   UNL     1      -5.178  13.685  -0.122  1.00  0.00     0.074 A 
ATOM     60  C   UNL     1      -6.471  13.911  -0.735  1.00  0.00     0.031 C 
ATOM     61  C   UNL     1      -4.338  14.675   0.271  1.00  0.00     0.037 A 
BRANCH  48  62
ATOM     62  C   UNL     1       0.919  12.640   2.812  1.00  0.00     0.058 A 
ATOM     63  C   UNL     1       2.122  12.408   2.128  1.00  0.00     0.135 A 
ATOM     64  C   UNL     1       0.989  13.189   4.102  1.00  0.00     0.135 A 
ATOM     65  F   UNL     1       2.109  11.858   0.903  1.00  0.00    -0.206 F 
ATOM     66  C   UNL     1       3.352  12.689   2.714  1.00  0.00     0.059 A 
ATOM     67  C   UNL     1       2.207  13.497   4.698  1.00  0.00     0.059 A 
ATOM     68  F   UNL     1      -0.134  13.418   4.801  1.00  0.00    -0.206 F 
ATOM     69  C   UNL     1       3.384  13.229   4.002  1.00  0.00     0.060 A 
BRANCH  69  70
ATOM     70  S   UNL     1       4.985  13.575   4.759  1.00  0.00     0.124 S 
ATOM     71  O   UNL     1       5.444  12.231   5.096  1.00  0.00    -0.237 OA
ATOM     72  O   UNL     1       5.707  14.239   3.678  1.00  0.00    -0.237 OA
ATOM     73  O   UNL     1       4.646  14.425   5.896  1.00  0.00    -0.744 OA
ENDBRANCH  69  70
ENDBRANCH  48  62
BRANCH  49  74
ATOM     74  C   UNL     1      -7.771   9.931  -1.297  1.00  0.00     0.058 A 
ATOM     75  C   UNL     1      -8.020  10.139  -2.662  1.00  0.00     0.135 A 
ATOM     76  C   UNL     1      -8.797   9.360  -0.527  1.00  0.00     0.135 A 
ATOM     77  F   UNL     1      -7.080  10.700  -3.438  1.00  0.00    -0.206 F 
ATOM     78  C   UNL     1      -9.241   9.801  -3.240  1.00  0.00     0.059 A 
ATOM     79  C   UNL     1     -10.015   8.990  -1.087  1.00  0.00     0.059 A 
ATOM     80  F   UNL     1      -8.612   9.139   0.784  1.00  0.00    -0.206 F 
ATOM     81  C   UNL     1     -10.232   9.225  -2.443  1.00  0.00     0.060 A 
BRANCH  81  82
ATOM     82  S   UNL     1     -11.796   8.739  -3.204  1.00  0.00     0.124 S 
ATOM     83  O   UNL     1     -12.468  10.025  -3.341  1.00  0.00    -0.237 OA
ATOM     84  O   UNL     1     -11.354   8.110  -4.444  1.00  0.00    -0.237 OA
ATOM     85  O   UNL     1     -12.373   7.825  -2.221  1.00  0.00    -0.744 OA
ENDBRANCH  81  82
ENDBRANCH  49  74
BRANCH  61  86
ATOM     86  C   UNL     1      -4.780  16.093   0.041  1.00  0.00     0.058 A 
ATOM     87  C   UNL     1      -5.761  16.695   0.843  1.00  0.00     0.135 A 
ATOM     88  C   UNL     1      -4.170  16.878  -0.951  1.00  0.00     0.135 A 
ATOM     89  F   UNL     1      -6.379  15.986   1.801  1.00  0.00    -0.206 F 
ATOM     90  C   UNL     1      -6.135  18.022   0.660  1.00  0.00     0.059 A 
ATOM     91  C   UNL     1      -4.511  18.215  -1.136  1.00  0.00     0.059 A 
ATOM     92  F   UNL     1      -3.217  16.353  -1.738  1.00  0.00    -0.206 F 
ATOM     93  C   UNL     1      -5.503  18.775  -0.332  1.00  0.00     0.060 A 
BRANCH  93  94
ATOM     94  S   UNL     1      -5.966  20.509  -0.533  1.00  0.00     0.124 S 
ATOM     95  O   UNL     1      -7.250  20.392  -1.215  1.00  0.00    -0.237 OA
ATOM     96  O   UNL     1      -6.022  20.982   0.847  1.00  0.00    -0.237 OA
ATOM     97  O   UNL     1      -4.877  21.060  -1.333  1.00  0.00    -0.744 OA
ENDBRANCH  93  94
ENDBRANCH  61  86
ENDBRANCH  35  36
ENDBRANCH  28  30
ENDBRANCH  27  28
ENDBRANCH  26  27
ENDBRANCH   1  26
TORSDOF 19
