REMARK SMILES COc1cccc(NC(=O)[C@@H]2[C@@H](C(=O)OCCOC(=O)c3ccc(-c4c5nc(c(-c6c(F)cc(S(=O)(=O)[O-])cc6F)c6ccc([nH]6)c(-c6c(F)cc(S(=O)(=O)[O-])cc6F)c6nc(c(-c7c(F)cc(S(=O)(=O)[O-])cc7F)c7ccc4[nH]7)C=C6)C=C5)cc3)[C@H]3C=C[C@@H]2C3)c1
REMARK SMILES IDX 16 1 15 2 13 3 14 4 12 5 11 6 90 7 87 8 89 9 91 10 88 11
REMARK SMILES IDX 9 12 8 13 10 15 7 16 3 17 4 18 92 19 5 20 6 21 2 22 1 23
REMARK SMILES IDX 17 24 18 25 19 26 20 27 21 28 22 29 86 30 23 31 85 32 24 33
REMARK SMILES IDX 25 34 26 35 79 36 27 37 84 38 78 39 80 40 28 41 83 42 77 43
REMARK SMILES IDX 76 44 29 46 63 47 42 48 62 49 43 50 46 51 61 52 81 53 44 54
REMARK SMILES IDX 45 55 60 57 82 58 47 59 30 60 31 61 40 62 32 63 33 64 39 65
REMARK SMILES IDX 41 66 34 67 35 68 36 69 37 70 38 71 64 72 65 73 74 74 66 75
REMARK SMILES IDX 67 76 73 77 75 78 68 79 69 80 70 81 71 82 72 83 48 84 49 85
REMARK SMILES IDX 58 86 50 87 51 88 57 89 59 90 52 91 53 92 54 93 55 94 56 95
REMARK H PARENT 8 14 80 45 46 56
REMARK Flexibility Score: inf
ROOT
ATOM      1  C   UNL     1       1.642  -0.915 -10.740  1.00  0.00     0.274 C 
ENDROOT
BRANCH   1   2
ATOM      2  O   UNL     1       1.499  -1.607  -9.489  1.00  0.00    -0.462 OA
BRANCH   2   3
ATOM      3  C   UNL     1       2.539  -1.515  -8.619  1.00  0.00     0.310 C 
ATOM      4  O   UNL     1       3.617  -0.993  -8.875  1.00  0.00    -0.252 OA
BRANCH   3   5
ATOM      5  C   UNL     1       2.148  -1.969  -7.227  1.00  0.00     0.119 C 
ATOM      6  C   UNL     1       3.309  -2.658  -6.488  1.00  0.00     0.100 C 
ATOM      7  C   UNL     1       2.709  -4.028  -6.082  1.00  0.00     0.025 C 
ATOM      8  C   UNL     1       1.016  -3.027  -7.148  1.00  0.00     0.027 C 
ATOM      9  C   UNL     1       2.442  -4.814  -7.359  1.00  0.00    -0.027 C 
ATOM     10  C   UNL     1       1.255  -3.679  -5.781  1.00  0.00     0.017 C 
ATOM     11  C   UNL     1       1.412  -4.222  -7.985  1.00  0.00    -0.027 C 
BRANCH   6  12
ATOM     12  C   UNL     1       4.018  -1.894  -5.368  1.00  0.00     0.228 C 
ATOM     13  N   UNL     1       3.527  -1.388  -4.211  1.00  0.00    -0.326 N 
ATOM     14  H   UNL     1       4.268  -1.121  -3.619  1.00  0.00     0.169 HD
ATOM     15  O   UNL     1       5.258  -1.828  -5.444  1.00  0.00    -0.274 OA
BRANCH  13  16
ATOM     16  C   UNL     1       2.296  -1.125  -3.589  1.00  0.00     0.044 A 
ATOM     17  C   UNL     1       1.093  -1.056  -1.479  1.00  0.00     0.120 A 
ATOM     18  C   UNL     1      -0.099  -0.777  -2.134  1.00  0.00     0.046 A 
ATOM     19  C   UNL     1       2.279  -1.239  -2.192  1.00  0.00     0.072 A 
ATOM     20  C   UNL     1      -0.075  -0.565  -3.504  1.00  0.00     0.006 A 
ATOM     21  C   UNL     1       1.125  -0.701  -4.214  1.00  0.00     0.026 A 
BRANCH  17  22
ATOM     22  O   UNL     1       1.094  -1.205  -0.119  1.00  0.00    -0.497 OA
ATOM     23  C   UNL     1       1.206   0.080   0.501  1.00  0.00     0.278 C 
ENDBRANCH  17  22
ENDBRANCH  13  16
ENDBRANCH   6  12
ENDBRANCH   3   5
ENDBRANCH   2   3
ENDBRANCH   1   2
BRANCH   1  24
ATOM     24  C   UNL     1       0.756   0.333 -10.747  1.00  0.00     0.275 C 
BRANCH  24  25
ATOM     25  O   UNL     1       1.300   1.383  -9.926  1.00  0.00    -0.458 OA
BRANCH  25  26
ATOM     26  C   UNL     1       0.961   1.343  -8.616  1.00  0.00     0.338 C 
ATOM     27  O   UNL     1       0.245   0.528  -8.058  1.00  0.00    -0.246 OA
BRANCH  26  28
ATOM     28  C   UNL     1       1.671   2.409  -7.891  1.00  0.00     0.060 A 
ATOM     29  C   UNL     1       2.467   2.058  -6.797  1.00  0.00     0.016 A 
ATOM     30  C   UNL     1       1.492   3.749  -8.238  1.00  0.00     0.016 A 
ATOM     31  C   UNL     1       3.065   3.049  -6.025  1.00  0.00     0.010 A 
ATOM     32  C   UNL     1       2.114   4.742  -7.476  1.00  0.00     0.010 A 
ATOM     33  C   UNL     1       2.893   4.399  -6.357  1.00  0.00    -0.014 A 
BRANCH  33  34
ATOM     34  C   UNL     1       3.524   5.457  -5.532  1.00  0.00     0.031 A 
ATOM     35  C   UNL     1       2.676   6.341  -4.663  1.00  0.00     0.074 A 
ATOM     36  C   UNL     1       4.859   5.623  -5.576  1.00  0.00     0.049 A 
ATOM     37  N   UNL     1       3.026   7.380  -3.951  1.00  0.00    -0.248 NA
ATOM     38  C   UNL     1       1.243   6.015  -4.588  1.00  0.00     0.031 C 
ATOM     39  C   UNL     1       5.785   4.804  -6.361  1.00  0.00     0.029 A 
ATOM     40  N   UNL     1       5.668   6.540  -4.954  1.00  0.00    -0.354 N 
ATOM     41  C   UNL     1       1.859   7.846  -3.358  1.00  0.00     0.074 A 
ATOM     42  C   UNL     1       0.785   6.985  -3.808  1.00  0.00     0.031 C 
ATOM     43  C   UNL     1       7.035   5.256  -6.173  1.00  0.00     0.029 A 
ATOM     44  C   UNL     1       6.993   6.424  -5.298  1.00  0.00     0.049 A 
ATOM     45  H   UNL     1       5.331   7.216  -4.322  1.00  0.00     0.167 HD
ATOM     46  C   UNL     1       1.702   8.893  -2.514  1.00  0.00     0.037 A 
ATOM     47  C   UNL     1       8.050   7.192  -4.971  1.00  0.00     0.037 A 
ATOM     48  C   UNL     1       2.781   9.735  -2.063  1.00  0.00     0.049 A 
ATOM     49  C   UNL     1       7.841   8.382  -4.077  1.00  0.00     0.074 A 
ATOM     50  C   UNL     1       2.729  10.807  -1.189  1.00  0.00     0.029 A 
ATOM     51  N   UNL     1       4.106   9.602  -2.453  1.00  0.00    -0.354 N 
ATOM     52  N   UNL     1       6.732   8.809  -3.520  1.00  0.00    -0.248 NA
ATOM     53  C   UNL     1       9.022   9.201  -3.773  1.00  0.00     0.031 C 
ATOM     54  C   UNL     1       4.016  11.347  -1.082  1.00  0.00     0.029 A 
ATOM     55  C   UNL     1       4.877  10.585  -1.855  1.00  0.00     0.049 A 
ATOM     56  H   UNL     1       4.448   8.910  -3.064  1.00  0.00     0.167 HD
ATOM     57  C   UNL     1       7.085   9.937  -2.788  1.00  0.00     0.074 A 
ATOM     58  C   UNL     1       8.512  10.119  -2.962  1.00  0.00     0.031 C 
ATOM     59  C   UNL     1       6.298  10.750  -2.041  1.00  0.00     0.037 A 
BRANCH  46  60
ATOM     60  C   UNL     1       0.310   9.204  -2.040  1.00  0.00     0.058 A 
ATOM     61  C   UNL     1      -0.345   8.400  -1.095  1.00  0.00     0.135 A 
ATOM     62  C   UNL     1      -0.366  10.340  -2.515  1.00  0.00     0.135 A 
ATOM     63  F   UNL     1       0.249   7.293  -0.620  1.00  0.00    -0.206 F 
ATOM     64  C   UNL     1      -1.631   8.697  -0.654  1.00  0.00     0.059 A 
ATOM     65  C   UNL     1      -1.644  10.668  -2.072  1.00  0.00     0.059 A 
ATOM     66  F   UNL     1       0.215  11.142  -3.421  1.00  0.00    -0.206 F 
ATOM     67  C   UNL     1      -2.274   9.832  -1.152  1.00  0.00     0.060 A 
BRANCH  67  68
ATOM     68  S   UNL     1      -3.945  10.201  -0.576  1.00  0.00     0.124 S 
ATOM     69  O   UNL     1      -4.727   9.199  -1.294  1.00  0.00    -0.237 OA
ATOM     70  O   UNL     1      -3.831  10.002   0.865  1.00  0.00    -0.237 OA
ATOM     71  O   UNL     1      -4.154  11.582  -1.000  1.00  0.00    -0.744 OA
ENDBRANCH  67  68
ENDBRANCH  46  60
BRANCH  47  72
ATOM     72  C   UNL     1       9.394   6.869  -5.517  1.00  0.00     0.058 A 
ATOM     73  C   UNL     1      10.408   6.365  -4.690  1.00  0.00     0.135 A 
ATOM     74  C   UNL     1       9.684   7.041  -6.880  1.00  0.00     0.135 A 
ATOM     75  F   UNL     1      10.181   6.193  -3.379  1.00  0.00    -0.206 F 
ATOM     76  C   UNL     1      11.667   6.052  -5.192  1.00  0.00     0.059 A 
ATOM     77  C   UNL     1      10.927   6.712  -7.410  1.00  0.00     0.059 A 
ATOM     78  F   UNL     1       8.743   7.510  -7.714  1.00  0.00    -0.206 F 
ATOM     79  C   UNL     1      11.916   6.227  -6.555  1.00  0.00     0.060 A 
BRANCH  79  80
ATOM     80  S   UNL     1      13.538   5.774  -7.208  1.00  0.00     0.124 S 
ATOM     81  O   UNL     1      14.360   6.888  -6.749  1.00  0.00    -0.237 OA
ATOM     82  O   UNL     1      13.784   4.489  -6.561  1.00  0.00    -0.237 OA
ATOM     83  O   UNL     1      13.312   5.707  -8.649  1.00  0.00    -0.744 OA
ENDBRANCH  79  80
ENDBRANCH  47  72
BRANCH  59  84
ATOM     84  C   UNL     1       6.965  11.898  -1.338  1.00  0.00     0.058 A 
ATOM     85  C   UNL     1       7.372  13.047  -2.033  1.00  0.00     0.135 A 
ATOM     86  C   UNL     1       7.148  11.871   0.054  1.00  0.00     0.135 A 
ATOM     87  F   UNL     1       7.226  13.117  -3.365  1.00  0.00    -0.206 F 
ATOM     88  C   UNL     1       7.951  14.126  -1.374  1.00  0.00     0.059 A 
ATOM     89  C   UNL     1       7.705  12.947   0.737  1.00  0.00     0.059 A 
ATOM     90  F   UNL     1       6.768  10.797   0.765  1.00  0.00    -0.206 F 
ATOM     91  C   UNL     1       8.112  14.067   0.012  1.00  0.00     0.060 A 
BRANCH  91  92
ATOM     92  S   UNL     1       8.824  15.492   0.864  1.00  0.00     0.124 S 
ATOM     93  O   UNL     1      10.238  15.355   0.532  1.00  0.00    -0.237 OA
ATOM     94  O   UNL     1       8.130  16.612   0.235  1.00  0.00    -0.237 OA
ATOM     95  O   UNL     1       8.481  15.256   2.263  1.00  0.00    -0.744 OA
ENDBRANCH  91  92
ENDBRANCH  59  84
ENDBRANCH  33  34
ENDBRANCH  26  28
ENDBRANCH  25  26
ENDBRANCH  24  25
ENDBRANCH   1  24
TORSDOF 17
