REMARK SMILES O=C(OCCOC(=O)c1cc(-c2ccn(C(F)F)c(=O)c2)ccc1O)c1ccc(-c2c3nc(c(-c4c(F)cc(S(=O)(=O)[O-])cc4F)c4ccc([nH]4)c(-c4c(F)cc(S(=O)(=O)[O-])cc4F)c4nc(c(-c5c(F)cc(S(=O)(=O)[O-])cc5F)c5ccc2[nH]5)C=C4)C=C3)cc1
REMARK SMILES IDX 4 1 3 2 2 3 1 4 26 5 27 6 91 7 28 8 90 9 29 10 30 11 31 12
REMARK SMILES IDX 84 13 32 14 89 15 83 16 85 17 33 18 88 19 82 20 81 21 34 23
REMARK SMILES IDX 68 24 47 25 67 26 48 27 51 28 66 29 86 30 49 31 50 32 65 34
REMARK SMILES IDX 87 35 52 36 35 37 36 38 45 39 37 40 38 41 44 42 46 43 39 44
REMARK SMILES IDX 40 45 41 46 42 47 43 48 69 49 70 50 79 51 71 52 72 53 78 54
REMARK SMILES IDX 80 55 73 56 74 57 75 58 76 59 77 60 53 61 54 62 63 63 55 64
REMARK SMILES IDX 56 65 62 66 64 67 57 68 58 69 59 70 60 71 61 72 5 73 6 74
REMARK SMILES IDX 7 75 8 76 9 77 10 78 24 79 11 80 23 81 22 82 25 83 12 85
REMARK SMILES IDX 13 86 21 87 14 88 19 89 15 90 20 91 16 92 17 93 18 94
REMARK H PARENT 85 22 51 33 25 84
REMARK Flexibility Score: inf
ROOT
ATOM      1  C   UNL     1       4.416  -0.474  -1.462  1.00  0.00     0.275 C 
ENDROOT
BRANCH   1   2
ATOM      2  O   UNL     1       3.416  -1.125  -0.659  1.00  0.00    -0.458 OA
BRANCH   2   3
ATOM      3  C   UNL     1       3.203  -1.055   0.675  1.00  0.00     0.338 C 
ATOM      4  O   UNL     1       2.389  -1.825   1.185  1.00  0.00    -0.246 OA
BRANCH   3   5
ATOM      5  C   UNL     1       3.796   0.003   1.548  1.00  0.00     0.060 A 
ATOM      6  C   UNL     1       2.965   0.486   2.569  1.00  0.00     0.016 A 
ATOM      7  C   UNL     1       5.094   0.512   1.472  1.00  0.00     0.016 A 
ATOM      8  C   UNL     1       3.373   1.529   3.406  1.00  0.00     0.010 A 
ATOM      9  C   UNL     1       5.514   1.549   2.320  1.00  0.00     0.010 A 
ATOM     10  C   UNL     1       4.649   2.085   3.278  1.00  0.00    -0.014 A 
BRANCH  10  11
ATOM     11  C   UNL     1       5.093   3.127   4.236  1.00  0.00     0.031 A 
ATOM     12  C   UNL     1       5.280   4.558   3.824  1.00  0.00     0.074 A 
ATOM     13  C   UNL     1       5.302   2.768   5.517  1.00  0.00     0.049 A 
ATOM     14  N   UNL     1       5.409   5.617   4.581  1.00  0.00    -0.248 NA
ATOM     15  C   UNL     1       5.313   4.848   2.384  1.00  0.00     0.031 C 
ATOM     16  C   UNL     1       5.191   1.401   6.029  1.00  0.00     0.029 A 
ATOM     17  N   UNL     1       5.644   3.512   6.615  1.00  0.00    -0.354 N 
ATOM     18  C   UNL     1       5.456   6.703   3.718  1.00  0.00     0.074 A 
ATOM     19  C   UNL     1       5.418   6.172   2.373  1.00  0.00     0.031 C 
ATOM     20  C   UNL     1       5.444   1.406   7.346  1.00  0.00     0.029 A 
ATOM     21  C   UNL     1       5.759   2.768   7.765  1.00  0.00     0.049 A 
ATOM     22  H   UNL     1       5.793   4.485   6.584  1.00  0.00     0.167 HD
ATOM     23  C   UNL     1       5.505   8.021   4.026  1.00  0.00     0.037 A 
ATOM     24  C   UNL     1       6.088   3.138   9.017  1.00  0.00     0.037 A 
ATOM     25  C   UNL     1       5.688   8.526   5.362  1.00  0.00     0.049 A 
ATOM     26  C   UNL     1       6.334   4.588   9.308  1.00  0.00     0.074 A 
ATOM     27  C   UNL     1       5.742   9.841   5.791  1.00  0.00     0.029 A 
ATOM     28  N   UNL     1       5.923   7.734   6.478  1.00  0.00    -0.354 N 
ATOM     29  N   UNL     1       6.199   5.618   8.506  1.00  0.00    -0.248 NA
ATOM     30  C   UNL     1       6.782   4.932  10.663  1.00  0.00     0.031 C 
ATOM     31  C   UNL     1       6.095   9.843   7.146  1.00  0.00     0.029 A 
ATOM     32  C   UNL     1       6.207   8.529   7.575  1.00  0.00     0.049 A 
ATOM     33  H   UNL     1       5.892   6.750   6.488  1.00  0.00     0.167 HD
ATOM     34  C   UNL     1       6.545   6.734   9.258  1.00  0.00     0.074 A 
ATOM     35  C   UNL     1       6.881   6.254  10.584  1.00  0.00     0.031 C 
ATOM     36  C   UNL     1       6.578   8.036   8.880  1.00  0.00     0.037 A 
BRANCH  23  37
ATOM     37  C   UNL     1       5.368   9.008   2.900  1.00  0.00     0.058 A 
ATOM     38  C   UNL     1       4.125   9.227   2.283  1.00  0.00     0.135 A 
ATOM     39  C   UNL     1       6.458   9.779   2.469  1.00  0.00     0.135 A 
ATOM     40  F   UNL     1       3.053   8.501   2.640  1.00  0.00    -0.206 F 
ATOM     41  C   UNL     1       3.971  10.169   1.271  1.00  0.00     0.059 A 
ATOM     42  C   UNL     1       6.325  10.736   1.465  1.00  0.00     0.059 A 
ATOM     43  F   UNL     1       7.669   9.602   3.019  1.00  0.00    -0.206 F 
ATOM     44  C   UNL     1       5.078  10.918   0.868  1.00  0.00     0.060 A 
BRANCH  44  45
ATOM     45  S   UNL     1       4.858  12.113  -0.468  1.00  0.00     0.124 S 
ATOM     46  O   UNL     1       4.557  11.234  -1.593  1.00  0.00    -0.237 OA
ATOM     47  O   UNL     1       3.745  12.919   0.022  1.00  0.00    -0.237 OA
ATOM     48  O   UNL     1       6.147  12.794  -0.533  1.00  0.00    -0.744 OA
ENDBRANCH  44  45
ENDBRANCH  23  37
BRANCH  24  49
ATOM     49  C   UNL     1       6.194   2.091  10.065  1.00  0.00     0.058 A 
ATOM     50  C   UNL     1       5.212   1.954  11.053  1.00  0.00     0.135 A 
ATOM     51  C   UNL     1       7.226   1.138  10.025  1.00  0.00     0.135 A 
ATOM     52  F   UNL     1       4.213   2.845  11.135  1.00  0.00    -0.206 F 
ATOM     53  C   UNL     1       5.233   0.891  11.952  1.00  0.00     0.059 A 
ATOM     54  C   UNL     1       7.257   0.058  10.899  1.00  0.00     0.059 A 
ATOM     55  F   UNL     1       8.183   1.223   9.087  1.00  0.00    -0.206 F 
ATOM     56  C   UNL     1       6.251  -0.060  11.857  1.00  0.00     0.060 A 
BRANCH  56  57
ATOM     57  S   UNL     1       6.207  -1.492  12.957  1.00  0.00     0.124 S 
ATOM     58  O   UNL     1       6.561  -0.889  14.237  1.00  0.00    -0.237 OA
ATOM     59  O   UNL     1       4.825  -1.939  12.822  1.00  0.00    -0.237 OA
ATOM     60  O   UNL     1       7.208  -2.388  12.384  1.00  0.00    -0.744 OA
ENDBRANCH  56  57
ENDBRANCH  24  49
BRANCH  36  61
ATOM     61  C   UNL     1       7.040   9.042   9.895  1.00  0.00     0.058 A 
ATOM     62  C   UNL     1       8.400   9.173  10.212  1.00  0.00     0.135 A 
ATOM     63  C   UNL     1       6.137   9.944  10.477  1.00  0.00     0.135 A 
ATOM     64  F   UNL     1       9.301   8.326   9.690  1.00  0.00    -0.206 F 
ATOM     65  C   UNL     1       8.851  10.171  11.069  1.00  0.00     0.059 A 
ATOM     66  C   UNL     1       6.568  10.964  11.319  1.00  0.00     0.059 A 
ATOM     67  F   UNL     1       4.825   9.863  10.200  1.00  0.00    -0.206 F 
ATOM     68  C   UNL     1       7.929  11.070  11.608  1.00  0.00     0.060 A 
BRANCH  68  69
ATOM     69  S   UNL     1       8.542  12.411  12.649  1.00  0.00     0.124 S 
ATOM     70  O   UNL     1       8.925  11.693  13.860  1.00  0.00    -0.237 OA
ATOM     71  O   UNL     1       9.643  12.944  11.852  1.00  0.00    -0.237 OA
ATOM     72  O   UNL     1       7.387  13.294  12.781  1.00  0.00    -0.744 OA
ENDBRANCH  68  69
ENDBRANCH  36  61
ENDBRANCH  10  11
ENDBRANCH   3   5
ENDBRANCH   2   3
ENDBRANCH   1   2
BRANCH   1  73
ATOM     73  C   UNL     1       4.022   0.906  -1.980  1.00  0.00     0.275 C 
BRANCH  73  74
ATOM     74  O   UNL     1       3.518   1.765  -0.951  1.00  0.00    -0.458 OA
BRANCH  74  75
ATOM     75  C   UNL     1       2.172   1.961  -0.960  1.00  0.00     0.342 C 
ATOM     76  O   UNL     1       1.365   1.432  -1.701  1.00  0.00    -0.246 OA
BRANCH  75  77
ATOM     77  C   UNL     1       1.776   2.817   0.178  1.00  0.00     0.102 A 
ATOM     78  C   UNL     1       0.742   2.354   1.010  1.00  0.00     0.028 A 
ATOM     79  C   UNL     1       2.369   4.058   0.426  1.00  0.00     0.130 A 
ATOM     80  C   UNL     1       0.353   3.099   2.131  1.00  0.00    -0.017 A 
ATOM     81  C   UNL     1       1.975   4.809   1.533  1.00  0.00     0.048 A 
ATOM     82  C   UNL     1       0.986   4.322   2.390  1.00  0.00     0.012 A 
BRANCH  79  83
ATOM     83  O   UNL     1       3.318   4.557  -0.421  1.00  0.00    -0.507 OA
ATOM     84  H   UNL     1       3.589   4.059  -1.167  1.00  0.00     0.293 HD
ENDBRANCH  79  83
BRANCH  80  85
ATOM     85  C   UNL     1      -0.731   2.647   3.024  1.00  0.00    -0.011 A 
ATOM     86  C   UNL     1      -2.026   3.298   3.037  1.00  0.00     0.027 A 
ATOM     87  C   UNL     1      -0.503   1.645   3.890  1.00  0.00     0.080 A 
ATOM     88  C   UNL     1      -2.968   2.926   3.910  1.00  0.00     0.095 A 
ATOM     89  C   UNL     1      -1.551   1.199   4.851  1.00  0.00     0.255 A 
ATOM     90  N   UNL     1      -2.743   1.901   4.809  1.00  0.00    -0.258 N 
ATOM     91  O   UNL     1      -1.301   0.261   5.601  1.00  0.00    -0.269 OA
BRANCH  90  92
ATOM     92  C   UNL     1      -3.755   1.521   5.758  1.00  0.00     0.451 C 
ATOM     93  F   UNL     1      -4.133   0.231   5.585  1.00  0.00    -0.185 F 
ATOM     94  F   UNL     1      -3.318   1.665   7.032  1.00  0.00    -0.185 F 
ENDBRANCH  90  92
ENDBRANCH  80  85
ENDBRANCH  75  77
ENDBRANCH  74  75
ENDBRANCH  73  74
ENDBRANCH   1  73
TORSDOF 17
