REMARK SMILES O=C1OC(c2ccc(Cl)cc2)=N/C1=C/Nc1ccc(O)c(C(=O)OCCOC(=O)c2ccc(-c3c4nc(c(-c5c(F)cc(S(=O)(=O)[O-])cc5F)c5ccc([nH]5)c(-c5c(F)cc(S(=O)(=O)[O-])cc5F)c5nc(c(-c6c(F)cc(S(=O)(=O)[O-])cc6F)c6ccc3[nH]6)C=C5)C=C4)cc2)c1
REMARK SMILES IDX 25 1 24 2 22 3 23 4 21 5 16 6 17 7 96 8 18 9 19 10 15 11
REMARK SMILES IDX 14 13 1 14 2 15 3 16 13 17 4 18 12 19 5 20 6 21 11 22 7 23
REMARK SMILES IDX 10 24 8 25 9 26 20 27 26 29 27 30 28 31 29 32 30 33 31 34
REMARK SMILES IDX 95 35 32 36 94 37 33 38 34 39 35 40 88 41 36 42 93 43 87 44
REMARK SMILES IDX 89 45 37 46 92 47 86 48 85 49 38 51 72 52 51 53 71 54 52 55
REMARK SMILES IDX 55 56 70 57 90 58 53 59 54 60 69 62 91 63 56 64 39 65 40 66
REMARK SMILES IDX 49 67 41 68 42 69 48 70 50 71 43 72 44 73 45 74 46 75 47 76
REMARK SMILES IDX 73 77 74 78 83 79 75 80 76 81 82 82 84 83 77 84 78 85 79 86
REMARK SMILES IDX 80 87 81 88 57 89 58 90 67 91 59 92 60 93 66 94 68 95 61 96
REMARK SMILES IDX 62 97 63 98 64 99 65 100
REMARK H PARENT 15 12 20 28 89 50 55 61
REMARK Flexibility Score: inf
ROOT
ATOM      1  C   UNL     1      -3.575  -9.003  -2.327  1.00  0.00     0.275 C 
ENDROOT
BRANCH   1   2
ATOM      2  O   UNL     1      -2.815  -8.316  -1.311  1.00  0.00    -0.458 OA
BRANCH   2   3
ATOM      3  C   UNL     1      -2.013  -7.314  -1.747  1.00  0.00     0.342 C 
ATOM      4  O   UNL     1      -1.918  -6.919  -2.900  1.00  0.00    -0.246 OA
BRANCH   3   5
ATOM      5  C   UNL     1      -1.306  -6.640  -0.634  1.00  0.00     0.103 A 
ATOM      6  C   UNL     1      -0.575  -4.501   0.320  1.00  0.00     0.039 A 
ATOM      7  C   UNL     1       0.199  -5.205   1.240  1.00  0.00     0.030 A 
ATOM      8  C   UNL     1      -1.289  -5.236  -0.628  1.00  0.00     0.045 A 
ATOM      9  C   UNL     1       0.190  -6.607   1.260  1.00  0.00     0.049 A 
ATOM     10  C   UNL     1      -0.569  -7.324   0.328  1.00  0.00     0.130 A 
BRANCH   6  11
ATOM     11  N   UNL     1      -0.592  -3.103   0.241  1.00  0.00    -0.360 N 
ATOM     12  H   UNL     1      -1.477  -2.673   0.198  1.00  0.00     0.166 HD
BRANCH  11  13
ATOM     13  C   UNL     1       0.499  -2.271   0.216  1.00  0.00     0.119 C 
ATOM     14  O   UNL     1      -1.837  -0.384   0.123  1.00  0.00    -0.244 OA
ATOM     15  C   UNL     1      -0.664  -0.061   0.103  1.00  0.00     0.365 C 
ATOM     16  O   UNL     1      -0.129   1.193   0.086  1.00  0.00    -0.402 OA
ATOM     17  C   UNL     1       0.539  -0.936   0.117  1.00  0.00     0.168 C 
ATOM     18  C   UNL     1       1.212   1.022   0.038  1.00  0.00     0.231 C 
ATOM     19  N   UNL     1       1.681  -0.184   0.044  1.00  0.00    -0.204 NA
BRANCH  18  20
ATOM     20  C   UNL     1       2.001   2.250  -0.034  1.00  0.00     0.037 A 
ATOM     21  C   UNL     1       1.887   3.218   0.968  1.00  0.00     0.015 A 
ATOM     22  C   UNL     1       2.931   2.399  -1.067  1.00  0.00     0.015 A 
ATOM     23  C   UNL     1       2.726   4.336   0.942  1.00  0.00     0.021 A 
ATOM     24  C   UNL     1       3.753   3.528  -1.100  1.00  0.00     0.021 A 
ATOM     25  C   UNL     1       3.656   4.485  -0.089  1.00  0.00     0.041 A 
ATOM     26  Cl  UNL     1       4.707   5.848  -0.101  1.00  0.00    -0.084 Cl
ENDBRANCH  18  20
ENDBRANCH  11  13
ENDBRANCH   6  11
BRANCH  10  27
ATOM     27  O   UNL     1      -0.529  -8.689   0.337  1.00  0.00    -0.507 OA
ATOM     28  H   UNL     1      -0.030  -9.139   0.990  1.00  0.00     0.293 HD
ENDBRANCH  10  27
ENDBRANCH   3   5
ENDBRANCH   2   3
ENDBRANCH   1   2
BRANCH   1  29
ATOM     29  C   UNL     1      -5.061  -8.653  -2.249  1.00  0.00     0.275 C 
BRANCH  29  30
ATOM     30  O   UNL     1      -5.285  -7.289  -2.648  1.00  0.00    -0.458 OA
BRANCH  30  31
ATOM     31  C   UNL     1      -5.418  -6.421  -1.621  1.00  0.00     0.338 C 
ATOM     32  O   UNL     1      -5.424  -6.677  -0.428  1.00  0.00    -0.246 OA
BRANCH  31  33
ATOM     33  C   UNL     1      -5.469  -5.042  -2.121  1.00  0.00     0.060 A 
ATOM     34  C   UNL     1      -4.263  -4.420  -2.412  1.00  0.00     0.016 A 
ATOM     35  C   UNL     1      -6.644  -4.301  -2.075  1.00  0.00     0.016 A 
ATOM     36  C   UNL     1      -4.189  -3.034  -2.472  1.00  0.00     0.010 A 
ATOM     37  C   UNL     1      -6.590  -2.920  -2.303  1.00  0.00     0.010 A 
ATOM     38  C   UNL     1      -5.354  -2.257  -2.443  1.00  0.00    -0.014 A 
BRANCH  38  39
ATOM     39  C   UNL     1      -5.275  -0.768  -2.535  1.00  0.00     0.031 A 
ATOM     40  C   UNL     1      -5.949   0.099  -1.496  1.00  0.00     0.074 A 
ATOM     41  C   UNL     1      -4.600  -0.183  -3.548  1.00  0.00     0.049 A 
ATOM     42  N   UNL     1      -6.175   1.389  -1.512  1.00  0.00    -0.248 NA
ATOM     43  C   UNL     1      -6.463  -0.579  -0.295  1.00  0.00     0.031 C 
ATOM     44  C   UNL     1      -3.867  -0.889  -4.603  1.00  0.00     0.029 A 
ATOM     45  N   UNL     1      -4.419   1.143  -3.862  1.00  0.00    -0.354 N 
ATOM     46  C   UNL     1      -6.903   1.664  -0.358  1.00  0.00     0.074 A 
ATOM     47  C   UNL     1      -7.103   0.404   0.323  1.00  0.00     0.031 C 
ATOM     48  C   UNL     1      -3.283   0.002  -5.414  1.00  0.00     0.029 A 
ATOM     49  C   UNL     1      -3.691   1.341  -5.013  1.00  0.00     0.049 A 
ATOM     50  H   UNL     1      -4.776   1.880  -3.316  1.00  0.00     0.167 HD
ATOM     51  C   UNL     1      -7.359   2.860   0.092  1.00  0.00     0.037 A 
ATOM     52  C   UNL     1      -3.425   2.463  -5.710  1.00  0.00     0.037 A 
ATOM     53  C   UNL     1      -7.099   4.116  -0.567  1.00  0.00     0.049 A 
ATOM     54  C   UNL     1      -3.978   3.770  -5.219  1.00  0.00     0.074 A 
ATOM     55  C   UNL     1      -7.490   5.387  -0.181  1.00  0.00     0.029 A 
ATOM     56  N   UNL     1      -6.373   4.263  -1.741  1.00  0.00    -0.354 N 
ATOM     57  N   UNL     1      -4.696   4.009  -4.148  1.00  0.00    -0.248 NA
ATOM     58  C   UNL     1      -3.697   4.957  -6.036  1.00  0.00     0.031 C 
ATOM     59  C   UNL     1      -7.048   6.294  -1.149  1.00  0.00     0.029 A 
ATOM     60  C   UNL     1      -6.325   5.599  -2.105  1.00  0.00     0.049 A 
ATOM     61  H   UNL     1      -5.953   3.525  -2.241  1.00  0.00     0.167 HD
ATOM     62  C   UNL     1      -4.936   5.377  -4.151  1.00  0.00     0.074 A 
ATOM     63  C   UNL     1      -4.270   5.915  -5.320  1.00  0.00     0.031 C 
ATOM     64  C   UNL     1      -5.647   6.120  -3.267  1.00  0.00     0.037 A 
BRANCH  51  65
ATOM     65  C   UNL     1      -8.211   2.872   1.335  1.00  0.00     0.058 A 
ATOM     66  C   UNL     1      -7.690   2.590   2.608  1.00  0.00     0.135 A 
ATOM     67  C   UNL     1      -9.573   3.215   1.254  1.00  0.00     0.135 A 
ATOM     68  F   UNL     1      -6.400   2.247   2.750  1.00  0.00    -0.206 F 
ATOM     69  C   UNL     1      -8.491   2.616   3.747  1.00  0.00     0.059 A 
ATOM     70  C   UNL     1     -10.384   3.280   2.384  1.00  0.00     0.059 A 
ATOM     71  F   UNL     1     -10.129   3.499   0.066  1.00  0.00    -0.206 F 
ATOM     72  C   UNL     1      -9.837   2.963   3.625  1.00  0.00     0.060 A 
BRANCH  72  73
ATOM     73  S   UNL     1     -10.859   3.000   5.114  1.00  0.00     0.124 S 
ATOM     74  O   UNL     1     -10.976   1.578   5.423  1.00  0.00    -0.237 OA
ATOM     75  O   UNL     1     -10.041   3.783   6.034  1.00  0.00    -0.237 OA
ATOM     76  O   UNL     1     -12.090   3.646   4.668  1.00  0.00    -0.744 OA
ENDBRANCH  72  73
ENDBRANCH  51  65
BRANCH  52  77
ATOM     77  C   UNL     1      -2.635   2.385  -6.970  1.00  0.00     0.058 A 
ATOM     78  C   UNL     1      -1.357   2.954  -7.059  1.00  0.00     0.135 A 
ATOM     79  C   UNL     1      -3.133   1.721  -8.104  1.00  0.00     0.135 A 
ATOM     80  F   UNL     1      -0.838   3.606  -6.007  1.00  0.00    -0.206 F 
ATOM     81  C   UNL     1      -0.606   2.881  -8.228  1.00  0.00     0.059 A 
ATOM     82  C   UNL     1      -2.387   1.603  -9.272  1.00  0.00     0.059 A 
ATOM     83  F   UNL     1      -4.346   1.146  -8.070  1.00  0.00    -0.206 F 
ATOM     84  C   UNL     1      -1.128   2.198  -9.328  1.00  0.00     0.060 A 
BRANCH  84  85
ATOM     85  S   UNL     1      -0.123   2.067 -10.822  1.00  0.00     0.124 S 
ATOM     86  O   UNL     1      -0.174   3.434 -11.329  1.00  0.00    -0.237 OA
ATOM     87  O   UNL     1       1.163   1.633 -10.287  1.00  0.00    -0.237 OA
ATOM     88  O   UNL     1      -0.832   1.071 -11.619  1.00  0.00    -0.744 OA
ENDBRANCH  84  85
ENDBRANCH  52  77
BRANCH  64  89
ATOM     89  C   UNL     1      -5.701   7.605  -3.501  1.00  0.00     0.058 A 
ATOM     90  C   UNL     1      -6.446   8.164  -4.551  1.00  0.00     0.135 A 
ATOM     91  C   UNL     1      -5.033   8.482  -2.631  1.00  0.00     0.135 A 
ATOM     92  F   UNL     1      -7.094   7.369  -5.418  1.00  0.00    -0.206 F 
ATOM     93  C   UNL     1      -6.509   9.540  -4.743  1.00  0.00     0.059 A 
ATOM     94  C   UNL     1      -5.108   9.862  -2.785  1.00  0.00     0.059 A 
ATOM     95  F   UNL     1      -4.311   8.000  -1.607  1.00  0.00    -0.206 F 
ATOM     96  C   UNL     1      -5.840  10.381  -3.852  1.00  0.00     0.060 A 
BRANCH  96  97
ATOM     97  S   UNL     1      -5.963  12.166  -4.091  1.00  0.00     0.124 S 
ATOM     98  O   UNL     1      -5.139  12.361  -5.280  1.00  0.00    -0.237 OA
ATOM     99  O   UNL     1      -7.398  12.357  -4.275  1.00  0.00    -0.237 OA
ATOM    100  O   UNL     1      -5.417  12.714  -2.853  1.00  0.00    -0.744 OA
ENDBRANCH  96  97
ENDBRANCH  64  89
ENDBRANCH  38  39
ENDBRANCH  31  33
ENDBRANCH  30  31
ENDBRANCH  29  30
ENDBRANCH   1  29
TORSDOF 18
