REMARK SMILES C[NH2+]CC(=O)NC[C@H]1CC[C@H](C(=O)OCCOC(=O)c2ccc(-c3c4nc(c(-c5c(F)cc(S(=O)(=O)[O-])cc5F)c5ccc([nH]5)c(-c5c(F)cc(S(=O)(=O)[O-])cc5F)c5nc(c(-c6c(F)cc(S(=O)(=O)[O-])cc6F)c6ccc3[nH]6)C=C5)C=C4)cc2)O1
REMARK SMILES IDX 15 1 14 2 12 3 13 4 11 5 8 6 9 7 86 8 10 9 7 10 6 11 4 12
REMARK SMILES IDX 5 13 3 15 2 16 1 17 16 20 17 21 18 22 19 23 20 24 21 25
REMARK SMILES IDX 85 26 22 27 84 28 23 29 24 30 25 31 78 32 26 33 83 34 77 35
REMARK SMILES IDX 79 36 27 37 82 38 76 39 75 40 28 42 62 43 41 44 61 45 42 46
REMARK SMILES IDX 45 47 60 48 80 49 43 50 44 51 59 53 81 54 46 55 29 56 30 57
REMARK SMILES IDX 39 58 31 59 32 60 38 61 40 62 33 63 34 64 35 65 36 66 37 67
REMARK SMILES IDX 63 68 64 69 73 70 65 71 66 72 72 73 74 74 67 75 68 76 69 77
REMARK SMILES IDX 70 78 71 79 47 80 48 81 57 82 49 83 50 84 56 85 58 86 51 87
REMARK SMILES IDX 52 88 53 89 54 90 55 91
REMARK H PARENT 6 14 2 18 2 19 79 41 45 52
REMARK Flexibility Score: inf
ROOT
ATOM      1  C   UNL     1       0.454  -3.934  -4.934  1.00  0.00     0.274 C 
ENDROOT
BRANCH   1   2
ATOM      2  O   UNL     1       0.897  -3.272  -3.734  1.00  0.00    -0.460 OA
BRANCH   2   3
ATOM      3  C   UNL     1       0.945  -4.058  -2.624  1.00  0.00     0.335 C 
ATOM      4  O   UNL     1       0.652  -5.249  -2.599  1.00  0.00    -0.249 OA
BRANCH   3   5
ATOM      5  C   UNL     1       1.384  -3.295  -1.378  1.00  0.00     0.228 C 
ATOM      6  C   UNL     1       0.960  -1.266  -0.321  1.00  0.00     0.138 C 
ATOM      7  C   UNL     1       2.191  -1.049  -1.177  1.00  0.00     0.037 C 
ATOM      8  O   UNL     1       0.347  -2.444  -0.869  1.00  0.00    -0.361 OA
ATOM      9  C   UNL     1       2.642  -2.449  -1.521  1.00  0.00     0.047 C 
BRANCH   6  10
ATOM     10  C   UNL     1       1.266  -1.483   1.176  1.00  0.00     0.148 C 
BRANCH  10  11
ATOM     11  N   UNL     1       0.033  -1.461   1.957  1.00  0.00    -0.349 N 
ATOM     12  C   UNL     1      -0.413  -2.298   2.933  1.00  0.00     0.275 C 
ATOM     13  O   UNL     1      -1.555  -2.120   3.366  1.00  0.00    -0.269 OA
ATOM     14  H   UNL     1      -0.576  -0.719   1.742  1.00  0.00     0.163 HD
BRANCH  12  15
ATOM     15  C   UNL     1       0.472  -3.425   3.470  1.00  0.00     0.361 C 
BRANCH  15  16
ATOM     16  N   UNL     1      -0.034  -4.747   3.073  1.00  0.00    -0.341 N 
ATOM     17  C   UNL     1       0.272  -5.077   1.692  1.00  0.00     0.331 C 
ATOM     18  H   UNL     1       0.387  -5.452   3.678  1.00  0.00     0.346 HD
ATOM     19  H   UNL     1      -1.050  -4.726   3.165  1.00  0.00     0.346 HD
ENDBRANCH  15  16
ENDBRANCH  12  15
ENDBRANCH  10  11
ENDBRANCH   6  10
ENDBRANCH   3   5
ENDBRANCH   2   3
ENDBRANCH   1   2
BRANCH   1  20
ATOM     20  C   UNL     1       1.620  -4.446  -5.787  1.00  0.00     0.275 C 
BRANCH  20  21
ATOM     21  O   UNL     1       2.317  -5.542  -5.167  1.00  0.00    -0.458 OA
BRANCH  21  22
ATOM     22  C   UNL     1       3.388  -5.189  -4.416  1.00  0.00     0.338 C 
ATOM     23  O   UNL     1       3.825  -4.062  -4.250  1.00  0.00    -0.246 OA
BRANCH  22  24
ATOM     24  C   UNL     1       3.914  -6.356  -3.689  1.00  0.00     0.060 A 
ATOM     25  C   UNL     1       3.972  -6.286  -2.293  1.00  0.00     0.016 A 
ATOM     26  C   UNL     1       4.426  -7.465  -4.365  1.00  0.00     0.016 A 
ATOM     27  C   UNL     1       4.548  -7.325  -1.567  1.00  0.00     0.010 A 
ATOM     28  C   UNL     1       5.006  -8.508  -3.632  1.00  0.00     0.010 A 
ATOM     29  C   UNL     1       5.080  -8.439  -2.231  1.00  0.00    -0.014 A 
BRANCH  29  30
ATOM     30  C   UNL     1       5.727  -9.515  -1.441  1.00  0.00     0.031 A 
ATOM     31  C   UNL     1       7.225  -9.617  -1.381  1.00  0.00     0.074 A 
ATOM     32  C   UNL     1       4.962 -10.380  -0.749  1.00  0.00     0.049 A 
ATOM     33  N   UNL     1       7.969 -10.479  -0.737  1.00  0.00    -0.248 NA
ATOM     34  C   UNL     1       7.987  -8.619  -2.148  1.00  0.00     0.031 C 
ATOM     35  C   UNL     1       3.499 -10.373  -0.719  1.00  0.00     0.029 A 
ATOM     36  N   UNL     1       5.309 -11.427   0.065  1.00  0.00    -0.354 N 
ATOM     37  C   UNL     1       9.285 -10.135  -1.021  1.00  0.00     0.074 A 
ATOM     38  C   UNL     1       9.237  -8.998  -1.916  1.00  0.00     0.031 C 
ATOM     39  C   UNL     1       3.073 -11.367   0.077  1.00  0.00     0.029 A 
ATOM     40  C   UNL     1       4.230 -12.095   0.592  1.00  0.00     0.049 A 
ATOM     41  H   UNL     1       6.242 -11.678   0.254  1.00  0.00     0.167 HD
ATOM     42  C   UNL     1      10.427 -10.711  -0.571  1.00  0.00     0.037 A 
ATOM     43  C   UNL     1       4.179 -13.178   1.391  1.00  0.00     0.037 A 
ATOM     44  C   UNL     1      10.471 -11.840   0.323  1.00  0.00     0.049 A 
ATOM     45  C   UNL     1       5.460 -13.812   1.857  1.00  0.00     0.074 A 
ATOM     46  C   UNL     1      11.580 -12.479   0.851  1.00  0.00     0.029 A 
ATOM     47  N   UNL     1       9.358 -12.503   0.819  1.00  0.00    -0.354 N 
ATOM     48  N   UNL     1       6.696 -13.462   1.594  1.00  0.00    -0.248 NA
ATOM     49  C   UNL     1       5.338 -14.985   2.733  1.00  0.00     0.031 C 
ATOM     50  C   UNL     1      11.138 -13.549   1.639  1.00  0.00     0.029 A 
ATOM     51  C   UNL     1       9.753 -13.554   1.632  1.00  0.00     0.049 A 
ATOM     52  H   UNL     1       8.424 -12.262   0.623  1.00  0.00     0.167 HD
ATOM     53  C   UNL     1       7.500 -14.367   2.278  1.00  0.00     0.074 A 
ATOM     54  C   UNL     1       6.609 -15.265   2.985  1.00  0.00     0.031 C 
ATOM     55  C   UNL     1       8.854 -14.448   2.317  1.00  0.00     0.037 A 
BRANCH  42  56
ATOM     56  C   UNL     1      11.728 -10.137  -1.056  1.00  0.00     0.058 A 
ATOM     57  C   UNL     1      12.220  -8.914  -0.572  1.00  0.00     0.135 A 
ATOM     58  C   UNL     1      12.509 -10.832  -1.993  1.00  0.00     0.135 A 
ATOM     59  F   UNL     1      11.505  -8.201   0.313  1.00  0.00    -0.206 F 
ATOM     60  C   UNL     1      13.429  -8.389  -1.018  1.00  0.00     0.059 A 
ATOM     61  C   UNL     1      13.731 -10.336  -2.438  1.00  0.00     0.059 A 
ATOM     62  F   UNL     1      12.084 -12.005  -2.489  1.00  0.00    -0.206 F 
ATOM     63  C   UNL     1      14.176  -9.106  -1.955  1.00  0.00     0.060 A 
BRANCH  63  64
ATOM     64  S   UNL     1      15.742  -8.413  -2.528  1.00  0.00     0.124 S 
ATOM     65  O   UNL     1      15.280  -7.370  -3.439  1.00  0.00    -0.237 OA
ATOM     66  O   UNL     1      16.352  -7.945  -1.288  1.00  0.00    -0.237 OA
ATOM     67  O   UNL     1      16.405  -9.550  -3.159  1.00  0.00    -0.744 OA
ENDBRANCH  63  64
ENDBRANCH  42  56
BRANCH  43  68
ATOM     68  C   UNL     1       2.862 -13.735   1.795  1.00  0.00     0.058 A 
ATOM     69  C   UNL     1       2.389 -13.598   3.107  1.00  0.00     0.135 A 
ATOM     70  C   UNL     1       2.048 -14.404   0.869  1.00  0.00     0.135 A 
ATOM     71  F   UNL     1       3.139 -12.975   4.029  1.00  0.00    -0.206 F 
ATOM     72  C   UNL     1       1.157 -14.117   3.494  1.00  0.00     0.059 A 
ATOM     73  C   UNL     1       0.803 -14.912   1.226  1.00  0.00     0.059 A 
ATOM     74  F   UNL     1       2.453 -14.550  -0.402  1.00  0.00    -0.206 F 
ATOM     75  C   UNL     1       0.371 -14.772   2.544  1.00  0.00     0.060 A 
BRANCH  75  76
ATOM     76  S   UNL     1      -1.250 -15.398   3.036  1.00  0.00     0.124 S 
ATOM     77  O   UNL     1      -0.889 -16.623   3.741  1.00  0.00    -0.237 OA
ATOM     78  O   UNL     1      -1.765 -14.313   3.865  1.00  0.00    -0.237 OA
ATOM     79  O   UNL     1      -1.937 -15.581   1.760  1.00  0.00    -0.744 OA
ENDBRANCH  75  76
ENDBRANCH  43  68
BRANCH  55  80
ATOM     80  C   UNL     1       9.444 -15.545   3.159  1.00  0.00     0.058 A 
ATOM     81  C   UNL     1       9.408 -16.886   2.745  1.00  0.00     0.135 A 
ATOM     82  C   UNL     1      10.050 -15.253   4.390  1.00  0.00     0.135 A 
ATOM     83  F   UNL     1       8.834 -17.218   1.578  1.00  0.00    -0.206 F 
ATOM     84  C   UNL     1       9.919 -17.905   3.542  1.00  0.00     0.059 A 
ATOM     85  C   UNL     1      10.589 -16.254   5.193  1.00  0.00     0.059 A 
ATOM     86  F   UNL     1      10.121 -13.985   4.826  1.00  0.00    -0.206 F 
ATOM     87  C   UNL     1      10.500 -17.580   4.769  1.00  0.00     0.060 A 
BRANCH  87  88
ATOM     88  S   UNL     1      11.156 -18.908   5.802  1.00  0.00     0.124 S 
ATOM     89  O   UNL     1       9.940 -19.430   6.415  1.00  0.00    -0.237 OA
ATOM     90  O   UNL     1      11.800 -19.782   4.826  1.00  0.00    -0.237 OA
ATOM     91  O   UNL     1      12.068 -18.212   6.705  1.00  0.00    -0.744 OA
ENDBRANCH  87  88
ENDBRANCH  55  80
ENDBRANCH  29  30
ENDBRANCH  22  24
ENDBRANCH  21  22
ENDBRANCH  20  21
ENDBRANCH   1  20
TORSDOF 18
