REMARK SMILES CCc1ccc(-c2cc(Cl)cc3c2O[C@H](C(F)(F)F)C(C(=O)OCCOC(=O)c2ccc(-c4c5nc(c(-c6c(F)cc(S(=O)(=O)[O-])cc6F)c6ccc([nH]6)c(-c6c(F)cc(S(=O)(=O)[O-])cc6F)c6nc(c(-c7c(F)cc(S(=O)(=O)[O-])cc7F)c7ccc4[nH]7)C=C6)C=C5)cc2)=C3)cc1
REMARK SMILES IDX 25 1 24 2 23 3 21 4 22 5 20 6 7 7 8 8 13 9 9 10 12 11 14 12
REMARK SMILES IDX 10 13 11 14 95 15 15 16 6 17 3 18 4 19 97 20 5 21 96 22 2 23
REMARK SMILES IDX 1 24 16 25 17 26 18 27 19 28 26 29 27 30 28 31 29 32 30 33
REMARK SMILES IDX 94 34 31 35 93 36 32 37 33 38 34 39 87 40 35 41 92 42 86 43
REMARK SMILES IDX 88 44 36 45 91 46 85 47 84 48 37 50 71 51 50 52 70 53 51 54
REMARK SMILES IDX 54 55 69 56 89 57 52 58 53 59 68 61 90 62 55 63 38 64 39 65
REMARK SMILES IDX 48 66 40 67 41 68 47 69 49 70 42 71 43 72 44 73 45 74 46 75
REMARK SMILES IDX 72 76 73 77 82 78 74 79 75 80 81 81 83 82 76 83 77 84 78 85
REMARK SMILES IDX 79 86 80 87 56 88 57 89 66 90 58 91 59 92 65 93 67 94 60 95
REMARK SMILES IDX 61 96 62 97 63 98 64 99
REMARK H PARENT 88 49 54 60
REMARK Flexibility Score: inf
ROOT
ATOM      1  C   UNL     1       4.699   9.800  -7.569  1.00  0.00     0.275 C 
ENDROOT
BRANCH   1   2
ATOM      2  C   UNL     1       3.827  10.838  -6.860  1.00  0.00     0.275 C 
BRANCH   2   3
ATOM      3  O   UNL     1       3.779  10.643  -5.428  1.00  0.00    -0.459 OA
BRANCH   3   4
ATOM      4  C   UNL     1       2.817  11.398  -4.839  1.00  0.00     0.338 C 
ATOM      5  O   UNL     1       2.155  12.253  -5.416  1.00  0.00    -0.246 OA
BRANCH   4   6
ATOM      6  C   UNL     1       2.534  11.001  -3.442  1.00  0.00     0.087 C 
ATOM      7  C   UNL     1       1.703   7.169  -2.230  1.00  0.00     0.026 A 
ATOM      8  C   UNL     1       1.066   6.563  -3.342  1.00  0.00     0.033 A 
ATOM      9  C   UNL     1       1.916   8.542  -2.350  1.00  0.00     0.135 A 
ATOM     10  C   UNL     1       0.540   7.278  -4.420  1.00  0.00     0.042 A 
ATOM     11  C   UNL     1       1.172   9.264  -3.315  1.00  0.00     0.019 A 
ATOM     12  O   UNL     1       2.873   9.259  -1.653  1.00  0.00    -0.475 OA
ATOM     13  Cl  UNL     1      -0.128   6.517  -5.804  1.00  0.00    -0.084 Cl
ATOM     14  C   UNL     1       0.514   8.648  -4.365  1.00  0.00     0.032 A 
ATOM     15  C   UNL     1       1.228  10.737  -3.280  1.00  0.00     0.027 C 
ATOM     16  C   UNL     1       3.521  10.300  -2.524  1.00  0.00     0.316 C 
BRANCH   7  17
ATOM     17  C   UNL     1       1.798   6.286  -1.031  1.00  0.00    -0.015 A 
ATOM     18  C   UNL     1       1.424   3.878   0.491  1.00  0.00    -0.048 A 
ATOM     19  C   UNL     1       2.675   4.213  -0.038  1.00  0.00     0.004 A 
ATOM     20  C   UNL     1       0.401   4.824   0.371  1.00  0.00     0.004 A 
ATOM     21  C   UNL     1       2.864   5.416  -0.765  1.00  0.00     0.009 A 
ATOM     22  C   UNL     1       0.585   6.000  -0.370  1.00  0.00     0.009 A 
BRANCH  18  23
ATOM     23  C   UNL     1       1.097   2.566   1.175  1.00  0.00     0.032 C 
ATOM     24  C   UNL     1       2.023   1.381   0.943  1.00  0.00     0.009 C 
ENDBRANCH  18  23
ENDBRANCH   7  17
BRANCH  16  25
ATOM     25  C   UNL     1       4.163  11.396  -1.667  1.00  0.00     0.430 C 
ATOM     26  F   UNL     1       3.263  11.990  -0.847  1.00  0.00    -0.167 F 
ATOM     27  F   UNL     1       5.171  10.928  -0.902  1.00  0.00    -0.167 F 
ATOM     28  F   UNL     1       4.687  12.377  -2.449  1.00  0.00    -0.167 F 
ENDBRANCH  16  25
ENDBRANCH   4   6
ENDBRANCH   3   4
ENDBRANCH   2   3
ENDBRANCH   1   2
BRANCH   1  29
ATOM     29  O   UNL     1       4.270   8.460  -7.260  1.00  0.00    -0.458 OA
BRANCH  29  30
ATOM     30  C   UNL     1       4.930   7.904  -6.215  1.00  0.00     0.338 C 
ATOM     31  O   UNL     1       5.854   8.424  -5.601  1.00  0.00    -0.246 OA
BRANCH  30  32
ATOM     32  C   UNL     1       4.332   6.609  -5.802  1.00  0.00     0.060 A 
ATOM     33  C   UNL     1       4.547   6.232  -4.479  1.00  0.00     0.016 A 
ATOM     34  C   UNL     1       3.613   5.750  -6.645  1.00  0.00     0.016 A 
ATOM     35  C   UNL     1       4.036   5.025  -4.008  1.00  0.00     0.010 A 
ATOM     36  C   UNL     1       3.091   4.527  -6.153  1.00  0.00     0.010 A 
ATOM     37  C   UNL     1       3.284   4.155  -4.817  1.00  0.00    -0.014 A 
BRANCH  37  38
ATOM     38  C   UNL     1       2.865   2.852  -4.195  1.00  0.00     0.031 A 
ATOM     39  C   UNL     1       3.954   1.938  -3.707  1.00  0.00     0.074 A 
ATOM     40  C   UNL     1       1.588   2.549  -3.870  1.00  0.00     0.049 A 
ATOM     41  N   UNL     1       3.886   0.935  -2.873  1.00  0.00    -0.248 NA
ATOM     42  C   UNL     1       5.307   2.213  -4.219  1.00  0.00     0.031 C 
ATOM     43  C   UNL     1       0.423   3.322  -4.256  1.00  0.00     0.029 A 
ATOM     44  N   UNL     1       1.054   1.563  -3.063  1.00  0.00    -0.354 N 
ATOM     45  C   UNL     1       5.184   0.465  -2.751  1.00  0.00     0.074 A 
ATOM     46  C   UNL     1       6.025   1.311  -3.571  1.00  0.00     0.031 C 
ATOM     47  C   UNL     1      -0.645   2.930  -3.543  1.00  0.00     0.029 A 
ATOM     48  C   UNL     1      -0.281   1.762  -2.749  1.00  0.00     0.049 A 
ATOM     49  H   UNL     1       1.573   0.792  -2.740  1.00  0.00     0.167 HD
ATOM     50  C   UNL     1       5.635  -0.605  -2.057  1.00  0.00     0.037 A 
ATOM     51  C   UNL     1      -1.118   1.084  -1.929  1.00  0.00     0.037 A 
ATOM     52  C   UNL     1       4.797  -1.521  -1.335  1.00  0.00     0.049 A 
ATOM     53  C   UNL     1      -0.614  -0.179  -1.273  1.00  0.00     0.074 A 
ATOM     54  C   UNL     1       5.169  -2.667  -0.656  1.00  0.00     0.029 A 
ATOM     55  N   UNL     1       3.417  -1.427  -1.236  1.00  0.00    -0.354 N 
ATOM     56  N   UNL     1       0.601  -0.673  -1.260  1.00  0.00    -0.248 NA
ATOM     57  C   UNL     1      -1.599  -1.000  -0.554  1.00  0.00     0.031 C 
ATOM     58  C   UNL     1       4.008  -3.297  -0.194  1.00  0.00     0.029 A 
ATOM     59  C   UNL     1       2.921  -2.497  -0.507  1.00  0.00     0.049 A 
ATOM     60  H   UNL     1       2.870  -0.707  -1.625  1.00  0.00     0.167 HD
ATOM     61  C   UNL     1       0.535  -1.833  -0.495  1.00  0.00     0.074 A 
ATOM     62  C   UNL     1      -0.843  -1.979  -0.077  1.00  0.00     0.031 C 
ATOM     63  C   UNL     1       1.536  -2.678  -0.144  1.00  0.00     0.037 A 
BRANCH  50  64
ATOM     64  C   UNL     1       7.102  -0.893  -2.165  1.00  0.00     0.058 A 
ATOM     65  C   UNL     1       8.064  -0.114  -1.503  1.00  0.00     0.135 A 
ATOM     66  C   UNL     1       7.547  -1.934  -2.993  1.00  0.00     0.135 A 
ATOM     67  F   UNL     1       7.686   0.917  -0.731  1.00  0.00    -0.206 F 
ATOM     68  C   UNL     1       9.424  -0.341  -1.685  1.00  0.00     0.059 A 
ATOM     69  C   UNL     1       8.900  -2.193  -3.171  1.00  0.00     0.059 A 
ATOM     70  F   UNL     1       6.663  -2.691  -3.662  1.00  0.00    -0.206 F 
ATOM     71  C   UNL     1       9.830  -1.378  -2.528  1.00  0.00     0.060 A 
BRANCH  71  72
ATOM     72  S   UNL     1      11.596  -1.637  -2.791  1.00  0.00     0.124 S 
ATOM     73  O   UNL     1      11.936  -0.486  -3.623  1.00  0.00    -0.237 OA
ATOM     74  O   UNL     1      12.120  -1.612  -1.429  1.00  0.00    -0.237 OA
ATOM     75  O   UNL     1      11.654  -2.933  -3.460  1.00  0.00    -0.744 OA
ENDBRANCH  71  72
ENDBRANCH  50  64
BRANCH  51  76
ATOM     76  C   UNL     1      -2.522   1.547  -1.668  1.00  0.00     0.058 A 
ATOM     77  C   UNL     1      -2.951   1.865  -0.365  1.00  0.00     0.135 A 
ATOM     78  C   UNL     1      -3.483   1.633  -2.687  1.00  0.00     0.135 A 
ATOM     79  F   UNL     1      -2.104   1.761   0.669  1.00  0.00    -0.206 F 
ATOM     80  C   UNL     1      -4.263   2.241  -0.084  1.00  0.00     0.059 A 
ATOM     81  C   UNL     1      -4.794   2.040  -2.438  1.00  0.00     0.059 A 
ATOM     82  F   UNL     1      -3.154   1.325  -3.951  1.00  0.00    -0.206 F 
ATOM     83  C   UNL     1      -5.178   2.330  -1.130  1.00  0.00     0.060 A 
BRANCH  83  84
ATOM     84  S   UNL     1      -6.870   2.846  -0.762  1.00  0.00     0.124 S 
ATOM     85  O   UNL     1      -7.406   1.656  -0.112  1.00  0.00    -0.237 OA
ATOM     86  O   UNL     1      -6.658   4.004   0.101  1.00  0.00    -0.237 OA
ATOM     87  O   UNL     1      -7.421   3.148  -2.080  1.00  0.00    -0.744 OA
ENDBRANCH  83  84
ENDBRANCH  51  76
BRANCH  63  88
ATOM     88  C   UNL     1       1.189  -3.833   0.757  1.00  0.00     0.058 A 
ATOM     89  C   UNL     1       0.419  -4.923   0.320  1.00  0.00     0.135 A 
ATOM     90  C   UNL     1       1.671  -3.862   2.077  1.00  0.00     0.135 A 
ATOM     91  F   UNL     1      -0.073  -4.946  -0.928  1.00  0.00    -0.206 F 
ATOM     92  C   UNL     1       0.115  -5.985   1.168  1.00  0.00     0.059 A 
ATOM     93  C   UNL     1       1.408  -4.928   2.930  1.00  0.00     0.059 A 
ATOM     94  F   UNL     1       2.417  -2.849   2.547  1.00  0.00    -0.206 F 
ATOM     95  C   UNL     1       0.615  -5.978   2.472  1.00  0.00     0.060 A 
BRANCH  95  96
ATOM     96  S   UNL     1       0.239  -7.370   3.558  1.00  0.00     0.124 S 
ATOM     97  O   UNL     1      -1.141  -7.084   3.935  1.00  0.00    -0.237 OA
ATOM     98  O   UNL     1       0.431  -8.518   2.677  1.00  0.00    -0.237 OA
ATOM     99  O   UNL     1       1.224  -7.240   4.628  1.00  0.00    -0.744 OA
ENDBRANCH  95  96
ENDBRANCH  63  88
ENDBRANCH  37  38
ENDBRANCH  30  32
ENDBRANCH  29  30
ENDBRANCH   1  29
TORSDOF 17
