REMARK SMILES CCc1ccc2[nH]c(C(=O)c3cc(C)ccn3)c(CC(=O)OCCOC(=O)c3ccc(-c4c5nc(c(-c6c(F)cc(S(=O)(=O)[O-])cc6F)c6ccc([nH]6)c(-c6c(F)cc(S(=O)(=O)[O-])cc6F)c6nc(c(-c7c(F)cc(S(=O)(=O)[O-])cc7F)c7ccc4[nH]7)C=C6)C=C5)cc3)c2c1
REMARK SMILES IDX 23 1 22 2 20 3 21 4 19 5 18 6 3 7 4 8 95 9 5 10 94 11 6 12
REMARK SMILES IDX 7 13 8 14 2 16 1 17 9 18 10 19 11 20 12 21 17 22 13 23 16 24
REMARK SMILES IDX 14 25 15 26 24 27 25 28 26 29 27 30 28 31 29 32 93 33 30 34
REMARK SMILES IDX 92 35 31 36 32 37 33 38 86 39 34 40 91 41 85 42 87 43 35 44
REMARK SMILES IDX 90 45 84 46 83 47 36 49 70 50 49 51 69 52 50 53 53 54 68 55
REMARK SMILES IDX 88 56 51 57 52 58 67 60 89 61 54 62 37 63 38 64 47 65 39 66
REMARK SMILES IDX 40 67 46 68 48 69 41 70 42 71 43 72 44 73 45 74 71 75 72 76
REMARK SMILES IDX 81 77 73 78 74 79 80 80 82 81 75 82 76 83 77 84 78 85 79 86
REMARK SMILES IDX 55 87 56 88 65 89 57 90 58 91 64 92 66 93 59 94 60 95 61 96
REMARK SMILES IDX 62 97 63 98
REMARK H PARENT 7 15 87 48 53 59
REMARK Flexibility Score: inf
ROOT
ATOM      1  C   UNL     1      -1.367   3.543   6.239  1.00  0.00     0.274 C 
ENDROOT
BRANCH   1   2
ATOM      2  O   UNL     1      -0.273   2.751   5.734  1.00  0.00    -0.462 OA
BRANCH   2   3
ATOM      3  C   UNL     1       0.475   3.340   4.762  1.00  0.00     0.310 C 
ATOM      4  O   UNL     1       0.211   4.431   4.260  1.00  0.00    -0.252 OA
BRANCH   3   5
ATOM      5  C   UNL     1       1.717   2.576   4.361  1.00  0.00     0.161 C 
BRANCH   5   6
ATOM      6  C   UNL     1       1.800   1.144   4.799  1.00  0.00     0.000 A 
ATOM      7  C   UNL     1       0.668  -1.316   2.104  1.00  0.00    -0.048 A 
ATOM      8  C   UNL     1       0.997  -2.467   2.833  1.00  0.00     0.006 A 
ATOM      9  C   UNL     1       0.786  -0.064   2.725  1.00  0.00     0.014 A 
ATOM     10  C   UNL     1       1.488  -2.397   4.145  1.00  0.00     0.027 A 
ATOM     11  C   UNL     1       1.355   0.037   4.011  1.00  0.00     0.004 A 
ATOM     12  C   UNL     1       1.684  -1.127   4.694  1.00  0.00     0.046 A 
ATOM     13  N   UNL     1       2.222  -0.741   5.901  1.00  0.00    -0.352 N 
ATOM     14  C   UNL     1       2.484   0.614   5.895  1.00  0.00     0.093 A 
ATOM     15  H   UNL     1       2.395  -1.345   6.659  1.00  0.00     0.167 HD
BRANCH   7  16
ATOM     16  C   UNL     1       0.198  -1.429   0.672  1.00  0.00     0.032 C 
ATOM     17  C   UNL     1       0.804  -0.392  -0.272  1.00  0.00     0.009 C 
ENDBRANCH   7  16
BRANCH  14  18
ATOM     18  C   UNL     1       3.398   1.289   6.805  1.00  0.00     0.227 C 
ATOM     19  O   UNL     1       3.966   2.340   6.519  1.00  0.00    -0.285 OA
BRANCH  18  20
ATOM     20  C   UNL     1       3.774   0.649   8.087  1.00  0.00     0.113 A 
ATOM     21  C   UNL     1       4.974  -0.046   8.179  1.00  0.00     0.036 A 
ATOM     22  N   UNL     1       2.943   0.871   9.131  1.00  0.00    -0.253 NA
ATOM     23  C   UNL     1       5.356  -0.538   9.430  1.00  0.00    -0.047 A 
ATOM     24  C   UNL     1       3.371   0.453  10.338  1.00  0.00     0.112 A 
ATOM     25  C   UNL     1       6.632  -1.305   9.611  1.00  0.00     0.044 C 
ATOM     26  C   UNL     1       4.550  -0.250  10.535  1.00  0.00     0.023 A 
ENDBRANCH  18  20
ENDBRANCH  14  18
ENDBRANCH   5   6
ENDBRANCH   3   5
ENDBRANCH   2   3
ENDBRANCH   1   2
BRANCH   1  27
ATOM     27  C   UNL     1      -1.014   4.147   7.594  1.00  0.00     0.275 C 
BRANCH  27  28
ATOM     28  O   UNL     1       0.265   4.797   7.516  1.00  0.00    -0.458 OA
BRANCH  28  29
ATOM     29  C   UNL     1       1.220   4.277   8.321  1.00  0.00     0.338 C 
ATOM     30  O   UNL     1       1.059   3.412   9.172  1.00  0.00    -0.246 OA
BRANCH  29  31
ATOM     31  C   UNL     1       2.511   4.952   8.093  1.00  0.00     0.060 A 
ATOM     32  C   UNL     1       2.986   5.209   6.807  1.00  0.00     0.016 A 
ATOM     33  C   UNL     1       3.301   5.258   9.202  1.00  0.00     0.016 A 
ATOM     34  C   UNL     1       4.286   5.686   6.629  1.00  0.00     0.010 A 
ATOM     35  C   UNL     1       4.559   5.837   9.023  1.00  0.00     0.010 A 
ATOM     36  C   UNL     1       5.079   6.033   7.734  1.00  0.00    -0.014 A 
BRANCH  36  37
ATOM     37  C   UNL     1       6.439   6.614   7.553  1.00  0.00     0.031 A 
ATOM     38  C   UNL     1       7.649   5.941   8.146  1.00  0.00     0.074 A 
ATOM     39  C   UNL     1       6.588   7.770   6.876  1.00  0.00     0.049 A 
ATOM     40  N   UNL     1       8.874   6.391   8.258  1.00  0.00    -0.248 NA
ATOM     41  C   UNL     1       7.454   4.592   8.700  1.00  0.00     0.031 C 
ATOM     42  C   UNL     1       5.512   8.512   6.218  1.00  0.00     0.029 A 
ATOM     43  N   UNL     1       7.709   8.522   6.624  1.00  0.00    -0.354 N 
ATOM     44  C   UNL     1       9.584   5.406   8.934  1.00  0.00     0.074 A 
ATOM     45  C   UNL     1       8.650   4.335   9.213  1.00  0.00     0.031 C 
ATOM     46  C   UNL     1       6.029   9.582   5.598  1.00  0.00     0.029 A 
ATOM     47  C   UNL     1       7.457   9.653   5.886  1.00  0.00     0.049 A 
ATOM     48  H   UNL     1       8.607   8.274   6.942  1.00  0.00     0.167 HD
ATOM     49  C   UNL     1      10.893   5.397   9.289  1.00  0.00     0.037 A 
ATOM     50  C   UNL     1       8.270  10.657   5.509  1.00  0.00     0.037 A 
ATOM     51  C   UNL     1      11.831   6.444   8.971  1.00  0.00     0.049 A 
ATOM     52  C   UNL     1       9.704  10.646   5.946  1.00  0.00     0.074 A 
ATOM     53  C   UNL     1      13.179   6.520   9.278  1.00  0.00     0.029 A 
ATOM     54  N   UNL     1      11.521   7.595   8.259  1.00  0.00    -0.354 N 
ATOM     55  N   UNL     1      10.345   9.741   6.644  1.00  0.00    -0.248 NA
ATOM     56  C   UNL     1      10.519  11.809   5.569  1.00  0.00     0.031 C 
ATOM     57  C   UNL     1      13.679   7.728   8.773  1.00  0.00     0.029 A 
ATOM     58  C   UNL     1      12.649   8.391   8.126  1.00  0.00     0.049 A 
ATOM     59  H   UNL     1      10.631   7.814   7.901  1.00  0.00     0.167 HD
ATOM     60  C   UNL     1      11.640  10.220   6.787  1.00  0.00     0.074 A 
ATOM     61  C   UNL     1      11.696  11.490   6.091  1.00  0.00     0.031 C 
ATOM     62  C   UNL     1      12.688   9.657   7.439  1.00  0.00     0.037 A 
BRANCH  49  63
ATOM     63  C   UNL     1      11.378   4.224  10.096  1.00  0.00     0.058 A 
ATOM     64  C   UNL     1      11.585   2.962   9.520  1.00  0.00     0.135 A 
ATOM     65  C   UNL     1      11.637   4.367  11.469  1.00  0.00     0.135 A 
ATOM     66  F   UNL     1      11.343   2.766   8.214  1.00  0.00    -0.206 F 
ATOM     67  C   UNL     1      11.989   1.871  10.284  1.00  0.00     0.059 A 
ATOM     68  C   UNL     1      12.062   3.296  12.249  1.00  0.00     0.059 A 
ATOM     69  F   UNL     1      11.461   5.555  12.070  1.00  0.00    -0.206 F 
ATOM     70  C   UNL     1      12.211   2.045  11.652  1.00  0.00     0.060 A 
BRANCH  70  71
ATOM     71  S   UNL     1      12.682   0.613  12.646  1.00  0.00     0.124 S 
ATOM     72  O   UNL     1      11.394  -0.051  12.823  1.00  0.00    -0.237 OA
ATOM     73  O   UNL     1      13.634  -0.077  11.781  1.00  0.00    -0.237 OA
ATOM     74  O   UNL     1      13.254   1.209  13.850  1.00  0.00    -0.744 OA
ENDBRANCH  70  71
ENDBRANCH  49  63
BRANCH  50  75
ATOM     75  C   UNL     1       7.726  11.764   4.682  1.00  0.00     0.058 A 
ATOM     76  C   UNL     1       8.038  11.855   3.319  1.00  0.00     0.135 A 
ATOM     77  C   UNL     1       6.836  12.707   5.219  1.00  0.00     0.135 A 
ATOM     78  F   UNL     1       8.892  10.979   2.767  1.00  0.00    -0.206 F 
ATOM     79  C   UNL     1       7.478  12.838   2.511  1.00  0.00     0.059 A 
ATOM     80  C   UNL     1       6.248  13.686   4.426  1.00  0.00     0.059 A 
ATOM     81  F   UNL     1       6.499  12.652   6.517  1.00  0.00    -0.206 F 
ATOM     82  C   UNL     1       6.577  13.745   3.072  1.00  0.00     0.060 A 
BRANCH  82  83
ATOM     83  S   UNL     1       5.782  14.960   1.999  1.00  0.00     0.124 S 
ATOM     84  O   UNL     1       6.839  15.954   1.850  1.00  0.00    -0.237 OA
ATOM     85  O   UNL     1       5.476  14.173   0.809  1.00  0.00    -0.237 OA
ATOM     86  O   UNL     1       4.621  15.382   2.776  1.00  0.00    -0.744 OA
ENDBRANCH  82  83
ENDBRANCH  50  75
BRANCH  62  87
ATOM     87  C   UNL     1      13.986  10.411   7.414  1.00  0.00     0.058 A 
ATOM     88  C   UNL     1      14.198  11.530   8.234  1.00  0.00     0.135 A 
ATOM     89  C   UNL     1      15.032  10.001   6.574  1.00  0.00     0.135 A 
ATOM     90  F   UNL     1      13.223  11.966   9.047  1.00  0.00    -0.206 F 
ATOM     91  C   UNL     1      15.399  12.230   8.207  1.00  0.00     0.059 A 
ATOM     92  C   UNL     1      16.248  10.677   6.543  1.00  0.00     0.059 A 
ATOM     93  F   UNL     1      14.879   8.934   5.774  1.00  0.00    -0.206 F 
ATOM     94  C   UNL     1      16.418  11.799   7.355  1.00  0.00     0.060 A 
BRANCH  94  95
ATOM     95  S   UNL     1      17.982  12.701   7.339  1.00  0.00     0.124 S 
ATOM     96  O   UNL     1      17.647  13.855   6.512  1.00  0.00    -0.237 OA
ATOM     97  O   UNL     1      18.202  12.979   8.755  1.00  0.00    -0.237 OA
ATOM     98  O   UNL     1      18.914  11.749   6.743  1.00  0.00    -0.744 OA
ENDBRANCH  94  95
ENDBRANCH  62  87
ENDBRANCH  36  37
ENDBRANCH  29  31
ENDBRANCH  28  29
ENDBRANCH  27  28
ENDBRANCH   1  27
TORSDOF 18
