REMARK SMILES Cc1cccc(-n2c(C)cc(/C=N\c3ccc(O)c(C(=O)OCCOC(=O)c4ccc(-c5c6nc(c(-c7c(F)cc(S(=O)(=O)[O-])cc7F)c7ccc([nH]7)c(-c7c(F)cc(S(=O)(=O)[O-])cc7F)c7nc(c(-c8c(F)cc(S(=O)(=O)[O-])cc8F)c8ccc5[nH]8)C=C7)C=C6)cc4)c3)c2C)c1
REMARK SMILES IDX 23 1 22 2 20 3 21 4 19 5 14 6 15 7 94 8 16 9 17 10 13 11
REMARK SMILES IDX 12 12 11 13 7 14 8 15 95 16 9 17 10 18 96 19 6 20 1 21 2 22
REMARK SMILES IDX 3 23 97 24 4 25 5 26 18 27 24 29 25 30 26 31 27 32 28 33
REMARK SMILES IDX 29 34 93 35 30 36 92 37 31 38 32 39 33 40 86 41 34 42 91 43
REMARK SMILES IDX 85 44 87 45 35 46 90 47 84 48 83 49 36 51 70 52 49 53 69 54
REMARK SMILES IDX 50 55 53 56 68 57 88 58 51 59 52 60 67 62 89 63 54 64 37 65
REMARK SMILES IDX 38 66 47 67 39 68 40 69 46 70 48 71 41 72 42 73 43 74 44 75
REMARK SMILES IDX 45 76 71 77 72 78 81 79 73 80 74 81 80 82 82 83 75 84 76 85
REMARK SMILES IDX 77 86 78 87 79 88 55 89 56 90 65 91 57 92 58 93 64 94 66 95
REMARK SMILES IDX 59 96 60 97 61 98 62 99 63 100
REMARK H PARENT 18 28 87 50 53 61
REMARK Flexibility Score: inf
ROOT
ATOM      1  C   UNL     1      -7.378  -2.211   6.741  1.00  0.00     0.275 C 
ENDROOT
BRANCH   1   2
ATOM      2  O   UNL     1      -6.204  -1.873   5.965  1.00  0.00    -0.458 OA
BRANCH   2   3
ATOM      3  C   UNL     1      -6.238  -0.561   5.209  1.00  0.00     0.342 C 
ATOM      4  O   UNL     1      -7.494  -0.447   5.076  1.00  0.00    -0.246 OA
BRANCH   3   5
ATOM      5  C   UNL     1      -4.578   0.687   4.626  1.00  0.00     0.103 A 
ATOM      6  C   UNL     1      -3.632   3.058   3.559  1.00  0.00     0.064 A 
ATOM      7  C   UNL     1      -2.383   2.905   4.086  1.00  0.00     0.032 A 
ATOM      8  C   UNL     1      -4.620   2.079   3.881  1.00  0.00     0.048 A 
ATOM      9  C   UNL     1      -2.083   1.686   4.664  1.00  0.00     0.049 A 
ATOM     10  C   UNL     1      -3.054   0.627   4.822  1.00  0.00     0.130 A 
BRANCH   6  11
ATOM     11  N   UNL     1      -4.002   4.185   2.819  1.00  0.00    -0.256 NA
ATOM     12  C   UNL     1      -3.699   4.432   1.578  1.00  0.00     0.121 C 
BRANCH  12  13
ATOM     13  C   UNL     1      -2.890   3.728   0.580  1.00  0.00     0.014 A 
ATOM     14  N   UNL     1      -1.644   2.271  -0.624  1.00  0.00    -0.318 N 
ATOM     15  C   UNL     1      -1.540   3.490  -1.264  1.00  0.00     0.021 A 
ATOM     16  C   UNL     1      -2.539   2.389   0.437  1.00  0.00     0.029 A 
ATOM     17  C   UNL     1      -0.757   3.686  -2.515  1.00  0.00     0.065 C 
ATOM     18  C   UNL     1      -2.320   4.387  -0.560  1.00  0.00     0.033 A 
ATOM     19  C   UNL     1      -2.907   1.209   1.262  1.00  0.00     0.065 C 
BRANCH  14  20
ATOM     20  C   UNL     1      -0.842   1.124  -0.860  1.00  0.00     0.046 A 
ATOM     21  C   UNL     1       2.693   0.022  -0.003  1.00  0.00     0.044 C 
ATOM     22  C   UNL     1       1.248   0.001  -0.403  1.00  0.00    -0.049 A 
ATOM     23  C   UNL     1       0.600  -1.230  -0.589  1.00  0.00     0.003 A 
ATOM     24  C   UNL     1       0.519   1.189  -0.543  1.00  0.00     0.030 A 
ATOM     25  C   UNL     1      -0.741  -1.280  -0.969  1.00  0.00     0.002 A 
ATOM     26  C   UNL     1      -1.460  -0.101  -1.128  1.00  0.00     0.026 A 
ENDBRANCH  14  20
ENDBRANCH  12  13
ENDBRANCH   6  11
BRANCH  10  27
ATOM     27  O   UNL     1      -2.318  -0.544   5.078  1.00  0.00    -0.507 OA
ATOM     28  H   UNL     1      -1.388  -0.499   5.186  1.00  0.00     0.293 HD
ENDBRANCH  10  27
ENDBRANCH   3   5
ENDBRANCH   2   3
ENDBRANCH   1   2
BRANCH   1  29
ATOM     29  C   UNL     1      -7.402  -1.362   8.025  1.00  0.00     0.275 C 
BRANCH  29  30
ATOM     30  O   UNL     1      -7.368   0.059   7.753  1.00  0.00    -0.458 OA
BRANCH  30  31
ATOM     31  C   UNL     1      -6.167   0.676   7.933  1.00  0.00     0.338 C 
ATOM     32  O   UNL     1      -5.497   0.666   8.954  1.00  0.00    -0.246 OA
BRANCH  31  33
ATOM     33  C   UNL     1      -5.548   0.805   6.590  1.00  0.00     0.060 A 
ATOM     34  C   UNL     1      -6.511   1.467   5.210  1.00  0.00     0.016 A 
ATOM     35  C   UNL     1      -4.490  -0.631   6.335  1.00  0.00     0.016 A 
ATOM     36  C   UNL     1      -6.459   0.631   3.553  1.00  0.00     0.010 A 
ATOM     37  C   UNL     1      -4.467  -1.473   4.700  1.00  0.00     0.010 A 
ATOM     38  C   UNL     1      -5.457  -0.849   3.332  1.00  0.00    -0.014 A 
BRANCH  38  39
ATOM     39  C   UNL     1      -5.896  -1.929   2.444  1.00  0.00     0.031 A 
ATOM     40  C   UNL     1      -4.881  -2.694   1.697  1.00  0.00     0.074 A 
ATOM     41  C   UNL     1      -7.192  -2.329   2.502  1.00  0.00     0.049 A 
ATOM     42  N   UNL     1      -5.165  -3.464   0.710  1.00  0.00    -0.248 NA
ATOM     43  C   UNL     1      -3.447  -2.651   1.973  1.00  0.00     0.031 C 
ATOM     44  C   UNL     1      -7.818  -3.539   1.975  1.00  0.00     0.029 A 
ATOM     45  N   UNL     1      -8.294  -1.658   3.004  1.00  0.00    -0.354 N 
ATOM     46  C   UNL     1      -4.050  -4.209   0.401  1.00  0.00     0.074 A 
ATOM     47  C   UNL     1      -2.989  -3.630   1.185  1.00  0.00     0.031 C 
ATOM     48  C   UNL     1      -9.152  -3.346   1.904  1.00  0.00     0.029 A 
ATOM     49  C   UNL     1      -9.428  -1.966   2.275  1.00  0.00     0.049 A 
ATOM     50  H   UNL     1      -8.273  -1.045   3.774  1.00  0.00     0.167 HD
ATOM     51  C   UNL     1      -4.211  -5.294  -0.410  1.00  0.00     0.037 A 
ATOM     52  C   UNL     1      -9.998  -1.006   1.481  1.00  0.00     0.037 A 
ATOM     53  C   UNL     1      -5.605  -5.365  -0.870  1.00  0.00     0.049 A 
ATOM     54  C   UNL     1      -9.674  -1.265   0.001  1.00  0.00     0.074 A 
ATOM     55  C   UNL     1      -6.737  -6.042  -0.451  1.00  0.00     0.029 A 
ATOM     56  N   UNL     1      -6.069  -4.333  -1.663  1.00  0.00    -0.354 N 
ATOM     57  N   UNL     1      -8.970  -2.288  -0.421  1.00  0.00    -0.248 NA
ATOM     58  C   UNL     1     -10.079  -0.413  -1.117  1.00  0.00     0.031 C 
ATOM     59  C   UNL     1      -7.884  -5.348  -0.963  1.00  0.00     0.029 A 
ATOM     60  C   UNL     1      -7.446  -4.271  -1.716  1.00  0.00     0.049 A 
ATOM     61  H   UNL     1      -5.478  -3.707  -2.140  1.00  0.00     0.167 HD
ATOM     62  C   UNL     1      -8.788  -2.240  -1.774  1.00  0.00     0.074 A 
ATOM     63  C   UNL     1      -9.501  -1.033  -2.166  1.00  0.00     0.031 C 
ATOM     64  C   UNL     1      -8.061  -3.175  -2.467  1.00  0.00     0.037 A 
BRANCH  51  65
ATOM     65  C   UNL     1      -3.185  -6.383  -0.634  1.00  0.00     0.058 A 
ATOM     66  C   UNL     1      -3.605  -7.675  -1.018  1.00  0.00     0.135 A 
ATOM     67  C   UNL     1      -1.789  -6.247  -0.468  1.00  0.00     0.135 A 
ATOM     68  F   UNL     1      -4.891  -7.942  -1.280  1.00  0.00    -0.206 F 
ATOM     69  C   UNL     1      -2.731  -8.756  -1.145  1.00  0.00     0.059 A 
ATOM     70  C   UNL     1      -0.899  -7.326  -0.540  1.00  0.00     0.059 A 
ATOM     71  F   UNL     1      -1.216  -5.051  -0.284  1.00  0.00    -0.206 F 
ATOM     72  C   UNL     1      -1.381  -8.581  -0.879  1.00  0.00     0.060 A 
BRANCH  72  73
ATOM     73  S   UNL     1      -0.280 -10.002  -1.012  1.00  0.00     0.124 S 
ATOM     74  O   UNL     1      -0.893 -10.952  -0.089  1.00  0.00    -0.237 OA
ATOM     75  O   UNL     1      -0.384 -10.334  -2.429  1.00  0.00    -0.237 OA
ATOM     76  O   UNL     1       1.013  -9.473  -0.587  1.00  0.00    -0.744 OA
ENDBRANCH  72  73
ENDBRANCH  51  65
BRANCH  52  77
ATOM     77  C   UNL     1     -10.208   0.303   2.208  1.00  0.00     0.058 A 
ATOM     78  C   UNL     1     -10.937   0.254   3.425  1.00  0.00     0.135 A 
ATOM     79  C   UNL     1      -9.493   1.486   1.980  1.00  0.00     0.135 A 
ATOM     80  F   UNL     1     -11.707  -0.813   3.696  1.00  0.00    -0.206 F 
ATOM     81  C   UNL     1     -10.825   1.227   4.423  1.00  0.00     0.059 A 
ATOM     82  C   UNL     1      -9.383   2.495   2.965  1.00  0.00     0.059 A 
ATOM     83  F   UNL     1      -8.771   1.633   0.859  1.00  0.00    -0.206 F 
ATOM     84  C   UNL     1     -10.018   2.334   4.201  1.00  0.00     0.060 A 
BRANCH  84  85
ATOM     85  S   UNL     1      -9.714   3.470   5.593  1.00  0.00     0.124 S 
ATOM     86  O   UNL     1     -10.988   4.168   5.705  1.00  0.00    -0.237 OA
ATOM     87  O   UNL     1      -9.398   2.559   6.688  1.00  0.00    -0.237 OA
ATOM     88  O   UNL     1      -8.591   4.277   5.126  1.00  0.00    -0.744 OA
ENDBRANCH  84  85
ENDBRANCH  52  77
BRANCH  64  89
ATOM     89  C   UNL     1      -7.854  -3.127  -3.964  1.00  0.00     0.058 A 
ATOM     90  C   UNL     1      -8.904  -2.865  -4.856  1.00  0.00     0.135 A 
ATOM     91  C   UNL     1      -6.614  -3.462  -4.563  1.00  0.00     0.135 A 
ATOM     92  F   UNL     1     -10.146  -2.628  -4.405  1.00  0.00    -0.206 F 
ATOM     93  C   UNL     1      -8.715  -2.849  -6.239  1.00  0.00     0.059 A 
ATOM     94  C   UNL     1      -6.425  -3.534  -5.936  1.00  0.00     0.059 A 
ATOM     95  F   UNL     1      -5.508  -3.688  -3.841  1.00  0.00    -0.206 F 
ATOM     96  C   UNL     1      -7.470  -3.181  -6.768  1.00  0.00     0.060 A 
BRANCH  96  97
ATOM     97  S   UNL     1      -7.210  -3.131  -8.547  1.00  0.00     0.124 S 
ATOM     98  O   UNL     1      -8.431  -3.741  -9.061  1.00  0.00    -0.237 OA
ATOM     99  O   UNL     1      -7.073  -1.696  -8.776  1.00  0.00    -0.237 OA
ATOM    100  O   UNL     1      -5.994  -3.915  -8.738  1.00  0.00    -0.744 OA
ENDBRANCH  96  97
ENDBRANCH  64  89
ENDBRANCH  38  39
ENDBRANCH  31  33
ENDBRANCH  30  31
ENDBRANCH  29  30
ENDBRANCH   1  29
TORSDOF 18
