REMARK SMILES O=C(C[NH+]1CCN(c2ncc(C(F)(F)F)cc2Cl)CC1)OCCOC(=O)c1ccc(-c2c3nc(c(-c4c(F)cc(S(=O)(=O)[O-])cc4F)c4ccc([nH]4)c(-c4c(F)cc(S(=O)(=O)[O-])cc4F)c4nc(c(-c5c(F)cc(S(=O)(=O)[O-])cc5F)c5ccc2[nH]5)C=C4)C=C3)cc1
REMARK SMILES IDX 22 1 21 2 2 3 1 4 3 5 4 6 5 7 20 8 6 10 19 11 7 12 8 13 9 14
REMARK SMILES IDX 17 15 10 16 16 17 18 18 11 19 12 20 13 21 14 22 15 23 23 24
REMARK SMILES IDX 24 25 25 26 26 27 27 28 28 29 92 30 29 31 91 32 30 33 31 34
REMARK SMILES IDX 32 35 85 36 33 37 90 38 84 39 86 40 34 41 89 42 83 43 82 44
REMARK SMILES IDX 35 46 69 47 48 48 68 49 49 50 52 51 67 52 87 53 50 54 51 55
REMARK SMILES IDX 66 57 88 58 53 59 36 60 37 61 46 62 38 63 39 64 45 65 47 66
REMARK SMILES IDX 40 67 41 68 42 69 43 70 44 71 70 72 71 73 80 74 72 75 73 76
REMARK SMILES IDX 79 77 81 78 74 79 75 80 76 81 77 82 78 83 54 84 55 85 64 86
REMARK SMILES IDX 56 87 57 88 63 89 65 90 58 91 59 92 60 93 61 94 62 95
REMARK H PARENT 4 9 86 45 52 56
REMARK Flexibility Score: inf
ROOT
ATOM      1  C   UNL     1       3.722   1.010  -1.093  1.00  0.00     0.274 C 
ENDROOT
BRANCH   1   2
ATOM      2  O   UNL     1       2.497   0.288  -0.914  1.00  0.00    -0.458 OA
BRANCH   2   3
ATOM      3  C   UNL     1       2.626  -1.059  -0.741  1.00  0.00     0.361 C 
ATOM      4  O   UNL     1       2.240  -1.850  -1.596  1.00  0.00    -0.245 OA
BRANCH   3   5
ATOM      5  C   UNL     1       3.086  -1.469   0.660  1.00  0.00     0.386 C 
BRANCH   5   6
ATOM      6  N   UNL     1       4.325  -2.274   0.641  1.00  0.00    -0.323 N 
ATOM      7  C   UNL     1       5.545  -1.469   0.914  1.00  0.00     0.284 C 
ATOM      8  C   UNL     1       4.256  -3.350   1.673  1.00  0.00     0.284 C 
ATOM      9  H   UNL     1       4.393  -2.662  -0.300  1.00  0.00     0.348 HD
ATOM     10  C   UNL     1       5.695  -0.920   2.353  1.00  0.00     0.179 C 
ATOM     11  C   UNL     1       4.384  -2.876   3.147  1.00  0.00     0.179 C 
ATOM     12  N   UNL     1       5.564  -2.027   3.278  1.00  0.00    -0.344 N 
BRANCH  12  13
ATOM     13  C   UNL     1       6.310  -2.001   4.431  1.00  0.00     0.147 A 
ATOM     14  N   UNL     1       6.268  -0.871   5.181  1.00  0.00    -0.237 NA
ATOM     15  C   UNL     1       7.204  -3.041   4.737  1.00  0.00     0.084 A 
ATOM     16  C   UNL     1       7.105  -0.774   6.243  1.00  0.00     0.126 A 
ATOM     17  C   UNL     1       8.078  -2.899   5.812  1.00  0.00     0.039 A 
ATOM     18  Cl  UNL     1       7.378  -4.442   3.738  1.00  0.00    -0.080 Cl
ATOM     19  C   UNL     1       8.044  -1.736   6.582  1.00  0.00     0.075 A 
BRANCH  19  20
ATOM     20  C   UNL     1       9.001  -1.492   7.705  1.00  0.00     0.417 C 
ATOM     21  F   UNL     1       9.667  -0.311   7.569  1.00  0.00    -0.166 F 
ATOM     22  F   UNL     1       8.396  -1.444   8.920  1.00  0.00    -0.166 F 
ATOM     23  F   UNL     1       9.970  -2.446   7.803  1.00  0.00    -0.166 F 
ENDBRANCH  19  20
ENDBRANCH  12  13
ENDBRANCH   5   6
ENDBRANCH   3   5
ENDBRANCH   2   3
ENDBRANCH   1   2
BRANCH   1  24
ATOM     24  C   UNL     1       3.880   2.156  -0.088  1.00  0.00     0.275 C 
BRANCH  24  25
ATOM     25  O   UNL     1       3.560   1.747   1.253  1.00  0.00    -0.458 OA
BRANCH  25  26
ATOM     26  C   UNL     1       2.262   1.951   1.611  1.00  0.00     0.338 C 
ATOM     27  O   UNL     1       1.417   2.537   0.953  1.00  0.00    -0.246 OA
BRANCH  26  28
ATOM     28  C   UNL     1       1.946   1.198   2.849  1.00  0.00     0.060 A 
ATOM     29  C   UNL     1       0.700   0.563   2.924  1.00  0.00     0.016 A 
ATOM     30  C   UNL     1       2.848   1.089   3.912  1.00  0.00     0.016 A 
ATOM     31  C   UNL     1       0.335  -0.136   4.078  1.00  0.00     0.010 A 
ATOM     32  C   UNL     1       2.489   0.370   5.059  1.00  0.00     0.010 A 
ATOM     33  C   UNL     1       1.213  -0.209   5.169  1.00  0.00    -0.014 A 
BRANCH  33  34
ATOM     34  C   UNL     1       0.720  -0.730   6.471  1.00  0.00     0.031 A 
ATOM     35  C   UNL     1       0.303   0.254   7.534  1.00  0.00     0.074 A 
ATOM     36  C   UNL     1       0.594  -2.050   6.703  1.00  0.00     0.049 A 
ATOM     37  N   UNL     1      -0.250   0.033   8.699  1.00  0.00    -0.248 NA
ATOM     38  C   UNL     1       0.543   1.677   7.242  1.00  0.00     0.031 C 
ATOM     39  C   UNL     1       0.957  -3.116   5.771  1.00  0.00     0.029 A 
ATOM     40  N   UNL     1       0.113  -2.718   7.804  1.00  0.00    -0.354 N 
ATOM     41  C   UNL     1      -0.434   1.285   9.273  1.00  0.00     0.074 A 
ATOM     42  C   UNL     1       0.116   2.257   8.353  1.00  0.00     0.031 C 
ATOM     43  C   UNL     1       0.680  -4.305   6.337  1.00  0.00     0.029 A 
ATOM     44  C   UNL     1       0.122  -4.086   7.671  1.00  0.00     0.049 A 
ATOM     45  H   UNL     1      -0.208  -2.259   8.613  1.00  0.00     0.167 HD
ATOM     46  C   UNL     1      -1.028   1.607  10.447  1.00  0.00     0.037 A 
ATOM     47  C   UNL     1      -0.285  -5.050   8.522  1.00  0.00     0.037 A 
ATOM     48  C   UNL     1      -1.579   0.652  11.370  1.00  0.00     0.049 A 
ATOM     49  C   UNL     1      -0.902  -4.672   9.846  1.00  0.00     0.074 A 
ATOM     50  C   UNL     1      -2.237   0.888  12.564  1.00  0.00     0.029 A 
ATOM     51  N   UNL     1      -1.526  -0.724  11.208  1.00  0.00    -0.354 N 
ATOM     52  N   UNL     1      -1.141  -3.479  10.338  1.00  0.00    -0.248 NA
ATOM     53  C   UNL     1      -1.319  -5.776  10.725  1.00  0.00     0.031 C 
ATOM     54  C   UNL     1      -2.546  -0.346  13.145  1.00  0.00     0.029 A 
ATOM     55  C   UNL     1      -2.118  -1.351  12.292  1.00  0.00     0.049 A 
ATOM     56  H   UNL     1      -1.127  -1.187  10.436  1.00  0.00     0.167 HD
ATOM     57  C   UNL     1      -1.773  -3.691  11.561  1.00  0.00     0.074 A 
ATOM     58  C   UNL     1      -1.877  -5.124  11.736  1.00  0.00     0.031 C 
ATOM     59  C   UNL     1      -2.233  -2.778  12.453  1.00  0.00     0.037 A 
BRANCH  46  60
ATOM     60  C   UNL     1      -1.101   3.066  10.797  1.00  0.00     0.058 A 
ATOM     61  C   UNL     1      -1.974   3.937  10.124  1.00  0.00     0.135 A 
ATOM     62  C   UNL     1      -0.289   3.599  11.808  1.00  0.00     0.135 A 
ATOM     63  F   UNL     1      -2.759   3.479   9.136  1.00  0.00    -0.206 F 
ATOM     64  C   UNL     1      -2.009   5.296  10.416  1.00  0.00     0.059 A 
ATOM     65  C   UNL     1      -0.325   4.952  12.134  1.00  0.00     0.059 A 
ATOM     66  F   UNL     1       0.563   2.808  12.480  1.00  0.00    -0.206 F 
ATOM     67  C   UNL     1      -1.173   5.795  11.417  1.00  0.00     0.060 A 
BRANCH  67  68
ATOM     68  S   UNL     1      -1.205   7.566  11.765  1.00  0.00     0.124 S 
ATOM     69  O   UNL     1      -0.446   8.096  10.637  1.00  0.00    -0.237 OA
ATOM     70  O   UNL     1      -2.634   7.863  11.763  1.00  0.00    -0.237 OA
ATOM     71  O   UNL     1      -0.549   7.667  13.066  1.00  0.00    -0.744 OA
ENDBRANCH  67  68
ENDBRANCH  46  60
BRANCH  47  72
ATOM     72  C   UNL     1      -0.160  -6.482   8.143  1.00  0.00     0.058 A 
ATOM     73  C   UNL     1      -1.295  -7.247   7.833  1.00  0.00     0.135 A 
ATOM     74  C   UNL     1       1.089  -7.120   8.111  1.00  0.00     0.135 A 
ATOM     75  F   UNL     1      -2.512  -6.683   7.863  1.00  0.00    -0.206 F 
ATOM     76  C   UNL     1      -1.200  -8.600   7.524  1.00  0.00     0.059 A 
ATOM     77  C   UNL     1       1.212  -8.467   7.785  1.00  0.00     0.059 A 
ATOM     78  F   UNL     1       2.204  -6.429   8.391  1.00  0.00    -0.206 F 
ATOM     79  C   UNL     1       0.059  -9.202   7.505  1.00  0.00     0.060 A 
BRANCH  79  80
ATOM     80  S   UNL     1       0.178 -10.951   7.071  1.00  0.00     0.124 S 
ATOM     81  O   UNL     1      -0.308 -11.589   8.289  1.00  0.00    -0.237 OA
ATOM     82  O   UNL     1      -0.701 -11.039   5.909  1.00  0.00    -0.237 OA
ATOM     83  O   UNL     1       1.599 -11.129   6.788  1.00  0.00    -0.744 OA
ENDBRANCH  79  80
ENDBRANCH  47  72
BRANCH  59  84
ATOM     84  C   UNL     1      -2.934  -3.291  13.681  1.00  0.00     0.058 A 
ATOM     85  C   UNL     1      -2.233  -3.893  14.738  1.00  0.00     0.135 A 
ATOM     86  C   UNL     1      -4.322  -3.130  13.825  1.00  0.00     0.135 A 
ATOM     87  F   UNL     1      -0.905  -4.075  14.650  1.00  0.00    -0.206 F 
ATOM     88  C   UNL     1      -2.885  -4.337  15.884  1.00  0.00     0.059 A 
ATOM     89  C   UNL     1      -4.992  -3.545  14.973  1.00  0.00     0.059 A 
ATOM     90  F   UNL     1      -5.040  -2.550  12.850  1.00  0.00    -0.206 F 
ATOM     91  C   UNL     1      -4.266  -4.159  15.992  1.00  0.00     0.060 A 
BRANCH  91  92
ATOM     92  S   UNL     1      -5.100  -4.708  17.497  1.00  0.00     0.124 S 
ATOM     93  O   UNL     1      -5.168  -6.150  17.286  1.00  0.00    -0.237 OA
ATOM     94  O   UNL     1      -4.186  -4.264  18.545  1.00  0.00    -0.237 OA
ATOM     95  O   UNL     1      -6.378  -4.005  17.452  1.00  0.00    -0.744 OA
ENDBRANCH  91  92
ENDBRANCH  59  84
ENDBRANCH  33  34
ENDBRANCH  26  28
ENDBRANCH  25  26
ENDBRANCH  24  25
ENDBRANCH   1  24
TORSDOF 17
