REMARK SMILES COc1c(C(=O)OCCOC(=O)c2ccc(-c3c4nc(c(-c5c(F)cc(S(=O)(=O)[O-])cc5F)c5ccc([nH]5)c(-c5c(F)cc(S(=O)(=O)[O-])cc5F)c5nc(c(-c6c(F)cc(S(=O)(=O)[O-])cc6F)c6ccc3[nH]6)C=C5)C=C4)cc2)cccc1-c1cc(C)ccc1C
REMARK SMILES IDX 9 1 8 2 7 3 5 4 6 5 4 6 3 7 82 8 79 9 81 10 80 11 2 12 1 13
REMARK SMILES IDX 83 14 84 15 89 16 85 17 88 18 90 19 86 20 87 21 10 22 11 23
REMARK SMILES IDX 12 24 13 25 14 26 78 27 15 28 77 29 16 30 17 31 18 32 71 33
REMARK SMILES IDX 19 34 76 35 70 36 72 37 20 38 75 39 69 40 68 41 21 43 55 44
REMARK SMILES IDX 34 45 54 46 35 47 38 48 53 49 73 50 36 51 37 52 52 54 74 55
REMARK SMILES IDX 39 56 22 57 23 58 32 59 24 60 25 61 31 62 33 63 26 64 27 65
REMARK SMILES IDX 28 66 29 67 30 68 56 69 57 70 66 71 58 72 59 73 65 74 67 75
REMARK SMILES IDX 60 76 61 77 62 78 63 79 64 80 40 81 41 82 50 83 42 84 43 85
REMARK SMILES IDX 49 86 51 87 44 88 45 89 46 90 47 91 48 92
REMARK H PARENT 72 42 38 53
REMARK Flexibility Score: inf
ROOT
ATOM      1  C   UNL     1      -4.059  -1.974   1.252  1.00  0.00     0.275 C 
ENDROOT
BRANCH   1   2
ATOM      2  C   UNL     1      -3.245  -0.798   1.792  1.00  0.00     0.275 C 
BRANCH   2   3
ATOM      3  O   UNL     1      -1.838  -1.105   1.750  1.00  0.00    -0.458 OA
BRANCH   3   4
ATOM      4  C   UNL     1      -1.177  -1.069   2.936  1.00  0.00     0.342 C 
ATOM      5  O   UNL     1      -1.660  -0.840   4.029  1.00  0.00    -0.246 OA
BRANCH   4   6
ATOM      6  C   UNL     1       0.223  -1.525   2.756  1.00  0.00     0.102 A 
ATOM      7  C   UNL     1       1.050  -1.074   1.716  1.00  0.00     0.141 A 
ATOM      8  C   UNL     1       2.374  -1.565   1.615  1.00  0.00     0.025 A 
ATOM      9  C   UNL     1       0.713  -2.441   3.699  1.00  0.00     0.019 A 
ATOM     10  C   UNL     1       2.784  -2.588   2.497  1.00  0.00     0.012 A 
ATOM     11  C   UNL     1       1.967  -3.015   3.539  1.00  0.00     0.002 A 
BRANCH   7  12
ATOM     12  O   UNL     1       0.594  -0.025   0.952  1.00  0.00    -0.495 OA
ATOM     13  C   UNL     1       0.533  -0.328  -0.440  1.00  0.00     0.278 C 
ENDBRANCH   7  12
BRANCH   8  14
ATOM     14  C   UNL     1       3.407  -0.965   0.749  1.00  0.00    -0.011 A 
ATOM     15  C   UNL     1       4.002  -1.736  -0.271  1.00  0.00     0.012 A 
ATOM     16  C   UNL     1       3.886   0.346   0.972  1.00  0.00    -0.043 A 
ATOM     17  C   UNL     1       5.032  -1.224  -1.072  1.00  0.00    -0.050 A 
ATOM     18  C   UNL     1       4.887   0.867   0.139  1.00  0.00     0.004 A 
ATOM     19  C   UNL     1       3.344   1.229   2.069  1.00  0.00     0.045 C 
ATOM     20  C   UNL     1       5.688  -2.094  -2.102  1.00  0.00     0.044 C 
ATOM     21  C   UNL     1       5.460   0.089  -0.866  1.00  0.00     0.004 A 
ENDBRANCH   8  14
ENDBRANCH   4   6
ENDBRANCH   3   4
ENDBRANCH   2   3
ENDBRANCH   1   2
BRANCH   1  22
ATOM     22  O   UNL     1      -3.955  -3.096   2.150  1.00  0.00    -0.458 OA
BRANCH  22  23
ATOM     23  C   UNL     1      -3.238  -4.147   1.691  1.00  0.00     0.338 C 
ATOM     24  O   UNL     1      -2.752  -4.292   0.582  1.00  0.00    -0.246 OA
BRANCH  23  25
ATOM     25  C   UNL     1      -2.989  -5.077   2.802  1.00  0.00     0.060 A 
ATOM     26  C   UNL     1      -1.816  -4.893   3.528  1.00  0.00     0.016 A 
ATOM     27  C   UNL     1      -3.806  -6.175   3.057  1.00  0.00     0.016 A 
ATOM     28  C   UNL     1      -1.427  -5.813   4.496  1.00  0.00     0.010 A 
ATOM     29  C   UNL     1      -3.432  -7.090   4.054  1.00  0.00     0.010 A 
ATOM     30  C   UNL     1      -2.225  -6.933   4.765  1.00  0.00    -0.014 A 
BRANCH  30  31
ATOM     31  C   UNL     1      -1.734  -7.970   5.716  1.00  0.00     0.031 A 
ATOM     32  C   UNL     1      -1.372  -9.344   5.211  1.00  0.00     0.074 A 
ATOM     33  C   UNL     1      -1.544  -7.673   7.018  1.00  0.00     0.049 A 
ATOM     34  N   UNL     1      -0.997 -10.403   5.882  1.00  0.00    -0.248 NA
ATOM     35  C   UNL     1      -1.447  -9.554   3.756  1.00  0.00     0.031 C 
ATOM     36  C   UNL     1      -1.809  -6.372   7.636  1.00  0.00     0.029 A 
ATOM     37  N   UNL     1      -1.071  -8.441   8.054  1.00  0.00    -0.354 N 
ATOM     38  C   UNL     1      -0.828 -11.413   4.941  1.00  0.00     0.074 A 
ATOM     39  C   UNL     1      -1.157 -10.843   3.652  1.00  0.00     0.031 C 
ATOM     40  C   UNL     1      -1.472  -6.426   8.935  1.00  0.00     0.029 A 
ATOM     41  C   UNL     1      -1.021  -7.777   9.257  1.00  0.00     0.049 A 
ATOM     42  H   UNL     1      -0.794  -9.380   7.945  1.00  0.00     0.167 HD
ATOM     43  C   UNL     1      -0.430 -12.695   5.130  1.00  0.00     0.037 A 
ATOM     44  C   UNL     1      -0.675  -8.210  10.486  1.00  0.00     0.037 A 
ATOM     45  C   UNL     1      -0.064 -13.254   6.407  1.00  0.00     0.049 A 
ATOM     46  C   UNL     1      -0.244  -9.640  10.672  1.00  0.00     0.074 A 
ATOM     47  C   UNL     1       0.341 -14.546   6.699  1.00  0.00     0.029 A 
ATOM     48  N   UNL     1      -0.041 -12.551   7.602  1.00  0.00    -0.354 N 
ATOM     49  N   UNL     1      -0.144 -10.594   9.778  1.00  0.00    -0.248 NA
ATOM     50  C   UNL     1       0.116 -10.052  12.036  1.00  0.00     0.031 C 
ATOM     51  C   UNL     1       0.585 -14.630   8.075  1.00  0.00     0.029 A 
ATOM     52  C   UNL     1       0.371 -13.380   8.634  1.00  0.00     0.049 A 
ATOM     53  H   UNL     1      -0.282 -11.602   7.704  1.00  0.00     0.167 HD
ATOM     54  C   UNL     1       0.301 -11.717  10.470  1.00  0.00     0.074 A 
ATOM     55  C   UNL     1       0.475 -11.314  11.850  1.00  0.00     0.031 C 
ATOM     56  C   UNL     1       0.537 -12.969  10.005  1.00  0.00     0.037 A 
BRANCH  43  57
ATOM     57  C   UNL     1      -0.394 -13.593   3.923  1.00  0.00     0.058 A 
ATOM     58  C   UNL     1       0.593 -13.468   2.933  1.00  0.00     0.135 A 
ATOM     59  C   UNL     1      -1.353 -14.608   3.766  1.00  0.00     0.135 A 
ATOM     60  F   UNL     1       1.522 -12.503   3.023  1.00  0.00    -0.206 F 
ATOM     61  C   UNL     1       0.611 -14.297   1.815  1.00  0.00     0.059 A 
ATOM     62  C   UNL     1      -1.338 -15.466   2.670  1.00  0.00     0.059 A 
ATOM     63  F   UNL     1      -2.319 -14.773   4.683  1.00  0.00    -0.206 F 
ATOM     64  C   UNL     1      -0.361 -15.291   1.690  1.00  0.00     0.060 A 
BRANCH  64  65
ATOM     65  S   UNL     1      -0.330 -16.356   0.233  1.00  0.00     0.124 S 
ATOM     66  O   UNL     1      -0.848 -15.458  -0.794  1.00  0.00    -0.237 OA
ATOM     67  O   UNL     1       1.085 -16.695   0.122  1.00  0.00    -0.237 OA
ATOM     68  O   UNL     1      -1.208 -17.462   0.601  1.00  0.00    -0.744 OA
ENDBRANCH  64  65
ENDBRANCH  43  57
BRANCH  44  69
ATOM     69  C   UNL     1      -0.744  -7.281  11.647  1.00  0.00     0.058 A 
ATOM     70  C   UNL     1       0.419  -6.825  12.285  1.00  0.00     0.135 A 
ATOM     71  C   UNL     1      -1.979  -6.830  12.139  1.00  0.00     0.135 A 
ATOM     72  F   UNL     1       1.623  -7.239  11.861  1.00  0.00    -0.206 F 
ATOM     73  C   UNL     1       0.361  -5.963  13.376  1.00  0.00     0.059 A 
ATOM     74  C   UNL     1      -2.062  -5.947  13.210  1.00  0.00     0.059 A 
ATOM     75  F   UNL     1      -3.121  -7.230  11.557  1.00  0.00    -0.206 F 
ATOM     76  C   UNL     1      -0.885  -5.527  13.829  1.00  0.00     0.060 A 
BRANCH  76  77
ATOM     77  S   UNL     1      -0.953  -4.364  15.210  1.00  0.00     0.124 S 
ATOM     78  O   UNL     1      -0.695  -5.242  16.345  1.00  0.00    -0.237 OA
ATOM     79  O   UNL     1       0.112  -3.424  14.874  1.00  0.00    -0.237 OA
ATOM     80  O   UNL     1      -2.306  -3.823  15.123  1.00  0.00    -0.744 OA
ENDBRANCH  76  77
ENDBRANCH  44  69
BRANCH  56  81
ATOM     81  C   UNL     1       1.037 -13.982  10.998  1.00  0.00     0.058 A 
ATOM     82  C   UNL     1       0.198 -14.525  11.984  1.00  0.00     0.135 A 
ATOM     83  C   UNL     1       2.373 -14.413  10.964  1.00  0.00     0.135 A 
ATOM     84  F   UNL     1      -1.087 -14.144  12.061  1.00  0.00    -0.206 F 
ATOM     85  C   UNL     1       0.677 -15.426  12.930  1.00  0.00     0.059 A 
ATOM     86  C   UNL     1       2.867 -15.332  11.885  1.00  0.00     0.059 A 
ATOM     87  F   UNL     1       3.215 -13.936  10.033  1.00  0.00    -0.206 F 
ATOM     88  C   UNL     1       2.016 -15.816  12.878  1.00  0.00     0.060 A 
BRANCH  88  89
ATOM     89  S   UNL     1       2.635 -16.971  14.120  1.00  0.00     0.124 S 
ATOM     90  O   UNL     1       2.806 -16.096  15.275  1.00  0.00    -0.237 OA
ATOM     91  O   UNL     1       1.551 -17.944  14.216  1.00  0.00    -0.237 OA
ATOM     92  O   UNL     1       3.869 -17.477  13.526  1.00  0.00    -0.744 OA
ENDBRANCH  88  89
ENDBRANCH  56  81
ENDBRANCH  30  31
ENDBRANCH  23  25
ENDBRANCH  22  23
ENDBRANCH   1  22
TORSDOF 16
