REMARK SMILES O=C(OCCOC(=O)c1ccc2c(=O)n(CCc3c[nH]c4ccccc34)c(=O)[nH]c2c1)c1ccc(-c2c3nc(c(-c4c(F)cc(S(=O)(=O)[O-])cc4F)c4ccc([nH]4)c(-c4c(F)cc(S(=O)(=O)[O-])cc4F)c4nc(c(-c5c(F)cc(S(=O)(=O)[O-])cc5F)c5ccc2[nH]5)C=C4)C=C3)cc1
REMARK SMILES IDX 4 1 3 2 2 3 1 4 32 5 33 6 97 7 34 8 96 9 35 10 36 11 37 12
REMARK SMILES IDX 90 13 38 14 95 15 89 16 91 17 39 18 94 19 88 20 87 21 40 23
REMARK SMILES IDX 74 24 53 25 73 26 54 27 57 28 72 29 92 30 55 31 56 32 71 34
REMARK SMILES IDX 93 35 58 36 41 37 42 38 51 39 43 40 44 41 50 42 52 43 45 44
REMARK SMILES IDX 46 45 47 46 48 47 49 48 75 49 76 50 85 51 77 52 78 53 84 54
REMARK SMILES IDX 86 55 79 56 80 57 81 58 82 59 83 60 59 61 60 62 69 63 61 64
REMARK SMILES IDX 62 65 68 66 70 67 63 68 64 69 65 70 66 71 67 72 5 73 6 74
REMARK SMILES IDX 7 75 8 76 9 77 10 78 31 79 11 80 30 81 12 82 29 83 13 84
REMARK SMILES IDX 27 85 14 87 15 88 28 89 16 90 17 91 18 92 19 93 26 94 20 95
REMARK SMILES IDX 21 96 25 97 22 99 24 100 23 101
REMARK H PARENT 91 22 57 33 29 86 20 98
REMARK Flexibility Score: inf
ROOT
ATOM      1  C   UNL     1       4.436  -0.640  -1.023  1.00  0.00     0.275 C 
ENDROOT
BRANCH   1   2
ATOM      2  O   UNL     1       3.543  -1.214  -0.063  1.00  0.00    -0.458 OA
BRANCH   2   3
ATOM      3  C   UNL     1       3.504  -0.971   1.266  1.00  0.00     0.338 C 
ATOM      4  O   UNL     1       2.711  -1.587   1.975  1.00  0.00    -0.246 OA
BRANCH   3   5
ATOM      5  C   UNL     1       4.291   0.141   1.874  1.00  0.00     0.060 A 
ATOM      6  C   UNL     1       3.589   0.907   2.792  1.00  0.00     0.016 A 
ATOM      7  C   UNL     1       5.622   0.498   1.593  1.00  0.00     0.016 A 
ATOM      8  C   UNL     1       4.176   2.047   3.327  1.00  0.00     0.010 A 
ATOM      9  C   UNL     1       6.199   1.687   2.107  1.00  0.00     0.010 A 
ATOM     10  C   UNL     1       5.474   2.503   2.972  1.00  0.00    -0.014 A 
BRANCH  10  11
ATOM     11  C   UNL     1       6.014   3.714   3.689  1.00  0.00     0.031 A 
ATOM     12  C   UNL     1       6.246   5.086   3.077  1.00  0.00     0.074 A 
ATOM     13  C   UNL     1       5.973   3.643   5.032  1.00  0.00     0.049 A 
ATOM     14  N   UNL     1       5.933   6.255   3.591  1.00  0.00    -0.248 NA
ATOM     15  C   UNL     1       6.812   5.189   1.727  1.00  0.00     0.031 C 
ATOM     16  C   UNL     1       5.736   2.416   5.798  1.00  0.00     0.029 A 
ATOM     17  N   UNL     1       6.036   4.628   5.977  1.00  0.00    -0.354 N 
ATOM     18  C   UNL     1       6.016   7.177   2.546  1.00  0.00     0.074 A 
ATOM     19  C   UNL     1       6.531   6.454   1.405  1.00  0.00     0.031 C 
ATOM     20  C   UNL     1       5.596   2.732   7.088  1.00  0.00     0.029 A 
ATOM     21  C   UNL     1       5.866   4.155   7.251  1.00  0.00     0.049 A 
ATOM     22  H   UNL     1       6.187   5.577   5.764  1.00  0.00     0.167 HD
ATOM     23  C   UNL     1       5.681   8.493   2.558  1.00  0.00     0.037 A 
ATOM     24  C   UNL     1       5.993   4.780   8.434  1.00  0.00     0.037 A 
ATOM     25  C   UNL     1       5.627   9.264   3.777  1.00  0.00     0.049 A 
ATOM     26  C   UNL     1       6.217   6.255   8.441  1.00  0.00     0.074 A 
ATOM     27  C   UNL     1       5.548  10.638   3.932  1.00  0.00     0.029 A 
ATOM     28  N   UNL     1       5.819   8.733   5.044  1.00  0.00    -0.354 N 
ATOM     29  N   UNL     1       6.063   7.102   7.453  1.00  0.00    -0.248 NA
ATOM     30  C   UNL     1       6.659   6.858   9.700  1.00  0.00     0.031 C 
ATOM     31  C   UNL     1       5.851  10.939   5.267  1.00  0.00     0.029 A 
ATOM     32  C   UNL     1       6.027   9.751   5.959  1.00  0.00     0.049 A 
ATOM     33  H   UNL     1       5.808   7.773   5.261  1.00  0.00     0.167 HD
ATOM     34  C   UNL     1       6.396   8.346   7.968  1.00  0.00     0.074 A 
ATOM     35  C   UNL     1       6.741   8.139   9.362  1.00  0.00     0.031 C 
ATOM     36  C   UNL     1       6.412   9.545   7.335  1.00  0.00     0.037 A 
BRANCH  23  37
ATOM     37  C   UNL     1       5.474   9.234   1.258  1.00  0.00     0.058 A 
ATOM     38  C   UNL     1       4.205   9.274   0.652  1.00  0.00     0.135 A 
ATOM     39  C   UNL     1       6.478  10.037   0.697  1.00  0.00     0.135 A 
ATOM     40  F   UNL     1       3.188   8.563   1.164  1.00  0.00    -0.206 F 
ATOM     41  C   UNL     1       3.948  10.060  -0.474  1.00  0.00     0.059 A 
ATOM     42  C   UNL     1       6.244  10.837  -0.424  1.00  0.00     0.059 A 
ATOM     43  F   UNL     1       7.700  10.067   1.250  1.00  0.00    -0.206 F 
ATOM     44  C   UNL     1       4.978  10.835  -1.010  1.00  0.00     0.060 A 
BRANCH  44  45
ATOM     45  S   UNL     1       4.647  11.811  -2.499  1.00  0.00     0.124 S 
ATOM     46  O   UNL     1       4.343  10.766  -3.473  1.00  0.00    -0.237 OA
ATOM     47  O   UNL     1       3.521  12.640  -2.086  1.00  0.00    -0.237 OA
ATOM     48  O   UNL     1       5.901  12.524  -2.726  1.00  0.00    -0.744 OA
ENDBRANCH  44  45
ENDBRANCH  23  37
BRANCH  24  49
ATOM     49  C   UNL     1       6.073   3.934   9.648  1.00  0.00     0.058 A 
ATOM     50  C   UNL     1       5.099   3.965  10.648  1.00  0.00     0.135 A 
ATOM     51  C   UNL     1       7.099   2.972   9.749  1.00  0.00     0.135 A 
ATOM     52  F   UNL     1       4.111   4.870  10.598  1.00  0.00    -0.206 F 
ATOM     53  C   UNL     1       5.118   3.046  11.693  1.00  0.00     0.059 A 
ATOM     54  C   UNL     1       7.114   2.022  10.756  1.00  0.00     0.059 A 
ATOM     55  F   UNL     1       8.054   2.902   8.807  1.00  0.00    -0.206 F 
ATOM     56  C   UNL     1       6.118   2.068  11.725  1.00  0.00     0.060 A 
BRANCH  56  57
ATOM     57  S   UNL     1       6.079   0.822  13.029  1.00  0.00     0.124 S 
ATOM     58  O   UNL     1       6.410   1.621  14.203  1.00  0.00    -0.237 OA
ATOM     59  O   UNL     1       4.704   0.341  12.946  1.00  0.00    -0.237 OA
ATOM     60  O   UNL     1       7.098  -0.136  12.610  1.00  0.00    -0.744 OA
ENDBRANCH  56  57
ENDBRANCH  24  49
BRANCH  36  61
ATOM     61  C   UNL     1       6.868  10.738   8.121  1.00  0.00     0.058 A 
ATOM     62  C   UNL     1       8.221  10.909   8.453  1.00  0.00     0.135 A 
ATOM     63  C   UNL     1       5.970  11.757   8.472  1.00  0.00     0.135 A 
ATOM     64  F   UNL     1       9.117   9.956   8.154  1.00  0.00    -0.206 F 
ATOM     65  C   UNL     1       8.668  12.052   9.105  1.00  0.00     0.059 A 
ATOM     66  C   UNL     1       6.399  12.922   9.098  1.00  0.00     0.059 A 
ATOM     67  F   UNL     1       4.665  11.640   8.175  1.00  0.00    -0.206 F 
ATOM     68  C   UNL     1       7.751  13.060   9.411  1.00  0.00     0.060 A 
BRANCH  68  69
ATOM     69  S   UNL     1       8.364  14.569  10.187  1.00  0.00     0.124 S 
ATOM     70  O   UNL     1       8.761  14.083  11.504  1.00  0.00    -0.237 OA
ATOM     71  O   UNL     1       9.455  14.950   9.296  1.00  0.00    -0.237 OA
ATOM     72  O   UNL     1       7.205  15.456  10.169  1.00  0.00    -0.744 OA
ENDBRANCH  68  69
ENDBRANCH  36  61
ENDBRANCH  10  11
ENDBRANCH   3   5
ENDBRANCH   2   3
ENDBRANCH   1   2
BRANCH   1  73
ATOM     73  C   UNL     1       4.175   0.810  -1.446  1.00  0.00     0.275 C 
BRANCH  73  74
ATOM     74  O   UNL     1       3.858   1.760  -0.405  1.00  0.00    -0.458 OA
BRANCH  74  75
ATOM     75  C   UNL     1       2.520   1.971  -0.234  1.00  0.00     0.338 C 
ATOM     76  O   UNL     1       1.701   1.151  -0.652  1.00  0.00    -0.246 OA
BRANCH  75  77
ATOM     77  C   UNL     1       1.959   3.335   0.453  1.00  0.00     0.062 A 
ATOM     78  C   UNL     1       1.987   5.335   0.084  1.00  0.00     0.016 A 
ATOM     79  C   UNL     1       0.475   2.651   1.195  1.00  0.00     0.042 A 
ATOM     80  C   UNL     1       0.505   6.307   0.428  1.00  0.00     0.017 A 
ATOM     81  C   UNL     1      -0.851   3.704   1.491  1.00  0.00     0.056 A 
ATOM     82  C   UNL     1      -0.860   5.428   1.101  1.00  0.00     0.064 A 
ATOM     83  N   UNL     1      -1.868   3.246   2.324  1.00  0.00    -0.307 N 
ATOM     84  C   UNL     1      -2.018   6.060   1.670  1.00  0.00     0.264 A 
ATOM     85  C   UNL     1      -2.478   4.127   3.178  1.00  0.00     0.328 A 
ATOM     86  H   UNL     1      -2.145   2.301   2.299  1.00  0.00     0.171 HD
ATOM     87  O   UNL     1      -2.528   7.059   1.191  1.00  0.00    -0.268 OA
ATOM     88  N   UNL     1      -2.291   5.485   2.902  1.00  0.00    -0.260 N 
ATOM     89  O   UNL     1      -3.003   3.702   4.206  1.00  0.00    -0.248 OA
BRANCH  88  90
ATOM     90  C   UNL     1      -1.641   6.224   3.933  1.00  0.00     0.136 C 
BRANCH  90  91
ATOM     91  C   UNL     1      -0.181   5.792   4.130  1.00  0.00     0.060 C 
BRANCH  91  92
ATOM     92  C   UNL     1       0.890   5.366   3.091  1.00  0.00    -0.021 A 
ATOM     93  C   UNL     1       2.127   5.991   3.278  1.00  0.00     0.087 A 
ATOM     94  C   UNL     1       1.174   4.661   1.658  1.00  0.00     0.003 A 
ATOM     95  N   UNL     1       3.107   5.048   3.131  1.00  0.00    -0.361 N 
ATOM     96  C   UNL     1       2.938   4.632   1.836  1.00  0.00     0.046 A 
ATOM     97  C   UNL     1       0.478   4.282  -0.205  1.00  0.00     0.010 A 
ATOM     98  H   UNL     1       3.769   4.744   3.793  1.00  0.00     0.166 HD
ATOM     99  C   UNL     1       3.947   4.358   0.439  1.00  0.00     0.026 A 
ATOM    100  C   UNL     1       1.661   4.086  -1.565  1.00  0.00     0.001 A 
ATOM    101  C   UNL     1       3.346   4.158  -1.196  1.00  0.00     0.002 A 
ENDBRANCH  91  92
ENDBRANCH  90  91
ENDBRANCH  88  90
ENDBRANCH  75  77
ENDBRANCH  74  75
ENDBRANCH  73  74
ENDBRANCH   1  73
TORSDOF 17
