REMARK SMILES CC(=O)N[C@@H](Cc1c(OCC(C)C)ccc2ccccc12)C(=O)OCCOC(=O)c1ccc(-c2c3nc(c(-c4c(F)cc(S(=O)(=O)[O-])cc4F)c4ccc([nH]4)c(-c4c(F)cc(S(=O)(=O)[O-])cc4F)c4nc(c(-c5c(F)cc(S(=O)(=O)[O-])cc5F)c5ccc2[nH]5)C=C4)C=C3)cc1
REMARK SMILES IDX 25 1 24 2 22 3 23 4 5 5 4 6 1 7 2 8 3 9 6 11 7 12 8 13 21 14
REMARK SMILES IDX 14 15 16 16 20 17 15 18 17 19 19 20 18 21 9 22 10 23 11 24
REMARK SMILES IDX 12 25 13 26 26 27 27 28 28 29 29 30 30 31 31 32 95 33 32 34
REMARK SMILES IDX 94 35 33 36 34 37 35 38 88 39 36 40 93 41 87 42 89 43 37 44
REMARK SMILES IDX 92 45 86 46 85 47 38 49 72 50 51 51 71 52 52 53 55 54 70 55
REMARK SMILES IDX 90 56 53 57 54 58 69 60 91 61 56 62 39 63 40 64 49 65 41 66
REMARK SMILES IDX 42 67 48 68 50 69 43 70 44 71 45 72 46 73 47 74 73 75 74 76
REMARK SMILES IDX 83 77 75 78 76 79 82 80 84 81 77 82 78 83 79 84 80 85 81 86
REMARK SMILES IDX 57 87 58 88 67 89 59 90 60 91 66 92 68 93 61 94 62 95 63 96
REMARK SMILES IDX 64 97 65 98
REMARK H PARENT 4 10 89 48 55 59
REMARK Flexibility Score: inf
ROOT
ATOM      1  C   UNL     1      -0.962  -0.276  -5.598  1.00  0.00     0.274 C 
ENDROOT
BRANCH   1   2
ATOM      2  O   UNL     1      -0.183  -0.818  -4.512  1.00  0.00    -0.461 OA
BRANCH   2   3
ATOM      3  C   UNL     1       0.980  -0.170  -4.215  1.00  0.00     0.329 C 
ATOM      4  O   UNL     1       1.366   0.849  -4.780  1.00  0.00    -0.250 OA
BRANCH   3   5
ATOM      5  C   UNL     1       1.814  -0.882  -3.130  1.00  0.00     0.196 C 
BRANCH   5   6
ATOM      6  N   UNL     1       1.071  -1.888  -2.359  1.00  0.00    -0.343 N 
ATOM      7  C   UNL     1       0.964  -0.698  -0.188  1.00  0.00     0.114 C 
ATOM      8  C   UNL     1       0.627  -1.866  -1.073  1.00  0.00     0.217 C 
ATOM      9  O   UNL     1      -0.039  -2.813  -0.655  1.00  0.00    -0.275 OA
ATOM     10  H   UNL     1       0.860  -2.713  -2.853  1.00  0.00     0.164 HD
ENDBRANCH   5   6
BRANCH   5  11
ATOM     11  C   UNL     1       3.110  -1.464  -3.751  1.00  0.00     0.077 C 
BRANCH  11  12
ATOM     12  C   UNL     1       2.895  -2.791  -4.480  1.00  0.00     0.005 A 
ATOM     13  C   UNL     1       2.364  -2.759  -5.791  1.00  0.00     0.123 A 
ATOM     14  C   UNL     1       3.126  -4.048  -3.832  1.00  0.00    -0.011 A 
ATOM     15  C   UNL     1       1.915  -3.935  -6.380  1.00  0.00     0.047 A 
ATOM     16  C   UNL     1       2.729  -5.234  -4.498  1.00  0.00    -0.018 A 
ATOM     17  C   UNL     1       3.738  -4.206  -2.563  1.00  0.00     0.009 A 
ATOM     18  C   UNL     1       2.093  -5.157  -5.739  1.00  0.00     0.012 A 
ATOM     19  C   UNL     1       2.965  -6.493  -3.922  1.00  0.00     0.009 A 
ATOM     20  C   UNL     1       3.981  -5.465  -2.006  1.00  0.00     0.001 A 
ATOM     21  C   UNL     1       3.599  -6.610  -2.689  1.00  0.00     0.001 A 
BRANCH  13  22
ATOM     22  O   UNL     1       2.390  -1.543  -6.415  1.00  0.00    -0.493 OA
BRANCH  22  23
ATOM     23  C   UNL     1       1.681  -1.325  -7.631  1.00  0.00     0.232 C 
BRANCH  23  24
ATOM     24  C   UNL     1       2.585  -1.339  -8.874  1.00  0.00     0.020 C 
ATOM     25  C   UNL     1       3.209  -2.702  -9.162  1.00  0.00     0.011 C 
ATOM     26  C   UNL     1       1.780  -0.874 -10.089  1.00  0.00     0.011 C 
ENDBRANCH  23  24
ENDBRANCH  22  23
ENDBRANCH  13  22
ENDBRANCH  11  12
ENDBRANCH   5  11
ENDBRANCH   3   5
ENDBRANCH   2   3
ENDBRANCH   1   2
BRANCH   1  27
ATOM     27  C   UNL     1      -2.202   0.486  -5.127  1.00  0.00     0.275 C 
BRANCH  27  28
ATOM     28  O   UNL     1      -1.840   1.708  -4.462  1.00  0.00    -0.458 OA
BRANCH  28  29
ATOM     29  C   UNL     1      -1.629   1.550  -3.137  1.00  0.00     0.338 C 
ATOM     30  O   UNL     1      -1.792   0.533  -2.483  1.00  0.00    -0.246 OA
BRANCH  29  31
ATOM     31  C   UNL     1      -1.001   2.742  -2.558  1.00  0.00     0.060 A 
ATOM     32  C   UNL     1       0.221   2.542  -1.916  1.00  0.00     0.016 A 
ATOM     33  C   UNL     1      -1.666   3.963  -2.462  1.00  0.00     0.016 A 
ATOM     34  C   UNL     1       0.734   3.510  -1.072  1.00  0.00     0.010 A 
ATOM     35  C   UNL     1      -1.132   4.957  -1.634  1.00  0.00     0.010 A 
ATOM     36  C   UNL     1       0.035   4.707  -0.889  1.00  0.00    -0.014 A 
BRANCH  36  37
ATOM     37  C   UNL     1       0.457   5.594   0.218  1.00  0.00     0.031 A 
ATOM     38  C   UNL     1      -0.379   5.647   1.468  1.00  0.00     0.074 A 
ATOM     39  C   UNL     1       1.632   6.244   0.150  1.00  0.00     0.049 A 
ATOM     40  N   UNL     1      -0.225   6.385   2.536  1.00  0.00    -0.248 NA
ATOM     41  C   UNL     1      -1.545   4.749   1.522  1.00  0.00     0.031 C 
ATOM     42  C   UNL     1       2.561   6.193  -0.981  1.00  0.00     0.029 A 
ATOM     43  N   UNL     1       2.257   7.053   1.061  1.00  0.00    -0.354 N 
ATOM     44  C   UNL     1      -1.296   6.075   3.366  1.00  0.00     0.074 A 
ATOM     45  C   UNL     1      -2.093   5.082   2.681  1.00  0.00     0.031 C 
ATOM     46  C   UNL     1       3.648   6.924  -0.686  1.00  0.00     0.029 A 
ATOM     47  C   UNL     1       3.470   7.532   0.629  1.00  0.00     0.049 A 
ATOM     48  H   UNL     1       1.874   7.271   1.942  1.00  0.00     0.167 HD
ATOM     49  C   UNL     1      -1.587   6.579   4.589  1.00  0.00     0.037 A 
ATOM     50  C   UNL     1       4.328   8.382   1.223  1.00  0.00     0.037 A 
ATOM     51  C   UNL     1      -0.760   7.534   5.278  1.00  0.00     0.049 A 
ATOM     52  C   UNL     1       3.986   8.925   2.582  1.00  0.00     0.074 A 
ATOM     53  C   UNL     1      -0.970   8.134   6.506  1.00  0.00     0.029 A 
ATOM     54  N   UNL     1       0.453   8.011   4.801  1.00  0.00    -0.354 N 
ATOM     55  N   UNL     1       2.928   8.687   3.321  1.00  0.00    -0.248 NA
ATOM     56  C   UNL     1       4.949   9.855   3.184  1.00  0.00     0.031 C 
ATOM     57  C   UNL     1       0.111   8.988   6.764  1.00  0.00     0.029 A 
ATOM     58  C   UNL     1       1.006   8.895   5.710  1.00  0.00     0.049 A 
ATOM     59  H   UNL     1       0.860   7.757   3.941  1.00  0.00     0.167 HD
ATOM     60  C   UNL     1       3.099   9.435   4.479  1.00  0.00     0.074 A 
ATOM     61  C   UNL     1       4.374  10.114   4.351  1.00  0.00     0.031 C 
ATOM     62  C   UNL     1       2.276   9.557   5.551  1.00  0.00     0.037 A 
BRANCH  49  63
ATOM     63  C   UNL     1      -2.874   6.138   5.227  1.00  0.00     0.058 A 
ATOM     64  C   UNL     1      -3.027   4.863   5.793  1.00  0.00     0.135 A 
ATOM     65  C   UNL     1      -3.977   7.006   5.261  1.00  0.00     0.135 A 
ATOM     66  F   UNL     1      -2.012   3.985   5.765  1.00  0.00    -0.206 F 
ATOM     67  C   UNL     1      -4.238   4.454   6.346  1.00  0.00     0.059 A 
ATOM     68  C   UNL     1      -5.190   6.627   5.827  1.00  0.00     0.059 A 
ATOM     69  F   UNL     1      -3.886   8.235   4.726  1.00  0.00    -0.206 F 
ATOM     70  C   UNL     1      -5.316   5.341   6.351  1.00  0.00     0.060 A 
BRANCH  70  71
ATOM     71  S   UNL     1      -6.889   4.801   7.057  1.00  0.00     0.124 S 
ATOM     72  O   UNL     1      -7.424   3.978   5.977  1.00  0.00    -0.237 OA
ATOM     73  O   UNL     1      -6.468   4.080   8.254  1.00  0.00    -0.237 OA
ATOM     74  O   UNL     1      -7.597   6.054   7.301  1.00  0.00    -0.744 OA
ENDBRANCH  70  71
ENDBRANCH  49  63
BRANCH  50  75
ATOM     75  C   UNL     1       5.574   8.781   0.520  1.00  0.00     0.058 A 
ATOM     76  C   UNL     1       6.827   8.319   0.945  1.00  0.00     0.135 A 
ATOM     77  C   UNL     1       5.530   9.608  -0.613  1.00  0.00     0.135 A 
ATOM     78  F   UNL     1       6.921   7.532   2.027  1.00  0.00    -0.206 F 
ATOM     79  C   UNL     1       7.996   8.663   0.272  1.00  0.00     0.059 A 
ATOM     80  C   UNL     1       6.681   9.948  -1.315  1.00  0.00     0.059 A 
ATOM     81  F   UNL     1       4.352  10.065  -1.066  1.00  0.00    -0.206 F 
ATOM     82  C   UNL     1       7.911   9.476  -0.860  1.00  0.00     0.060 A 
BRANCH  82  83
ATOM     83  S   UNL     1       9.420   9.861  -1.776  1.00  0.00     0.124 S 
ATOM     84  O   UNL     1       9.994  10.924  -0.961  1.00  0.00    -0.237 OA
ATOM     85  O   UNL     1      10.131   8.586  -1.755  1.00  0.00    -0.237 OA
ATOM     86  O   UNL     1       8.919  10.266  -3.086  1.00  0.00    -0.744 OA
ENDBRANCH  82  83
ENDBRANCH  50  75
BRANCH  62  87
ATOM     87  C   UNL     1       2.748  10.444   6.664  1.00  0.00     0.058 A 
ATOM     88  C   UNL     1       2.700  11.842   6.556  1.00  0.00     0.135 A 
ATOM     89  C   UNL     1       3.248   9.889   7.852  1.00  0.00     0.135 A 
ATOM     90  F   UNL     1       2.234  12.417   5.436  1.00  0.00    -0.206 F 
ATOM     91  C   UNL     1       3.166  12.663   7.576  1.00  0.00     0.059 A 
ATOM     92  C   UNL     1       3.700  10.692   8.893  1.00  0.00     0.059 A 
ATOM     93  F   UNL     1       3.303   8.557   8.006  1.00  0.00    -0.206 F 
ATOM     94  C   UNL     1       3.673  12.078   8.738  1.00  0.00     0.060 A 
BRANCH  94  95
ATOM     95  S   UNL     1       4.284  13.147  10.058  1.00  0.00     0.124 S 
ATOM     96  O   UNL     1       5.620  13.476   9.571  1.00  0.00    -0.237 OA
ATOM     97  O   UNL     1       3.320  14.242  10.053  1.00  0.00    -0.237 OA
ATOM     98  O   UNL     1       4.238  12.285  11.236  1.00  0.00    -0.744 OA
ENDBRANCH  94  95
ENDBRANCH  62  87
ENDBRANCH  36  37
ENDBRANCH  29  31
ENDBRANCH  28  29
ENDBRANCH  27  28
ENDBRANCH   1  27
TORSDOF 20
