REMARK SMILES O=C(CO/N=C\c1ccccc1)Nc1ccccc1C(=O)OCCOC(=O)c1ccc(-c2c3nc(c(-c4c(F)cc(S(=O)(=O)[O-])cc4F)c4ccc([nH]4)c(-c4c(F)cc(S(=O)(=O)[O-])cc4F)c4nc(c(-c5c(F)cc(S(=O)(=O)[O-])cc5F)c5ccc2[nH]5)C=C4)C=C3)cc1
REMARK SMILES IDX 23 1 22 2 20 3 21 4 19 5 14 6 15 7 16 8 18 9 17 10 13 11
REMARK SMILES IDX 1 12 2 13 3 15 4 16 5 17 6 18 7 19 8 20 12 21 9 22 11 23
REMARK SMILES IDX 10 24 24 25 25 26 26 27 27 28 28 29 29 30 93 31 30 32 92 33
REMARK SMILES IDX 31 34 32 35 33 36 86 37 34 38 91 39 85 40 87 41 35 42 90 43
REMARK SMILES IDX 84 44 83 45 36 47 70 48 49 49 69 50 50 51 53 52 68 53 88 54
REMARK SMILES IDX 51 55 52 56 67 58 89 59 54 60 37 61 38 62 47 63 39 64 40 65
REMARK SMILES IDX 46 66 48 67 41 68 42 69 43 70 44 71 45 72 71 73 72 74 81 75
REMARK SMILES IDX 73 76 74 77 80 78 82 79 75 80 76 81 77 82 78 83 79 84 55 85
REMARK SMILES IDX 56 86 65 87 57 88 58 89 64 90 66 91 59 92 60 93 61 94 62 95
REMARK SMILES IDX 63 96
REMARK H PARENT 13 14 87 46 53 57
REMARK Flexibility Score: inf
ROOT
ATOM      1  C   UNL     1       0.590   2.206   1.241  1.00  0.00     0.275 C 
ENDROOT
BRANCH   1   2
ATOM      2  O   UNL     1       1.174   1.956  -0.052  1.00  0.00    -0.458 OA
BRANCH   2   3
ATOM      3  C   UNL     1       0.323   1.508  -1.020  1.00  0.00     0.340 C 
ATOM      4  O   UNL     1      -0.894   1.521  -0.976  1.00  0.00    -0.246 OA
BRANCH   3   5
ATOM      5  C   UNL     1       1.098   1.138  -2.234  1.00  0.00     0.083 A 
ATOM      6  C   UNL     1       2.325   0.452  -2.210  1.00  0.00     0.055 A 
ATOM      7  C   UNL     1       3.086   0.393  -3.390  1.00  0.00     0.027 A 
ATOM      8  C   UNL     1       2.600   0.925  -4.589  1.00  0.00     0.002 A 
ATOM      9  C   UNL     1       0.592   1.613  -3.458  1.00  0.00     0.018 A 
ATOM     10  C   UNL     1       1.342   1.515  -4.628  1.00  0.00     0.001 A 
BRANCH   6  11
ATOM     11  N   UNL     1       2.868  -0.210  -1.085  1.00  0.00    -0.322 N 
ATOM     12  O   UNL     1       0.921  -0.891  -0.007  1.00  0.00    -0.271 OA
ATOM     13  C   UNL     1       2.138  -0.731  -0.027  1.00  0.00     0.265 C 
ATOM     14  H   UNL     1       3.847  -0.310  -1.050  1.00  0.00     0.170 HD
BRANCH  13  15
ATOM     15  C   UNL     1       2.997  -1.058   1.183  1.00  0.00     0.363 C 
BRANCH  15  16
ATOM     16  O   UNL     1       4.028  -1.980   0.873  1.00  0.00    -0.386 OA
BRANCH  16  17
ATOM     17  N   UNL     1       3.441  -3.176   0.438  1.00  0.00    -0.094 NA
ATOM     18  C   UNL     1       4.321  -4.058   0.076  1.00  0.00     0.162 C 
BRANCH  18  19
ATOM     19  C   UNL     1       5.784  -3.961   0.195  1.00  0.00    -0.004 A 
ATOM     20  C   UNL     1       6.564  -4.369  -0.886  1.00  0.00     0.010 A 
ATOM     21  C   UNL     1       6.378  -3.518   1.380  1.00  0.00     0.010 A 
ATOM     22  C   UNL     1       7.954  -4.301  -0.789  1.00  0.00     0.001 A 
ATOM     23  C   UNL     1       7.766  -3.455   1.473  1.00  0.00     0.001 A 
ATOM     24  C   UNL     1       8.552  -3.844   0.387  1.00  0.00     0.000 A 
ENDBRANCH  18  19
ENDBRANCH  16  17
ENDBRANCH  15  16
ENDBRANCH  13  15
ENDBRANCH   6  11
ENDBRANCH   3   5
ENDBRANCH   2   3
ENDBRANCH   1   2
BRANCH   1  25
ATOM     25  C   UNL     1       0.699   3.682   1.609  1.00  0.00     0.275 C 
BRANCH  25  26
ATOM     26  O   UNL     1      -0.145   4.443   0.734  1.00  0.00    -0.458 OA
BRANCH  26  27
ATOM     27  C   UNL     1       0.488   5.245  -0.150  1.00  0.00     0.338 C 
ATOM     28  O   UNL     1       1.672   5.528  -0.198  1.00  0.00    -0.246 OA
BRANCH  27  29
ATOM     29  C   UNL     1      -0.501   5.674  -1.145  1.00  0.00     0.060 A 
ATOM     30  C   UNL     1      -0.901   4.749  -2.106  1.00  0.00     0.016 A 
ATOM     31  C   UNL     1      -0.989   6.976  -1.170  1.00  0.00     0.016 A 
ATOM     32  C   UNL     1      -1.770   5.118  -3.125  1.00  0.00     0.010 A 
ATOM     33  C   UNL     1      -1.911   7.333  -2.159  1.00  0.00     0.010 A 
ATOM     34  C   UNL     1      -2.299   6.411  -3.153  1.00  0.00    -0.014 A 
BRANCH  34  35
ATOM     35  C   UNL     1      -3.224   6.813  -4.243  1.00  0.00     0.031 A 
ATOM     36  C   UNL     1      -2.825   7.916  -5.182  1.00  0.00     0.074 A 
ATOM     37  C   UNL     1      -4.412   6.193  -4.394  1.00  0.00     0.049 A 
ATOM     38  N   UNL     1      -3.552   8.566  -6.052  1.00  0.00    -0.248 NA
ATOM     39  C   UNL     1      -1.421   8.356  -5.123  1.00  0.00     0.031 C 
ATOM     40  C   UNL     1      -4.890   5.067  -3.589  1.00  0.00     0.029 A 
ATOM     41  N   UNL     1      -5.437   6.426  -5.277  1.00  0.00    -0.354 N 
ATOM     42  C   UNL     1      -2.716   9.532  -6.597  1.00  0.00     0.074 A 
ATOM     43  C   UNL     1      -1.422   9.377  -5.969  1.00  0.00     0.031 C 
ATOM     44  C   UNL     1      -6.106   4.700  -4.022  1.00  0.00     0.029 A 
ATOM     45  C   UNL     1      -6.530   5.615  -5.075  1.00  0.00     0.049 A 
ATOM     46  H   UNL     1      -5.395   7.108  -5.986  1.00  0.00     0.167 HD
ATOM     47  C   UNL     1      -3.011  10.468  -7.530  1.00  0.00     0.037 A 
ATOM     48  C   UNL     1      -7.755   5.641  -5.634  1.00  0.00     0.037 A 
ATOM     49  C   UNL     1      -4.289  10.571  -8.186  1.00  0.00     0.049 A 
ATOM     50  C   UNL     1      -8.069   6.705  -6.649  1.00  0.00     0.074 A 
ATOM     51  C   UNL     1      -4.685  11.466  -9.164  1.00  0.00     0.029 A 
ATOM     52  N   UNL     1      -5.374   9.743  -7.938  1.00  0.00    -0.354 N 
ATOM     53  N   UNL     1      -7.289   7.650  -7.117  1.00  0.00    -0.248 NA
ATOM     54  C   UNL     1      -9.434   6.726  -7.191  1.00  0.00     0.031 C 
ATOM     55  C   UNL     1      -6.020  11.199  -9.484  1.00  0.00     0.029 A 
ATOM     56  C   UNL     1      -6.445  10.115  -8.732  1.00  0.00     0.049 A 
ATOM     57  H   UNL     1      -5.381   9.000  -7.292  1.00  0.00     0.167 HD
ATOM     58  C   UNL     1      -8.068   8.378  -8.008  1.00  0.00     0.074 A 
ATOM     59  C   UNL     1      -9.373   7.750  -8.032  1.00  0.00     0.031 C 
ATOM     60  C   UNL     1      -7.736   9.474  -8.735  1.00  0.00     0.037 A 
BRANCH  47  61
ATOM     61  C   UNL     1      -1.952  11.479  -7.865  1.00  0.00     0.058 A 
ATOM     62  C   UNL     1      -0.830  11.158  -8.642  1.00  0.00     0.135 A 
ATOM     63  C   UNL     1      -2.083  12.806  -7.422  1.00  0.00     0.135 A 
ATOM     64  F   UNL     1      -0.644   9.900  -9.074  1.00  0.00    -0.206 F 
ATOM     65  C   UNL     1       0.136  12.111  -8.953  1.00  0.00     0.059 A 
ATOM     66  C   UNL     1      -1.142  13.781  -7.739  1.00  0.00     0.059 A 
ATOM     67  F   UNL     1      -3.136  13.166  -6.671  1.00  0.00    -0.206 F 
ATOM     68  C   UNL     1      -0.028  13.420  -8.495  1.00  0.00     0.060 A 
BRANCH  68  69
ATOM     69  S   UNL     1       1.228  14.649  -8.911  1.00  0.00     0.124 S 
ATOM     70  O   UNL     1       2.312  14.273  -8.009  1.00  0.00    -0.237 OA
ATOM     71  O   UNL     1       1.464  14.389 -10.327  1.00  0.00    -0.237 OA
ATOM     72  O   UNL     1       0.574  15.918  -8.611  1.00  0.00    -0.744 OA
ENDBRANCH  68  69
ENDBRANCH  47  61
BRANCH  48  73
ATOM     73  C   UNL     1      -8.791   4.668  -5.195  1.00  0.00     0.058 A 
ATOM     74  C   UNL     1      -9.230   3.642  -6.043  1.00  0.00     0.135 A 
ATOM     75  C   UNL     1      -9.344   4.731  -3.905  1.00  0.00     0.135 A 
ATOM     76  F   UNL     1      -8.743   3.548  -7.290  1.00  0.00    -0.206 F 
ATOM     77  C   UNL     1     -10.183   2.714  -5.631  1.00  0.00     0.059 A 
ATOM     78  C   UNL     1     -10.277   3.800  -3.461  1.00  0.00     0.059 A 
ATOM     79  F   UNL     1      -8.951   5.689  -3.051  1.00  0.00    -0.206 F 
ATOM     80  C   UNL     1     -10.697   2.799  -4.335  1.00  0.00     0.060 A 
BRANCH  80  81
ATOM     81  S   UNL     1     -11.887   1.556  -3.785  1.00  0.00     0.124 S 
ATOM     82  O   UNL     1     -13.109   2.014  -4.437  1.00  0.00    -0.237 OA
ATOM     83  O   UNL     1     -11.310   0.321  -4.306  1.00  0.00    -0.237 OA
ATOM     84  O   UNL     1     -11.859   1.687  -2.332  1.00  0.00    -0.744 OA
ENDBRANCH  80  81
ENDBRANCH  48  73
BRANCH  60  85
ATOM     85  C   UNL     1      -8.798  10.053  -9.624  1.00  0.00     0.058 A 
ATOM     86  C   UNL     1      -9.848  10.821  -9.100  1.00  0.00     0.135 A 
ATOM     87  C   UNL     1      -8.732   9.885 -11.015  1.00  0.00     0.135 A 
ATOM     88  F   UNL     1      -9.958  11.003  -7.775  1.00  0.00    -0.206 F 
ATOM     89  C   UNL     1     -10.809  11.393  -9.927  1.00  0.00     0.059 A 
ATOM     90  C   UNL     1      -9.670  10.465 -11.863  1.00  0.00     0.059 A 
ATOM     91  F   UNL     1      -7.740   9.165 -11.564  1.00  0.00    -0.206 F 
ATOM     92  C   UNL     1     -10.710  11.210 -11.308  1.00  0.00     0.060 A 
BRANCH  92  93
ATOM     93  S   UNL     1     -11.938  11.991 -12.376  1.00  0.00     0.124 S 
ATOM     94  O   UNL     1     -13.090  11.116 -12.188  1.00  0.00    -0.237 OA
ATOM     95  O   UNL     1     -12.055  13.326 -11.798  1.00  0.00    -0.237 OA
ATOM     96  O   UNL     1     -11.320  11.940 -13.697  1.00  0.00    -0.744 OA
ENDBRANCH  92  93
ENDBRANCH  60  85
ENDBRANCH  34  35
ENDBRANCH  27  29
ENDBRANCH  26  27
ENDBRANCH  25  26
ENDBRANCH   1  25
TORSDOF 19
