REMARK SMILES [NH3+][C@H](CC[S@@](=O)[O-])C(=O)OCCOC(=O)c1ccc(-c2c3nc(c(-c4c(F)cc(S(=O)(=O)[O-])cc4F)c4ccc([nH]4)c(-c4c(F)cc(S(=O)(=O)[O-])cc4F)c4nc(c(-c5c(F)cc(S(=O)(=O)[O-])cc5F)c5ccc2[nH]5)C=C4)C=C3)cc1
REMARK SMILES IDX 11 1 10 2 8 3 9 4 2 5 1 6 3 10 4 11 5 12 6 13 7 14 12 15
REMARK SMILES IDX 13 16 14 17 15 18 16 19 17 20 81 21 18 22 80 23 19 24 20 25
REMARK SMILES IDX 21 26 74 27 22 28 79 29 73 30 75 31 23 32 78 33 72 34 71 35
REMARK SMILES IDX 24 37 58 38 37 39 57 40 38 41 41 42 56 43 76 44 39 45 40 46
REMARK SMILES IDX 55 48 77 49 42 50 25 51 26 52 35 53 27 54 28 55 34 56 36 57
REMARK SMILES IDX 29 58 30 59 31 60 32 61 33 62 59 63 60 64 69 65 61 66 62 67
REMARK SMILES IDX 68 68 70 69 63 70 64 71 65 72 66 73 67 74 43 75 44 76 53 77
REMARK SMILES IDX 45 78 46 79 52 80 54 81 47 82 48 83 49 84 50 85 51 86
REMARK H PARENT 1 7 1 8 1 9 75 36 41 47
REMARK Flexibility Score: inf
ROOT
ATOM      1  C   UNL     1      -2.950  -0.925   0.597  1.00  0.00     0.274 C 
ENDROOT
BRANCH   1   2
ATOM      2  O   UNL     1      -1.511  -0.888   0.688  1.00  0.00    -0.458 OA
BRANCH   2   3
ATOM      3  C   UNL     1      -0.847  -1.901   0.067  1.00  0.00     0.364 C 
ATOM      4  O   UNL     1      -1.405  -2.879  -0.420  1.00  0.00    -0.245 OA
BRANCH   3   5
ATOM      5  C   UNL     1       0.679  -1.638  -0.050  1.00  0.00     0.292 C 
BRANCH   5   6
ATOM      6  N   UNL     1       1.417  -2.907   0.027  1.00  0.00    -0.346 N 
ATOM      7  H   UNL     1       0.951  -3.607  -0.550  1.00  0.00     0.345 HD
ATOM      8  H   UNL     1       1.443  -3.227   0.995  1.00  0.00     0.345 HD
ATOM      9  H   UNL     1       2.369  -2.768  -0.311  1.00  0.00     0.345 HD
ENDBRANCH   5   6
BRANCH   5  10
ATOM     10  C   UNL     1       1.271  -0.485   0.775  1.00  0.00     0.090 C 
BRANCH  10  11
ATOM     11  C   UNL     1       1.710  -0.811   2.197  1.00  0.00     0.096 C 
BRANCH  11  12
ATOM     12  S   UNL     1       3.515  -1.129   2.287  1.00  0.00    -0.055 S 
ATOM     13  O   UNL     1       3.933  -1.058   3.722  1.00  0.00    -0.275 OA
ATOM     14  O   UNL     1       3.387  -2.698   1.983  1.00  0.00    -0.772 OA
ENDBRANCH  11  12
ENDBRANCH  10  11
ENDBRANCH   5  10
ENDBRANCH   3   5
ENDBRANCH   2   3
ENDBRANCH   1   2
BRANCH   1  15
ATOM     15  C   UNL     1      -3.471   0.147  -0.368  1.00  0.00     0.275 C 
BRANCH  15  16
ATOM     16  O   UNL     1      -3.089  -0.104  -1.734  1.00  0.00    -0.458 OA
BRANCH  16  17
ATOM     17  C   UNL     1      -1.901   0.433  -2.098  1.00  0.00     0.338 C 
ATOM     18  O   UNL     1      -1.136   1.071  -1.393  1.00  0.00    -0.246 OA
BRANCH  17  19
ATOM     19  C   UNL     1      -1.564   0.060  -3.480  1.00  0.00     0.060 A 
ATOM     20  C   UNL     1      -0.468  -0.780  -3.675  1.00  0.00     0.016 A 
ATOM     21  C   UNL     1      -2.211   0.637  -4.573  1.00  0.00     0.016 A 
ATOM     22  C   UNL     1       0.035  -0.998  -4.949  1.00  0.00     0.010 A 
ATOM     23  C   UNL     1      -1.733   0.378  -5.865  1.00  0.00     0.010 A 
ATOM     24  C   UNL     1      -0.592  -0.421  -6.059  1.00  0.00    -0.014 A 
BRANCH  24  25
ATOM     25  C   UNL     1      -0.014  -0.647  -7.406  1.00  0.00     0.031 A 
ATOM     26  C   UNL     1       0.634   0.486  -8.149  1.00  0.00     0.074 A 
ATOM     27  C   UNL     1      -0.015  -1.889  -7.929  1.00  0.00     0.049 A 
ATOM     28  N   UNL     1       1.117   0.505  -9.364  1.00  0.00    -0.248 NA
ATOM     29  C   UNL     1       0.759   1.765  -7.432  1.00  0.00     0.031 C 
ATOM     30  C   UNL     1      -0.555  -3.082  -7.272  1.00  0.00     0.029 A 
ATOM     31  N   UNL     1       0.467  -2.357  -9.124  1.00  0.00    -0.354 N 
ATOM     32  C   UNL     1       1.568   1.802  -9.573  1.00  0.00     0.074 A 
ATOM     33  C   UNL     1       1.303   2.543  -8.357  1.00  0.00     0.031 C 
ATOM     34  C   UNL     1      -0.352  -4.147  -8.062  1.00  0.00     0.029 A 
ATOM     35  C   UNL     1       0.273  -3.706  -9.303  1.00  0.00     0.049 A 
ATOM     36  H   UNL     1       0.910  -1.782  -9.789  1.00  0.00     0.167 HD
ATOM     37  C   UNL     1       2.148   2.325 -10.680  1.00  0.00     0.037 A 
ATOM     38  C   UNL     1       0.539  -4.493 -10.363  1.00  0.00     0.037 A 
ATOM     39  C   UNL     1       2.437   1.573 -11.873  1.00  0.00     0.049 A 
ATOM     40  C   UNL     1       1.146  -3.882 -11.592  1.00  0.00     0.074 A 
ATOM     41  C   UNL     1       3.009   2.014 -13.054  1.00  0.00     0.029 A 
ATOM     42  N   UNL     1       2.187   0.218 -12.032  1.00  0.00    -0.354 N 
ATOM     43  N   UNL     1       1.509  -2.639 -11.799  1.00  0.00    -0.248 NA
ATOM     44  C   UNL     1       1.362  -4.773 -12.740  1.00  0.00     0.031 C 
ATOM     45  C   UNL     1       3.084   0.929 -13.936  1.00  0.00     0.029 A 
ATOM     46  C   UNL     1       2.585  -0.193 -13.293  1.00  0.00     0.049 A 
ATOM     47  H   UNL     1       1.786  -0.366 -11.349  1.00  0.00     0.167 HD
ATOM     48  C   UNL     1       1.998  -2.598 -13.098  1.00  0.00     0.074 A 
ATOM     49  C   UNL     1       1.902  -3.945 -13.624  1.00  0.00     0.031 C 
ATOM     50  C   UNL     1       2.477  -1.539 -13.796  1.00  0.00     0.037 A 
BRANCH  37  51
ATOM     51  C   UNL     1       2.473   3.791 -10.661  1.00  0.00     0.058 A 
ATOM     52  C   UNL     1       3.579   4.296  -9.962  1.00  0.00     0.135 A 
ATOM     53  C   UNL     1       1.671   4.702 -11.368  1.00  0.00     0.135 A 
ATOM     54  F   UNL     1       4.366   3.470  -9.255  1.00  0.00    -0.206 F 
ATOM     55  C   UNL     1       3.866   5.658  -9.943  1.00  0.00     0.059 A 
ATOM     56  C   UNL     1       1.948   6.065 -11.378  1.00  0.00     0.059 A 
ATOM     57  F   UNL     1       0.598   4.269 -12.050  1.00  0.00    -0.206 F 
ATOM     58  C   UNL     1       3.040   6.536 -10.649  1.00  0.00     0.060 A 
BRANCH  58  59
ATOM     59  S   UNL     1       3.410   8.303 -10.609  1.00  0.00     0.124 S 
ATOM     60  O   UNL     1       2.894   8.677  -9.296  1.00  0.00    -0.237 OA
ATOM     61  O   UNL     1       4.863   8.325 -10.748  1.00  0.00    -0.237 OA
ATOM     62  O   UNL     1       2.668   8.830 -11.750  1.00  0.00    -0.744 OA
ENDBRANCH  58  59
ENDBRANCH  37  51
BRANCH  38  63
ATOM     63  C   UNL     1       0.194  -5.936 -10.312  1.00  0.00     0.058 A 
ATOM     64  C   UNL     1       1.190  -6.915 -10.203  1.00  0.00     0.135 A 
ATOM     65  C   UNL     1      -1.144  -6.360 -10.336  1.00  0.00     0.135 A 
ATOM     66  F   UNL     1       2.483  -6.557 -10.186  1.00  0.00    -0.206 F 
ATOM     67  C   UNL     1       0.874  -8.268 -10.122  1.00  0.00     0.059 A 
ATOM     68  C   UNL     1      -1.486  -7.704 -10.234  1.00  0.00     0.059 A 
ATOM     69  F   UNL     1      -2.134  -5.458 -10.427  1.00  0.00    -0.206 F 
ATOM     70  C   UNL     1      -0.468  -8.652 -10.135  1.00  0.00     0.060 A 
BRANCH  70  71
ATOM     71  S   UNL     1      -0.880 -10.402  -9.962  1.00  0.00     0.124 S 
ATOM     72  O   UNL     1      -0.657 -10.890 -11.318  1.00  0.00    -0.237 OA
ATOM     73  O   UNL     1       0.079 -10.851  -8.957  1.00  0.00    -0.237 OA
ATOM     74  O   UNL     1      -2.271 -10.374  -9.520  1.00  0.00    -0.744 OA
ENDBRANCH  70  71
ENDBRANCH  38  63
BRANCH  50  75
ATOM     75  C   UNL     1       2.943  -1.800 -15.197  1.00  0.00     0.058 A 
ATOM     76  C   UNL     1       2.030  -1.941 -16.254  1.00  0.00     0.135 A 
ATOM     77  C   UNL     1       4.313  -1.869 -15.493  1.00  0.00     0.135 A 
ATOM     78  F   UNL     1       0.710  -1.891 -16.017  1.00  0.00    -0.206 F 
ATOM     79  C   UNL     1       2.461  -2.155 -17.558  1.00  0.00     0.059 A 
ATOM     80  C   UNL     1       4.766  -2.066 -16.794  1.00  0.00     0.059 A 
ATOM     81  F   UNL     1       5.223  -1.734 -14.516  1.00  0.00    -0.206 F 
ATOM     82  C   UNL     1       3.832  -2.218 -17.818  1.00  0.00     0.060 A 
BRANCH  82  83
ATOM     83  S   UNL     1       4.385  -2.461 -19.519  1.00  0.00     0.124 S 
ATOM     84  O   UNL     1       4.200  -3.899 -19.685  1.00  0.00    -0.237 OA
ATOM     85  O   UNL     1       3.468  -1.613 -20.276  1.00  0.00    -0.237 OA
ATOM     86  O   UNL     1       5.771  -2.004 -19.491  1.00  0.00    -0.744 OA
ENDBRANCH  82  83
ENDBRANCH  50  75
ENDBRANCH  24  25
ENDBRANCH  17  19
ENDBRANCH  16  17
ENDBRANCH  15  16
ENDBRANCH   1  15
TORSDOF 18
