REMARK SMILES O=C1C[C@@H](c2cccc(O)c2)c2c(c(C(=O)OCCOC(=O)c3ccc(-c4c5nc(c(-c6c(F)cc(S(=O)(=O)[O-])cc6F)c6ccc([nH]6)c(-c6c(F)cc(S(=O)(=O)[O-])cc6F)c6nc(c(-c7c(F)cc(S(=O)(=O)[O-])cc7F)c7ccc4[nH]7)C=C6)C=C5)cc3)cn2-c2cccc(C(F)(F)F)c2)N1
REMARK SMILES IDX 19 1 18 2 17 3 15 4 16 5 14 6 1 7 2 8 3 9 101 10 4 11 13 12
REMARK SMILES IDX 12 14 90 15 89 16 5 17 6 18 11 19 7 20 9 21 8 22 10 23 91 25
REMARK SMILES IDX 92 26 100 27 93 28 95 29 94 30 96 31 97 32 98 33 99 34 20 35
REMARK SMILES IDX 21 36 22 37 23 38 24 39 88 40 25 41 87 42 26 43 27 44 28 45
REMARK SMILES IDX 81 46 29 47 86 48 80 49 82 50 30 51 85 52 79 53 78 54 31 56
REMARK SMILES IDX 65 57 44 58 64 59 45 60 48 61 63 62 83 63 46 64 47 65 62 67
REMARK SMILES IDX 84 68 49 69 32 70 33 71 42 72 34 73 35 74 41 75 43 76 36 77
REMARK SMILES IDX 37 78 38 79 39 80 40 81 66 82 67 83 76 84 68 85 69 86 75 87
REMARK SMILES IDX 77 88 70 89 71 90 72 91 73 92 74 93 50 94 51 95 60 96 52 97
REMARK SMILES IDX 53 98 59 99 61 100 54 101 55 102 56 103 57 104 58 105
REMARK H PARENT 101 13 10 24 82 55 48 66
REMARK Flexibility Score: inf
ROOT
ATOM      1  C   UNL     1       4.696  -5.655   2.968  1.00  0.00     0.275 C 
ENDROOT
BRANCH   1   2
ATOM      2  C   UNL     1       5.968  -5.129   2.313  1.00  0.00     0.275 C 
BRANCH   2   3
ATOM      3  O   UNL     1       6.058  -3.698   2.394  1.00  0.00    -0.458 OA
BRANCH   3   4
ATOM      4  C   UNL     1       5.429  -3.011   1.387  1.00  0.00     0.341 C 
ATOM      5  O   UNL     1       4.990  -3.517   0.373  1.00  0.00    -0.246 OA
BRANCH   4   6
ATOM      6  C   UNL     1       5.275  -1.595   1.695  1.00  0.00     0.102 A 
ATOM      7  O   UNL     1       1.788  -0.087  -1.208  1.00  0.00    -0.275 OA
ATOM      8  C   UNL     1       2.707   0.134  -0.421  1.00  0.00     0.225 C 
ATOM      9  C   UNL     1       3.235   1.542  -0.179  1.00  0.00     0.115 C 
ATOM     10  N   UNL     1       3.410  -0.896   0.151  1.00  0.00    -0.324 N 
ATOM     11  C   UNL     1       3.804   1.786   1.233  1.00  0.00     0.078 C 
ATOM     12  C   UNL     1       4.358  -0.687   1.123  1.00  0.00     0.078 A 
ATOM     13  H   UNL     1       3.229  -1.817  -0.145  1.00  0.00     0.170 HD
ATOM     14  C   UNL     1       4.517   0.550   1.708  1.00  0.00     0.055 A 
ATOM     15  N   UNL     1       5.508   0.435   2.668  1.00  0.00    -0.317 N 
ATOM     16  C   UNL     1       5.992  -0.861   2.622  1.00  0.00     0.109 A 
BRANCH  11  17
ATOM     17  C   UNL     1       2.717   2.305   2.156  1.00  0.00    -0.035 A 
ATOM     18  C   UNL     1       1.679   1.492   2.636  1.00  0.00     0.005 A 
ATOM     19  C   UNL     1       2.752   3.655   2.553  1.00  0.00     0.050 A 
ATOM     20  C   UNL     1       0.725   2.008   3.517  1.00  0.00     0.004 A 
ATOM     21  C   UNL     1       1.815   4.148   3.453  1.00  0.00     0.115 A 
ATOM     22  C   UNL     1       0.798   3.336   3.938  1.00  0.00     0.046 A 
BRANCH  21  23
ATOM     23  O   UNL     1       1.955   5.440   3.867  1.00  0.00    -0.508 OA
ATOM     24  H   UNL     1       1.342   5.806   4.474  1.00  0.00     0.293 HD
ENDBRANCH  21  23
ENDBRANCH  11  17
BRANCH  15  25
ATOM     25  C   UNL     1       6.020   1.422   3.545  1.00  0.00     0.046 A 
ATOM     26  C   UNL     1       7.406   1.576   3.660  1.00  0.00     0.026 A 
ATOM     27  C   UNL     1       5.162   2.185   4.342  1.00  0.00     0.039 A 
ATOM     28  C   UNL     1       7.928   2.544   4.517  1.00  0.00     0.003 A 
ATOM     29  C   UNL     1       5.679   3.154   5.217  1.00  0.00     0.058 A 
ATOM     30  C   UNL     1       7.070   3.335   5.282  1.00  0.00     0.013 A 
BRANCH  29  31
ATOM     31  C   UNL     1       4.775   3.990   6.093  1.00  0.00     0.416 C 
ATOM     32  F   UNL     1       5.154   3.951   7.403  1.00  0.00    -0.166 F 
ATOM     33  F   UNL     1       4.798   5.308   5.749  1.00  0.00    -0.166 F 
ATOM     34  F   UNL     1       3.469   3.614   6.079  1.00  0.00    -0.166 F 
ENDBRANCH  29  31
ENDBRANCH  15  25
ENDBRANCH   4   6
ENDBRANCH   3   4
ENDBRANCH   2   3
ENDBRANCH   1   2
BRANCH   1  35
ATOM     35  O   UNL     1       3.529  -5.382   2.191  1.00  0.00    -0.458 OA
BRANCH  35  36
ATOM     36  C   UNL     1       2.846  -4.275   2.563  1.00  0.00     0.338 C 
ATOM     37  O   UNL     1       3.274  -3.334   3.211  1.00  0.00    -0.246 OA
BRANCH  36  38
ATOM     38  C   UNL     1       1.427  -4.440   2.237  1.00  0.00     0.060 A 
ATOM     39  C   UNL     1       0.600  -3.316   2.326  1.00  0.00     0.016 A 
ATOM     40  C   UNL     1       0.900  -5.730   2.077  1.00  0.00     0.016 A 
ATOM     41  C   UNL     1      -0.768  -3.501   2.366  1.00  0.00     0.010 A 
ATOM     42  C   UNL     1      -0.464  -5.913   2.129  1.00  0.00     0.010 A 
ATOM     43  C   UNL     1      -1.284  -4.803   2.325  1.00  0.00    -0.014 A 
BRANCH  43  44
ATOM     44  C   UNL     1      -2.727  -4.971   2.321  1.00  0.00     0.031 A 
ATOM     45  C   UNL     1      -3.356  -4.486   1.065  1.00  0.00     0.074 A 
ATOM     46  C   UNL     1      -3.385  -5.638   3.290  1.00  0.00     0.049 A 
ATOM     47  N   UNL     1      -4.223  -3.541   0.924  1.00  0.00    -0.248 NA
ATOM     48  C   UNL     1      -2.828  -5.007  -0.210  1.00  0.00     0.031 C 
ATOM     49  C   UNL     1      -2.806  -6.390   4.407  1.00  0.00     0.029 A 
ATOM     50  N   UNL     1      -4.717  -5.888   3.419  1.00  0.00    -0.354 N 
ATOM     51  C   UNL     1      -4.528  -3.515  -0.434  1.00  0.00     0.074 A 
ATOM     52  C   UNL     1      -3.508  -4.281  -1.097  1.00  0.00     0.031 C 
ATOM     53  C   UNL     1      -3.753  -7.194   4.942  1.00  0.00     0.029 A 
ATOM     54  C   UNL     1      -5.024  -6.932   4.288  1.00  0.00     0.049 A 
ATOM     55  H   UNL     1      -5.406  -5.374   2.939  1.00  0.00     0.167 HD
ATOM     56  C   UNL     1      -5.750  -3.107  -0.869  1.00  0.00     0.037 A 
ATOM     57  C   UNL     1      -6.215  -7.582   4.394  1.00  0.00     0.037 A 
ATOM     58  C   UNL     1      -6.407  -2.293   0.122  1.00  0.00     0.049 A 
ATOM     59  C   UNL     1      -7.249  -6.707   3.779  1.00  0.00     0.074 A 
ATOM     60  C   UNL     1      -6.079  -1.123   0.782  1.00  0.00     0.029 A 
ATOM     61  N   UNL     1      -7.420  -2.864   0.852  1.00  0.00    -0.354 N 
ATOM     62  N   UNL     1      -7.625  -5.561   4.276  1.00  0.00    -0.248 NA
ATOM     63  C   UNL     1      -7.535  -6.894   2.364  1.00  0.00     0.031 C 
ATOM     64  C   UNL     1      -6.562  -1.301   2.111  1.00  0.00     0.029 A 
ATOM     65  C   UNL     1      -7.222  -2.529   2.167  1.00  0.00     0.049 A 
ATOM     66  H   UNL     1      -8.155  -3.413   0.496  1.00  0.00     0.167 HD
ATOM     67  C   UNL     1      -7.775  -4.731   3.174  1.00  0.00     0.074 A 
ATOM     68  C   UNL     1      -7.795  -5.630   2.022  1.00  0.00     0.031 C 
ATOM     69  C   UNL     1      -7.583  -3.383   3.276  1.00  0.00     0.037 A 
BRANCH  56  70
ATOM     70  C   UNL     1      -6.497  -3.787  -1.995  1.00  0.00     0.058 A 
ATOM     71  C   UNL     1      -7.710  -3.231  -2.450  1.00  0.00     0.135 A 
ATOM     72  C   UNL     1      -6.229  -5.103  -2.440  1.00  0.00     0.135 A 
ATOM     73  F   UNL     1      -8.075  -1.994  -2.080  1.00  0.00    -0.206 F 
ATOM     74  C   UNL     1      -8.620  -3.955  -3.221  1.00  0.00     0.059 A 
ATOM     75  C   UNL     1      -7.095  -5.820  -3.254  1.00  0.00     0.059 A 
ATOM     76  F   UNL     1      -5.164  -5.802  -2.030  1.00  0.00    -0.206 F 
ATOM     77  C   UNL     1      -8.308  -5.255  -3.605  1.00  0.00     0.060 A 
BRANCH  77  78
ATOM     78  S   UNL     1      -9.517  -6.228  -4.517  1.00  0.00     0.124 S 
ATOM     79  O   UNL     1     -10.538  -6.447  -3.500  1.00  0.00    -0.237 OA
ATOM     80  O   UNL     1      -9.876  -5.321  -5.602  1.00  0.00    -0.237 OA
ATOM     81  O   UNL     1      -8.760  -7.410  -4.920  1.00  0.00    -0.744 OA
ENDBRANCH  77  78
ENDBRANCH  56  70
BRANCH  57  82
ATOM     82  C   UNL     1      -6.460  -9.029   4.658  1.00  0.00     0.058 A 
ATOM     83  C   UNL     1      -7.756  -9.513   4.924  1.00  0.00     0.135 A 
ATOM     84  C   UNL     1      -5.487 -10.008   4.371  1.00  0.00     0.135 A 
ATOM     85  F   UNL     1      -8.755  -8.656   5.190  1.00  0.00    -0.206 F 
ATOM     86  C   UNL     1      -8.079 -10.874   4.852  1.00  0.00     0.059 A 
ATOM     87  C   UNL     1      -5.782 -11.369   4.308  1.00  0.00     0.059 A 
ATOM     88  F   UNL     1      -4.232  -9.666   4.047  1.00  0.00    -0.206 F 
ATOM     89  C   UNL     1      -7.086 -11.795   4.520  1.00  0.00     0.060 A 
BRANCH  89  90
ATOM     90  S   UNL     1      -7.527 -13.527   4.239  1.00  0.00     0.124 S 
ATOM     91  O   UNL     1      -7.834 -13.984   5.590  1.00  0.00    -0.237 OA
ATOM     92  O   UNL     1      -8.661 -13.415   3.330  1.00  0.00    -0.237 OA
ATOM     93  O   UNL     1      -6.315 -14.093   3.651  1.00  0.00    -0.744 OA
ENDBRANCH  89  90
ENDBRANCH  57  82
BRANCH  69  94
ATOM     94  C   UNL     1      -7.546  -2.767   4.650  1.00  0.00     0.058 A 
ATOM     95  C   UNL     1      -6.604  -3.070   5.649  1.00  0.00     0.135 A 
ATOM     96  C   UNL     1      -8.446  -1.722   4.916  1.00  0.00     0.135 A 
ATOM     97  F   UNL     1      -5.638  -3.976   5.438  1.00  0.00    -0.206 F 
ATOM     98  C   UNL     1      -6.596  -2.403   6.877  1.00  0.00     0.059 A 
ATOM     99  C   UNL     1      -8.433  -1.021   6.117  1.00  0.00     0.059 A 
ATOM    100  F   UNL     1      -9.331  -1.341   3.980  1.00  0.00    -0.206 F 
ATOM    101  C   UNL     1      -7.518  -1.381   7.102  1.00  0.00     0.060 A 
BRANCH 101 102
ATOM    102  S   UNL     1      -7.484  -0.488   8.671  1.00  0.00     0.124 S 
ATOM    103  O   UNL     1      -7.978  -1.492   9.606  1.00  0.00    -0.237 OA
ATOM    104  O   UNL     1      -6.074  -0.135   8.806  1.00  0.00    -0.237 OA
ATOM    105  O   UNL     1      -8.380   0.643   8.440  1.00  0.00    -0.744 OA
ENDBRANCH 101 102
ENDBRANCH  69  94
ENDBRANCH  43  44
ENDBRANCH  36  38
ENDBRANCH  35  36
ENDBRANCH   1  35
TORSDOF 18
