REMARK SMILES C/C(=N\Nc1nc(-c2ccc(Cl)cc2)cs1)c1nnn(-c2ccc(C(=O)OCCOC(=O)c3ccc(-c4c5nc(c(-c6c(F)cc(S(=O)(=O)[O-])cc6F)c6ccc([nH]6)c(-c6c(F)cc(S(=O)(=O)[O-])cc6F)c6nc(c(-c7c(F)cc(S(=O)(=O)[O-])cc7F)c7ccc4[nH]7)C=C6)C=C5)cc3)cc2)c1C
REMARK SMILES IDX 28 1 27 2 25 3 26 4 24 5 21 6 22 7 100 8 23 9 99 10 20 11
REMARK SMILES IDX 17 12 18 13 101 14 19 15 102 16 2 17 1 18 3 19 4 20 5 22
REMARK SMILES IDX 6 23 16 24 7 25 15 26 8 27 9 28 14 29 10 30 13 31 11 32
REMARK SMILES IDX 12 33 29 34 30 35 31 36 32 37 33 38 34 39 98 40 35 41 97 42
REMARK SMILES IDX 36 43 37 44 38 45 91 46 39 47 96 48 90 49 92 50 40 51 95 52
REMARK SMILES IDX 89 53 88 54 41 56 75 57 54 58 74 59 55 60 58 61 73 62 93 63
REMARK SMILES IDX 56 64 57 65 72 67 94 68 59 69 42 70 43 71 52 72 44 73 45 74
REMARK SMILES IDX 51 75 53 76 46 77 47 78 48 79 49 80 50 81 76 82 77 83 86 84
REMARK SMILES IDX 78 85 79 86 85 87 87 88 80 89 81 90 82 91 83 92 84 93 60 94
REMARK SMILES IDX 61 95 70 96 62 97 63 98 69 99 71 100 64 101 65 102 66 103
REMARK SMILES IDX 67 104 68 105
REMARK H PARENT 4 21 92 55 58 66
REMARK Flexibility Score: inf
ROOT
ATOM      1  C   UNL     1       9.240   3.947   6.140  1.00  0.00     0.275 C 
ENDROOT
BRANCH   1   2
ATOM      2  O   UNL     1       7.992   3.793   5.444  1.00  0.00    -0.458 OA
BRANCH   2   3
ATOM      3  C   UNL     1       7.142   2.840   5.928  1.00  0.00     0.338 C 
ATOM      4  O   UNL     1       7.408   1.977   6.729  1.00  0.00    -0.246 OA
BRANCH   3   5
ATOM      5  C   UNL     1       5.779   3.055   5.362  1.00  0.00     0.060 A 
ATOM      6  C   UNL     1       3.279   3.169   4.160  1.00  0.00     0.067 A 
ATOM      7  C   UNL     1       3.416   2.474   5.365  1.00  0.00     0.029 A 
ATOM      8  C   UNL     1       4.332   3.934   3.648  1.00  0.00     0.029 A 
ATOM      9  C   UNL     1       4.682   2.405   5.956  1.00  0.00     0.018 A 
ATOM     10  C   UNL     1       5.582   3.876   4.249  1.00  0.00     0.018 A 
BRANCH   6  11
ATOM     11  N   UNL     1       2.176   2.897   3.323  1.00  0.00    -0.217 N 
ATOM     12  C   UNL     1       0.966   2.046   1.722  1.00  0.00     0.132 A 
ATOM     13  N   UNL     1       0.148   2.339   2.775  1.00  0.00    -0.128 NA
ATOM     14  C   UNL     1       2.269   2.395   2.034  1.00  0.00     0.071 A 
ATOM     15  N   UNL     1       0.909   2.775   3.775  1.00  0.00    -0.061 NA
ATOM     16  C   UNL     1       3.542   2.091   1.325  1.00  0.00     0.069 C 
BRANCH  12  17
ATOM     17  C   UNL     1       0.579   1.253   0.566  1.00  0.00     0.087 C 
ATOM     18  C   UNL     1       1.251  -0.099   0.487  1.00  0.00     0.071 C 
ATOM     19  N   UNL     1      -0.209   1.831  -0.298  1.00  0.00    -0.176 NA
BRANCH  19  20
ATOM     20  N   UNL     1      -0.522   1.286  -1.522  1.00  0.00    -0.252 N 
ATOM     21  H   UNL     1      -0.829   1.936  -2.195  1.00  0.00     0.193 HD
BRANCH  20  22
ATOM     22  C   UNL     1      -0.479   0.001  -1.953  1.00  0.00     0.203 A 
ATOM     23  N   UNL     1      -0.698  -1.066  -1.222  1.00  0.00    -0.219 NA
ATOM     24  S   UNL     1       0.013  -0.359  -3.573  1.00  0.00    -0.103 S 
ATOM     25  C   UNL     1      -0.159  -2.183  -1.823  1.00  0.00     0.084 A 
ATOM     26  C   UNL     1       0.284  -1.995  -3.114  1.00  0.00     0.097 A 
BRANCH  25  27
ATOM     27  C   UNL     1      -0.006  -3.400  -1.049  1.00  0.00     0.001 A 
ATOM     28  C   UNL     1      -1.107  -3.912  -0.352  1.00  0.00     0.012 A 
ATOM     29  C   UNL     1       1.256  -3.985  -0.872  1.00  0.00     0.012 A 
ATOM     30  C   UNL     1      -0.958  -5.014   0.492  1.00  0.00     0.021 A 
ATOM     31  C   UNL     1       1.407  -5.081  -0.016  1.00  0.00     0.021 A 
ATOM     32  C   UNL     1       0.298  -5.593   0.658  1.00  0.00     0.041 A 
ATOM     33  Cl  UNL     1       0.487  -6.937   1.714  1.00  0.00    -0.084 Cl
ENDBRANCH  25  27
ENDBRANCH  20  22
ENDBRANCH  19  20
ENDBRANCH  12  17
ENDBRANCH   6  11
ENDBRANCH   3   5
ENDBRANCH   2   3
ENDBRANCH   1   2
BRANCH   1  34
ATOM     34  C   UNL     1       9.103   4.943   7.283  1.00  0.00     0.275 C 
BRANCH  34  35
ATOM     35  O   UNL     1       8.329   4.378   8.337  1.00  0.00    -0.458 OA
BRANCH  35  36
ATOM     36  C   UNL     1       7.005   4.643   8.287  1.00  0.00     0.338 C 
ATOM     37  O   UNL     1       6.396   5.178   7.373  1.00  0.00    -0.246 OA
BRANCH  36  38
ATOM     38  C   UNL     1       6.413   4.368   9.597  1.00  0.00     0.060 A 
ATOM     39  C   UNL     1       5.049   4.646   9.736  1.00  0.00     0.016 A 
ATOM     40  C   UNL     1       7.263   4.213  10.700  1.00  0.00     0.016 A 
ATOM     41  C   UNL     1       4.590   5.026  10.976  1.00  0.00     0.010 A 
ATOM     42  C   UNL     1       6.810   4.611  11.929  1.00  0.00     0.010 A 
ATOM     43  C   UNL     1       5.511   5.108  12.022  1.00  0.00    -0.014 A 
BRANCH  43  44
ATOM     44  C   UNL     1       5.092   5.738  13.252  1.00  0.00     0.031 A 
ATOM     45  C   UNL     1       4.238   4.875  14.095  1.00  0.00     0.074 A 
ATOM     46  C   UNL     1       5.600   6.928  13.623  1.00  0.00     0.049 A 
ATOM     47  N   UNL     1       3.016   5.066  14.466  1.00  0.00    -0.248 NA
ATOM     48  C   UNL     1       4.773   3.545  14.435  1.00  0.00     0.031 C 
ATOM     49  C   UNL     1       6.683   7.687  12.986  1.00  0.00     0.029 A 
ATOM     50  N   UNL     1       5.338   7.654  14.738  1.00  0.00    -0.354 N 
ATOM     51  C   UNL     1       2.713   3.981  15.281  1.00  0.00     0.074 A 
ATOM     52  C   UNL     1       3.732   2.992  15.054  1.00  0.00     0.031 C 
ATOM     53  C   UNL     1       7.136   8.622  13.850  1.00  0.00     0.029 A 
ATOM     54  C   UNL     1       6.303   8.603  15.040  1.00  0.00     0.049 A 
ATOM     55  H   UNL     1       4.531   7.519  15.286  1.00  0.00     0.167 HD
ATOM     56  C   UNL     1       1.815   4.085  16.296  1.00  0.00     0.037 A 
ATOM     57  C   UNL     1       6.454   9.229  16.234  1.00  0.00     0.037 A 
ATOM     58  C   UNL     1       0.935   5.210  16.119  1.00  0.00     0.049 A 
ATOM     59  C   UNL     1       5.165   9.084  16.968  1.00  0.00     0.074 A 
ATOM     60  C   UNL     1       0.049   5.595  15.130  1.00  0.00     0.029 A 
ATOM     61  N   UNL     1       1.165   6.337  16.871  1.00  0.00    -0.354 N 
ATOM     62  N   UNL     1       4.039   9.623  16.580  1.00  0.00    -0.248 NA
ATOM     63  C   UNL     1       5.025   7.959  17.882  1.00  0.00     0.031 C 
ATOM     64  C   UNL     1       0.168   7.013  15.054  1.00  0.00     0.029 A 
ATOM     65  C   UNL     1       1.085   7.417  16.026  1.00  0.00     0.049 A 
ATOM     66  H   UNL     1       1.353   6.365  17.837  1.00  0.00     0.167 HD
ATOM     67  C   UNL     1       3.063   8.677  16.867  1.00  0.00     0.074 A 
ATOM     68  C   UNL     1       3.719   7.715  17.749  1.00  0.00     0.031 C 
ATOM     69  C   UNL     1       1.906   8.604  16.143  1.00  0.00     0.037 A 
BRANCH  56  70
ATOM     70  C   UNL     1       2.003   3.385  17.619  1.00  0.00     0.058 A 
ATOM     71  C   UNL     1       0.939   3.336  18.536  1.00  0.00     0.135 A 
ATOM     72  C   UNL     1       3.268   3.002  18.127  1.00  0.00     0.135 A 
ATOM     73  F   UNL     1      -0.299   3.697  18.163  1.00  0.00    -0.206 F 
ATOM     74  C   UNL     1       1.128   2.994  19.875  1.00  0.00     0.059 A 
ATOM     75  C   UNL     1       3.467   2.596  19.438  1.00  0.00     0.059 A 
ATOM     76  F   UNL     1       4.393   3.103  17.408  1.00  0.00    -0.206 F 
ATOM     77  C   UNL     1       2.402   2.642  20.318  1.00  0.00     0.060 A 
BRANCH  77  78
ATOM     78  S   UNL     1       2.683   2.336  22.069  1.00  0.00     0.124 S 
ATOM     79  O   UNL     1       2.551   3.680  22.619  1.00  0.00    -0.237 OA
ATOM     80  O   UNL     1       1.610   1.402  22.390  1.00  0.00    -0.237 OA
ATOM     81  O   UNL     1       4.029   1.770  22.098  1.00  0.00    -0.744 OA
ENDBRANCH  77  78
ENDBRANCH  56  70
BRANCH  57  82
ATOM     82  C   UNL     1       7.742   9.559  16.903  1.00  0.00     0.058 A 
ATOM     83  C   UNL     1       7.792  10.424  18.010  1.00  0.00     0.135 A 
ATOM     84  C   UNL     1       8.924   8.837  16.630  1.00  0.00     0.135 A 
ATOM     85  F   UNL     1       6.705  11.126  18.365  1.00  0.00    -0.206 F 
ATOM     86  C   UNL     1       8.934  10.543  18.814  1.00  0.00     0.059 A 
ATOM     87  C   UNL     1      10.076   8.951  17.404  1.00  0.00     0.059 A 
ATOM     88  F   UNL     1       8.971   7.924  15.649  1.00  0.00    -0.206 F 
ATOM     89  C   UNL     1      10.068   9.790  18.509  1.00  0.00     0.060 A 
BRANCH  89  90
ATOM     90  S   UNL     1      11.492   9.824  19.623  1.00  0.00     0.124 S 
ATOM     91  O   UNL     1      12.000  11.177  19.422  1.00  0.00    -0.237 OA
ATOM     92  O   UNL     1      10.878   9.558  20.919  1.00  0.00    -0.237 OA
ATOM     93  O   UNL     1      12.349   8.756  19.112  1.00  0.00    -0.744 OA
ENDBRANCH  89  90
ENDBRANCH  57  82
BRANCH  69  94
ATOM     94  C   UNL     1       1.591   9.737  15.195  1.00  0.00     0.058 A 
ATOM     95  C   UNL     1       2.347  10.026  14.044  1.00  0.00     0.135 A 
ATOM     96  C   UNL     1       0.393  10.445  15.362  1.00  0.00     0.135 A 
ATOM     97  F   UNL     1       3.446   9.321  13.748  1.00  0.00    -0.206 F 
ATOM     98  C   UNL     1       1.953  11.000  13.125  1.00  0.00     0.059 A 
ATOM     99  C   UNL     1      -0.036  11.401  14.442  1.00  0.00     0.059 A 
ATOM    100  F   UNL     1      -0.410  10.169  16.403  1.00  0.00    -0.206 F 
ATOM    101  C   UNL     1       0.756  11.682  13.331  1.00  0.00     0.060 A 
BRANCH 101 102
ATOM    102  S   UNL     1       0.204  12.876  12.093  1.00  0.00     0.124 S 
ATOM    103  O   UNL     1       1.123  13.988  12.306  1.00  0.00    -0.237 OA
ATOM    104  O   UNL     1       0.377  12.142  10.842  1.00  0.00    -0.237 OA
ATOM    105  O   UNL     1      -1.186  13.135  12.464  1.00  0.00    -0.744 OA
ENDBRANCH 101 102
ENDBRANCH  69  94
ENDBRANCH  43  44
ENDBRANCH  36  38
ENDBRANCH  35  36
ENDBRANCH  34  35
ENDBRANCH   1  34
TORSDOF 19
