REMARK SMILES Cc1ccc(NS(=O)(=O)N2CCCC[C@@H]2C(=O)OCCOC(=O)c2ccc(-c3c4nc(c(-c5c(F)cc(S(=O)(=O)[O-])cc5F)c5ccc([nH]5)c(-c5c(F)cc(S(=O)(=O)[O-])cc5F)c5nc(c(-c6c(F)cc(S(=O)(=O)[O-])cc6F)c6ccc3[nH]6)C=C5)C=C4)cc2)c(C)n1
REMARK SMILES IDX 19 1 18 2 16 3 17 4 15 5 10 6 11 7 12 8 14 9 13 10 7 11 8 12
REMARK SMILES IDX 9 13 6 14 5 16 1 17 2 18 3 19 92 20 4 21 90 22 91 23 20 24
REMARK SMILES IDX 21 25 22 26 23 27 24 28 25 29 89 30 26 31 88 32 27 33 28 34
REMARK SMILES IDX 29 35 82 36 30 37 87 38 81 39 83 40 31 41 86 42 80 43 79 44
REMARK SMILES IDX 32 46 66 47 45 48 65 49 46 50 49 51 64 52 84 53 47 54 48 55
REMARK SMILES IDX 63 57 85 58 50 59 33 60 34 61 43 62 35 63 36 64 42 65 44 66
REMARK SMILES IDX 37 67 38 68 39 69 40 70 41 71 67 72 68 73 77 74 69 75 70 76
REMARK SMILES IDX 76 77 78 78 71 79 72 80 73 81 74 82 75 83 51 84 52 85 61 86
REMARK SMILES IDX 53 87 54 88 60 89 62 90 55 91 56 92 57 93 58 94 59 95
REMARK H PARENT 6 15 83 45 49 56
REMARK Flexibility Score: inf
ROOT
ATOM      1  C   UNL     1       0.004  -0.462  -2.447  1.00  0.00     0.274 C 
ENDROOT
BRANCH   1   2
ATOM      2  O   UNL     1       0.977   0.464  -1.920  1.00  0.00    -0.461 OA
BRANCH   2   3
ATOM      3  C   UNL     1       2.267   0.024  -1.883  1.00  0.00     0.324 C 
ATOM      4  O   UNL     1       2.617  -1.071  -2.314  1.00  0.00    -0.250 OA
BRANCH   3   5
ATOM      5  C   UNL     1       3.252   1.025  -1.261  1.00  0.00     0.184 C 
ATOM      6  N   UNL     1       3.696   0.816   0.158  1.00  0.00    -0.170 NA
ATOM      7  C   UNL     1       4.880   1.682   0.449  1.00  0.00     0.105 C 
ATOM      8  C   UNL     1       4.455   3.145   0.386  1.00  0.00     0.017 C 
ATOM      9  C   UNL     1       2.764   2.483  -1.389  1.00  0.00     0.032 C 
ATOM     10  C   UNL     1       3.833   3.493  -0.962  1.00  0.00     0.004 C 
BRANCH   6  11
ATOM     11  S   UNL     1       3.902  -0.763   0.704  1.00  0.00     0.302 S 
ATOM     12  O   UNL     1       4.240  -0.726   2.111  1.00  0.00    -0.189 OA
ATOM     13  O   UNL     1       4.765  -1.443  -0.223  1.00  0.00    -0.189 OA
BRANCH  11  14
ATOM     14  N   UNL     1       2.405  -1.433   0.575  1.00  0.00    -0.269 N 
ATOM     15  H   UNL     1       2.376  -2.286   0.085  1.00  0.00     0.181 HD
BRANCH  14  16
ATOM     16  C   UNL     1       1.138  -0.975   1.060  1.00  0.00     0.071 A 
ATOM     17  C   UNL     1      -2.761   0.620   0.630  1.00  0.00     0.067 C 
ATOM     18  C   UNL     1      -1.476  -0.053   1.003  1.00  0.00     0.038 A 
ATOM     19  C   UNL     1      -1.237  -1.371   0.665  1.00  0.00     0.026 A 
ATOM     20  N   UNL     1      -0.509   0.738   1.505  1.00  0.00    -0.256 NA
ATOM     21  C   UNL     1       0.080  -1.825   0.691  1.00  0.00     0.030 A 
ATOM     22  C   UNL     1       0.776   0.278   1.567  1.00  0.00     0.062 A 
ATOM     23  C   UNL     1       1.680   1.286   2.192  1.00  0.00     0.069 C 
ENDBRANCH  14  16
ENDBRANCH  11  14
ENDBRANCH   6  11
ENDBRANCH   3   5
ENDBRANCH   2   3
ENDBRANCH   1   2
BRANCH   1  24
ATOM     24  C   UNL     1      -0.418  -0.164  -3.885  1.00  0.00     0.275 C 
BRANCH  24  25
ATOM     25  O   UNL     1       0.680  -0.285  -4.794  1.00  0.00    -0.458 OA
BRANCH  25  26
ATOM     26  C   UNL     1       1.383   0.858  -4.949  1.00  0.00     0.338 C 
ATOM     27  O   UNL     1       1.137   1.953  -4.473  1.00  0.00    -0.246 OA
BRANCH  26  28
ATOM     28  C   UNL     1       2.634   0.557  -5.643  1.00  0.00     0.060 A 
ATOM     29  C   UNL     1       3.816   0.705  -4.918  1.00  0.00     0.016 A 
ATOM     30  C   UNL     1       2.655   0.230  -6.994  1.00  0.00     0.016 A 
ATOM     31  C   UNL     1       5.042   0.543  -5.531  1.00  0.00     0.010 A 
ATOM     32  C   UNL     1       3.890   0.071  -7.620  1.00  0.00     0.010 A 
ATOM     33  C   UNL     1       5.082   0.247  -6.893  1.00  0.00    -0.014 A 
BRANCH  33  34
ATOM     34  C   UNL     1       6.383   0.265  -7.583  1.00  0.00     0.031 A 
ATOM     35  C   UNL     1       6.676   1.406  -8.508  1.00  0.00     0.074 A 
ATOM     36  C   UNL     1       7.284  -0.702  -7.339  1.00  0.00     0.049 A 
ATOM     37  N   UNL     1       7.645   1.543  -9.370  1.00  0.00    -0.248 NA
ATOM     38  C   UNL     1       5.742   2.546  -8.463  1.00  0.00     0.031 C 
ATOM     39  C   UNL     1       7.117  -1.791  -6.372  1.00  0.00     0.029 A 
ATOM     40  N   UNL     1       8.515  -0.930  -7.891  1.00  0.00    -0.354 N 
ATOM     41  C   UNL     1       7.423   2.765  -9.992  1.00  0.00     0.074 A 
ATOM     42  C   UNL     1       6.215   3.323  -9.427  1.00  0.00     0.031 C 
ATOM     43  C   UNL     1       8.202  -2.581  -6.412  1.00  0.00     0.029 A 
ATOM     44  C   UNL     1       9.100  -2.094  -7.453  1.00  0.00     0.049 A 
ATOM     45  H   UNL     1       8.940  -0.321  -8.537  1.00  0.00     0.167 HD
ATOM     46  C   UNL     1       8.174   3.361 -10.946  1.00  0.00     0.037 A 
ATOM     47  C   UNL     1      10.208  -2.718  -7.893  1.00  0.00     0.037 A 
ATOM     48  C   UNL     1       9.379   2.777 -11.471  1.00  0.00     0.049 A 
ATOM     49  C   UNL     1      10.972  -2.083  -9.025  1.00  0.00     0.074 A 
ATOM     50  C   UNL     1      10.209   3.254 -12.467  1.00  0.00     0.029 A 
ATOM     51  N   UNL     1       9.933   1.584 -11.022  1.00  0.00    -0.354 N 
ATOM     52  N   UNL     1      10.725  -0.960  -9.660  1.00  0.00    -0.248 NA
ATOM     53  C   UNL     1      12.158  -2.799  -9.508  1.00  0.00     0.031 C 
ATOM     54  C   UNL     1      11.246   2.332 -12.645  1.00  0.00     0.029 A 
ATOM     55  C   UNL     1      11.091   1.306 -11.724  1.00  0.00     0.049 A 
ATOM     56  H   UNL     1       9.556   1.019 -10.309  1.00  0.00     0.167 HD
ATOM     57  C   UNL     1      11.743  -0.819 -10.595  1.00  0.00     0.074 A 
ATOM     58  C   UNL     1      12.615  -1.966 -10.431  1.00  0.00     0.031 C 
ATOM     59  C   UNL     1      11.944   0.163 -11.509  1.00  0.00     0.037 A 
BRANCH  46  60
ATOM     60  C   UNL     1       7.700   4.679 -11.490  1.00  0.00     0.058 A 
ATOM     61  C   UNL     1       7.746   5.854 -10.723  1.00  0.00     0.135 A 
ATOM     62  C   UNL     1       7.216   4.776 -12.805  1.00  0.00     0.135 A 
ATOM     63  F   UNL     1       8.171   5.816  -9.450  1.00  0.00    -0.206 F 
ATOM     64  C   UNL     1       7.315   7.075 -11.235  1.00  0.00     0.059 A 
ATOM     65  C   UNL     1       6.806   5.991 -13.347  1.00  0.00     0.059 A 
ATOM     66  F   UNL     1       7.138   3.682 -13.579  1.00  0.00    -0.206 F 
ATOM     67  C   UNL     1       6.851   7.134 -12.550  1.00  0.00     0.060 A 
BRANCH  67  68
ATOM     68  S   UNL     1       6.322   8.731 -13.204  1.00  0.00     0.124 S 
ATOM     69  O   UNL     1       5.082   8.953 -12.466  1.00  0.00    -0.237 OA
ATOM     70  O   UNL     1       7.438   9.599 -12.845  1.00  0.00    -0.237 OA
ATOM     71  O   UNL     1       6.162   8.478 -14.633  1.00  0.00    -0.744 OA
ENDBRANCH  67  68
ENDBRANCH  46  60
BRANCH  47  72
ATOM     72  C   UNL     1      10.625  -4.023  -7.312  1.00  0.00     0.058 A 
ATOM     73  C   UNL     1      11.831  -4.150  -6.608  1.00  0.00     0.135 A 
ATOM     74  C   UNL     1       9.841  -5.177  -7.474  1.00  0.00     0.135 A 
ATOM     75  F   UNL     1      12.618  -3.079  -6.427  1.00  0.00    -0.206 F 
ATOM     76  C   UNL     1      12.264  -5.379  -6.119  1.00  0.00     0.059 A 
ATOM     77  C   UNL     1      10.236  -6.410  -6.965  1.00  0.00     0.059 A 
ATOM     78  F   UNL     1       8.669  -5.112  -8.125  1.00  0.00    -0.206 F 
ATOM     79  C   UNL     1      11.462  -6.505  -6.309  1.00  0.00     0.060 A 
BRANCH  79  80
ATOM     80  S   UNL     1      12.040  -8.098  -5.685  1.00  0.00     0.124 S 
ATOM     81  O   UNL     1      13.103  -8.414  -6.631  1.00  0.00    -0.237 OA
ATOM     82  O   UNL     1      12.468  -7.761  -4.331  1.00  0.00    -0.237 OA
ATOM     83  O   UNL     1      10.851  -8.942  -5.767  1.00  0.00    -0.744 OA
ENDBRANCH  79  80
ENDBRANCH  47  72
BRANCH  59  84
ATOM     84  C   UNL     1      13.183   0.064 -12.352  1.00  0.00     0.058 A 
ATOM     85  C   UNL     1      13.303  -0.882 -13.381  1.00  0.00     0.135 A 
ATOM     86  C   UNL     1      14.241   0.966 -12.156  1.00  0.00     0.135 A 
ATOM     87  F   UNL     1      12.322  -1.771 -13.601  1.00  0.00    -0.206 F 
ATOM     88  C   UNL     1      14.445  -0.948 -14.171  1.00  0.00     0.059 A 
ATOM     89  C   UNL     1      15.377   0.939 -12.955  1.00  0.00     0.059 A 
ATOM     90  F   UNL     1      14.166   1.897 -11.192  1.00  0.00    -0.206 F 
ATOM     91  C   UNL     1      15.474  -0.030 -13.952  1.00  0.00     0.060 A 
BRANCH  91  92
ATOM     92  S   UNL     1      16.933  -0.102 -15.011  1.00  0.00     0.124 S 
ATOM     93  O   UNL     1      17.599  -1.301 -14.513  1.00  0.00    -0.237 OA
ATOM     94  O   UNL     1      16.345  -0.210 -16.343  1.00  0.00    -0.237 OA
ATOM     95  O   UNL     1      17.616   1.158 -14.735  1.00  0.00    -0.744 OA
ENDBRANCH  91  92
ENDBRANCH  59  84
ENDBRANCH  33  34
ENDBRANCH  26  28
ENDBRANCH  25  26
ENDBRANCH  24  25
ENDBRANCH   1  24
TORSDOF 17
