REMARK SMILES O=C1C[C@H](c2cn[nH]c2C(=O)OCCOC(=O)c2ccc(-c3c4nc(c(-c5c(F)cc(S(=O)(=O)[O-])cc5F)c5ccc([nH]5)c(-c5c(F)cc(S(=O)(=O)[O-])cc5F)c5nc(c(-c6c(F)cc(S(=O)(=O)[O-])cc6F)c6ccc3[nH]6)C=C5)C=C4)cc2)c2c(-c3cccs3)n[nH]c2N1
REMARK SMILES IDX 14 1 13 2 12 3 10 4 11 5 9 6 5 7 6 8 7 9 8 10 4 12 1 13 2 14
REMARK SMILES IDX 3 15 94 16 93 17 84 19 92 20 85 21 91 22 86 24 87 25 90 26
REMARK SMILES IDX 88 27 89 28 15 29 16 30 17 31 18 32 19 33 83 34 20 35 82 36
REMARK SMILES IDX 21 37 22 38 23 39 76 40 24 41 81 42 75 43 77 44 25 45 80 46
REMARK SMILES IDX 74 47 73 48 26 50 60 51 39 52 59 53 40 54 43 55 58 56 78 57
REMARK SMILES IDX 41 58 42 59 57 61 79 62 44 63 27 64 28 65 37 66 29 67 30 68
REMARK SMILES IDX 36 69 38 70 31 71 32 72 33 73 34 74 35 75 61 76 62 77 71 78
REMARK SMILES IDX 63 79 64 80 70 81 72 82 65 83 66 84 67 85 68 86 69 87 45 88
REMARK SMILES IDX 46 89 55 90 47 91 48 92 54 93 56 94 49 95 50 96 51 97 52 98
REMARK SMILES IDX 53 99
REMARK H PARENT 8 11 94 18 92 23 77 49 43 60
REMARK Flexibility Score: inf
ROOT
ATOM      1  C   UNL     1       5.802  -2.947  -2.128  1.00  0.00     0.275 C 
ENDROOT
BRANCH   1   2
ATOM      2  C   UNL     1       6.860  -1.927  -1.776  1.00  0.00     0.275 C 
BRANCH   2   3
ATOM      3  O   UNL     1       6.215  -0.652  -1.628  1.00  0.00    -0.457 OA
BRANCH   3   4
ATOM      4  C   UNL     1       6.345   0.256  -2.621  1.00  0.00     0.356 C 
ATOM      5  O   UNL     1       7.050   0.116  -3.597  1.00  0.00    -0.244 OA
BRANCH   4   6
ATOM      6  C   UNL     1       5.513   1.415  -2.384  1.00  0.00     0.147 A 
ATOM      7  C   UNL     1       4.675   1.919  -1.385  1.00  0.00     0.013 A 
ATOM      8  C   UNL     1       4.263   3.179  -1.922  1.00  0.00     0.140 A 
ATOM      9  N   UNL     1       4.750   3.433  -3.131  1.00  0.00    -0.183 NA
ATOM     10  N   UNL     1       5.448   2.330  -3.409  1.00  0.00    -0.271 N 
ATOM     11  H   UNL     1       5.883   2.182  -4.280  1.00  0.00     0.190 HD
BRANCH   7  12
ATOM     12  C   UNL     1       4.208   1.478  -0.004  1.00  0.00     0.069 C 
ATOM     13  O   UNL     1       0.982  -0.374  -0.348  1.00  0.00    -0.275 OA
ATOM     14  C   UNL     1       2.147  -0.138  -0.025  1.00  0.00     0.226 C 
ATOM     15  C   UNL     1       2.670   1.293   0.067  1.00  0.00     0.114 C 
ATOM     16  N   UNL     1       2.947  -1.156   0.434  1.00  0.00    -0.311 N 
ATOM     17  C   UNL     1       4.237  -0.885   0.790  1.00  0.00     0.132 A 
ATOM     18  H   UNL     1       2.594  -2.072   0.506  1.00  0.00     0.171 HD
ATOM     19  C   UNL     1       4.878   0.315   0.628  1.00  0.00     0.031 A 
ATOM     20  N   UNL     1       5.151  -1.762   1.282  1.00  0.00    -0.262 N 
ATOM     21  C   UNL     1       6.207   0.068   1.060  1.00  0.00     0.108 A 
ATOM     22  N   UNL     1       6.377  -1.215   1.431  1.00  0.00    -0.173 NA
ATOM     23  H   UNL     1       4.941  -2.697   1.507  1.00  0.00     0.192 HD
BRANCH  21  24
ATOM     24  C   UNL     1       7.346   1.025   0.890  1.00  0.00     0.055 A 
ATOM     25  C   UNL     1       8.467   0.752   0.132  1.00  0.00     0.022 A 
ATOM     26  S   UNL     1       7.349   2.624   1.479  1.00  0.00    -0.142 S 
ATOM     27  C   UNL     1       9.286   1.905  -0.045  1.00  0.00     0.012 A 
ATOM     28  C   UNL     1       8.825   2.975   0.688  1.00  0.00     0.065 A 
ENDBRANCH  21  24
ENDBRANCH   7  12
ENDBRANCH   4   6
ENDBRANCH   3   4
ENDBRANCH   2   3
ENDBRANCH   1   2
BRANCH   1  29
ATOM     29  O   UNL     1       5.538  -2.832  -3.515  1.00  0.00    -0.458 OA
BRANCH  29  30
ATOM     30  C   UNL     1       4.582  -1.965  -3.904  1.00  0.00     0.338 C 
ATOM     31  O   UNL     1       3.956  -1.179  -3.217  1.00  0.00    -0.246 OA
BRANCH  30  32
ATOM     32  C   UNL     1       4.331  -2.243  -5.317  1.00  0.00     0.060 A 
ATOM     33  C   UNL     1       3.415  -1.445  -6.004  1.00  0.00     0.016 A 
ATOM     34  C   UNL     1       4.852  -3.429  -5.864  1.00  0.00     0.016 A 
ATOM     35  C   UNL     1       2.892  -1.935  -7.181  1.00  0.00     0.010 A 
ATOM     36  C   UNL     1       4.315  -3.925  -7.014  1.00  0.00     0.010 A 
ATOM     37  C   UNL     1       3.293  -3.205  -7.614  1.00  0.00    -0.014 A 
BRANCH  37  38
ATOM     38  C   UNL     1       2.690  -3.769  -8.791  1.00  0.00     0.031 A 
ATOM     39  C   UNL     1       3.188  -3.152 -10.035  1.00  0.00     0.074 A 
ATOM     40  C   UNL     1       1.909  -4.860  -8.735  1.00  0.00     0.049 A 
ATOM     41  N   UNL     1       2.557  -2.333 -10.806  1.00  0.00    -0.248 NA
ATOM     42  C   UNL     1       4.620  -3.293 -10.347  1.00  0.00     0.031 C 
ATOM     43  C   UNL     1       1.643  -5.741  -7.593  1.00  0.00     0.029 A 
ATOM     44  N   UNL     1       1.257  -5.472  -9.751  1.00  0.00    -0.354 N 
ATOM     45  C   UNL     1       3.439  -2.055 -11.841  1.00  0.00     0.074 A 
ATOM     46  C   UNL     1       4.741  -2.472 -11.391  1.00  0.00     0.031 C 
ATOM     47  C   UNL     1       1.071  -6.883  -8.040  1.00  0.00     0.029 A 
ATOM     48  C   UNL     1       0.808  -6.752  -9.464  1.00  0.00     0.049 A 
ATOM     49  H   UNL     1       1.114  -5.042 -10.624  1.00  0.00     0.167 HD
ATOM     50  C   UNL     1       2.984  -1.766 -13.088  1.00  0.00     0.037 A 
ATOM     51  C   UNL     1       0.334  -7.641 -10.372  1.00  0.00     0.037 A 
ATOM     52  C   UNL     1       1.578  -1.445 -13.071  1.00  0.00     0.049 A 
ATOM     53  C   UNL     1      -0.067  -6.855 -11.576  1.00  0.00     0.074 A 
ATOM     54  C   UNL     1       0.818  -0.483 -12.434  1.00  0.00     0.029 A 
ATOM     55  N   UNL     1       0.697  -2.431 -13.452  1.00  0.00    -0.354 N 
ATOM     56  N   UNL     1      -1.050  -5.995 -11.589  1.00  0.00    -0.248 NA
ATOM     57  C   UNL     1       0.924  -6.673 -12.628  1.00  0.00     0.031 C 
ATOM     58  C   UNL     1      -0.382  -1.150 -12.052  1.00  0.00     0.029 A 
ATOM     59  C   UNL     1      -0.322  -2.460 -12.532  1.00  0.00     0.049 A 
ATOM     60  H   UNL     1       0.783  -3.012 -14.242  1.00  0.00     0.167 HD
ATOM     61  C   UNL     1      -0.594  -4.933 -12.360  1.00  0.00     0.074 A 
ATOM     62  C   UNL     1       0.591  -5.447 -13.045  1.00  0.00     0.031 C 
ATOM     63  C   UNL     1      -1.043  -3.659 -12.153  1.00  0.00     0.037 A 
BRANCH  50  64
ATOM     64  C   UNL     1       3.719  -2.139 -14.346  1.00  0.00     0.058 A 
ATOM     65  C   UNL     1       3.314  -1.581 -15.573  1.00  0.00     0.135 A 
ATOM     66  C   UNL     1       4.633  -3.214 -14.432  1.00  0.00     0.135 A 
ATOM     67  F   UNL     1       2.429  -0.572 -15.604  1.00  0.00    -0.206 F 
ATOM     68  C   UNL     1       3.750  -2.086 -16.797  1.00  0.00     0.059 A 
ATOM     69  C   UNL     1       5.127  -3.692 -15.637  1.00  0.00     0.059 A 
ATOM     70  F   UNL     1       5.013  -3.920 -13.359  1.00  0.00    -0.206 F 
ATOM     71  C   UNL     1       4.650  -3.149 -16.817  1.00  0.00     0.060 A 
BRANCH  71  72
ATOM     72  S   UNL     1       5.144  -3.863 -18.392  1.00  0.00     0.124 S 
ATOM     73  O   UNL     1       3.910  -4.516 -18.814  1.00  0.00    -0.237 OA
ATOM     74  O   UNL     1       5.535  -2.680 -19.151  1.00  0.00    -0.237 OA
ATOM     75  O   UNL     1       6.239  -4.756 -18.027  1.00  0.00    -0.744 OA
ENDBRANCH  71  72
ENDBRANCH  50  64
BRANCH  51  76
ATOM     76  C   UNL     1       0.559  -9.110 -10.408  1.00  0.00     0.058 A 
ATOM     77  C   UNL     1      -0.164  -9.930 -11.292  1.00  0.00     0.135 A 
ATOM     78  C   UNL     1       1.679  -9.703  -9.788  1.00  0.00     0.135 A 
ATOM     79  F   UNL     1      -1.233  -9.444 -11.940  1.00  0.00    -0.206 F 
ATOM     80  C   UNL     1       0.231 -11.240 -11.587  1.00  0.00     0.059 A 
ATOM     81  C   UNL     1       2.085 -11.009 -10.058  1.00  0.00     0.059 A 
ATOM     82  F   UNL     1       2.474  -8.999  -8.969  1.00  0.00    -0.206 F 
ATOM     83  C   UNL     1       1.372 -11.764 -10.981  1.00  0.00     0.060 A 
BRANCH  83  84
ATOM     84  S   UNL     1       1.992 -13.382 -11.498  1.00  0.00     0.124 S 
ATOM     85  O   UNL     1       0.980 -14.280 -10.954  1.00  0.00    -0.237 OA
ATOM     86  O   UNL     1       2.017 -13.252 -12.951  1.00  0.00    -0.237 OA
ATOM     87  O   UNL     1       3.304 -13.461 -10.861  1.00  0.00    -0.744 OA
ENDBRANCH  83  84
ENDBRANCH  51  76
BRANCH  63  88
ATOM     88  C   UNL     1      -2.263  -3.466 -11.284  1.00  0.00     0.058 A 
ATOM     89  C   UNL     1      -2.332  -3.784  -9.915  1.00  0.00     0.135 A 
ATOM     90  C   UNL     1      -3.362  -2.789 -11.835  1.00  0.00     0.135 A 
ATOM     91  F   UNL     1      -1.287  -4.335  -9.282  1.00  0.00    -0.206 F 
ATOM     92  C   UNL     1      -3.457  -3.483  -9.143  1.00  0.00     0.059 A 
ATOM     93  C   UNL     1      -4.480  -2.450 -11.078  1.00  0.00     0.059 A 
ATOM     94  F   UNL     1      -3.336  -2.400 -13.121  1.00  0.00    -0.206 F 
ATOM     95  C   UNL     1      -4.528  -2.814  -9.735  1.00  0.00     0.060 A 
BRANCH  95  96
ATOM     96  S   UNL     1      -5.957  -2.366  -8.724  1.00  0.00     0.124 S 
ATOM     97  O   UNL     1      -6.584  -3.662  -8.488  1.00  0.00    -0.237 OA
ATOM     98  O   UNL     1      -5.339  -1.739  -7.560  1.00  0.00    -0.237 OA
ATOM     99  O   UNL     1      -6.711  -1.456  -9.584  1.00  0.00    -0.744 OA
ENDBRANCH  95  96
ENDBRANCH  63  88
ENDBRANCH  37  38
ENDBRANCH  30  32
ENDBRANCH  29  30
ENDBRANCH   1  29
TORSDOF 16
