REMARK SMILES NS(=O)(=O)c1ccc(-n2nc(C(F)F)cc2-c2ccc(C(=O)OCCOC(=O)c3ccc(-c4c5nc(c(-c6c(F)cc(S(=O)(=O)[O-])cc6F)c6ccc([nH]6)c(-c6c(F)cc(S(=O)(=O)[O-])cc6F)c6nc(c(-c7c(F)cc(S(=O)(=O)[O-])cc7F)c7ccc4[nH]7)C=C6)C=C5)cc3)cc2)cc1
REMARK SMILES IDX 24 1 23 2 21 3 22 4 20 5 17 6 18 7 96 8 19 9 95 10 16 11
REMARK SMILES IDX 9 12 10 13 11 14 15 15 8 16 5 17 6 18 98 19 7 20 97 21 2 22
REMARK SMILES IDX 3 23 4 24 1 25 12 28 13 29 14 30 25 31 26 32 27 33 28 34
REMARK SMILES IDX 29 35 30 36 94 37 31 38 93 39 32 40 33 41 34 42 87 43 35 44
REMARK SMILES IDX 92 45 86 46 88 47 36 48 91 49 85 50 84 51 37 53 71 54 50 55
REMARK SMILES IDX 70 56 51 57 54 58 69 59 89 60 52 61 53 62 68 64 90 65 55 66
REMARK SMILES IDX 38 67 39 68 48 69 40 70 41 71 47 72 49 73 42 74 43 75 44 76
REMARK SMILES IDX 45 77 46 78 72 79 73 80 82 81 74 82 75 83 81 84 83 85 76 86
REMARK SMILES IDX 77 87 78 88 79 89 80 90 56 91 57 92 66 93 58 94 59 95 65 96
REMARK SMILES IDX 67 97 60 98 61 99 62 100 63 101 64 102
REMARK H PARENT 1 26 1 27 88 52 54 63
REMARK Flexibility Score: inf
ROOT
ATOM      1  C   UNL     1      -1.365  -3.209 -11.335  1.00  0.00     0.275 C 
ENDROOT
BRANCH   1   2
ATOM      2  O   UNL     1      -0.668  -2.062 -10.818  1.00  0.00    -0.458 OA
BRANCH   2   3
ATOM      3  C   UNL     1      -1.413  -1.214 -10.061  1.00  0.00     0.338 C 
ATOM      4  O   UNL     1      -2.628  -1.228  -9.943  1.00  0.00    -0.246 OA
BRANCH   3   5
ATOM      5  C   UNL     1      -0.537  -0.286  -9.301  1.00  0.00     0.060 A 
ATOM      6  C   UNL     1       0.991   1.610  -7.906  1.00  0.00     0.000 A 
ATOM      7  C   UNL     1      -0.296   1.274  -7.462  1.00  0.00     0.011 A 
ATOM      8  C   UNL     1       1.528   0.940  -9.012  1.00  0.00     0.011 A 
ATOM      9  C   UNL     1      -1.056   0.329  -8.154  1.00  0.00     0.016 A 
ATOM     10  C   UNL     1       0.772  -0.010  -9.703  1.00  0.00     0.016 A 
BRANCH   6  11
ATOM     11  C   UNL     1       1.719   2.736  -7.319  1.00  0.00     0.075 A 
ATOM     12  N   UNL     1       1.891   3.009  -5.967  1.00  0.00    -0.233 N 
ATOM     13  N   UNL     1       2.312   4.286  -5.761  1.00  0.00    -0.166 NA
ATOM     14  C   UNL     1       2.599   4.760  -6.984  1.00  0.00     0.129 A 
ATOM     15  C   UNL     1       2.217   3.840  -7.983  1.00  0.00     0.060 A 
BRANCH  12  16
ATOM     16  C   UNL     1       1.647   2.148  -4.867  1.00  0.00     0.065 A 
ATOM     17  C   UNL     1       0.956   0.432  -2.795  1.00  0.00     0.082 A 
ATOM     18  C   UNL     1       1.634  -0.072  -3.907  1.00  0.00     0.024 A 
ATOM     19  C   UNL     1       0.657   1.795  -2.691  1.00  0.00     0.024 A 
ATOM     20  C   UNL     1       1.968   0.785  -4.954  1.00  0.00     0.030 A 
ATOM     21  C   UNL     1       1.034   2.664  -3.717  1.00  0.00     0.030 A 
BRANCH  17  22
ATOM     22  S   UNL     1       0.405  -0.679  -1.532  1.00  0.00     0.238 S 
ATOM     23  O   UNL     1       1.013  -1.973  -1.759  1.00  0.00    -0.207 OA
ATOM     24  O   UNL     1      -1.010  -0.490  -1.365  1.00  0.00    -0.207 OA
BRANCH  22  25
ATOM     25  N   UNL     1       1.143  -0.066  -0.151  1.00  0.00    -0.225 NA
ATOM     26  H   UNL     1       0.889  -0.641   0.653  1.00  0.00     0.137 HD
ATOM     27  H   UNL     1       0.831   0.892   0.004  1.00  0.00     0.137 HD
ENDBRANCH  22  25
ENDBRANCH  17  22
ENDBRANCH  12  16
BRANCH  14  28
ATOM     28  C   UNL     1       3.205   6.110  -7.221  1.00  0.00     0.393 C 
ATOM     29  F   UNL     1       2.703   7.071  -6.399  1.00  0.00    -0.203 F 
ATOM     30  F   UNL     1       4.553   6.095  -7.028  1.00  0.00    -0.203 F 
ENDBRANCH  14  28
ENDBRANCH   6  11
ENDBRANCH   3   5
ENDBRANCH   2   3
ENDBRANCH   1   2
BRANCH   1  31
ATOM     31  C   UNL     1      -1.333  -4.365 -10.347  1.00  0.00     0.275 C 
BRANCH  31  32
ATOM     32  O   UNL     1      -2.115  -4.076  -9.192  1.00  0.00    -0.458 OA
BRANCH  32  33
ATOM     33  C   UNL     1      -1.412  -3.575  -8.151  1.00  0.00     0.338 C 
ATOM     34  O   UNL     1      -0.315  -3.041  -8.183  1.00  0.00    -0.246 OA
BRANCH  33  35
ATOM     35  C   UNL     1      -2.030  -4.014  -6.904  1.00  0.00     0.060 A 
ATOM     36  C   UNL     1      -1.528  -3.475  -5.713  1.00  0.00     0.016 A 
ATOM     37  C   UNL     1      -2.801  -5.183  -6.937  1.00  0.00     0.016 A 
ATOM     38  C   UNL     1      -1.649  -4.216  -4.558  1.00  0.00     0.010 A 
ATOM     39  C   UNL     1      -2.889  -5.933  -5.797  1.00  0.00     0.010 A 
ATOM     40  C   UNL     1      -2.258  -5.470  -4.640  1.00  0.00    -0.014 A 
BRANCH  40  41
ATOM     41  C   UNL     1      -2.435  -6.257  -3.438  1.00  0.00     0.031 A 
ATOM     42  C   UNL     1      -3.478  -5.681  -2.546  1.00  0.00     0.074 A 
ATOM     43  C   UNL     1      -1.867  -7.478  -3.350  1.00  0.00     0.049 A 
ATOM     44  N   UNL     1      -3.385  -5.415  -1.288  1.00  0.00    -0.248 NA
ATOM     45  C   UNL     1      -4.722  -5.166  -3.163  1.00  0.00     0.031 C 
ATOM     46  C   UNL     1      -1.007  -8.137  -4.341  1.00  0.00     0.029 A 
ATOM     47  N   UNL     1      -2.064  -8.461  -2.430  1.00  0.00    -0.354 N 
ATOM     48  C   UNL     1      -4.636  -4.933  -0.912  1.00  0.00     0.074 A 
ATOM     49  C   UNL     1      -5.338  -4.612  -2.121  1.00  0.00     0.031 C 
ATOM     50  C   UNL     1      -0.962  -9.463  -4.087  1.00  0.00     0.029 A 
ATOM     51  C   UNL     1      -1.706  -9.736  -2.873  1.00  0.00     0.049 A 
ATOM     52  H   UNL     1      -2.426  -8.288  -1.531  1.00  0.00     0.167 HD
ATOM     53  C   UNL     1      -5.093  -5.107   0.355  1.00  0.00     0.037 A 
ATOM     54  C   UNL     1      -2.110 -10.914  -2.325  1.00  0.00     0.037 A 
ATOM     55  C   UNL     1      -4.001  -5.340   1.264  1.00  0.00     0.049 A 
ATOM     56  C   UNL     1      -2.566 -10.600  -0.940  1.00  0.00     0.074 A 
ATOM     57  C   UNL     1      -2.874  -4.614   1.600  1.00  0.00     0.029 A 
ATOM     58  N   UNL     1      -3.750  -6.637   1.645  1.00  0.00    -0.354 N 
ATOM     59  N   UNL     1      -1.760 -10.183   0.002  1.00  0.00    -0.248 NA
ATOM     60  C   UNL     1      -3.969 -10.250  -0.754  1.00  0.00     0.031 C 
ATOM     61  C   UNL     1      -1.836  -5.580   1.717  1.00  0.00     0.029 A 
ATOM     62  C   UNL     1      -2.398  -6.846   1.541  1.00  0.00     0.049 A 
ATOM     63  H   UNL     1      -4.419  -7.297   1.939  1.00  0.00     0.167 HD
ATOM     64  C   UNL     1      -2.457  -9.165   0.640  1.00  0.00     0.074 A 
ATOM     65  C   UNL     1      -3.837  -9.297   0.174  1.00  0.00     0.031 C 
ATOM     66  C   UNL     1      -1.802  -8.129   1.242  1.00  0.00     0.037 A 
BRANCH  53  67
ATOM     67  C   UNL     1      -6.522  -5.466   0.678  1.00  0.00     0.058 A 
ATOM     68  C   UNL     1      -6.921  -5.514   2.028  1.00  0.00     0.135 A 
ATOM     69  C   UNL     1      -7.421  -6.049  -0.246  1.00  0.00     0.135 A 
ATOM     70  F   UNL     1      -6.145  -4.990   2.990  1.00  0.00    -0.206 F 
ATOM     71  C   UNL     1      -8.081  -6.172   2.438  1.00  0.00     0.059 A 
ATOM     72  C   UNL     1      -8.606  -6.663   0.136  1.00  0.00     0.059 A 
ATOM     73  F   UNL     1      -7.155  -6.141  -1.554  1.00  0.00    -0.206 F 
ATOM     74  C   UNL     1      -8.906  -6.760   1.483  1.00  0.00     0.060 A 
BRANCH  74  75
ATOM     75  S   UNL     1     -10.341  -7.705   2.018  1.00  0.00     0.124 S 
ATOM     76  O   UNL     1      -9.711  -8.849   2.666  1.00  0.00    -0.237 OA
ATOM     77  O   UNL     1     -11.012  -6.756   2.901  1.00  0.00    -0.237 OA
ATOM     78  O   UNL     1     -11.039  -7.992   0.768  1.00  0.00    -0.744 OA
ENDBRANCH  74  75
ENDBRANCH  53  67
BRANCH  54  79
ATOM     79  C   UNL     1      -2.474 -12.178  -3.035  1.00  0.00     0.058 A 
ATOM     80  C   UNL     1      -2.744 -13.368  -2.331  1.00  0.00     0.135 A 
ATOM     81  C   UNL     1      -2.828 -12.188  -4.401  1.00  0.00     0.135 A 
ATOM     82  F   UNL     1      -2.458 -13.457  -1.023  1.00  0.00    -0.206 F 
ATOM     83  C   UNL     1      -3.374 -14.471  -2.929  1.00  0.00     0.059 A 
ATOM     84  C   UNL     1      -3.440 -13.277  -5.020  1.00  0.00     0.059 A 
ATOM     85  F   UNL     1      -2.678 -11.101  -5.170  1.00  0.00    -0.206 F 
ATOM     86  C   UNL     1      -3.740 -14.405  -4.272  1.00  0.00     0.060 A 
BRANCH  86  87
ATOM     87  S   UNL     1      -4.732 -15.729  -5.008  1.00  0.00     0.124 S 
ATOM     88  O   UNL     1      -3.768 -16.821  -5.090  1.00  0.00    -0.237 OA
ATOM     89  O   UNL     1      -5.803 -15.894  -4.031  1.00  0.00    -0.237 OA
ATOM     90  O   UNL     1      -5.147 -15.168  -6.291  1.00  0.00    -0.744 OA
ENDBRANCH  86  87
ENDBRANCH  54  79
BRANCH  66  91
ATOM     91  C   UNL     1      -0.307  -8.228   1.415  1.00  0.00     0.058 A 
ATOM     92  C   UNL     1       0.620  -8.282   0.357  1.00  0.00     0.135 A 
ATOM     93  C   UNL     1       0.214  -8.086   2.709  1.00  0.00     0.135 A 
ATOM     94  F   UNL     1       0.209  -8.305  -0.917  1.00  0.00    -0.206 F 
ATOM     95  C   UNL     1       1.998  -8.243   0.579  1.00  0.00     0.059 A 
ATOM     96  C   UNL     1       1.582  -8.012   2.952  1.00  0.00     0.059 A 
ATOM     97  F   UNL     1      -0.617  -7.958   3.757  1.00  0.00    -0.206 F 
ATOM     98  C   UNL     1       2.470  -8.108   1.883  1.00  0.00     0.060 A 
BRANCH  98  99
ATOM     99  S   UNL     1       4.248  -7.999   2.174  1.00  0.00     0.124 S 
ATOM    100  O   UNL     1       4.687  -9.364   1.902  1.00  0.00    -0.237 OA
ATOM    101  O   UNL     1       4.670  -6.992   1.204  1.00  0.00    -0.237 OA
ATOM    102  O   UNL     1       4.341  -7.581   3.571  1.00  0.00    -0.744 OA
ENDBRANCH  98  99
ENDBRANCH  66  91
ENDBRANCH  40  41
ENDBRANCH  33  35
ENDBRANCH  32  33
ENDBRANCH  31  32
ENDBRANCH   1  31
TORSDOF 19
