REMARK SMILES O=C(OCCOC(=O)c1ccc(-c2c3nc(c(-c4c(F)cc(S(=O)(=O)[O-])cc4F)c4ccc([nH]4)c(-c4c(F)cc(S(=O)(=O)[O-])cc4F)c4nc(c(-c5c(F)cc(S(=O)(=O)[O-])cc5F)c5ccc2[nH]5)C=C4)C=C3)cc1)C1=NN(c2ccc(S(=O)(=O)[O-])cc2)C(=O)/C1=C/Nc1ccccc1
REMARK SMILES IDX 5 1 4 2 3 3 2 4 1 5 75 6 76 7 90 8 77 9 88 10 91 11 89 12
REMARK SMILES IDX 78 13 79 14 87 15 80 16 86 17 81 18 82 19 83 20 84 21 85 22
REMARK SMILES IDX 92 23 93 25 94 26 98 27 95 28 97 29 96 30 6 31 7 32 8 33
REMARK SMILES IDX 9 34 10 35 74 36 11 37 73 38 12 39 13 40 14 41 67 42 15 43
REMARK SMILES IDX 72 44 66 45 68 46 16 47 71 48 65 49 64 50 17 52 51 53 30 54
REMARK SMILES IDX 50 55 31 56 34 57 49 58 69 59 32 60 33 61 48 63 70 64 35 65
REMARK SMILES IDX 18 66 19 67 28 68 20 69 21 70 27 71 29 72 22 73 23 74 24 75
REMARK SMILES IDX 25 76 26 77 52 78 53 79 62 80 54 81 55 82 61 83 63 84 56 85
REMARK SMILES IDX 57 86 58 87 59 88 60 89 36 90 37 91 46 92 38 93 39 94 45 95
REMARK SMILES IDX 47 96 40 97 41 98 42 99 43 100 44 101
REMARK H PARENT 92 24 68 51 34 62
REMARK Flexibility Score: inf
ROOT
ATOM      1  C   UNL     1       2.520  -0.705   1.424  1.00  0.00     0.275 C 
ENDROOT
BRANCH   1   2
ATOM      2  C   UNL     1       3.753   0.231   1.394  1.00  0.00     0.275 C 
BRANCH   2   3
ATOM      3  O   UNL     1       3.838   1.150   0.291  1.00  0.00    -0.457 OA
BRANCH   3   4
ATOM      4  C   UNL     1       3.254   0.759  -0.850  1.00  0.00     0.359 C 
ATOM      5  O   UNL     1       2.119   1.073  -1.173  1.00  0.00    -0.244 OA
BRANCH   4   6
ATOM      6  C   UNL     1       4.177   0.019  -1.792  1.00  0.00     0.183 C 
ATOM      7  N   UNL     1       4.153   0.326  -3.066  1.00  0.00    -0.157 NA
ATOM      8  C   UNL     1       5.180  -1.042  -1.486  1.00  0.00     0.093 C 
ATOM      9  N   UNL     1       5.096  -0.480  -3.659  1.00  0.00    -0.196 N 
ATOM     10  C   UNL     1       5.891  -1.209  -2.776  1.00  0.00     0.282 C 
ATOM     11  C   UNL     1       5.460  -2.027  -0.612  1.00  0.00     0.099 C 
ATOM     12  O   UNL     1       6.849  -1.931  -2.984  1.00  0.00    -0.267 OA
BRANCH   9  13
ATOM     13  C   UNL     1       4.940  -0.788  -5.018  1.00  0.00     0.069 A 
ATOM     14  C   UNL     1       4.635   0.197  -5.953  1.00  0.00     0.030 A 
ATOM     15  C   UNL     1       5.071  -2.122  -5.430  1.00  0.00     0.030 A 
ATOM     16  C   UNL     1       4.615  -0.138  -7.311  1.00  0.00     0.021 A 
ATOM     17  C   UNL     1       4.940  -2.472  -6.767  1.00  0.00     0.021 A 
ATOM     18  C   UNL     1       4.756  -1.472  -7.716  1.00  0.00     0.054 A 
BRANCH  18  19
ATOM     19  S   UNL     1       4.892  -1.914  -9.433  1.00  0.00     0.124 S 
ATOM     20  O   UNL     1       3.688  -1.558 -10.144  1.00  0.00    -0.237 OA
ATOM     21  O   UNL     1       6.206  -1.497  -9.866  1.00  0.00    -0.237 OA
ATOM     22  O   UNL     1       4.863  -3.529  -9.443  1.00  0.00    -0.744 OA
ENDBRANCH  18  19
ENDBRANCH   9  13
BRANCH  11  23
ATOM     23  N   UNL     1       4.692  -2.601   0.365  1.00  0.00    -0.361 N 
ATOM     24  H   UNL     1       3.724  -2.460   0.252  1.00  0.00     0.166 HD
BRANCH  23  25
ATOM     25  C   UNL     1       5.035  -3.354   1.498  1.00  0.00     0.038 A 
ATOM     26  C   UNL     1       4.009  -4.019   2.193  1.00  0.00     0.026 A 
ATOM     27  C   UNL     1       6.331  -3.424   2.009  1.00  0.00     0.026 A 
ATOM     28  C   UNL     1       4.252  -4.657   3.411  1.00  0.00     0.002 A 
ATOM     29  C   UNL     1       6.578  -4.061   3.232  1.00  0.00     0.002 A 
ATOM     30  C   UNL     1       5.536  -4.658   3.941  1.00  0.00     0.000 A 
ENDBRANCH  23  25
ENDBRANCH  11  23
ENDBRANCH   4   6
ENDBRANCH   3   4
ENDBRANCH   2   3
ENDBRANCH   1   2
BRANCH   1  31
ATOM     31  O   UNL     1       2.415  -1.425   0.165  1.00  0.00    -0.458 OA
BRANCH  31  32
ATOM     32  C   UNL     1       1.220  -1.976  -0.156  1.00  0.00     0.338 C 
ATOM     33  O   UNL     1       0.298  -2.166   0.613  1.00  0.00    -0.246 OA
BRANCH  32  34
ATOM     34  C   UNL     1       1.190  -2.198  -1.629  1.00  0.00     0.060 A 
ATOM     35  C   UNL     1       0.194  -1.552  -2.363  1.00  0.00     0.016 A 
ATOM     36  C   UNL     1       2.110  -3.014  -2.299  1.00  0.00     0.016 A 
ATOM     37  C   UNL     1       0.079  -1.756  -3.748  1.00  0.00     0.010 A 
ATOM     38  C   UNL     1       2.013  -3.185  -3.695  1.00  0.00     0.010 A 
ATOM     39  C   UNL     1       0.973  -2.590  -4.439  1.00  0.00    -0.014 A 
BRANCH  39  40
ATOM     40  C   UNL     1       0.739  -2.942  -5.887  1.00  0.00     0.031 A 
ATOM     41  C   UNL     1       0.429  -4.383  -6.252  1.00  0.00     0.074 A 
ATOM     42  C   UNL     1       0.740  -2.007  -6.868  1.00  0.00     0.049 A 
ATOM     43  N   UNL     1       0.233  -4.925  -7.429  1.00  0.00    -0.248 NA
ATOM     44  C   UNL     1       0.325  -5.343  -5.139  1.00  0.00     0.031 C 
ATOM     45  C   UNL     1       0.967  -0.575  -6.665  1.00  0.00     0.029 A 
ATOM     46  N   UNL     1       0.551  -2.109  -8.234  1.00  0.00    -0.354 N 
ATOM     47  C   UNL     1      -0.055  -6.269  -7.191  1.00  0.00     0.074 A 
ATOM     48  C   UNL     1       0.100  -6.485  -5.772  1.00  0.00     0.031 C 
ATOM     49  C   UNL     1       0.910   0.059  -7.850  1.00  0.00     0.029 A 
ATOM     50  C   UNL     1       0.711  -0.916  -8.920  1.00  0.00     0.049 A 
ATOM     51  H   UNL     1       0.322  -2.957  -8.680  1.00  0.00     0.167 HD
ATOM     52  C   UNL     1      -0.472  -7.225  -8.059  1.00  0.00     0.037 A 
ATOM     53  C   UNL     1       0.752  -0.646 -10.250  1.00  0.00     0.037 A 
ATOM     54  C   UNL     1      -0.654  -7.004  -9.469  1.00  0.00     0.049 A 
ATOM     55  C   UNL     1       0.558  -1.809 -11.215  1.00  0.00     0.074 A 
ATOM     56  C   UNL     1      -1.141  -7.880 -10.424  1.00  0.00     0.029 A 
ATOM     57  N   UNL     1      -0.351  -5.822 -10.127  1.00  0.00    -0.354 N 
ATOM     58  N   UNL     1       0.231  -3.057 -10.956  1.00  0.00    -0.248 NA
ATOM     59  C   UNL     1       0.743  -1.541 -12.651  1.00  0.00     0.031 C 
ATOM     60  C   UNL     1      -1.072  -7.248 -11.669  1.00  0.00     0.029 A 
ATOM     61  C   UNL     1      -0.592  -5.961 -11.482  1.00  0.00     0.049 A 
ATOM     62  H   UNL     1      -0.013  -5.005  -9.694  1.00  0.00     0.167 HD
ATOM     63  C   UNL     1       0.069  -3.680 -12.195  1.00  0.00     0.074 A 
ATOM     64  C   UNL     1       0.392  -2.696 -13.202  1.00  0.00     0.031 C 
ATOM     65  C   UNL     1      -0.342  -4.943 -12.473  1.00  0.00     0.037 A 
BRANCH  52  66
ATOM     66  C   UNL     1      -0.793  -8.592  -7.506  1.00  0.00     0.058 A 
ATOM     67  C   UNL     1      -1.905  -8.803  -6.673  1.00  0.00     0.135 A 
ATOM     68  C   UNL     1      -0.011  -9.711  -7.840  1.00  0.00     0.135 A 
ATOM     69  F   UNL     1      -2.689  -7.772  -6.319  1.00  0.00    -0.206 F 
ATOM     70  C   UNL     1      -2.201 -10.059  -6.152  1.00  0.00     0.059 A 
ATOM     71  C   UNL     1      -0.307 -10.984  -7.355  1.00  0.00     0.059 A 
ATOM     72  F   UNL     1       1.055  -9.575  -8.643  1.00  0.00    -0.206 F 
ATOM     73  C   UNL     1      -1.391 -11.143  -6.493  1.00  0.00     0.060 A 
BRANCH  73  74
ATOM     74  S   UNL     1      -1.772 -12.759  -5.782  1.00  0.00     0.124 S 
ATOM     75  O   UNL     1      -1.346 -12.573  -4.397  1.00  0.00    -0.237 OA
ATOM     76  O   UNL     1      -3.212 -12.863  -5.991  1.00  0.00    -0.237 OA
ATOM     77  O   UNL     1      -0.958 -13.679  -6.570  1.00  0.00    -0.744 OA
ENDBRANCH  73  74
ENDBRANCH  52  66
BRANCH  53  78
ATOM     78  C   UNL     1       1.133   0.721 -10.780  1.00  0.00     0.058 A 
ATOM     79  C   UNL     1       0.371   1.439 -11.714  1.00  0.00     0.135 A 
ATOM     80  C   UNL     1       2.364   1.303 -10.437  1.00  0.00     0.135 A 
ATOM     81  F   UNL     1      -0.827   0.973 -12.100  1.00  0.00    -0.206 F 
ATOM     82  C   UNL     1       0.838   2.623 -12.308  1.00  0.00     0.059 A 
ATOM     83  C   UNL     1       2.855   2.475 -10.999  1.00  0.00     0.059 A 
ATOM     84  F   UNL     1       3.125   0.747  -9.499  1.00  0.00    -0.206 F 
ATOM     85  C   UNL     1       2.089   3.129 -11.946  1.00  0.00     0.060 A 
BRANCH  85  86
ATOM     86  S   UNL     1       2.722   4.635 -12.716  1.00  0.00     0.124 S 
ATOM     87  O   UNL     1       2.569   4.343 -14.136  1.00  0.00    -0.237 OA
ATOM     88  O   UNL     1       1.823   5.645 -12.168  1.00  0.00    -0.237 OA
ATOM     89  O   UNL     1       4.101   4.706 -12.240  1.00  0.00    -0.744 OA
ENDBRANCH  85  86
ENDBRANCH  53  78
BRANCH  65  90
ATOM     90  C   UNL     1      -0.631  -5.304 -13.907  1.00  0.00     0.058 A 
ATOM     91  C   UNL     1       0.378  -5.606 -14.832  1.00  0.00     0.135 A 
ATOM     92  C   UNL     1      -1.967  -5.455 -14.323  1.00  0.00     0.135 A 
ATOM     93  F   UNL     1       1.669  -5.477 -14.489  1.00  0.00    -0.206 F 
ATOM     94  C   UNL     1       0.074  -6.045 -16.120  1.00  0.00     0.059 A 
ATOM     95  C   UNL     1      -2.293  -5.914 -15.595  1.00  0.00     0.059 A 
ATOM     96  F   UNL     1      -2.972  -5.193 -13.472  1.00  0.00    -0.206 F 
ATOM     97  C   UNL     1      -1.265  -6.204 -16.490  1.00  0.00     0.060 A 
BRANCH  97  98
ATOM     98  S   UNL     1      -1.648  -6.844 -18.136  1.00  0.00     0.124 S 
ATOM     99  O   UNL     1      -1.345  -5.693 -18.979  1.00  0.00    -0.237 OA
ATOM    100  O   UNL     1      -0.733  -7.975 -18.253  1.00  0.00    -0.237 OA
ATOM    101  O   UNL     1      -3.062  -7.198 -18.043  1.00  0.00    -0.744 OA
ENDBRANCH  97  98
ENDBRANCH  65  90
ENDBRANCH  39  40
ENDBRANCH  32  34
ENDBRANCH  31  32
ENDBRANCH   1  31
TORSDOF 18
