REMARK SMILES C[C@H]1CCN(C(=O)NC[C@@H]2CC[C@H](C(=O)OCCOC(=O)c3ccc(-c4c5nc(c(-c6c(F)cc(S(=O)(=O)[O-])cc6F)c6ccc([nH]6)c(-c6c(F)cc(S(=O)(=O)[O-])cc6F)c6nc(c(-c7c(F)cc(S(=O)(=O)[O-])cc7F)c7ccc4[nH]7)C=C6)C=C5)cc3)O2)C1
REMARK SMILES IDX 17 1 16 2 14 3 15 4 13 5 10 6 11 7 88 8 12 9 9 10 8 11 6 12
REMARK SMILES IDX 7 13 5 15 1 16 2 17 3 18 89 19 4 20 18 21 19 22 20 23 21 24
REMARK SMILES IDX 22 25 23 26 87 27 24 28 86 29 25 30 26 31 27 32 80 33 28 34
REMARK SMILES IDX 85 35 79 36 81 37 29 38 84 39 78 40 77 41 30 43 64 44 43 45
REMARK SMILES IDX 63 46 44 47 47 48 62 49 82 50 45 51 46 52 61 54 83 55 48 56
REMARK SMILES IDX 31 57 32 58 41 59 33 60 34 61 40 62 42 63 35 64 36 65 37 66
REMARK SMILES IDX 38 67 39 68 65 69 66 70 75 71 67 72 68 73 74 74 76 75 69 76
REMARK SMILES IDX 70 77 71 78 72 79 73 80 49 81 50 82 59 83 51 84 52 85 58 86
REMARK SMILES IDX 60 87 53 88 54 89 55 90 56 91 57 92
REMARK H PARENT 8 14 81 42 47 53
REMARK Flexibility Score: inf
ROOT
ATOM      1  C   UNL     1       5.537  -5.596  -2.227  1.00  0.00     0.274 C 
ENDROOT
BRANCH   1   2
ATOM      2  O   UNL     1       4.144  -5.399  -2.542  1.00  0.00    -0.460 OA
BRANCH   2   3
ATOM      3  C   UNL     1       3.864  -4.345  -3.357  1.00  0.00     0.335 C 
ATOM      4  O   UNL     1       4.702  -3.544  -3.757  1.00  0.00    -0.249 OA
BRANCH   3   5
ATOM      5  C   UNL     1       2.372  -4.232  -3.702  1.00  0.00     0.228 C 
ATOM      6  C   UNL     1       1.027  -3.881  -1.830  1.00  0.00     0.138 C 
ATOM      7  C   UNL     1       1.024  -5.381  -2.122  1.00  0.00     0.037 C 
ATOM      8  O   UNL     1       1.741  -3.239  -2.897  1.00  0.00    -0.361 OA
ATOM      9  C   UNL     1       1.532  -5.482  -3.541  1.00  0.00     0.047 C 
BRANCH   6  10
ATOM     10  C   UNL     1       1.649  -3.530  -0.464  1.00  0.00     0.149 C 
BRANCH  10  11
ATOM     11  N   UNL     1       2.521  -2.366  -0.466  1.00  0.00    -0.335 N 
ATOM     12  C   UNL     1       2.381  -1.078  -0.107  1.00  0.00     0.317 C 
ATOM     13  O   UNL     1       3.426  -0.445   0.067  1.00  0.00    -0.249 OA
ATOM     14  H   UNL     1       3.421  -2.569  -0.808  1.00  0.00     0.165 HD
BRANCH  12  15
ATOM     15  N   UNL     1       1.159  -0.504   0.053  1.00  0.00    -0.325 N 
ATOM     16  C   UNL     1      -2.072   0.187   0.761  1.00  0.00     0.009 C 
ATOM     17  C   UNL     1      -1.077   0.222  -0.394  1.00  0.00     0.007 C 
ATOM     18  C   UNL     1      -0.134   1.421  -0.311  1.00  0.00     0.027 C 
ATOM     19  C   UNL     1      -0.133  -0.988  -0.398  1.00  0.00     0.124 C 
ATOM     20  C   UNL     1       1.069   0.890   0.449  1.00  0.00     0.121 C 
ENDBRANCH  12  15
ENDBRANCH  10  11
ENDBRANCH   6  10
ENDBRANCH   3   5
ENDBRANCH   2   3
ENDBRANCH   1   2
BRANCH   1  21
ATOM     21  C   UNL     1       6.169  -6.682  -3.103  1.00  0.00     0.275 C 
BRANCH  21  22
ATOM     22  O   UNL     1       6.249  -6.287  -4.485  1.00  0.00    -0.458 OA
BRANCH  22  23
ATOM     23  C   UNL     1       5.193  -6.655  -5.247  1.00  0.00     0.338 C 
ATOM     24  O   UNL     1       4.214  -7.289  -4.892  1.00  0.00    -0.246 OA
BRANCH  23  25
ATOM     25  C   UNL     1       5.308  -6.059  -6.585  1.00  0.00     0.060 A 
ATOM     26  C   UNL     1       4.418  -5.039  -6.926  1.00  0.00     0.016 A 
ATOM     27  C   UNL     1       6.202  -6.566  -7.527  1.00  0.00     0.016 A 
ATOM     28  C   UNL     1       4.401  -4.527  -8.217  1.00  0.00     0.010 A 
ATOM     29  C   UNL     1       6.192  -6.043  -8.825  1.00  0.00     0.010 A 
ATOM     30  C   UNL     1       5.282  -5.031  -9.180  1.00  0.00    -0.014 A 
BRANCH  30  31
ATOM     31  C   UNL     1       5.212  -4.525 -10.570  1.00  0.00     0.031 A 
ATOM     32  C   UNL     1       4.629  -5.390 -11.650  1.00  0.00     0.074 A 
ATOM     33  C   UNL     1       5.657  -3.287 -10.853  1.00  0.00     0.049 A 
ATOM     34  N   UNL     1       4.578  -5.178 -12.939  1.00  0.00    -0.248 NA
ATOM     35  C   UNL     1       4.026  -6.663 -11.224  1.00  0.00     0.031 C 
ATOM     36  C   UNL     1       6.203  -2.342  -9.877  1.00  0.00     0.029 A 
ATOM     37  N   UNL     1       5.728  -2.614 -12.046  1.00  0.00    -0.354 N 
ATOM     38  C   UNL     1       3.971  -6.303 -13.484  1.00  0.00     0.074 A 
ATOM     39  C   UNL     1       3.669  -7.196 -12.385  1.00  0.00     0.031 C 
ATOM     40  C   UNL     1       6.562  -1.215 -10.512  1.00  0.00     0.029 A 
ATOM     41  C   UNL     1       6.315  -1.375 -11.942  1.00  0.00     0.049 A 
ATOM     42  H   UNL     1       5.392  -2.982 -12.895  1.00  0.00     0.167 HD
ATOM     43  C   UNL     1       3.698  -6.566 -14.784  1.00  0.00     0.037 A 
ATOM     44  C   UNL     1       6.649  -0.486 -12.897  1.00  0.00     0.037 A 
ATOM     45  C   UNL     1       3.973  -5.657 -15.866  1.00  0.00     0.049 A 
ATOM     46  C   UNL     1       6.354  -0.810 -14.335  1.00  0.00     0.074 A 
ATOM     47  C   UNL     1       3.712  -5.821 -17.215  1.00  0.00     0.029 A 
ATOM     48  N   UNL     1       4.569  -4.413 -15.721  1.00  0.00    -0.354 N 
ATOM     49  N   UNL     1       5.790  -1.883 -14.838  1.00  0.00    -0.248 NA
ATOM     50  C   UNL     1       6.745   0.192 -15.337  1.00  0.00     0.031 C 
ATOM     51  C   UNL     1       4.176  -4.686 -17.890  1.00  0.00     0.029 A 
ATOM     52  C   UNL     1       4.697  -3.803 -16.957  1.00  0.00     0.049 A 
ATOM     53  H   UNL     1       4.858  -4.021 -14.865  1.00  0.00     0.167 HD
ATOM     54  C   UNL     1       5.749  -1.681 -16.212  1.00  0.00     0.074 A 
ATOM     55  C   UNL     1       6.332  -0.379 -16.461  1.00  0.00     0.031 C 
ATOM     56  C   UNL     1       5.274  -2.502 -17.180  1.00  0.00     0.037 A 
BRANCH  43  57
ATOM     57  C   UNL     1       3.099  -7.902 -15.112  1.00  0.00     0.058 A 
ATOM     58  C   UNL     1       1.746  -8.187 -14.872  1.00  0.00     0.135 A 
ATOM     59  C   UNL     1       3.886  -8.901 -15.707  1.00  0.00     0.135 A 
ATOM     60  F   UNL     1       0.956  -7.272 -14.289  1.00  0.00    -0.206 F 
ATOM     61  C   UNL     1       1.197  -9.424 -15.195  1.00  0.00     0.059 A 
ATOM     62  C   UNL     1       3.354 -10.139 -16.055  1.00  0.00     0.059 A 
ATOM     63  F   UNL     1       5.187  -8.680 -15.952  1.00  0.00    -0.206 F 
ATOM     64  C   UNL     1       2.010 -10.395 -15.783  1.00  0.00     0.060 A 
BRANCH  64  65
ATOM     65  S   UNL     1       1.288 -11.996 -16.202  1.00  0.00     0.124 S 
ATOM     66  O   UNL     1       1.225 -12.637 -14.892  1.00  0.00    -0.237 OA
ATOM     67  O   UNL     1       0.004 -11.621 -16.785  1.00  0.00    -0.237 OA
ATOM     68  O   UNL     1       2.252 -12.570 -17.136  1.00  0.00    -0.744 OA
ENDBRANCH  64  65
ENDBRANCH  43  57
BRANCH  44  69
ATOM     69  C   UNL     1       7.338   0.775 -12.521  1.00  0.00     0.058 A 
ATOM     70  C   UNL     1       6.676   2.009 -12.580  1.00  0.00     0.135 A 
ATOM     71  C   UNL     1       8.670   0.765 -12.079  1.00  0.00     0.135 A 
ATOM     72  F   UNL     1       5.404   2.068 -13.005  1.00  0.00    -0.206 F 
ATOM     73  C   UNL     1       7.312   3.193 -12.222  1.00  0.00     0.059 A 
ATOM     74  C   UNL     1       9.321   1.932 -11.696  1.00  0.00     0.059 A 
ATOM     75  F   UNL     1       9.342  -0.394 -11.995  1.00  0.00    -0.206 F 
ATOM     76  C   UNL     1       8.636   3.144 -11.781  1.00  0.00     0.060 A 
BRANCH  76  77
ATOM     77  S   UNL     1       9.446   4.676 -11.270  1.00  0.00     0.124 S 
ATOM     78  O   UNL     1       9.814   5.254 -12.557  1.00  0.00    -0.237 OA
ATOM     79  O   UNL     1       8.383   5.363 -10.543  1.00  0.00    -0.237 OA
ATOM     80  O   UNL     1      10.556   4.206 -10.446  1.00  0.00    -0.744 OA
ENDBRANCH  76  77
ENDBRANCH  44  69
BRANCH  56  81
ATOM     81  C   UNL     1       5.344  -2.007 -18.595  1.00  0.00     0.058 A 
ATOM     82  C   UNL     1       6.545  -2.031 -19.320  1.00  0.00     0.135 A 
ATOM     83  C   UNL     1       4.186  -1.559 -19.250  1.00  0.00     0.135 A 
ATOM     84  F   UNL     1       7.679  -2.445 -18.734  1.00  0.00    -0.206 F 
ATOM     85  C   UNL     1       6.598  -1.616 -20.646  1.00  0.00     0.059 A 
ATOM     86  C   UNL     1       4.213  -1.156 -20.581  1.00  0.00     0.059 A 
ATOM     87  F   UNL     1       3.012  -1.525 -18.599  1.00  0.00    -0.206 F 
ATOM     88  C   UNL     1       5.426  -1.181 -21.268  1.00  0.00     0.060 A 
BRANCH  88  89
ATOM     89  S   UNL     1       5.493  -0.686 -23.004  1.00  0.00     0.124 S 
ATOM     90  O   UNL     1       6.053   0.658 -22.904  1.00  0.00    -0.237 OA
ATOM     91  O   UNL     1       6.370  -1.696 -23.587  1.00  0.00    -0.237 OA
ATOM     92  O   UNL     1       4.098  -0.757 -23.429  1.00  0.00    -0.744 OA
ENDBRANCH  88  89
ENDBRANCH  56  81
ENDBRANCH  30  31
ENDBRANCH  23  25
ENDBRANCH  22  23
ENDBRANCH  21  22
ENDBRANCH   1  21
TORSDOF 17
