REMARK SMILES Cc1ccc2c(c1)C=C(C(=O)OCCOC(=O)c1ccc(-c3c4nc(c(-c5c(F)cc(S(=O)(=O)[O-])cc5F)c5ccc([nH]5)c(-c5c(F)cc(S(=O)(=O)[O-])cc5F)c5nc(c(-c6c(F)cc(S(=O)(=O)[O-])cc6F)c6ccc3[nH]6)C=C5)C=C4)cc1)[C@@H](C(F)(F)F)O2
REMARK SMILES IDX 14 1 13 2 12 3 10 4 11 5 9 6 1 7 2 8 3 9 7 10 4 11 6 12 5 13
REMARK SMILES IDX 8 14 89 15 84 16 85 17 86 18 87 19 88 20 15 21 16 22 17 23
REMARK SMILES IDX 18 24 19 25 83 26 20 27 82 28 21 29 22 30 23 31 76 32 24 33
REMARK SMILES IDX 81 34 75 35 77 36 25 37 80 38 74 39 73 40 26 42 60 43 39 44
REMARK SMILES IDX 59 45 40 46 43 47 58 48 78 49 41 50 42 51 57 53 79 54 44 55
REMARK SMILES IDX 27 56 28 57 37 58 29 59 30 60 36 61 38 62 31 63 32 64 33 65
REMARK SMILES IDX 34 66 35 67 61 68 62 69 71 70 63 71 64 72 70 73 72 74 65 75
REMARK SMILES IDX 66 76 67 77 68 78 69 79 45 80 46 81 55 82 47 83 48 84 54 85
REMARK SMILES IDX 56 86 49 87 50 88 51 89 52 90 53 91
REMARK H PARENT 77 41 43 52
REMARK Flexibility Score: inf
ROOT
ATOM      1  C   UNL     1      -5.531  -5.535   5.122  1.00  0.00     0.275 C 
ENDROOT
BRANCH   1   2
ATOM      2  C   UNL     1      -5.354  -6.176   3.744  1.00  0.00     0.275 C 
BRANCH   2   3
ATOM      3  O   UNL     1      -4.050  -5.895   3.187  1.00  0.00    -0.459 OA
BRANCH   3   4
ATOM      4  C   UNL     1      -4.025  -4.968   2.200  1.00  0.00     0.338 C 
ATOM      5  O   UNL     1      -4.987  -4.368   1.746  1.00  0.00    -0.246 OA
BRANCH   4   6
ATOM      6  C   UNL     1      -2.644  -4.737   1.734  1.00  0.00     0.087 C 
ATOM      7  C   UNL     1       1.130  -0.186   0.018  1.00  0.00     0.044 C 
ATOM      8  C   UNL     1       0.723  -1.609   0.267  1.00  0.00    -0.050 A 
ATOM      9  C   UNL     1       1.524  -2.679  -0.144  1.00  0.00     0.007 A 
ATOM     10  C   UNL     1      -0.514  -1.883   0.856  1.00  0.00     0.015 A 
ATOM     11  C   UNL     1       1.109  -4.002   0.065  1.00  0.00     0.047 A 
ATOM     12  C   UNL     1      -0.936  -3.206   1.041  1.00  0.00     0.017 A 
ATOM     13  C   UNL     1      -0.123  -4.268   0.659  1.00  0.00     0.128 A 
ATOM     14  C   UNL     1      -2.243  -3.469   1.599  1.00  0.00     0.027 C 
ATOM     15  O   UNL     1      -0.461  -5.580   0.839  1.00  0.00    -0.475 OA
ATOM     16  C   UNL     1      -1.807  -5.905   1.300  1.00  0.00     0.316 C 
BRANCH  16  17
ATOM     17  C   UNL     1      -2.517  -6.716   0.203  1.00  0.00     0.430 C 
ATOM     18  F   UNL     1      -1.758  -7.762  -0.207  1.00  0.00    -0.167 F 
ATOM     19  F   UNL     1      -3.683  -7.244   0.649  1.00  0.00    -0.167 F 
ATOM     20  F   UNL     1      -2.802  -5.970  -0.887  1.00  0.00    -0.167 F 
ENDBRANCH  16  17
ENDBRANCH   4   6
ENDBRANCH   3   4
ENDBRANCH   2   3
ENDBRANCH   1   2
BRANCH   1  21
ATOM     21  O   UNL     1      -5.609  -4.104   5.010  1.00  0.00    -0.458 OA
BRANCH  21  22
ATOM     22  C   UNL     1      -4.486  -3.438   5.359  1.00  0.00     0.338 C 
ATOM     23  O   UNL     1      -3.446  -3.911   5.784  1.00  0.00    -0.246 OA
BRANCH  22  24
ATOM     24  C   UNL     1      -4.643  -2.011   5.046  1.00  0.00     0.060 A 
ATOM     25  C   UNL     1      -4.799  -1.056   6.043  1.00  0.00     0.016 A 
ATOM     26  C   UNL     1      -4.462  -1.616   3.727  1.00  0.00     0.016 A 
ATOM     27  C   UNL     1      -4.774   0.300   5.692  1.00  0.00     0.010 A 
ATOM     28  C   UNL     1      -4.276  -0.276   3.407  1.00  0.00     0.010 A 
ATOM     29  C   UNL     1      -4.464   0.711   4.377  1.00  0.00    -0.014 A 
BRANCH  29  30
ATOM     30  C   UNL     1      -4.338   2.154   4.014  1.00  0.00     0.031 A 
ATOM     31  C   UNL     1      -5.141   2.745   2.875  1.00  0.00     0.074 A 
ATOM     32  C   UNL     1      -3.466   2.935   4.686  1.00  0.00     0.049 A 
ATOM     33  N   UNL     1      -5.159   3.978   2.431  1.00  0.00    -0.248 NA
ATOM     34  C   UNL     1      -6.003   1.832   2.104  1.00  0.00     0.031 C 
ATOM     35  C   UNL     1      -2.549   2.474   5.733  1.00  0.00     0.029 A 
ATOM     36  N   UNL     1      -3.219   4.284   4.608  1.00  0.00    -0.354 N 
ATOM     37  C   UNL     1      -6.009   3.977   1.329  1.00  0.00     0.074 A 
ATOM     38  C   UNL     1      -6.420   2.610   1.117  1.00  0.00     0.031 C 
ATOM     39  C   UNL     1      -1.910   3.530   6.258  1.00  0.00     0.029 A 
ATOM     40  C   UNL     1      -2.331   4.738   5.557  1.00  0.00     0.049 A 
ATOM     41  H   UNL     1      -3.638   4.871   3.938  1.00  0.00     0.167 HD
ATOM     42  C   UNL     1      -6.451   5.022   0.588  1.00  0.00     0.037 A 
ATOM     43  C   UNL     1      -1.917   5.987   5.848  1.00  0.00     0.037 A 
ATOM     44  C   UNL     1      -6.091   6.392   0.841  1.00  0.00     0.049 A 
ATOM     45  C   UNL     1      -2.462   7.140   5.052  1.00  0.00     0.074 A 
ATOM     46  C   UNL     1      -6.541   7.533   0.199  1.00  0.00     0.029 A 
ATOM     47  N   UNL     1      -5.206   6.808   1.825  1.00  0.00    -0.354 N 
ATOM     48  N   UNL     1      -3.318   7.122   4.058  1.00  0.00    -0.248 NA
ATOM     49  C   UNL     1      -1.990   8.482   5.418  1.00  0.00     0.031 C 
ATOM     50  C   UNL     1      -5.904   8.637   0.775  1.00  0.00     0.029 A 
ATOM     51  C   UNL     1      -5.090   8.188   1.803  1.00  0.00     0.049 A 
ATOM     52  H   UNL     1      -4.732   6.211   2.447  1.00  0.00     0.167 HD
ATOM     53  C   UNL     1      -3.498   8.450   3.689  1.00  0.00     0.074 A 
ATOM     54  C   UNL     1      -2.679   9.246   4.580  1.00  0.00     0.031 C 
ATOM     55  C   UNL     1      -4.269   8.963   2.698  1.00  0.00     0.037 A 
BRANCH  42  56
ATOM     56  C   UNL     1      -7.412   4.732  -0.536  1.00  0.00     0.058 A 
ATOM     57  C   UNL     1      -8.725   4.301  -0.284  1.00  0.00     0.135 A 
ATOM     58  C   UNL     1      -7.038   4.931  -1.876  1.00  0.00     0.135 A 
ATOM     59  F   UNL     1      -9.135   4.082   0.976  1.00  0.00    -0.206 F 
ATOM     60  C   UNL     1      -9.622   4.048  -1.317  1.00  0.00     0.059 A 
ATOM     61  C   UNL     1      -7.930   4.713  -2.924  1.00  0.00     0.059 A 
ATOM     62  F   UNL     1      -5.798   5.345  -2.178  1.00  0.00    -0.206 F 
ATOM     63  C   UNL     1      -9.216   4.260  -2.634  1.00  0.00     0.060 A 
BRANCH  63  64
ATOM     64  S   UNL     1     -10.402   3.944  -3.958  1.00  0.00     0.124 S 
ATOM     65  O   UNL     1     -10.490   2.487  -3.930  1.00  0.00    -0.237 OA
ATOM     66  O   UNL     1     -11.586   4.658  -3.490  1.00  0.00    -0.237 OA
ATOM     67  O   UNL     1      -9.757   4.511  -5.138  1.00  0.00    -0.744 OA
ENDBRANCH  63  64
ENDBRANCH  42  56
BRANCH  43  68
ATOM     68  C   UNL     1      -0.988   6.210   6.988  1.00  0.00     0.058 A 
ATOM     69  C   UNL     1      -1.442   6.802   8.177  1.00  0.00     0.135 A 
ATOM     70  C   UNL     1       0.352   5.797   6.936  1.00  0.00     0.135 A 
ATOM     71  F   UNL     1      -2.714   7.219   8.274  1.00  0.00    -0.206 F 
ATOM     72  C   UNL     1      -0.602   6.980   9.271  1.00  0.00     0.059 A 
ATOM     73  C   UNL     1       1.206   5.942   8.026  1.00  0.00     0.059 A 
ATOM     74  F   UNL     1       0.832   5.209   5.829  1.00  0.00    -0.206 F 
ATOM     75  C   UNL     1       0.719   6.539   9.189  1.00  0.00     0.060 A 
BRANCH  75  76
ATOM     76  S   UNL     1       1.778   6.712  10.642  1.00  0.00     0.124 S 
ATOM     77  O   UNL     1       1.984   8.155  10.687  1.00  0.00    -0.237 OA
ATOM     78  O   UNL     1       0.941   6.153  11.698  1.00  0.00    -0.237 OA
ATOM     79  O   UNL     1       2.954   5.918  10.297  1.00  0.00    -0.744 OA
ENDBRANCH  75  76
ENDBRANCH  43  68
BRANCH  55  80
ATOM     80  C   UNL     1      -4.274  10.456   2.527  1.00  0.00     0.058 A 
ATOM     81  C   UNL     1      -3.178  11.132   1.971  1.00  0.00     0.135 A 
ATOM     82  C   UNL     1      -5.413  11.207   2.859  1.00  0.00     0.135 A 
ATOM     83  F   UNL     1      -2.065  10.459   1.641  1.00  0.00    -0.206 F 
ATOM     84  C   UNL     1      -3.204  12.507   1.766  1.00  0.00     0.059 A 
ATOM     85  C   UNL     1      -5.470  12.579   2.639  1.00  0.00     0.059 A 
ATOM     86  F   UNL     1      -6.492  10.605   3.384  1.00  0.00    -0.206 F 
ATOM     87  C   UNL     1      -4.356  13.222   2.100  1.00  0.00     0.060 A 
BRANCH  87  88
ATOM     88  S   UNL     1      -4.386  15.000   1.793  1.00  0.00     0.124 S 
ATOM     89  O   UNL     1      -3.479  15.492   2.825  1.00  0.00    -0.237 OA
ATOM     90  O   UNL     1      -3.892  15.087   0.422  1.00  0.00    -0.237 OA
ATOM     91  O   UNL     1      -5.791  15.354   1.971  1.00  0.00    -0.744 OA
ENDBRANCH  87  88
ENDBRANCH  55  80
ENDBRANCH  29  30
ENDBRANCH  22  24
ENDBRANCH  21  22
ENDBRANCH   1  21
TORSDOF 15
