REMARK SMILES NS(=O)(=O)c1ccc(-c2cc(Cl)cc3c2O[C@H](C(F)(F)F)C(C(=O)OCCOC(=O)c2ccc(-c4c5nc(c(-c6c(F)cc(S(=O)(=O)[O-])cc6F)c6ccc([nH]6)c(-c6c(F)cc(S(=O)(=O)[O-])cc6F)c6nc(c(-c7c(F)cc(S(=O)(=O)[O-])cc7F)c7ccc4[nH]7)C=C6)C=C5)cc2)=C3)cc1
REMARK SMILES IDX 26 1 25 2 23 3 24 4 22 5 9 6 10 7 15 8 11 9 14 10 16 11
REMARK SMILES IDX 12 12 13 13 97 14 17 15 8 16 5 17 6 18 99 19 7 20 98 21 2 22
REMARK SMILES IDX 3 23 4 24 1 25 18 28 19 29 20 30 21 31 27 32 28 33 29 34
REMARK SMILES IDX 30 35 31 36 32 37 96 38 33 39 95 40 34 41 35 42 36 43 89 44
REMARK SMILES IDX 37 45 94 46 88 47 90 48 38 49 93 50 87 51 86 52 39 54 73 55
REMARK SMILES IDX 52 56 72 57 53 58 56 59 71 60 91 61 54 62 55 63 70 65 92 66
REMARK SMILES IDX 57 67 40 68 41 69 50 70 42 71 43 72 49 73 51 74 44 75 45 76
REMARK SMILES IDX 46 77 47 78 48 79 74 80 75 81 84 82 76 83 77 84 83 85 85 86
REMARK SMILES IDX 78 87 79 88 80 89 81 90 82 91 58 92 59 93 68 94 60 95 61 96
REMARK SMILES IDX 67 97 69 98 62 99 63 100 64 101 65 102 66 103
REMARK H PARENT 1 26 1 27 90 53 56 64
REMARK Flexibility Score: inf
ROOT
ATOM      1  C   UNL     1       4.784   1.827 -12.683  1.00  0.00     0.275 C 
ENDROOT
BRANCH   1   2
ATOM      2  O   UNL     1       5.013   2.382 -11.366  1.00  0.00    -0.459 OA
BRANCH   2   3
ATOM      3  C   UNL     1       4.408   3.587 -11.205  1.00  0.00     0.338 C 
ATOM      4  O   UNL     1       3.824   4.191 -12.098  1.00  0.00    -0.246 OA
BRANCH   3   5
ATOM      5  C   UNL     1       4.417   4.083  -9.809  1.00  0.00     0.087 C 
ATOM      6  C   UNL     1       2.801   2.038  -6.653  1.00  0.00     0.026 A 
ATOM      7  C   UNL     1       1.784   1.260  -7.265  1.00  0.00     0.033 A 
ATOM      8  C   UNL     1       3.386   2.984  -7.496  1.00  0.00     0.135 A 
ATOM      9  C   UNL     1       1.276   1.506  -8.543  1.00  0.00     0.042 A 
ATOM     10  C   UNL     1       2.685   3.387  -8.660  1.00  0.00     0.019 A 
ATOM     11  O   UNL     1       4.676   3.482  -7.367  1.00  0.00    -0.475 OA
ATOM     12  Cl  UNL     1       0.175   0.463  -9.344  1.00  0.00    -0.084 Cl
ATOM     13  C   UNL     1       1.657   2.642  -9.206  1.00  0.00     0.032 A 
ATOM     14  C   UNL     1       3.207   4.525  -9.437  1.00  0.00     0.027 C 
ATOM     15  C   UNL     1       5.356   3.620  -8.710  1.00  0.00     0.316 C 
BRANCH   6  16
ATOM     16  C   UNL     1       2.912   1.843  -5.170  1.00  0.00    -0.015 A 
ATOM     17  C   UNL     1       2.309   0.776  -2.584  1.00  0.00     0.082 A 
ATOM     18  C   UNL     1       3.426   0.331  -3.297  1.00  0.00     0.022 A 
ATOM     19  C   UNL     1       1.531   1.802  -3.112  1.00  0.00     0.022 A 
ATOM     20  C   UNL     1       3.747   0.894  -4.556  1.00  0.00     0.010 A 
ATOM     21  C   UNL     1       1.839   2.328  -4.381  1.00  0.00     0.010 A 
BRANCH  17  22
ATOM     22  S   UNL     1       1.772  -0.093  -1.128  1.00  0.00     0.238 S 
ATOM     23  O   UNL     1       2.393  -1.384  -1.085  1.00  0.00    -0.207 OA
ATOM     24  O   UNL     1       0.350   0.112  -0.953  1.00  0.00    -0.207 OA
BRANCH  22  25
ATOM     25  N   UNL     1       2.455   0.781   0.140  1.00  0.00    -0.225 NA
ATOM     26  H   UNL     1       2.197   0.350   1.028  1.00  0.00     0.137 HD
ATOM     27  H   UNL     1       2.110   1.741   0.115  1.00  0.00     0.137 HD
ENDBRANCH  22  25
ENDBRANCH  17  22
ENDBRANCH   6  16
BRANCH  15  28
ATOM     28  C   UNL     1       6.468   4.675  -8.650  1.00  0.00     0.430 C 
ATOM     29  F   UNL     1       5.998   5.881  -8.248  1.00  0.00    -0.167 F 
ATOM     30  F   UNL     1       7.470   4.325  -7.817  1.00  0.00    -0.167 F 
ATOM     31  F   UNL     1       7.024   4.863  -9.877  1.00  0.00    -0.167 F 
ENDBRANCH  15  28
ENDBRANCH   3   5
ENDBRANCH   2   3
ENDBRANCH   1   2
BRANCH   1  32
ATOM     32  C   UNL     1       5.098   0.330 -12.767  1.00  0.00     0.275 C 
BRANCH  32  33
ATOM     33  O   UNL     1       4.371  -0.414 -11.771  1.00  0.00    -0.458 OA
BRANCH  33  34
ATOM     34  C   UNL     1       5.064  -0.606 -10.621  1.00  0.00     0.338 C 
ATOM     35  O   UNL     1       6.220  -0.257 -10.422  1.00  0.00    -0.246 OA
BRANCH  34  36
ATOM     36  C   UNL     1       4.213  -1.184  -9.549  1.00  0.00     0.060 A 
ATOM     37  C   UNL     1       4.586  -0.878  -8.245  1.00  0.00     0.016 A 
ATOM     38  C   UNL     1       3.104  -2.019  -9.758  1.00  0.00     0.016 A 
ATOM     39  C   UNL     1       3.843  -1.375  -7.175  1.00  0.00     0.010 A 
ATOM     40  C   UNL     1       2.350  -2.510  -8.661  1.00  0.00     0.010 A 
ATOM     41  C   UNL     1       2.696  -2.172  -7.347  1.00  0.00    -0.014 A 
BRANCH  41  42
ATOM     42  C   UNL     1       2.030  -2.670  -6.087  1.00  0.00     0.031 A 
ATOM     43  C   UNL     1       2.858  -3.527  -5.170  1.00  0.00     0.074 A 
ATOM     44  C   UNL     1       0.835  -2.224  -5.633  1.00  0.00     0.049 A 
ATOM     45  N   UNL     1       2.660  -3.828  -3.916  1.00  0.00    -0.248 NA
ATOM     46  C   UNL     1       4.081  -4.107  -5.749  1.00  0.00     0.031 C 
ATOM     47  C   UNL     1      -0.087  -1.400  -6.392  1.00  0.00     0.029 A 
ATOM     48  N   UNL     1       0.217  -2.311  -4.399  1.00  0.00    -0.354 N 
ATOM     49  C   UNL     1       3.731  -4.628  -3.550  1.00  0.00     0.074 A 
ATOM     50  C   UNL     1       4.598  -4.734  -4.705  1.00  0.00     0.031 C 
ATOM     51  C   UNL     1      -1.023  -0.881  -5.581  1.00  0.00     0.029 A 
ATOM     52  C   UNL     1      -0.884  -1.477  -4.258  1.00  0.00     0.049 A 
ATOM     53  H   UNL     1       0.530  -2.911  -3.683  1.00  0.00     0.167 HD
ATOM     54  C   UNL     1       3.948  -5.268  -2.378  1.00  0.00     0.037 A 
ATOM     55  C   UNL     1      -1.702  -1.233  -3.206  1.00  0.00     0.037 A 
ATOM     56  C   UNL     1       3.032  -5.271  -1.270  1.00  0.00     0.049 A 
ATOM     57  C   UNL     1      -1.496  -2.059  -1.956  1.00  0.00     0.074 A 
ATOM     58  C   UNL     1       3.111  -5.998  -0.096  1.00  0.00     0.029 A 
ATOM     59  N   UNL     1       1.860  -4.532  -1.204  1.00  0.00    -0.354 N 
ATOM     60  N   UNL     1      -0.527  -2.898  -1.671  1.00  0.00    -0.248 NA
ATOM     61  C   UNL     1      -2.518  -1.947  -0.904  1.00  0.00     0.031 C 
ATOM     62  C   UNL     1       1.946  -5.765   0.642  1.00  0.00     0.029 A 
ATOM     63  C   UNL     1       1.180  -4.827  -0.033  1.00  0.00     0.049 A 
ATOM     64  H   UNL     1       1.556  -3.893  -1.888  1.00  0.00     0.167 HD
ATOM     65  C   UNL     1      -0.787  -3.360  -0.384  1.00  0.00     0.074 A 
ATOM     66  C   UNL     1      -2.020  -2.732   0.042  1.00  0.00     0.031 C 
ATOM     67  C   UNL     1      -0.059  -4.213   0.380  1.00  0.00     0.037 A 
BRANCH  54  68
ATOM     68  C   UNL     1       5.168  -6.138  -2.314  1.00  0.00     0.058 A 
ATOM     69  C   UNL     1       6.461  -5.602  -2.208  1.00  0.00     0.135 A 
ATOM     70  C   UNL     1       5.035  -7.532  -2.411  1.00  0.00     0.135 A 
ATOM     71  F   UNL     1       6.642  -4.273  -2.159  1.00  0.00    -0.206 F 
ATOM     72  C   UNL     1       7.584  -6.422  -2.223  1.00  0.00     0.059 A 
ATOM     73  C   UNL     1       6.142  -8.371  -2.402  1.00  0.00     0.059 A 
ATOM     74  F   UNL     1       3.821  -8.089  -2.540  1.00  0.00    -0.206 F 
ATOM     75  C   UNL     1       7.413  -7.805  -2.325  1.00  0.00     0.060 A 
BRANCH  75  76
ATOM     76  S   UNL     1       8.880  -8.855  -2.372  1.00  0.00     0.124 S 
ATOM     77  O   UNL     1       9.411  -8.553  -3.697  1.00  0.00    -0.237 OA
ATOM     78  O   UNL     1       9.659  -8.351  -1.246  1.00  0.00    -0.237 OA
ATOM     79  O   UNL     1       8.340 -10.201  -2.205  1.00  0.00    -0.744 OA
ENDBRANCH  75  76
ENDBRANCH  54  68
BRANCH  55  80
ATOM     80  C   UNL     1      -2.809  -0.209  -3.255  1.00  0.00     0.058 A 
ATOM     81  C   UNL     1      -2.864   0.872  -2.352  1.00  0.00     0.135 A 
ATOM     82  C   UNL     1      -3.873  -0.302  -4.167  1.00  0.00     0.135 A 
ATOM     83  F   UNL     1      -1.921   1.035  -1.419  1.00  0.00    -0.206 F 
ATOM     84  C   UNL     1      -3.906   1.798  -2.345  1.00  0.00     0.059 A 
ATOM     85  C   UNL     1      -4.912   0.634  -4.205  1.00  0.00     0.059 A 
ATOM     86  F   UNL     1      -3.916  -1.312  -5.050  1.00  0.00    -0.206 F 
ATOM     87  C   UNL     1      -4.926   1.675  -3.280  1.00  0.00     0.060 A 
BRANCH  87  88
ATOM     88  S   UNL     1      -6.246   2.907  -3.284  1.00  0.00     0.124 S 
ATOM     89  O   UNL     1      -6.996   2.545  -2.087  1.00  0.00    -0.237 OA
ATOM     90  O   UNL     1      -5.500   4.160  -3.214  1.00  0.00    -0.237 OA
ATOM     91  O   UNL     1      -6.926   2.664  -4.553  1.00  0.00    -0.744 OA
ENDBRANCH  87  88
ENDBRANCH  55  80
BRANCH  67  92
ATOM     92  C   UNL     1      -0.550  -4.502   1.775  1.00  0.00     0.058 A 
ATOM     93  C   UNL     1      -1.716  -5.245   2.023  1.00  0.00     0.135 A 
ATOM     94  C   UNL     1       0.193  -4.066   2.886  1.00  0.00     0.135 A 
ATOM     95  F   UNL     1      -2.466  -5.690   1.002  1.00  0.00    -0.206 F 
ATOM     96  C   UNL     1      -2.145  -5.516   3.320  1.00  0.00     0.059 A 
ATOM     97  C   UNL     1      -0.198  -4.357   4.189  1.00  0.00     0.059 A 
ATOM     98  F   UNL     1       1.322  -3.360   2.712  1.00  0.00    -0.206 F 
ATOM     99  C   UNL     1      -1.379  -5.067   4.397  1.00  0.00     0.060 A 
BRANCH  99 100
ATOM    100  S   UNL     1      -1.928  -5.445   6.075  1.00  0.00     0.124 S 
ATOM    101  O   UNL     1      -3.028  -4.501   6.244  1.00  0.00    -0.237 OA
ATOM    102  O   UNL     1      -2.308  -6.850   5.974  1.00  0.00    -0.237 OA
ATOM    103  O   UNL     1      -0.744  -5.180   6.888  1.00  0.00    -0.744 OA
ENDBRANCH  99 100
ENDBRANCH  67  92
ENDBRANCH  41  42
ENDBRANCH  34  36
ENDBRANCH  33  34
ENDBRANCH  32  33
ENDBRANCH   1  32
TORSDOF 18
