REMARK SMILES CCCOc1ccc(Nc2snc(C)c2C(=O)OCCOC(=O)c2ccc(-c3c4nc(c(-c5c(F)cc(S(=O)(=O)[O-])cc5F)c5ccc([nH]5)c(-c5c(F)cc(S(=O)(=O)[O-])cc5F)c5nc(c(-c6c(F)cc(S(=O)(=O)[O-])cc6F)c6ccc3[nH]6)C=C5)C=C4)cc2)cc1
REMARK SMILES IDX 19 1 18 2 16 3 17 4 15 5 10 6 11 7 12 8 13 9 14 10 9 11 8 13
REMARK SMILES IDX 5 14 6 15 91 16 7 17 90 18 4 19 3 20 2 21 1 22 20 23 21 24
REMARK SMILES IDX 22 25 23 26 24 27 25 28 89 29 26 30 88 31 27 32 28 33 29 34
REMARK SMILES IDX 82 35 30 36 87 37 81 38 83 39 31 40 86 41 80 42 79 43 32 45
REMARK SMILES IDX 66 46 45 47 65 48 46 49 49 50 64 51 84 52 47 53 48 54 63 56
REMARK SMILES IDX 85 57 50 58 33 59 34 60 43 61 35 62 36 63 42 64 44 65 37 66
REMARK SMILES IDX 38 67 39 68 40 69 41 70 67 71 68 72 77 73 69 74 70 75 76 76
REMARK SMILES IDX 78 77 71 78 72 79 73 80 74 81 75 82 51 83 52 84 61 85 53 86
REMARK SMILES IDX 54 87 60 88 62 89 55 90 56 91 57 92 58 93 59 94
REMARK H PARENT 9 12 83 44 49 55
REMARK Flexibility Score: inf
ROOT
ATOM      1  C   UNL     1       4.145  -0.208   4.149  1.00  0.00     0.275 C 
ENDROOT
BRANCH   1   2
ATOM      2  O   UNL     1       3.189   0.499   4.954  1.00  0.00    -0.458 OA
BRANCH   2   3
ATOM      3  C   UNL     1       2.886   0.024   6.199  1.00  0.00     0.343 C 
ATOM      4  O   UNL     1       3.353  -1.010   6.668  1.00  0.00    -0.246 OA
BRANCH   3   5
ATOM      5  C   UNL     1       2.003   0.914   6.951  1.00  0.00     0.117 A 
ATOM      6  C   UNL     1       1.012   1.719   6.393  1.00  0.00     0.128 A 
ATOM      7  S   UNL     1       0.402   2.745   7.628  1.00  0.00    -0.017 S 
ATOM      8  N   UNL     1       1.216   2.043   8.874  1.00  0.00    -0.195 NA
ATOM      9  C   UNL     1       2.053   1.126   8.385  1.00  0.00     0.068 A 
ATOM     10  C   UNL     1       2.950   0.452   9.368  1.00  0.00     0.069 C 
BRANCH   6  11
ATOM     11  N   UNL     1       0.538   1.818   5.122  1.00  0.00    -0.345 N 
ATOM     12  H   UNL     1       0.167   2.688   4.851  1.00  0.00     0.167 HD
BRANCH  11  13
ATOM     13  C   UNL     1       0.528   0.794   4.162  1.00  0.00     0.039 A 
ATOM     14  C   UNL     1       0.793  -1.254   2.238  1.00  0.00     0.119 A 
ATOM     15  C   UNL     1       0.351  -1.548   3.528  1.00  0.00     0.048 A 
ATOM     16  C   UNL     1       1.165   0.052   1.942  1.00  0.00     0.048 A 
ATOM     17  C   UNL     1       0.239  -0.538   4.487  1.00  0.00     0.030 A 
ATOM     18  C   UNL     1       0.990   1.076   2.876  1.00  0.00     0.030 A 
BRANCH  14  19
ATOM     19  O   UNL     1       0.800  -2.307   1.373  1.00  0.00    -0.494 OA
BRANCH  19  20
ATOM     20  C   UNL     1       1.352  -2.138   0.067  1.00  0.00     0.229 C 
BRANCH  20  21
ATOM     21  C   UNL     1       0.371  -1.521  -0.941  1.00  0.00     0.038 C 
ATOM     22  C   UNL     1       0.676  -0.072  -1.309  1.00  0.00     0.007 C 
ENDBRANCH  20  21
ENDBRANCH  19  20
ENDBRANCH  14  19
ENDBRANCH  11  13
ENDBRANCH   6  11
ENDBRANCH   3   5
ENDBRANCH   2   3
ENDBRANCH   1   2
BRANCH   1  23
ATOM     23  C   UNL     1       5.507   0.451   4.250  1.00  0.00     0.275 C 
BRANCH  23  24
ATOM     24  O   UNL     1       6.064   0.218   5.537  1.00  0.00    -0.458 OA
BRANCH  24  25
ATOM     25  C   UNL     1       5.729   1.150   6.454  1.00  0.00     0.338 C 
ATOM     26  O   UNL     1       4.855   1.997   6.377  1.00  0.00    -0.246 OA
BRANCH  25  27
ATOM     27  C   UNL     1       6.731   1.164   7.510  1.00  0.00     0.060 A 
ATOM     28  C   UNL     1       6.461   1.996   8.598  1.00  0.00     0.016 A 
ATOM     29  C   UNL     1       8.012   0.674   7.222  1.00  0.00     0.016 A 
ATOM     30  C   UNL     1       7.527   2.518   9.283  1.00  0.00     0.010 A 
ATOM     31  C   UNL     1       9.074   1.196   7.909  1.00  0.00     0.010 A 
ATOM     32  C   UNL     1       8.817   2.179   8.863  1.00  0.00    -0.014 A 
BRANCH  32  33
ATOM     33  C   UNL     1       9.921   2.840   9.519  1.00  0.00     0.031 A 
ATOM     34  C   UNL     1      10.053   2.449  10.944  1.00  0.00     0.074 A 
ATOM     35  C   UNL     1      10.782   3.602   8.822  1.00  0.00     0.049 A 
ATOM     36  N   UNL     1      10.019   3.203  11.991  1.00  0.00    -0.248 NA
ATOM     37  C   UNL     1      10.035   1.004  11.243  1.00  0.00     0.031 C 
ATOM     38  C   UNL     1      10.861   3.788   7.369  1.00  0.00     0.029 A 
ATOM     39  N   UNL     1      11.873   4.269   9.268  1.00  0.00    -0.354 N 
ATOM     40  C   UNL     1      10.203   2.343  13.069  1.00  0.00     0.074 A 
ATOM     41  C   UNL     1      10.010   1.008  12.573  1.00  0.00     0.031 C 
ATOM     42  C   UNL     1      12.079   4.283   7.053  1.00  0.00     0.029 A 
ATOM     43  C   UNL     1      12.804   4.557   8.281  1.00  0.00     0.049 A 
ATOM     44  H   UNL     1      11.995   4.526  10.210  1.00  0.00     0.167 HD
ATOM     45  C   UNL     1      10.754   2.774  14.234  1.00  0.00     0.037 A 
ATOM     46  C   UNL     1      14.108   4.860   8.499  1.00  0.00     0.037 A 
ATOM     47  C   UNL     1      10.637   4.201  14.375  1.00  0.00     0.049 A 
ATOM     48  C   UNL     1      14.224   5.274   9.929  1.00  0.00     0.074 A 
ATOM     49  C   UNL     1       9.565   5.074  14.408  1.00  0.00     0.029 A 
ATOM     50  N   UNL     1      11.741   4.976  14.111  1.00  0.00    -0.354 N 
ATOM     51  N   UNL     1      13.668   6.350  10.422  1.00  0.00    -0.248 NA
ATOM     52  C   UNL     1      14.546   4.243  10.907  1.00  0.00     0.031 C 
ATOM     53  C   UNL     1      10.000   6.222  13.685  1.00  0.00     0.029 A 
ATOM     54  C   UNL     1      11.325   6.008  13.305  1.00  0.00     0.049 A 
ATOM     55  H   UNL     1      12.656   4.821  14.438  1.00  0.00     0.167 HD
ATOM     56  C   UNL     1      13.207   5.978  11.680  1.00  0.00     0.074 A 
ATOM     57  C   UNL     1      13.840   4.690  11.950  1.00  0.00     0.031 C 
ATOM     58  C   UNL     1      12.138   6.599  12.264  1.00  0.00     0.037 A 
BRANCH  45  59
ATOM     59  C   UNL     1      11.716   1.938  15.039  1.00  0.00     0.058 A 
ATOM     60  C   UNL     1      12.117   2.382  16.313  1.00  0.00     0.135 A 
ATOM     61  C   UNL     1      12.474   0.872  14.497  1.00  0.00     0.135 A 
ATOM     62  F   UNL     1      11.472   3.391  16.919  1.00  0.00    -0.206 F 
ATOM     63  C   UNL     1      13.237   1.862  16.962  1.00  0.00     0.059 A 
ATOM     64  C   UNL     1      13.556   0.302  15.151  1.00  0.00     0.059 A 
ATOM     65  F   UNL     1      12.271   0.398  13.261  1.00  0.00    -0.206 F 
ATOM     66  C   UNL     1      13.961   0.836  16.360  1.00  0.00     0.060 A 
BRANCH  66  67
ATOM     67  S   UNL     1      15.486   0.259  17.121  1.00  0.00     0.124 S 
ATOM     68  O   UNL     1      16.362   1.407  16.917  1.00  0.00    -0.237 OA
ATOM     69  O   UNL     1      15.063   0.009  18.495  1.00  0.00    -0.237 OA
ATOM     70  O   UNL     1      15.817  -0.934  16.347  1.00  0.00    -0.744 OA
ENDBRANCH  66  67
ENDBRANCH  45  59
BRANCH  46  71
ATOM     71  C   UNL     1      15.268   4.402   7.685  1.00  0.00     0.058 A 
ATOM     72  C   UNL     1      16.545   4.963   7.857  1.00  0.00     0.135 A 
ATOM     73  C   UNL     1      15.210   3.232   6.897  1.00  0.00     0.135 A 
ATOM     74  F   UNL     1      16.701   6.059   8.615  1.00  0.00    -0.206 F 
ATOM     75  C   UNL     1      17.696   4.383   7.309  1.00  0.00     0.059 A 
ATOM     76  C   UNL     1      16.338   2.646   6.327  1.00  0.00     0.059 A 
ATOM     77  F   UNL     1      14.060   2.563   6.724  1.00  0.00    -0.206 F 
ATOM     78  C   UNL     1      17.583   3.213   6.557  1.00  0.00     0.060 A 
BRANCH  78  79
ATOM     79  S   UNL     1      19.075   2.371   5.979  1.00  0.00     0.124 S 
ATOM     80  O   UNL     1      19.572   3.298   4.969  1.00  0.00    -0.237 OA
ATOM     81  O   UNL     1      19.866   2.273   7.201  1.00  0.00    -0.237 OA
ATOM     82  O   UNL     1      18.570   1.101   5.464  1.00  0.00    -0.744 OA
ENDBRANCH  78  79
ENDBRANCH  46  71
BRANCH  58  83
ATOM     83  C   UNL     1      11.607   7.862  11.632  1.00  0.00     0.058 A 
ATOM     84  C   UNL     1      11.031   7.922  10.350  1.00  0.00     0.135 A 
ATOM     85  C   UNL     1      11.517   9.017  12.423  1.00  0.00     0.135 A 
ATOM     86  F   UNL     1      10.970   6.833   9.573  1.00  0.00    -0.206 F 
ATOM     87  C   UNL     1      10.435   9.085   9.860  1.00  0.00     0.059 A 
ATOM     88  C   UNL     1      10.899  10.180  11.968  1.00  0.00     0.059 A 
ATOM     89  F   UNL     1      11.984   9.007  13.683  1.00  0.00    -0.206 F 
ATOM     90  C   UNL     1      10.372  10.211  10.679  1.00  0.00     0.060 A 
BRANCH  90  91
ATOM     91  S   UNL     1       9.532  11.692  10.075  1.00  0.00     0.124 S 
ATOM     92  O   UNL     1      10.467  12.186   9.070  1.00  0.00    -0.237 OA
ATOM     93  O   UNL     1       8.274  11.157   9.561  1.00  0.00    -0.237 OA
ATOM     94  O   UNL     1       9.402  12.523  11.269  1.00  0.00    -0.744 OA
ENDBRANCH  90  91
ENDBRANCH  58  83
ENDBRANCH  32  33
ENDBRANCH  25  27
ENDBRANCH  24  25
ENDBRANCH  23  24
ENDBRANCH   1  23
TORSDOF 19
