REMARK SMILES CCCc1cc2c(cc1Cl)C=C(C(=O)OCCOC(=O)c1ccc(-c3c4nc(c(-c5c(F)cc(S(=O)(=O)[O-])cc5F)c5ccc([nH]5)c(-c5c(F)cc(S(=O)(=O)[O-])cc5F)c5nc(c(-c6c(F)cc(S(=O)(=O)[O-])cc6F)c6ccc3[nH]6)C=C5)C=C4)cc1)[C@@H](C(F)(F)F)O2
REMARK SMILES IDX 17 1 16 2 15 3 13 4 14 5 12 6 4 7 5 8 9 9 6 10 8 11 10 12
REMARK SMILES IDX 7 13 92 14 11 15 87 16 3 17 2 18 1 19 88 20 89 21 90 22
REMARK SMILES IDX 91 23 18 24 19 25 20 26 21 27 22 28 86 29 23 30 85 31 24 32
REMARK SMILES IDX 25 33 26 34 79 35 27 36 84 37 78 38 80 39 28 40 83 41 77 42
REMARK SMILES IDX 76 43 29 45 63 46 42 47 62 48 43 49 46 50 61 51 81 52 44 53
REMARK SMILES IDX 45 54 60 56 82 57 47 58 30 59 31 60 40 61 32 62 33 63 39 64
REMARK SMILES IDX 41 65 34 66 35 67 36 68 37 69 38 70 64 71 65 72 74 73 66 74
REMARK SMILES IDX 67 75 73 76 75 77 68 78 69 79 70 80 71 81 72 82 48 83 49 84
REMARK SMILES IDX 58 85 50 86 51 87 57 88 59 89 52 90 53 91 54 92 55 93 56 94
REMARK H PARENT 80 44 46 55
REMARK Flexibility Score: inf
ROOT
ATOM      1  C   UNL     1      -2.930   7.774  -6.127  1.00  0.00     0.275 C 
ENDROOT
BRANCH   1   2
ATOM      2  C   UNL     1      -1.968   6.648  -6.522  1.00  0.00     0.275 C 
BRANCH   2   3
ATOM      3  O   UNL     1      -1.786   5.692  -5.454  1.00  0.00    -0.459 OA
BRANCH   3   4
ATOM      4  C   UNL     1      -0.606   5.767  -4.792  1.00  0.00     0.338 C 
ATOM      5  O   UNL     1       0.307   6.543  -5.031  1.00  0.00    -0.246 OA
BRANCH   4   6
ATOM      6  C   UNL     1      -0.582   4.817  -3.660  1.00  0.00     0.087 C 
ATOM      7  C   UNL     1       0.429   2.455   0.666  1.00  0.00    -0.026 A 
ATOM      8  C   UNL     1      -0.311   2.122  -0.486  1.00  0.00     0.052 A 
ATOM      9  C   UNL     1       0.858   3.787   0.812  1.00  0.00     0.045 A 
ATOM     10  C   UNL     1      -0.470   3.033  -1.530  1.00  0.00     0.128 A 
ATOM     11  C   UNL     1       0.674   4.707  -0.217  1.00  0.00     0.032 A 
ATOM     12  Cl  UNL     1       1.655   4.345   2.241  1.00  0.00    -0.084 Cl
ATOM     13  C   UNL     1       0.068   4.306  -1.408  1.00  0.00     0.019 A 
ATOM     14  O   UNL     1      -1.153   2.606  -2.634  1.00  0.00    -0.475 OA
ATOM     15  C   UNL     1       0.025   5.208  -2.534  1.00  0.00     0.027 C 
ATOM     16  C   UNL     1      -1.102   3.420  -3.844  1.00  0.00     0.316 C 
BRANCH   7  17
ATOM     17  C   UNL     1       0.800   1.429   1.718  1.00  0.00     0.037 C 
BRANCH  17  18
ATOM     18  C   UNL     1       0.532  -0.050   1.417  1.00  0.00     0.001 C 
ATOM     19  C   UNL     1       1.393  -0.615   0.292  1.00  0.00     0.004 C 
ENDBRANCH  17  18
ENDBRANCH   7  17
BRANCH  16  20
ATOM     20  C   UNL     1      -0.247   2.688  -4.894  1.00  0.00     0.430 C 
ATOM     21  F   UNL     1      -0.654   1.407  -5.062  1.00  0.00    -0.167 F 
ATOM     22  F   UNL     1      -0.333   3.281  -6.110  1.00  0.00    -0.167 F 
ATOM     23  F   UNL     1       1.062   2.654  -4.556  1.00  0.00    -0.167 F 
ENDBRANCH  16  20
ENDBRANCH   4   6
ENDBRANCH   3   4
ENDBRANCH   2   3
ENDBRANCH   1   2
BRANCH   1  24
ATOM     24  O   UNL     1      -2.352   8.643  -5.136  1.00  0.00    -0.458 OA
BRANCH  24  25
ATOM     25  C   UNL     1      -2.720   8.375  -3.862  1.00  0.00     0.338 C 
ATOM     26  O   UNL     1      -3.477   7.497  -3.484  1.00  0.00    -0.246 OA
BRANCH  25  27
ATOM     27  C   UNL     1      -1.924   9.185  -2.930  1.00  0.00     0.060 A 
ATOM     28  C   UNL     1      -2.342  10.404  -2.423  1.00  0.00     0.016 A 
ATOM     29  C   UNL     1      -0.775   8.591  -2.431  1.00  0.00     0.016 A 
ATOM     30  C   UNL     1      -1.566  11.020  -1.429  1.00  0.00     0.010 A 
ATOM     31  C   UNL     1      -0.098   9.118  -1.340  1.00  0.00     0.010 A 
ATOM     32  C   UNL     1      -0.448  10.373  -0.850  1.00  0.00    -0.014 A 
BRANCH  32  33
ATOM     33  C   UNL     1       0.348  11.013   0.240  1.00  0.00     0.031 A 
ATOM     34  C   UNL     1       1.848  11.197   0.120  1.00  0.00     0.074 A 
ATOM     35  C   UNL     1      -0.285  11.438   1.354  1.00  0.00     0.049 A 
ATOM     36  N   UNL     1       2.661  11.852   0.914  1.00  0.00    -0.248 NA
ATOM     37  C   UNL     1       2.539  10.536  -1.001  1.00  0.00     0.031 C 
ATOM     38  C   UNL     1      -1.698  11.202   1.663  1.00  0.00     0.029 A 
ATOM     39  N   UNL     1       0.160  12.188   2.415  1.00  0.00    -0.354 N 
ATOM     40  C   UNL     1       3.938  11.678   0.386  1.00  0.00     0.074 A 
ATOM     41  C   UNL     1       3.813  10.773  -0.729  1.00  0.00     0.031 C 
ATOM     42  C   UNL     1      -2.030  11.887   2.767  1.00  0.00     0.029 A 
ATOM     43  C   UNL     1      -0.846  12.573   3.274  1.00  0.00     0.049 A 
ATOM     44  H   UNL     1       1.105  12.428   2.549  1.00  0.00     0.167 HD
ATOM     45  C   UNL     1       5.102  12.268   0.749  1.00  0.00     0.037 A 
ATOM     46  C   UNL     1      -0.827  13.410   4.330  1.00  0.00     0.037 A 
ATOM     47  C   UNL     1       5.211  13.214   1.825  1.00  0.00     0.049 A 
ATOM     48  C   UNL     1       0.466  14.084   4.701  1.00  0.00     0.074 A 
ATOM     49  C   UNL     1       6.318  13.941   2.222  1.00  0.00     0.029 A 
ATOM     50  N   UNL     1       4.171  13.567   2.672  1.00  0.00    -0.354 N 
ATOM     51  N   UNL     1       1.633  14.006   4.107  1.00  0.00    -0.248 NA
ATOM     52  C   UNL     1       0.449  14.954   5.885  1.00  0.00     0.031 C 
ATOM     53  C   UNL     1       5.961  14.697   3.341  1.00  0.00     0.029 A 
ATOM     54  C   UNL     1       4.619  14.476   3.613  1.00  0.00     0.049 A 
ATOM     55  H   UNL     1       3.252  13.221   2.613  1.00  0.00     0.167 HD
ATOM     56  C   UNL     1       2.489  14.816   4.843  1.00  0.00     0.074 A 
ATOM     57  C   UNL     1       1.698  15.401   5.907  1.00  0.00     0.031 C 
ATOM     58  C   UNL     1       3.813  15.044   4.665  1.00  0.00     0.037 A 
BRANCH  45  59
ATOM     59  C   UNL     1       6.337  11.957  -0.057  1.00  0.00     0.058 A 
ATOM     60  C   UNL     1       6.472  12.393  -1.386  1.00  0.00     0.135 A 
ATOM     61  C   UNL     1       7.421  11.269   0.514  1.00  0.00     0.135 A 
ATOM     62  F   UNL     1       5.465  13.046  -1.989  1.00  0.00    -0.206 F 
ATOM     63  C   UNL     1       7.619  12.134  -2.128  1.00  0.00     0.059 A 
ATOM     64  C   UNL     1       8.593  11.026  -0.200  1.00  0.00     0.059 A 
ATOM     65  F   UNL     1       7.352  10.831   1.781  1.00  0.00    -0.206 F 
ATOM     66  C   UNL     1       8.677  11.453  -1.525  1.00  0.00     0.060 A 
BRANCH  66  67
ATOM     67  S   UNL     1      10.164  11.148  -2.502  1.00  0.00     0.124 S 
ATOM     68  O   UNL     1       9.678  10.180  -3.480  1.00  0.00    -0.237 OA
ATOM     69  O   UNL     1      10.469  12.476  -3.023  1.00  0.00    -0.237 OA
ATOM     70  O   UNL     1      11.115  10.627  -1.524  1.00  0.00    -0.744 OA
ENDBRANCH  66  67
ENDBRANCH  45  59
BRANCH  46  71
ATOM     71  C   UNL     1      -2.088  13.700   5.068  1.00  0.00     0.058 A 
ATOM     72  C   UNL     1      -2.698  14.961   4.987  1.00  0.00     0.135 A 
ATOM     73  C   UNL     1      -2.732  12.714   5.832  1.00  0.00     0.135 A 
ATOM     74  F   UNL     1      -2.122  15.941   4.274  1.00  0.00    -0.206 F 
ATOM     75  C   UNL     1      -3.897  15.236   5.638  1.00  0.00     0.059 A 
ATOM     76  C   UNL     1      -3.946  12.957   6.470  1.00  0.00     0.059 A 
ATOM     77  F   UNL     1      -2.201  11.486   5.930  1.00  0.00    -0.206 F 
ATOM     78  C   UNL     1      -4.518  14.224   6.371  1.00  0.00     0.060 A 
BRANCH  78  79
ATOM     79  S   UNL     1      -6.104  14.577   7.161  1.00  0.00     0.124 S 
ATOM     80  O   UNL     1      -5.711  15.517   8.204  1.00  0.00    -0.237 OA
ATOM     81  O   UNL     1      -6.875  15.136   6.055  1.00  0.00    -0.237 OA
ATOM     82  O   UNL     1      -6.548  13.267   7.627  1.00  0.00    -0.744 OA
ENDBRANCH  78  79
ENDBRANCH  46  71
BRANCH  58  83
ATOM     83  C   UNL     1       4.509  15.941   5.648  1.00  0.00     0.058 A 
ATOM     84  C   UNL     1       4.808  15.496   6.944  1.00  0.00     0.135 A 
ATOM     85  C   UNL     1       4.988  17.202   5.256  1.00  0.00     0.135 A 
ATOM     86  F   UNL     1       4.367  14.301   7.367  1.00  0.00    -0.206 F 
ATOM     87  C   UNL     1       5.561  16.269   7.819  1.00  0.00     0.059 A 
ATOM     88  C   UNL     1       5.766  17.981   6.106  1.00  0.00     0.059 A 
ATOM     89  F   UNL     1       4.737  17.668   4.022  1.00  0.00    -0.206 F 
ATOM     90  C   UNL     1       6.048  17.504   7.386  1.00  0.00     0.060 A 
BRANCH  90  91
ATOM     91  S   UNL     1       7.090  18.456   8.510  1.00  0.00     0.124 S 
ATOM     92  O   UNL     1       6.136  18.840   9.544  1.00  0.00    -0.237 OA
ATOM     93  O   UNL     1       8.094  17.472   8.907  1.00  0.00    -0.237 OA
ATOM     94  O   UNL     1       7.585  19.547   7.676  1.00  0.00    -0.744 OA
ENDBRANCH  90  91
ENDBRANCH  58  83
ENDBRANCH  32  33
ENDBRANCH  25  27
ENDBRANCH  24  25
ENDBRANCH   1  24
TORSDOF 17
