REMARK SMILES CCc1cc(OCCC(=O)OCCOC(=O)c2ccc(-c3c4nc(c(-c5c(F)cc(S(=O)(=O)[O-])cc5F)c5ccc([nH]5)c(-c5c(F)cc(S(=O)(=O)[O-])cc5F)c5nc(c(-c6c(F)cc(S(=O)(=O)[O-])cc6F)c6ccc3[nH]6)C=C5)C=C4)cc2)nc(-c2cnccn2)n1
REMARK SMILES IDX 12 1 11 2 9 3 10 4 8 5 7 6 6 7 5 8 3 9 4 10 91 11 84 12
REMARK SMILES IDX 83 13 2 14 1 15 85 16 86 17 90 18 87 19 89 20 88 21 13 22
REMARK SMILES IDX 14 23 15 24 16 25 17 26 18 27 82 28 19 29 81 30 20 31 21 32
REMARK SMILES IDX 22 33 75 34 23 35 80 36 74 37 76 38 24 39 79 40 73 41 72 42
REMARK SMILES IDX 25 44 59 45 38 46 58 47 39 48 42 49 57 50 77 51 40 52 41 53
REMARK SMILES IDX 56 55 78 56 43 57 26 58 27 59 36 60 28 61 29 62 35 63 37 64
REMARK SMILES IDX 30 65 31 66 32 67 33 68 34 69 60 70 61 71 70 72 62 73 63 74
REMARK SMILES IDX 69 75 71 76 64 77 65 78 66 79 67 80 68 81 44 82 45 83 54 84
REMARK SMILES IDX 46 85 47 86 53 87 55 88 48 89 49 90 50 91 51 92 52 93
REMARK H PARENT 76 43 42 54
REMARK Flexibility Score: inf
ROOT
ATOM      1  C   UNL     1      -1.706   2.232  -1.625  1.00  0.00     0.274 C 
ENDROOT
BRANCH   1   2
ATOM      2  O   UNL     1      -0.928   2.886  -2.647  1.00  0.00    -0.462 OA
BRANCH   2   3
ATOM      3  C   UNL     1      -1.200   4.190  -2.888  1.00  0.00     0.309 C 
ATOM      4  O   UNL     1      -2.089   4.829  -2.340  1.00  0.00    -0.252 OA
BRANCH   3   5
ATOM      5  C   UNL     1      -0.317   4.775  -3.962  1.00  0.00     0.164 C 
BRANCH   5   6
ATOM      6  C   UNL     1       1.173   4.477  -3.812  1.00  0.00     0.243 C 
BRANCH   6   7
ATOM      7  O   UNL     1       1.598   3.374  -4.618  1.00  0.00    -0.477 OA
BRANCH   7   8
ATOM      8  C   UNL     1       1.745   2.126  -4.087  1.00  0.00     0.217 A 
ATOM      9  C   UNL     1       1.747   0.473  -2.394  1.00  0.00     0.048 A 
ATOM     10  C   UNL     1       1.760   1.811  -2.747  1.00  0.00     0.092 A 
ATOM     11  N   UNL     1       1.808  -0.486  -3.321  1.00  0.00    -0.231 NA
ATOM     12  C   UNL     1       1.924  -0.091  -4.602  1.00  0.00     0.183 A 
ATOM     13  N   UNL     1       1.889   1.183  -5.031  1.00  0.00    -0.192 NA
BRANCH   9  14
ATOM     14  C   UNL     1       1.503   0.036  -0.973  1.00  0.00     0.053 C 
ATOM     15  C   UNL     1       2.101  -1.302  -0.573  1.00  0.00     0.011 C 
ENDBRANCH   9  14
BRANCH  12  16
ATOM     16  C   UNL     1       2.390  -1.127  -5.517  1.00  0.00     0.126 A 
ATOM     17  C   UNL     1       3.679  -1.049  -6.039  1.00  0.00     0.143 A 
ATOM     18  N   UNL     1       1.637  -2.256  -5.661  1.00  0.00    -0.250 NA
ATOM     19  N   UNL     1       4.280  -2.080  -6.684  1.00  0.00    -0.261 NA
ATOM     20  C   UNL     1       2.236  -3.280  -6.302  1.00  0.00     0.132 A 
ATOM     21  C   UNL     1       3.531  -3.200  -6.786  1.00  0.00     0.131 A 
ENDBRANCH  12  16
ENDBRANCH   7   8
ENDBRANCH   6   7
ENDBRANCH   5   6
ENDBRANCH   3   5
ENDBRANCH   2   3
ENDBRANCH   1   2
BRANCH   1  22
ATOM     22  C   UNL     1      -1.003   2.291  -0.273  1.00  0.00     0.275 C 
BRANCH  22  23
ATOM     23  O   UNL     1      -1.011   3.609   0.264  1.00  0.00    -0.458 OA
BRANCH  23  24
ATOM     24  C   UNL     1       0.141   4.299   0.117  1.00  0.00     0.338 C 
ATOM     25  O   UNL     1       1.185   3.974  -0.406  1.00  0.00    -0.246 OA
BRANCH  24  26
ATOM     26  C   UNL     1      -0.079   5.586   0.731  1.00  0.00     0.060 A 
ATOM     27  C   UNL     1      -0.386   6.677  -0.080  1.00  0.00     0.016 A 
ATOM     28  C   UNL     1      -0.029   5.647   2.123  1.00  0.00     0.016 A 
ATOM     29  C   UNL     1      -0.680   7.875   0.534  1.00  0.00     0.010 A 
ATOM     30  C   UNL     1      -0.357   6.836   2.734  1.00  0.00     0.010 A 
ATOM     31  C   UNL     1      -0.683   7.940   1.935  1.00  0.00    -0.014 A 
BRANCH  31  32
ATOM     32  C   UNL     1      -1.049   9.199   2.579  1.00  0.00     0.031 A 
ATOM     33  C   UNL     1       0.037  10.037   3.160  1.00  0.00     0.074 A 
ATOM     34  C   UNL     1      -2.352   9.524   2.588  1.00  0.00     0.049 A 
ATOM     35  N   UNL     1      -0.049  11.199   3.739  1.00  0.00    -0.248 NA
ATOM     36  C   UNL     1       1.405   9.491   3.094  1.00  0.00     0.031 C 
ATOM     37  C   UNL     1      -3.429   8.693   2.034  1.00  0.00     0.029 A 
ATOM     38  N   UNL     1      -2.992  10.632   3.053  1.00  0.00    -0.354 N 
ATOM     39  C   UNL     1       1.248  11.524   4.111  1.00  0.00     0.074 A 
ATOM     40  C   UNL     1       2.099  10.422   3.730  1.00  0.00     0.031 C 
ATOM     41  C   UNL     1      -4.594   9.345   2.157  1.00  0.00     0.029 A 
ATOM     42  C   UNL     1      -4.347  10.614   2.827  1.00  0.00     0.049 A 
ATOM     43  H   UNL     1      -2.530  11.374   3.507  1.00  0.00     0.167 HD
ATOM     44  C   UNL     1       1.667  12.660   4.710  1.00  0.00     0.037 A 
ATOM     45  C   UNL     1      -5.271  11.541   3.132  1.00  0.00     0.037 A 
ATOM     46  C   UNL     1       0.755  13.714   5.072  1.00  0.00     0.049 A 
ATOM     47  C   UNL     1      -4.771  12.800   3.781  1.00  0.00     0.074 A 
ATOM     48  C   UNL     1       1.020  14.917   5.695  1.00  0.00     0.029 A 
ATOM     49  N   UNL     1      -0.617  13.675   4.833  1.00  0.00    -0.354 N 
ATOM     50  N   UNL     1      -3.539  13.114   4.121  1.00  0.00    -0.248 NA
ATOM     51  C   UNL     1      -5.765  13.831   4.079  1.00  0.00     0.031 C 
ATOM     52  C   UNL     1      -0.199  15.586   5.868  1.00  0.00     0.029 A 
ATOM     53  C   UNL     1      -1.216  14.826   5.306  1.00  0.00     0.049 A 
ATOM     54  H   UNL     1      -1.091  12.934   4.391  1.00  0.00     0.167 HD
ATOM     55  C   UNL     1      -3.605  14.385   4.667  1.00  0.00     0.074 A 
ATOM     56  C   UNL     1      -4.999  14.790   4.581  1.00  0.00     0.031 C 
ATOM     57  C   UNL     1      -2.619  15.153   5.200  1.00  0.00     0.037 A 
BRANCH  44  58
ATOM     58  C   UNL     1       3.132  12.778   5.028  1.00  0.00     0.058 A 
ATOM     59  C   UNL     1       4.104  12.904   4.020  1.00  0.00     0.135 A 
ATOM     60  C   UNL     1       3.579  12.738   6.358  1.00  0.00     0.135 A 
ATOM     61  F   UNL     1       3.740  12.913   2.727  1.00  0.00    -0.206 F 
ATOM     62  C   UNL     1       5.463  12.961   4.317  1.00  0.00     0.059 A 
ATOM     63  C   UNL     1       4.931  12.820   6.681  1.00  0.00     0.059 A 
ATOM     64  F   UNL     1       2.699  12.599   7.362  1.00  0.00    -0.206 F 
ATOM     65  C   UNL     1       5.867  12.918   5.652  1.00  0.00     0.060 A 
BRANCH  65  66
ATOM     66  S   UNL     1       7.633  12.995   6.023  1.00  0.00     0.124 S 
ATOM     67  O   UNL     1       8.082  11.676   5.588  1.00  0.00    -0.237 OA
ATOM     68  O   UNL     1       8.075  14.117   5.200  1.00  0.00    -0.237 OA
ATOM     69  O   UNL     1       7.668  13.226   7.464  1.00  0.00    -0.744 OA
ENDBRANCH  65  66
ENDBRANCH  44  58
BRANCH  45  70
ATOM     70  C   UNL     1      -6.702  11.308   2.801  1.00  0.00     0.058 A 
ATOM     71  C   UNL     1      -7.354  12.055   1.810  1.00  0.00     0.135 A 
ATOM     72  C   UNL     1      -7.433  10.284   3.428  1.00  0.00     0.135 A 
ATOM     73  F   UNL     1      -6.701  13.037   1.171  1.00  0.00    -0.206 F 
ATOM     74  C   UNL     1      -8.681  11.809   1.463  1.00  0.00     0.059 A 
ATOM     75  C   UNL     1      -8.751  10.002   3.080  1.00  0.00     0.059 A 
ATOM     76  F   UNL     1      -6.851   9.519   4.364  1.00  0.00    -0.206 F 
ATOM     77  C   UNL     1      -9.371  10.778   2.104  1.00  0.00     0.060 A 
BRANCH  77  78
ATOM     78  S   UNL     1     -11.078  10.438   1.619  1.00  0.00     0.124 S 
ATOM     79  O   UNL     1     -11.781  11.573   2.207  1.00  0.00    -0.237 OA
ATOM     80  O   UNL     1     -10.988  10.428   0.162  1.00  0.00    -0.237 OA
ATOM     81  O   UNL     1     -11.349   9.141   2.231  1.00  0.00    -0.744 OA
ENDBRANCH  77  78
ENDBRANCH  45  70
BRANCH  57  82
ATOM     82  C   UNL     1      -3.043  16.497   5.709  1.00  0.00     0.058 A 
ATOM     83  C   UNL     1      -3.794  16.630   6.887  1.00  0.00     0.135 A 
ATOM     84  C   UNL     1      -2.682  17.661   5.014  1.00  0.00     0.135 A 
ATOM     85  F   UNL     1      -4.164  15.541   7.580  1.00  0.00    -0.206 F 
ATOM     86  C   UNL     1      -4.216  17.874   7.334  1.00  0.00     0.059 A 
ATOM     87  C   UNL     1      -3.065  18.918   5.462  1.00  0.00     0.059 A 
ATOM     88  F   UNL     1      -1.950  17.581   3.891  1.00  0.00    -0.206 F 
ATOM     89  C   UNL     1      -3.851  19.011   6.610  1.00  0.00     0.060 A 
BRANCH  89  90
ATOM     90  S   UNL     1      -4.412  20.621   7.195  1.00  0.00     0.124 S 
ATOM     91  O   UNL     1      -5.812  20.606   6.787  1.00  0.00    -0.237 OA
ATOM     92  O   UNL     1      -4.167  20.535   8.631  1.00  0.00    -0.237 OA
ATOM     93  O   UNL     1      -3.556  21.559   6.474  1.00  0.00    -0.744 OA
ENDBRANCH  89  90
ENDBRANCH  57  82
ENDBRANCH  31  32
ENDBRANCH  24  26
ENDBRANCH  23  24
ENDBRANCH  22  23
ENDBRANCH   1  22
TORSDOF 19
