REMARK SMILES Cn1cc(C[C@H](C(=O)OCCOC(=O)c2ccc(-c3c4nc(c(-c5c(F)cc(S(=O)(=O)[O-])cc5F)c5ccc([nH]5)c(-c5c(F)cc(S(=O)(=O)[O-])cc5F)c5nc(c(-c6c(F)cc(S(=O)(=O)[O-])cc6F)c6ccc3[nH]6)C=C5)C=C4)cc2)c2ccc(F)cc2)cn1
REMARK SMILES IDX 11 1 10 2 9 3 7 4 8 5 6 6 5 7 4 8 1 9 2 10 3 11 89 12 88 13
REMARK SMILES IDX 81 14 82 15 87 16 83 17 86 18 84 19 85 20 12 21 13 22 14 23
REMARK SMILES IDX 15 24 16 25 80 26 17 27 79 28 18 29 19 30 20 31 73 32 21 33
REMARK SMILES IDX 78 34 72 35 74 36 22 37 77 38 71 39 70 40 23 42 57 43 36 44
REMARK SMILES IDX 56 45 37 46 40 47 55 48 75 49 38 50 39 51 54 53 76 54 41 55
REMARK SMILES IDX 24 56 25 57 34 58 26 59 27 60 33 61 35 62 28 63 29 64 30 65
REMARK SMILES IDX 31 66 32 67 58 68 59 69 68 70 60 71 61 72 67 73 69 74 62 75
REMARK SMILES IDX 63 76 64 77 65 78 66 79 42 80 43 81 52 82 44 83 45 84 51 85
REMARK SMILES IDX 53 86 46 87 47 88 48 89 49 90 50 91
REMARK H PARENT 74 41 40 52
REMARK Flexibility Score: inf
ROOT
ATOM      1  C   UNL     1       2.468  -2.226   2.572  1.00  0.00     0.275 C 
ENDROOT
BRANCH   1   2
ATOM      2  C   UNL     1       2.164  -2.956   1.270  1.00  0.00     0.274 C 
BRANCH   2   3
ATOM      3  O   UNL     1       3.111  -2.551   0.259  1.00  0.00    -0.462 OA
BRANCH   3   4
ATOM      4  C   UNL     1       2.601  -2.061  -0.901  1.00  0.00     0.313 C 
ATOM      5  O   UNL     1       1.402  -1.905  -1.115  1.00  0.00    -0.252 OA
BRANCH   4   6
ATOM      6  C   UNL     1       3.670  -1.671  -1.927  1.00  0.00     0.134 C 
BRANCH   6   7
ATOM      7  C   UNL     1       3.728  -0.134  -1.922  1.00  0.00     0.059 C 
BRANCH   7   8
ATOM      8  C   UNL     1       4.140   0.556  -3.182  1.00  0.00    -0.009 A 
ATOM      9  C   UNL     1       4.530   3.411  -5.353  1.00  0.00     0.173 C 
ATOM     10  N   UNL     1       4.491   2.137  -4.674  1.00  0.00    -0.276 N 
ATOM     11  C   UNL     1       4.223   1.925  -3.354  1.00  0.00     0.112 A 
ATOM     12  N   UNL     1       4.661   0.996  -5.368  1.00  0.00    -0.182 NA
ATOM     13  C   UNL     1       4.441   0.040  -4.462  1.00  0.00     0.138 A 
ENDBRANCH   7   8
ENDBRANCH   6   7
BRANCH   6  14
ATOM     14  C   UNL     1       4.987  -2.432  -1.763  1.00  0.00    -0.033 A 
ATOM     15  C   UNL     1       4.958  -3.842  -1.817  1.00  0.00     0.007 A 
ATOM     16  C   UNL     1       6.226  -1.802  -1.565  1.00  0.00     0.007 A 
ATOM     17  C   UNL     1       6.121  -4.593  -1.646  1.00  0.00     0.039 A 
ATOM     18  C   UNL     1       7.393  -2.558  -1.403  1.00  0.00     0.039 A 
ATOM     19  C   UNL     1       7.328  -3.944  -1.439  1.00  0.00     0.123 A 
ATOM     20  F   UNL     1       8.445  -4.665  -1.275  1.00  0.00    -0.207 F 
ENDBRANCH   6  14
ENDBRANCH   4   6
ENDBRANCH   3   4
ENDBRANCH   2   3
ENDBRANCH   1   2
BRANCH   1  21
ATOM     21  O   UNL     1       2.269  -0.819   2.354  1.00  0.00    -0.458 OA
BRANCH  21  22
ATOM     22  C   UNL     1       3.347  -0.031   2.570  1.00  0.00     0.338 C 
ATOM     23  O   UNL     1       4.425  -0.359   3.033  1.00  0.00    -0.246 OA
BRANCH  22  24
ATOM     24  C   UNL     1       3.040   1.341   2.127  1.00  0.00     0.060 A 
ATOM     25  C   UNL     1       2.491   1.563   0.865  1.00  0.00     0.016 A 
ATOM     26  C   UNL     1       3.407   2.420   2.928  1.00  0.00     0.016 A 
ATOM     27  C   UNL     1       2.417   2.859   0.354  1.00  0.00     0.010 A 
ATOM     28  C   UNL     1       3.219   3.723   2.459  1.00  0.00     0.010 A 
ATOM     29  C   UNL     1       2.767   3.963   1.148  1.00  0.00    -0.014 A 
BRANCH  29  30
ATOM     30  C   UNL     1       2.705   5.358   0.616  1.00  0.00     0.031 A 
ATOM     31  C   UNL     1       3.923   6.249   0.683  1.00  0.00     0.074 A 
ATOM     32  C   UNL     1       1.568   5.851   0.083  1.00  0.00     0.049 A 
ATOM     33  N   UNL     1       4.013   7.543   0.512  1.00  0.00    -0.248 NA
ATOM     34  C   UNL     1       5.203   5.600   1.009  1.00  0.00     0.031 C 
ATOM     35  C   UNL     1       0.315   5.113  -0.086  1.00  0.00     0.029 A 
ATOM     36  N   UNL     1       1.283   7.099  -0.418  1.00  0.00    -0.354 N 
ATOM     37  C   UNL     1       5.335   7.875   0.793  1.00  0.00     0.074 A 
ATOM     38  C   UNL     1       6.014   6.642   1.128  1.00  0.00     0.031 C 
ATOM     39  C   UNL     1      -0.585   5.902  -0.690  1.00  0.00     0.029 A 
ATOM     40  C   UNL     1      -0.011   7.231  -0.866  1.00  0.00     0.049 A 
ATOM     41  H   UNL     1       1.942   7.829  -0.453  1.00  0.00     0.167 HD
ATOM     42  C   UNL     1       5.925   9.095   0.781  1.00  0.00     0.037 A 
ATOM     43  C   UNL     1      -0.682   8.306  -1.323  1.00  0.00     0.037 A 
ATOM     44  C   UNL     1       5.271  10.310   0.370  1.00  0.00     0.049 A 
ATOM     45  C   UNL     1      -0.003   9.643  -1.362  1.00  0.00     0.074 A 
ATOM     46  C   UNL     1       5.791  11.592   0.310  1.00  0.00     0.029 A 
ATOM     47  N   UNL     1       3.962  10.391  -0.080  1.00  0.00    -0.354 N 
ATOM     48  N   UNL     1       1.220   9.954  -1.005  1.00  0.00    -0.248 NA
ATOM     49  C   UNL     1      -0.801  10.781  -1.838  1.00  0.00     0.031 C 
ATOM     50  C   UNL     1       4.792  12.450  -0.165  1.00  0.00     0.029 A 
ATOM     51  C   UNL     1       3.659  11.697  -0.426  1.00  0.00     0.049 A 
ATOM     52  H   UNL     1       3.340   9.630  -0.145  1.00  0.00     0.167 HD
ATOM     53  C   UNL     1       1.335  11.325  -1.203  1.00  0.00     0.074 A 
ATOM     54  C   UNL     1       0.067  11.779  -1.738  1.00  0.00     0.031 C 
ATOM     55  C   UNL     1       2.392  12.135  -0.952  1.00  0.00     0.037 A 
BRANCH  42  56
ATOM     56  C   UNL     1       7.346   9.182   1.263  1.00  0.00     0.058 A 
ATOM     57  C   UNL     1       8.427   8.741   0.485  1.00  0.00     0.135 A 
ATOM     58  C   UNL     1       7.629   9.738   2.523  1.00  0.00     0.135 A 
ATOM     59  F   UNL     1       8.210   8.186  -0.718  1.00  0.00    -0.206 F 
ATOM     60  C   UNL     1       9.736   8.818   0.951  1.00  0.00     0.059 A 
ATOM     61  C   UNL     1       8.932   9.846   2.999  1.00  0.00     0.059 A 
ATOM     62  F   UNL     1       6.631  10.177   3.306  1.00  0.00    -0.206 F 
ATOM     63  C   UNL     1       9.978   9.366   2.212  1.00  0.00     0.060 A 
BRANCH  63  64
ATOM     64  S   UNL     1      11.678   9.453   2.815  1.00  0.00     0.124 S 
ATOM     65  O   UNL     1      11.895   8.081   3.264  1.00  0.00    -0.237 OA
ATOM     66  O   UNL     1      12.418   9.853   1.623  1.00  0.00    -0.237 OA
ATOM     67  O   UNL     1      11.610  10.458   3.872  1.00  0.00    -0.744 OA
ENDBRANCH  63  64
ENDBRANCH  42  56
BRANCH  43  68
ATOM     68  C   UNL     1      -2.099   8.155  -1.744  1.00  0.00     0.058 A 
ATOM     69  C   UNL     1      -2.450   8.169  -3.101  1.00  0.00     0.135 A 
ATOM     70  C   UNL     1      -3.117   7.935  -0.803  1.00  0.00     0.135 A 
ATOM     71  F   UNL     1      -1.512   8.389  -4.035  1.00  0.00    -0.206 F 
ATOM     72  C   UNL     1      -3.761   7.957  -3.514  1.00  0.00     0.059 A 
ATOM     73  C   UNL     1      -4.430   7.698  -1.193  1.00  0.00     0.059 A 
ATOM     74  F   UNL     1      -2.825   7.901   0.506  1.00  0.00    -0.206 F 
ATOM     75  C   UNL     1      -4.743   7.713  -2.552  1.00  0.00     0.060 A 
BRANCH  75  76
ATOM     76  S   UNL     1      -6.424   7.331  -3.093  1.00  0.00     0.124 S 
ATOM     77  O   UNL     1      -6.960   8.664  -3.344  1.00  0.00    -0.237 OA
ATOM     78  O   UNL     1      -6.192   6.503  -4.273  1.00  0.00    -0.237 OA
ATOM     79  O   UNL     1      -6.987   6.625  -1.946  1.00  0.00    -0.744 OA
ENDBRANCH  75  76
ENDBRANCH  43  68
BRANCH  55  80
ATOM     80  C   UNL     1       2.224  13.593  -1.262  1.00  0.00     0.058 A 
ATOM     81  C   UNL     1       1.507  14.443  -0.406  1.00  0.00     0.135 A 
ATOM     82  C   UNL     1       2.809  14.152  -2.409  1.00  0.00     0.135 A 
ATOM     83  F   UNL     1       0.923  13.953   0.699  1.00  0.00    -0.206 F 
ATOM     84  C   UNL     1       1.360  15.797  -0.686  1.00  0.00     0.059 A 
ATOM     85  C   UNL     1       2.688  15.507  -2.700  1.00  0.00     0.059 A 
ATOM     86  F   UNL     1       3.509  13.379  -3.255  1.00  0.00    -0.206 F 
ATOM     87  C   UNL     1       1.951  16.319  -1.839  1.00  0.00     0.060 A 
BRANCH  87  88
ATOM     88  S   UNL     1       1.774  18.082  -2.187  1.00  0.00     0.124 S 
ATOM     89  O   UNL     1       0.424  18.137  -2.739  1.00  0.00    -0.237 OA
ATOM     90  O   UNL     1       1.944  18.685  -0.868  1.00  0.00    -0.237 OA
ATOM     91  O   UNL     1       2.853  18.349  -3.133  1.00  0.00    -0.744 OA
ENDBRANCH  87  88
ENDBRANCH  55  80
ENDBRANCH  29  30
ENDBRANCH  22  24
ENDBRANCH  21  22
ENDBRANCH   1  21
TORSDOF 17
