REMARK SMILES C[C@H](C(=O)OCCOC(=O)c1ccc(-c2c3nc(c(-c4c(F)cc(S(=O)(=O)[O-])cc4F)c4ccc([nH]4)c(-c4c(F)cc(S(=O)(=O)[O-])cc4F)c4nc(c(-c5c(F)cc(S(=O)(=O)[O-])cc5F)c5ccc2[nH]5)C=C4)C=C3)cc1)[N@@H+]1CCc2ccccc2C1
REMARK SMILES IDX 7 1 6 2 5 3 3 4 4 5 2 6 1 7 77 8 78 9 86 10 79 12 85 13
REMARK SMILES IDX 80 14 84 15 81 16 83 17 82 18 8 19 9 20 10 21 11 22 12 23
REMARK SMILES IDX 76 24 13 25 75 26 14 27 15 28 16 29 69 30 17 31 74 32 68 33
REMARK SMILES IDX 70 34 18 35 73 36 67 37 66 38 19 40 53 41 32 42 52 43 33 44
REMARK SMILES IDX 36 45 51 46 71 47 34 48 35 49 50 51 72 52 37 53 20 54 21 55
REMARK SMILES IDX 30 56 22 57 23 58 29 59 31 60 24 61 25 62 26 63 27 64 28 65
REMARK SMILES IDX 54 66 55 67 64 68 56 69 57 70 63 71 65 72 58 73 59 74 60 75
REMARK SMILES IDX 61 76 62 77 38 78 39 79 48 80 40 81 41 82 47 83 49 84 42 85
REMARK SMILES IDX 43 86 44 87 45 88 46 89
REMARK H PARENT 77 11 70 39 36 50
REMARK Flexibility Score: inf
ROOT
ATOM      1  C   UNL     1       0.341  -0.962  -2.498  1.00  0.00     0.275 C 
ENDROOT
BRANCH   1   2
ATOM      2  C   UNL     1       1.044  -1.440  -1.220  1.00  0.00     0.274 C 
BRANCH   2   3
ATOM      3  O   UNL     1       0.334  -1.011  -0.031  1.00  0.00    -0.458 OA
BRANCH   3   4
ATOM      4  C   UNL     1       1.105  -0.641   1.044  1.00  0.00     0.364 C 
ATOM      5  O   UNL     1       2.329  -0.570   0.984  1.00  0.00    -0.245 OA
BRANCH   4   6
ATOM      6  C   UNL     1       0.288  -0.550   2.374  1.00  0.00     0.292 C 
ATOM      7  C   UNL     1       1.296  -0.567   3.538  1.00  0.00     0.088 C 
BRANCH   6   8
ATOM      8  N   UNL     1      -0.803   0.483   2.523  1.00  0.00    -0.319 N 
ATOM      9  C   UNL     1      -1.470   0.848   1.263  1.00  0.00     0.268 C 
ATOM     10  C   UNL     1      -0.456   1.741   3.242  1.00  0.00     0.300 C 
ATOM     11  H   UNL     1      -1.443  -0.037   3.123  1.00  0.00     0.349 HD
ATOM     12  C   UNL     1      -0.745   1.947   0.457  1.00  0.00     0.097 C 
ATOM     13  C   UNL     1       0.597   2.507   2.488  1.00  0.00     0.010 A 
ATOM     14  C   UNL     1       0.549   2.387   1.100  1.00  0.00    -0.034 A 
ATOM     15  C   UNL     1       1.697   3.102   3.115  1.00  0.00     0.010 A 
ATOM     16  C   UNL     1       1.741   2.533   0.412  1.00  0.00     0.004 A 
ATOM     17  C   UNL     1       2.835   3.399   2.368  1.00  0.00     0.001 A 
ATOM     18  C   UNL     1       2.880   3.045   1.027  1.00  0.00     0.000 A 
ENDBRANCH   6   8
ENDBRANCH   4   6
ENDBRANCH   3   4
ENDBRANCH   2   3
ENDBRANCH   1   2
BRANCH   1  19
ATOM     19  O   UNL     1       0.597   0.442  -2.686  1.00  0.00    -0.458 OA
BRANCH  19  20
ATOM     20  C   UNL     1      -0.266   1.141  -3.474  1.00  0.00     0.338 C 
ATOM     21  O   UNL     1      -1.221   0.673  -4.080  1.00  0.00    -0.246 OA
BRANCH  20  22
ATOM     22  C   UNL     1       0.040   2.598  -3.367  1.00  0.00     0.060 A 
ATOM     23  C   UNL     1       1.226   3.011  -2.787  1.00  0.00     0.016 A 
ATOM     24  C   UNL     1      -0.900   3.576  -3.688  1.00  0.00     0.016 A 
ATOM     25  C   UNL     1       1.331   4.302  -2.257  1.00  0.00     0.010 A 
ATOM     26  C   UNL     1      -0.681   4.926  -3.323  1.00  0.00     0.010 A 
ATOM     27  C   UNL     1       0.400   5.313  -2.504  1.00  0.00    -0.014 A 
BRANCH  27  28
ATOM     28  C   UNL     1       0.519   6.700  -1.885  1.00  0.00     0.031 A 
ATOM     29  C   UNL     1      -0.735   7.496  -1.551  1.00  0.00     0.074 A 
ATOM     30  C   UNL     1       1.690   7.300  -1.544  1.00  0.00     0.049 A 
ATOM     31  N   UNL     1      -0.903   8.795  -1.485  1.00  0.00    -0.248 NA
ATOM     32  C   UNL     1      -1.964   6.733  -1.279  1.00  0.00     0.031 C 
ATOM     33  C   UNL     1       3.035   6.730  -1.628  1.00  0.00     0.029 A 
ATOM     34  N   UNL     1       1.930   8.566  -1.033  1.00  0.00    -0.354 N 
ATOM     35  C   UNL     1      -2.270   9.002  -1.314  1.00  0.00     0.074 A 
ATOM     36  C   UNL     1      -2.881   7.692  -1.239  1.00  0.00     0.031 C 
ATOM     37  C   UNL     1       3.926   7.575  -1.098  1.00  0.00     0.029 A 
ATOM     38  C   UNL     1       3.267   8.844  -0.842  1.00  0.00     0.049 A 
ATOM     39  H   UNL     1       1.213   9.208  -0.826  1.00  0.00     0.167 HD
ATOM     40  C   UNL     1      -2.949  10.175  -1.247  1.00  0.00     0.037 A 
ATOM     41  C   UNL     1       3.938   9.992  -0.614  1.00  0.00     0.037 A 
ATOM     42  C   UNL     1      -2.324  11.471  -1.147  1.00  0.00     0.049 A 
ATOM     43  C   UNL     1       3.196  11.293  -0.582  1.00  0.00     0.074 A 
ATOM     44  C   UNL     1      -2.926  12.718  -1.073  1.00  0.00     0.029 A 
ATOM     45  N   UNL     1      -0.959  11.687  -1.042  1.00  0.00    -0.354 N 
ATOM     46  N   UNL     1       1.908  11.506  -0.681  1.00  0.00    -0.248 NA
ATOM     47  C   UNL     1       4.005  12.515  -0.466  1.00  0.00     0.031 C 
ATOM     48  C   UNL     1      -1.925  13.687  -0.943  1.00  0.00     0.029 A 
ATOM     49  C   UNL     1      -0.702  13.041  -0.899  1.00  0.00     0.049 A 
ATOM     50  H   UNL     1      -0.273  10.981  -1.065  1.00  0.00     0.167 HD
ATOM     51  C   UNL     1       1.751  12.886  -0.643  1.00  0.00     0.074 A 
ATOM     52  C   UNL     1       3.072  13.457  -0.489  1.00  0.00     0.031 C 
ATOM     53  C   UNL     1       0.611  13.611  -0.742  1.00  0.00     0.037 A 
BRANCH  40  54
ATOM     54  C   UNL     1      -4.451  10.136  -1.341  1.00  0.00     0.058 A 
ATOM     55  C   UNL     1      -5.275   9.729  -0.283  1.00  0.00     0.135 A 
ATOM     56  C   UNL     1      -5.078  10.595  -2.515  1.00  0.00     0.135 A 
ATOM     57  F   UNL     1      -4.734   9.270   0.857  1.00  0.00    -0.206 F 
ATOM     58  C   UNL     1      -6.664   9.759  -0.390  1.00  0.00     0.059 A 
ATOM     59  C   UNL     1      -6.462  10.660  -2.635  1.00  0.00     0.059 A 
ATOM     60  F   UNL     1      -4.338  11.004  -3.558  1.00  0.00    -0.206 F 
ATOM     61  C   UNL     1      -7.249  10.227  -1.570  1.00  0.00     0.060 A 
BRANCH  61  62
ATOM     62  S   UNL     1      -9.050  10.277  -1.692  1.00  0.00     0.124 S 
ATOM     63  O   UNL     1      -9.367   8.866  -1.886  1.00  0.00    -0.237 OA
ATOM     64  O   UNL     1      -9.438  10.842  -0.404  1.00  0.00    -0.237 OA
ATOM     65  O   UNL     1      -9.289  11.138  -2.847  1.00  0.00    -0.744 OA
ENDBRANCH  61  62
ENDBRANCH  40  54
BRANCH  41  66
ATOM     66  C   UNL     1       5.429   9.973  -0.549  1.00  0.00     0.058 A 
ATOM     67  C   UNL     1       6.109  10.233   0.648  1.00  0.00     0.135 A 
ATOM     68  C   UNL     1       6.199   9.657  -1.682  1.00  0.00     0.135 A 
ATOM     69  F   UNL     1       5.422  10.569   1.751  1.00  0.00    -0.206 F 
ATOM     70  C   UNL     1       7.497  10.163   0.726  1.00  0.00     0.059 A 
ATOM     71  C   UNL     1       7.582   9.544  -1.620  1.00  0.00     0.059 A 
ATOM     72  F   UNL     1       5.597   9.399  -2.854  1.00  0.00    -0.206 F 
ATOM     73  C   UNL     1       8.224   9.804  -0.411  1.00  0.00     0.060 A 
BRANCH  73  74
ATOM     74  S   UNL     1      10.015   9.611  -0.285  1.00  0.00     0.124 S 
ATOM     75  O   UNL     1      10.464  10.997  -0.348  1.00  0.00    -0.237 OA
ATOM     76  O   UNL     1      10.167   8.947   1.006  1.00  0.00    -0.237 OA
ATOM     77  O   UNL     1      10.342   8.786  -1.445  1.00  0.00    -0.744 OA
ENDBRANCH  73  74
ENDBRANCH  41  66
BRANCH  53  78
ATOM     78  C   UNL     1       0.737  15.103  -0.646  1.00  0.00     0.058 A 
ATOM     79  C   UNL     1       1.227  15.870  -1.714  1.00  0.00     0.135 A 
ATOM     80  C   UNL     1       0.348  15.776   0.523  1.00  0.00     0.135 A 
ATOM     81  F   UNL     1       1.623  15.272  -2.849  1.00  0.00    -0.206 F 
ATOM     82  C   UNL     1       1.351  17.252  -1.618  1.00  0.00     0.059 A 
ATOM     83  C   UNL     1       0.444  17.159   0.634  1.00  0.00     0.059 A 
ATOM     84  F   UNL     1      -0.131  15.087   1.572  1.00  0.00    -0.206 F 
ATOM     85  C   UNL     1       0.959  17.887  -0.438  1.00  0.00     0.060 A 
BRANCH  85  86
ATOM     86  S   UNL     1       1.110  19.683  -0.328  1.00  0.00     0.124 S 
ATOM     87  O   UNL     1       2.547  19.846  -0.137  1.00  0.00    -0.237 OA
ATOM     88  O   UNL     1       0.589  20.122  -1.619  1.00  0.00    -0.237 OA
ATOM     89  O   UNL     1       0.281  20.023   0.824  1.00  0.00    -0.744 OA
ENDBRANCH  85  86
ENDBRANCH  53  78
ENDBRANCH  27  28
ENDBRANCH  20  22
ENDBRANCH  19  20
ENDBRANCH   1  19
TORSDOF 15
