REMARK SMILES CCCOc1ccc([C@H]([NH3+])CC(=O)OCCOC(=O)c2ccc(-c3c4nc(c(-c5c(F)cc(S(=O)(=O)[O-])cc5F)c5ccc([nH]5)c(-c5c(F)cc(S(=O)(=O)[O-])cc5F)c5nc(c(-c6c(F)cc(S(=O)(=O)[O-])cc6F)c6ccc3[nH]6)C=C5)C=C4)cc2)cc1
REMARK SMILES IDX 15 1 14 2 12 3 13 4 11 5 9 6 8 7 5 8 6 9 87 10 7 11 86 12
REMARK SMILES IDX 4 13 3 14 2 15 1 16 10 17 16 21 17 22 18 23 19 24 20 25
REMARK SMILES IDX 21 26 85 27 22 28 84 29 23 30 24 31 25 32 78 33 26 34 83 35
REMARK SMILES IDX 77 36 79 37 27 38 82 39 76 40 75 41 28 43 62 44 41 45 61 46
REMARK SMILES IDX 42 47 45 48 60 49 80 50 43 51 44 52 59 54 81 55 46 56 29 57
REMARK SMILES IDX 30 58 39 59 31 60 32 61 38 62 40 63 33 64 34 65 35 66 36 67
REMARK SMILES IDX 37 68 63 69 64 70 73 71 65 72 66 73 72 74 74 75 67 76 68 77
REMARK SMILES IDX 69 78 70 79 71 80 47 81 48 82 57 83 49 84 50 85 56 86 58 87
REMARK SMILES IDX 51 88 52 89 53 90 54 91 55 92
REMARK H PARENT 10 18 10 19 10 20 79 42 45 53
REMARK Flexibility Score: inf
ROOT
ATOM      1  C   UNL     1       4.914   1.431  -1.060  1.00  0.00     0.274 C 
ENDROOT
BRANCH   1   2
ATOM      2  O   UNL     1       3.918   2.451  -1.253  1.00  0.00    -0.462 OA
BRANCH   2   3
ATOM      3  C   UNL     1       4.318   3.580  -1.885  1.00  0.00     0.312 C 
ATOM      4  O   UNL     1       5.470   3.799  -2.248  1.00  0.00    -0.252 OA
BRANCH   3   5
ATOM      5  C   UNL     1       3.227   4.607  -2.066  1.00  0.00     0.192 C 
BRANCH   5   6
ATOM      6  C   UNL     1       1.788   4.077  -2.146  1.00  0.00     0.223 C 
BRANCH   6   7
ATOM      7  C   UNL     1       0.806   5.036  -2.825  1.00  0.00     0.010 A 
ATOM      8  C   UNL     1      -1.105   6.749  -3.974  1.00  0.00     0.119 A 
ATOM      9  C   UNL     1      -1.380   5.391  -3.860  1.00  0.00     0.047 A 
ATOM     10  C   UNL     1       0.093   7.267  -3.497  1.00  0.00     0.047 A 
ATOM     11  C   UNL     1      -0.424   4.538  -3.298  1.00  0.00     0.014 A 
ATOM     12  C   UNL     1       1.045   6.416  -2.932  1.00  0.00     0.014 A 
BRANCH   8  13
ATOM     13  O   UNL     1      -2.038   7.619  -4.461  1.00  0.00    -0.494 OA
BRANCH  13  14
ATOM     14  C   UNL     1      -2.123   7.588  -5.893  1.00  0.00     0.229 C 
BRANCH  14  15
ATOM     15  C   UNL     1      -1.186   8.625  -6.518  1.00  0.00     0.038 C 
ATOM     16  C   UNL     1       0.086   7.999  -7.075  1.00  0.00     0.007 C 
ENDBRANCH  14  15
ENDBRANCH  13  14
ENDBRANCH   8  13
ENDBRANCH   6   7
BRANCH   6  17
ATOM     17  N   UNL     1       1.277   3.785  -0.795  1.00  0.00    -0.351 N 
ATOM     18  H   UNL     1       1.237   4.648  -0.253  1.00  0.00     0.345 HD
ATOM     19  H   UNL     1       1.899   3.122  -0.333  1.00  0.00     0.345 HD
ATOM     20  H   UNL     1       0.343   3.383  -0.864  1.00  0.00     0.345 HD
ENDBRANCH   6  17
ENDBRANCH   5   6
ENDBRANCH   3   5
ENDBRANCH   2   3
ENDBRANCH   1   2
BRANCH   1  21
ATOM     21  C   UNL     1       4.775   0.321  -2.104  1.00  0.00     0.275 C 
BRANCH  21  22
ATOM     22  O   UNL     1       5.235   0.749  -3.398  1.00  0.00    -0.458 OA
BRANCH  22  23
ATOM     23  C   UNL     1       4.292   1.296  -4.200  1.00  0.00     0.338 C 
ATOM     24  O   UNL     1       3.103   1.423  -3.968  1.00  0.00    -0.246 OA
BRANCH  23  25
ATOM     25  C   UNL     1       4.938   1.837  -5.403  1.00  0.00     0.060 A 
ATOM     26  C   UNL     1       4.877   3.215  -5.631  1.00  0.00     0.016 A 
ATOM     27  C   UNL     1       5.544   0.985  -6.327  1.00  0.00     0.016 A 
ATOM     28  C   UNL     1       5.430   3.751  -6.793  1.00  0.00     0.010 A 
ATOM     29  C   UNL     1       6.099   1.524  -7.489  1.00  0.00     0.010 A 
ATOM     30  C   UNL     1       6.039   2.908  -7.731  1.00  0.00    -0.014 A 
BRANCH  30  31
ATOM     31  C   UNL     1       6.598   3.458  -8.988  1.00  0.00     0.031 A 
ATOM     32  C   UNL     1       5.870   3.242 -10.283  1.00  0.00     0.074 A 
ATOM     33  C   UNL     1       7.773   4.113  -8.966  1.00  0.00     0.049 A 
ATOM     34  N   UNL     1       6.256   3.508 -11.502  1.00  0.00    -0.248 NA
ATOM     35  C   UNL     1       4.530   2.640 -10.192  1.00  0.00     0.031 C 
ATOM     36  C   UNL     1       8.553   4.406  -7.763  1.00  0.00     0.029 A 
ATOM     37  N   UNL     1       8.526   4.631  -9.989  1.00  0.00    -0.354 N 
ATOM     38  C   UNL     1       5.222   3.086 -12.328  1.00  0.00     0.074 A 
ATOM     39  C   UNL     1       4.193   2.538 -11.470  1.00  0.00     0.031 C 
ATOM     40  C   UNL     1       9.685   5.035  -8.119  1.00  0.00     0.029 A 
ATOM     41  C   UNL     1       9.730   5.150  -9.574  1.00  0.00     0.049 A 
ATOM     42  H   UNL     1       8.233   4.632 -10.928  1.00  0.00     0.167 HD
ATOM     43  C   UNL     1       5.143   3.151 -13.678  1.00  0.00     0.037 A 
ATOM     44  C   UNL     1      10.766   5.627 -10.290  1.00  0.00     0.037 A 
ATOM     45  C   UNL     1       6.168   3.710 -14.520  1.00  0.00     0.049 A 
ATOM     46  C   UNL     1      10.673   5.649 -11.792  1.00  0.00     0.074 A 
ATOM     47  C   UNL     1       6.174   3.842 -15.898  1.00  0.00     0.029 A 
ATOM     48  N   UNL     1       7.371   4.229 -14.064  1.00  0.00    -0.354 N 
ATOM     49  N   UNL     1       9.688   5.252 -12.561  1.00  0.00    -0.248 NA
ATOM     50  C   UNL     1      11.832   6.178 -12.524  1.00  0.00     0.031 C 
ATOM     51  C   UNL     1       7.396   4.410 -16.277  1.00  0.00     0.029 A 
ATOM     52  C   UNL     1       8.134   4.667 -15.133  1.00  0.00     0.049 A 
ATOM     53  H   UNL     1       7.642   4.279 -13.119  1.00  0.00     0.167 HD
ATOM     54  C   UNL     1      10.099   5.500 -13.865  1.00  0.00     0.074 A 
ATOM     55  C   UNL     1      11.419   6.090 -13.781  1.00  0.00     0.031 C 
ATOM     56  C   UNL     1       9.443   5.262 -15.027  1.00  0.00     0.037 A 
BRANCH  43  57
ATOM     57  C   UNL     1       3.917   2.581 -14.333  1.00  0.00     0.058 A 
ATOM     58  C   UNL     1       2.682   3.245 -14.291  1.00  0.00     0.135 A 
ATOM     59  C   UNL     1       3.989   1.371 -15.043  1.00  0.00     0.135 A 
ATOM     60  F   UNL     1       2.555   4.395 -13.611  1.00  0.00    -0.206 F 
ATOM     61  C   UNL     1       1.554   2.719 -14.914  1.00  0.00     0.059 A 
ATOM     62  C   UNL     1       2.879   0.838 -15.691  1.00  0.00     0.059 A 
ATOM     63  F   UNL     1       5.146   0.695 -15.111  1.00  0.00    -0.206 F 
ATOM     64  C   UNL     1       1.662   1.514 -15.610  1.00  0.00     0.060 A 
BRANCH  64  65
ATOM     65  S   UNL     1       0.192   0.846 -16.418  1.00  0.00     0.124 S 
ATOM     66  O   UNL     1      -0.557   0.329 -15.276  1.00  0.00    -0.237 OA
ATOM     67  O   UNL     1      -0.375   2.025 -17.065  1.00  0.00    -0.237 OA
ATOM     68  O   UNL     1       0.731  -0.164 -17.324  1.00  0.00    -0.744 OA
ENDBRANCH  64  65
ENDBRANCH  43  57
BRANCH  44  69
ATOM     69  C   UNL     1      11.993   6.095  -9.594  1.00  0.00     0.058 A 
ATOM     70  C   UNL     1      12.316   7.457  -9.534  1.00  0.00     0.135 A 
ATOM     71  C   UNL     1      12.859   5.188  -8.964  1.00  0.00     0.135 A 
ATOM     72  F   UNL     1      11.523   8.361 -10.131  1.00  0.00    -0.206 F 
ATOM     73  C   UNL     1      13.461   7.906  -8.884  1.00  0.00     0.059 A 
ATOM     74  C   UNL     1      13.998   5.614  -8.288  1.00  0.00     0.059 A 
ATOM     75  F   UNL     1      12.588   3.873  -8.983  1.00  0.00    -0.206 F 
ATOM     76  C   UNL     1      14.295   6.976  -8.262  1.00  0.00     0.060 A 
BRANCH  76  77
ATOM     77  S   UNL     1      15.754   7.569  -7.376  1.00  0.00     0.124 S 
ATOM     78  O   UNL     1      16.666   7.859  -8.476  1.00  0.00    -0.237 OA
ATOM     79  O   UNL     1      15.230   8.728  -6.659  1.00  0.00    -0.237 OA
ATOM     80  O   UNL     1      16.118   6.434  -6.534  1.00  0.00    -0.744 OA
ENDBRANCH  76  77
ENDBRANCH  44  69
BRANCH  56  81
ATOM     81  C   UNL     1      10.124   5.668 -16.302  1.00  0.00     0.058 A 
ATOM     82  C   UNL     1      11.170   4.910 -16.850  1.00  0.00     0.135 A 
ATOM     83  C   UNL     1       9.680   6.792 -17.017  1.00  0.00     0.135 A 
ATOM     84  F   UNL     1      11.635   3.832 -16.200  1.00  0.00    -0.206 F 
ATOM     85  C   UNL     1      11.760   5.258 -18.061  1.00  0.00     0.059 A 
ATOM     86  C   UNL     1      10.241   7.146 -18.240  1.00  0.00     0.059 A 
ATOM     87  F   UNL     1       8.677   7.545 -16.538  1.00  0.00    -0.206 F 
ATOM     88  C   UNL     1      11.286   6.377 -18.750  1.00  0.00     0.060 A 
BRANCH  88  89
ATOM     89  S   UNL     1      12.023   6.790 -20.346  1.00  0.00     0.124 S 
ATOM     90  O   UNL     1      13.284   7.402 -19.938  1.00  0.00    -0.237 OA
ATOM     91  O   UNL     1      12.131   5.485 -20.991  1.00  0.00    -0.237 OA
ATOM     92  O   UNL     1      11.049   7.698 -20.944  1.00  0.00    -0.744 OA
ENDBRANCH  88  89
ENDBRANCH  56  81
ENDBRANCH  30  31
ENDBRANCH  23  25
ENDBRANCH  22  23
ENDBRANCH  21  22
ENDBRANCH   1  21
TORSDOF 20
