REMARK SMILES O=C(OCCOC(=O)[C@H]1CSCN1C(=O)Nc1ccc(F)cc1F)c1ccc(-c2c3nc(c(-c4c(F)cc(S(=O)(=O)[O-])cc4F)c4ccc([nH]4)c(-c4c(F)cc(S(=O)(=O)[O-])cc4F)c4nc(c(-c5c(F)cc(S(=O)(=O)[O-])cc5F)c5ccc2[nH]5)C=C4)C=C3)cc1
REMARK SMILES IDX 4 1 3 2 2 3 1 4 25 5 26 6 90 7 27 8 89 9 28 10 29 11 30 12
REMARK SMILES IDX 83 13 31 14 88 15 82 16 84 17 32 18 87 19 81 20 80 21 33 23
REMARK SMILES IDX 67 24 46 25 66 26 47 27 50 28 65 29 85 30 48 31 49 32 64 34
REMARK SMILES IDX 86 35 51 36 34 37 35 38 44 39 36 40 37 41 43 42 45 43 38 44
REMARK SMILES IDX 39 45 40 46 41 47 42 48 68 49 69 50 78 51 70 52 71 53 77 54
REMARK SMILES IDX 79 55 72 56 73 57 74 58 75 59 76 60 52 61 53 62 62 63 54 64
REMARK SMILES IDX 55 65 61 66 63 67 56 68 57 69 58 70 59 71 60 72 5 73 6 74
REMARK SMILES IDX 7 75 8 76 9 77 10 78 13 79 11 80 12 81 14 82 15 83 16 84
REMARK SMILES IDX 17 86 18 87 23 88 19 89 22 90 24 91 20 92 21 93
REMARK H PARENT 84 22 50 33 16 85
REMARK Flexibility Score: inf
ROOT
ATOM      1  C   UNL     1       3.987  -1.150   1.256  1.00  0.00     0.275 C 
ENDROOT
BRANCH   1   2
ATOM      2  O   UNL     1       2.681  -0.540   1.383  1.00  0.00    -0.458 OA
BRANCH   2   3
ATOM      3  C   UNL     1       2.203   0.615   0.853  1.00  0.00     0.338 C 
ATOM      4  O   UNL     1       1.225   1.165   1.353  1.00  0.00    -0.246 OA
BRANCH   3   5
ATOM      5  C   UNL     1       2.740   1.206  -0.396  1.00  0.00     0.060 A 
ATOM      6  C   UNL     1       4.302   0.694  -1.167  1.00  0.00     0.016 A 
ATOM      7  C   UNL     1       1.745   2.505  -1.216  1.00  0.00     0.016 A 
ATOM      8  C   UNL     1       4.870   1.432  -2.715  1.00  0.00     0.010 A 
ATOM      9  C   UNL     1       2.384   3.295  -2.805  1.00  0.00     0.010 A 
ATOM     10  C   UNL     1       3.955   2.734  -3.505  1.00  0.00    -0.014 A 
BRANCH  10  11
ATOM     11  C   UNL     1       4.669   3.416  -4.599  1.00  0.00     0.031 A 
ATOM     12  C   UNL     1       5.593   4.561  -4.315  1.00  0.00     0.074 A 
ATOM     13  C   UNL     1       4.669   2.875  -5.824  1.00  0.00     0.049 A 
ATOM     14  N   UNL     1       5.967   5.539  -5.094  1.00  0.00    -0.248 NA
ATOM     15  C   UNL     1       6.181   4.621  -2.973  1.00  0.00     0.031 C 
ATOM     16  C   UNL     1       4.081   1.586  -6.174  1.00  0.00     0.029 A 
ATOM     17  N   UNL     1       5.205   3.334  -6.994  1.00  0.00    -0.354 N 
ATOM     18  C   UNL     1       6.657   6.430  -4.270  1.00  0.00     0.074 A 
ATOM     19  C   UNL     1       6.740   5.822  -2.966  1.00  0.00     0.031 C 
ATOM     20  C   UNL     1       4.255   1.371  -7.487  1.00  0.00     0.029 A 
ATOM     21  C   UNL     1       4.898   2.543  -8.072  1.00  0.00     0.049 A 
ATOM     22  H   UNL     1       5.755   4.149  -7.057  1.00  0.00     0.167 HD
ATOM     23  C   UNL     1       7.130   7.654  -4.605  1.00  0.00     0.037 A 
ATOM     24  C   UNL     1       5.064   2.784  -9.386  1.00  0.00     0.037 A 
ATOM     25  C   UNL     1       7.258   8.051  -5.984  1.00  0.00     0.049 A 
ATOM     26  C   UNL     1       5.693   4.088  -9.787  1.00  0.00     0.074 A 
ATOM     27  C   UNL     1       7.779   9.215  -6.514  1.00  0.00     0.029 A 
ATOM     28  N   UNL     1       6.931   7.229  -7.059  1.00  0.00    -0.354 N 
ATOM     29  N   UNL     1       6.090   5.075  -9.014  1.00  0.00    -0.248 NA
ATOM     30  C   UNL     1       5.891   4.327 -11.219  1.00  0.00     0.031 C 
ATOM     31  C   UNL     1       7.758   9.098  -7.909  1.00  0.00     0.029 A 
ATOM     32  C   UNL     1       7.265   7.844  -8.247  1.00  0.00     0.049 A 
ATOM     33  H   UNL     1       6.522   6.337  -6.981  1.00  0.00     0.167 HD
ATOM     34  C   UNL     1       6.600   6.048  -9.862  1.00  0.00     0.074 A 
ATOM     35  C   UNL     1       6.463   5.526 -11.211  1.00  0.00     0.031 C 
ATOM     36  C   UNL     1       7.130   7.261  -9.562  1.00  0.00     0.037 A 
BRANCH  23  37
ATOM     37  C   UNL     1       7.443   8.646  -3.508  1.00  0.00     0.058 A 
ATOM     38  C   UNL     1       6.662   9.816  -3.407  1.00  0.00     0.135 A 
ATOM     39  C   UNL     1       8.463   8.484  -2.558  1.00  0.00     0.135 A 
ATOM     40  F   UNL     1       5.673  10.047  -4.284  1.00  0.00    -0.206 F 
ATOM     41  C   UNL     1       6.868  10.768  -2.409  1.00  0.00     0.059 A 
ATOM     42  C   UNL     1       8.658   9.401  -1.522  1.00  0.00     0.059 A 
ATOM     43  F   UNL     1       9.261   7.405  -2.596  1.00  0.00    -0.206 F 
ATOM     44  C   UNL     1       7.850  10.537  -1.452  1.00  0.00     0.060 A 
BRANCH  44  45
ATOM     45  S   UNL     1       8.100  11.707  -0.098  1.00  0.00     0.124 S 
ATOM     46  O   UNL     1       7.531  10.977   1.030  1.00  0.00    -0.237 OA
ATOM     47  O   UNL     1       9.552  11.863  -0.081  1.00  0.00    -0.237 OA
ATOM     48  O   UNL     1       7.353  12.887  -0.522  1.00  0.00    -0.744 OA
ENDBRANCH  44  45
ENDBRANCH  23  37
BRANCH  24  49
ATOM     49  C   UNL     1       4.581   1.772 -10.360  1.00  0.00     0.058 A 
ATOM     50  C   UNL     1       3.206   1.512 -10.505  1.00  0.00     0.135 A 
ATOM     51  C   UNL     1       5.477   0.938 -11.041  1.00  0.00     0.135 A 
ATOM     52  F   UNL     1       2.308   2.267  -9.853  1.00  0.00    -0.206 F 
ATOM     53  C   UNL     1       2.738   0.430 -11.243  1.00  0.00     0.059 A 
ATOM     54  C   UNL     1       5.031  -0.138 -11.804  1.00  0.00     0.059 A 
ATOM     55  F   UNL     1       6.798   1.145 -10.936  1.00  0.00    -0.206 F 
ATOM     56  C   UNL     1       3.660  -0.398 -11.880  1.00  0.00     0.060 A 
BRANCH  56  57
ATOM     57  S   UNL     1       3.110  -1.881 -12.752  1.00  0.00     0.124 S 
ATOM     58  O   UNL     1       3.459  -1.561 -14.131  1.00  0.00    -0.237 OA
ATOM     59  O   UNL     1       3.912  -2.920 -12.113  1.00  0.00    -0.237 OA
ATOM     60  O   UNL     1       1.681  -1.934 -12.458  1.00  0.00    -0.744 OA
ENDBRANCH  56  57
ENDBRANCH  24  49
BRANCH  36  61
ATOM     61  C   UNL     1       7.648   8.091 -10.697  1.00  0.00     0.058 A 
ATOM     62  C   UNL     1       9.032   8.255 -10.870  1.00  0.00     0.135 A 
ATOM     63  C   UNL     1       6.782   8.845 -11.500  1.00  0.00     0.135 A 
ATOM     64  F   UNL     1       9.894   7.559 -10.112  1.00  0.00    -0.206 F 
ATOM     65  C   UNL     1       9.544   9.170 -11.780  1.00  0.00     0.059 A 
ATOM     66  C   UNL     1       7.273   9.751 -12.431  1.00  0.00     0.059 A 
ATOM     67  F   UNL     1       5.452   8.714 -11.370  1.00  0.00    -0.206 F 
ATOM     68  C   UNL     1       8.655   9.918 -12.551  1.00  0.00     0.060 A 
BRANCH  68  69
ATOM     69  S   UNL     1       9.270  11.172 -13.693  1.00  0.00     0.124 S 
ATOM     70  O   UNL     1       8.915  10.592 -14.985  1.00  0.00    -0.237 OA
ATOM     71  O   UNL     1       8.508  12.351 -13.295  1.00  0.00    -0.237 OA
ATOM     72  O   UNL     1      10.700  11.227 -13.402  1.00  0.00    -0.744 OA
ENDBRANCH  68  69
ENDBRANCH  36  61
ENDBRANCH  10  11
ENDBRANCH   3   5
ENDBRANCH   2   3
ENDBRANCH   1   2
BRANCH   1  73
ATOM     73  C   UNL     1       4.055  -2.310   0.235  1.00  0.00     0.274 C 
BRANCH  73  74
ATOM     74  O   UNL     1       3.971  -1.899  -1.141  1.00  0.00    -0.461 OA
BRANCH  74  75
ATOM     75  C   UNL     1       2.751  -1.424  -1.536  1.00  0.00     0.329 C 
ATOM     76  O   UNL     1       1.708  -1.696  -0.960  1.00  0.00    -0.250 OA
BRANCH  75  77
ATOM     77  C   UNL     1       2.930  -0.396  -2.716  1.00  0.00     0.207 C 
ATOM     78  C   UNL     1       1.851  -0.934  -3.700  1.00  0.00     0.108 C 
ATOM     79  N   UNL     1       2.745   1.351  -2.458  1.00  0.00    -0.301 N 
ATOM     80  S   UNL     1       0.364  -0.037  -3.351  1.00  0.00    -0.138 SA
ATOM     81  C   UNL     1       1.280   1.485  -3.397  1.00  0.00     0.192 C 
BRANCH  79  82
ATOM     82  C   UNL     1       3.775   2.698  -1.401  1.00  0.00     0.323 C 
ATOM     83  O   UNL     1       4.877   2.665  -0.748  1.00  0.00    -0.248 OA
ATOM     84  N   UNL     1       3.446   4.172  -1.073  1.00  0.00    -0.305 N 
ATOM     85  H   UNL     1       4.195   4.513  -0.532  1.00  0.00     0.171 HD
BRANCH  84  86
ATOM     86  C   UNL     1       2.511   5.263  -1.221  1.00  0.00     0.079 A 
ATOM     87  C   UNL     1       1.207   5.268  -0.723  1.00  0.00     0.032 A 
ATOM     88  C   UNL     1       2.900   6.357  -2.012  1.00  0.00     0.149 A 
ATOM     89  C   UNL     1       0.261   6.160  -1.240  1.00  0.00     0.041 A 
ATOM     90  C   UNL     1       1.974   7.252  -2.535  1.00  0.00     0.080 A 
ATOM     91  F   UNL     1       4.177   6.503  -2.367  1.00  0.00    -0.205 F 
ATOM     92  C   UNL     1       0.644   7.106  -2.183  1.00  0.00     0.126 A 
ATOM     93  F   UNL     1      -0.285   7.887  -2.748  1.00  0.00    -0.207 F 
ENDBRANCH  84  86
ENDBRANCH  79  82
ENDBRANCH  75  77
ENDBRANCH  74  75
ENDBRANCH  73  74
ENDBRANCH   1  73
TORSDOF 16
