REMARK SMILES O=C(OCCOC(=O)c1ccc(C[NH2+][C@@H]2CCCC[C@H]2O)nc1)c1ccc(-c2c3nc(c(-c4c(F)cc(S(=O)(=O)[O-])cc4F)c4ccc([nH]4)c(-c4c(F)cc(S(=O)(=O)[O-])cc4F)c4nc(c(-c5c(F)cc(S(=O)(=O)[O-])cc5F)c5ccc2[nH]5)C=C4)C=C3)cc1
REMARK SMILES IDX 5 1 4 2 3 3 2 4 1 5 24 6 25 7 89 8 26 9 88 10 27 11 28 12
REMARK SMILES IDX 29 13 82 14 30 15 87 16 81 17 83 18 31 19 86 20 80 21 79 22
REMARK SMILES IDX 32 24 66 25 45 26 65 27 46 28 49 29 64 30 84 31 47 32 48 33
REMARK SMILES IDX 63 35 85 36 50 37 33 38 34 39 43 40 35 41 36 42 42 43 44 44
REMARK SMILES IDX 37 45 38 46 39 47 40 48 41 49 67 50 68 51 77 52 69 53 70 54
REMARK SMILES IDX 76 55 78 56 71 57 72 58 73 59 74 60 75 61 51 62 52 63 61 64
REMARK SMILES IDX 53 65 54 66 60 67 62 68 55 69 56 70 57 71 58 72 59 73 6 74
REMARK SMILES IDX 7 75 8 76 9 77 10 78 23 79 11 80 22 81 12 82 13 83 14 84
REMARK SMILES IDX 15 87 16 88 20 89 17 90 19 91 18 92 21 93
REMARK H PARENT 83 23 49 34 14 85 14 86 21 94
REMARK Flexibility Score: inf
ROOT
ATOM      1  C   UNL     1     -10.796   4.996  -5.020  1.00  0.00     0.275 C 
ENDROOT
BRANCH   1   2
ATOM      2  C   UNL     1     -11.219   4.679  -3.586  1.00  0.00     0.275 C 
BRANCH   2   3
ATOM      3  O   UNL     1     -10.530   5.448  -2.587  1.00  0.00    -0.458 OA
BRANCH   3   4
ATOM      4  C   UNL     1      -9.449   5.112  -1.843  1.00  0.00     0.338 C 
ATOM      5  O   UNL     1      -9.222   5.745  -0.813  1.00  0.00    -0.246 OA
BRANCH   4   6
ATOM      6  C   UNL     1      -8.418   4.127  -2.296  1.00  0.00     0.060 A 
ATOM      7  C   UNL     1      -8.668   2.914  -2.945  1.00  0.00     0.016 A 
ATOM      8  C   UNL     1      -7.085   4.440  -1.976  1.00  0.00     0.016 A 
ATOM      9  C   UNL     1      -7.619   2.062  -3.312  1.00  0.00     0.010 A 
ATOM     10  C   UNL     1      -6.034   3.594  -2.340  1.00  0.00     0.010 A 
ATOM     11  C   UNL     1      -6.298   2.390  -3.003  1.00  0.00    -0.014 A 
BRANCH  11  12
ATOM     12  C   UNL     1      -5.211   1.407  -3.207  1.00  0.00     0.031 A 
ATOM     13  C   UNL     1      -4.730   0.623  -2.023  1.00  0.00     0.074 A 
ATOM     14  C   UNL     1      -4.659   1.218  -4.419  1.00  0.00     0.049 A 
ATOM     15  N   UNL     1      -3.781  -0.271  -1.957  1.00  0.00    -0.248 NA
ATOM     16  C   UNL     1      -5.433   0.859  -0.751  1.00  0.00     0.031 C 
ATOM     17  C   UNL     1      -5.100   1.858  -5.654  1.00  0.00     0.029 A 
ATOM     18  N   UNL     1      -3.584   0.460  -4.806  1.00  0.00    -0.354 N 
ATOM     19  C   UNL     1      -3.798  -0.733  -0.648  1.00  0.00     0.074 A 
ATOM     20  C   UNL     1      -4.802   0.028   0.063  1.00  0.00     0.031 C 
ATOM     21  C   UNL     1      -4.242   1.552  -6.642  1.00  0.00     0.029 A 
ATOM     22  C   UNL     1      -3.207   0.670  -6.112  1.00  0.00     0.049 A 
ATOM     23  H   UNL     1      -3.126  -0.173  -4.207  1.00  0.00     0.167 HD
ATOM     24  C   UNL     1      -3.067  -1.730  -0.097  1.00  0.00     0.037 A 
ATOM     25  C   UNL     1      -2.141   0.210  -6.795  1.00  0.00     0.037 A 
ATOM     26  C   UNL     1      -2.044  -2.450  -0.803  1.00  0.00     0.049 A 
ATOM     27  C   UNL     1      -1.239  -0.793  -6.130  1.00  0.00     0.074 A 
ATOM     28  C   UNL     1      -1.237  -3.476  -0.348  1.00  0.00     0.029 A 
ATOM     29  N   UNL     1      -1.673  -2.197  -2.117  1.00  0.00    -0.354 N 
ATOM     30  N   UNL     1      -1.306  -1.270  -4.909  1.00  0.00    -0.248 NA
ATOM     31  C   UNL     1      -0.150  -1.355  -6.938  1.00  0.00     0.031 C 
ATOM     32  C   UNL     1      -0.353  -3.819  -1.379  1.00  0.00     0.029 A 
ATOM     33  C   UNL     1      -0.637  -3.034  -2.487  1.00  0.00     0.049 A 
ATOM     34  H   UNL     1      -2.088  -1.521  -2.700  1.00  0.00     0.167 HD
ATOM     35  C   UNL     1      -0.309  -2.233  -4.821  1.00  0.00     0.074 A 
ATOM     36  C   UNL     1       0.366  -2.250  -6.104  1.00  0.00     0.031 C 
ATOM     37  C   UNL     1       0.001  -3.047  -3.781  1.00  0.00     0.037 A 
BRANCH  24  38
ATOM     38  C   UNL     1      -3.365  -2.065   1.335  1.00  0.00     0.058 A 
ATOM     39  C   UNL     1      -4.563  -2.707   1.696  1.00  0.00     0.135 A 
ATOM     40  C   UNL     1      -2.489  -1.684   2.361  1.00  0.00     0.135 A 
ATOM     41  F   UNL     1      -5.445  -3.073   0.752  1.00  0.00    -0.206 F 
ATOM     42  C   UNL     1      -4.905  -2.909   3.028  1.00  0.00     0.059 A 
ATOM     43  C   UNL     1      -2.802  -1.897   3.700  1.00  0.00     0.059 A 
ATOM     44  F   UNL     1      -1.335  -1.065   2.069  1.00  0.00    -0.206 F 
ATOM     45  C   UNL     1      -4.025  -2.485   4.024  1.00  0.00     0.060 A 
BRANCH  45  46
ATOM     46  S   UNL     1      -4.510  -2.692   5.750  1.00  0.00     0.124 S 
ATOM     47  O   UNL     1      -5.475  -1.608   5.911  1.00  0.00    -0.237 OA
ATOM     48  O   UNL     1      -5.067  -4.041   5.762  1.00  0.00    -0.237 OA
ATOM     49  O   UNL     1      -3.255  -2.530   6.477  1.00  0.00    -0.744 OA
ENDBRANCH  45  46
ENDBRANCH  24  38
BRANCH  25  50
ATOM     50  C   UNL     1      -1.892   0.684  -8.181  1.00  0.00     0.058 A 
ATOM     51  C   UNL     1      -2.137  -0.135  -9.291  1.00  0.00     0.135 A 
ATOM     52  C   UNL     1      -1.435   1.991  -8.420  1.00  0.00     0.135 A 
ATOM     53  F   UNL     1      -2.576  -1.390  -9.113  1.00  0.00    -0.206 F 
ATOM     54  C   UNL     1      -1.933   0.319 -10.591  1.00  0.00     0.059 A 
ATOM     55  C   UNL     1      -1.236   2.472  -9.711  1.00  0.00     0.059 A 
ATOM     56  F   UNL     1      -1.210   2.825  -7.393  1.00  0.00    -0.206 F 
ATOM     57  C   UNL     1      -1.486   1.627 -10.791  1.00  0.00     0.060 A 
BRANCH  57  58
ATOM     58  S   UNL     1      -1.290   2.227 -12.484  1.00  0.00     0.124 S 
ATOM     59  O   UNL     1      -0.133   1.463 -12.936  1.00  0.00    -0.237 OA
ATOM     60  O   UNL     1      -2.571   1.864 -13.082  1.00  0.00    -0.237 OA
ATOM     61  O   UNL     1      -1.073   3.660 -12.307  1.00  0.00    -0.744 OA
ENDBRANCH  57  58
ENDBRANCH  25  50
BRANCH  37  62
ATOM     62  C   UNL     1       1.070  -4.076  -4.003  1.00  0.00     0.058 A 
ATOM     63  C   UNL     1       2.431  -3.742  -3.991  1.00  0.00     0.135 A 
ATOM     64  C   UNL     1       0.721  -5.430  -4.135  1.00  0.00     0.135 A 
ATOM     65  F   UNL     1       2.812  -2.460  -3.878  1.00  0.00    -0.206 F 
ATOM     66  C   UNL     1       3.414  -4.719  -4.103  1.00  0.00     0.059 A 
ATOM     67  C   UNL     1       1.687  -6.424  -4.227  1.00  0.00     0.059 A 
ATOM     68  F   UNL     1      -0.571  -5.797  -4.147  1.00  0.00    -0.206 F 
ATOM     69  C   UNL     1       3.032  -6.058  -4.213  1.00  0.00     0.060 A 
BRANCH  69  70
ATOM     70  S   UNL     1       4.316  -7.326  -4.282  1.00  0.00     0.124 S 
ATOM     71  O   UNL     1       4.769  -7.208  -5.664  1.00  0.00    -0.237 OA
ATOM     72  O   UNL     1       5.259  -6.874  -3.265  1.00  0.00    -0.237 OA
ATOM     73  O   UNL     1       3.596  -8.554  -3.958  1.00  0.00    -0.744 OA
ENDBRANCH  69  70
ENDBRANCH  37  62
ENDBRANCH  11  12
ENDBRANCH   4   6
ENDBRANCH   3   4
ENDBRANCH   2   3
ENDBRANCH   1   2
BRANCH   1  74
ATOM     74  O   UNL     1      -9.372   5.035  -5.189  1.00  0.00    -0.458 OA
BRANCH  74  75
ATOM     75  C   UNL     1      -8.820   6.276  -5.136  1.00  0.00     0.339 C 
ATOM     76  O   UNL     1      -9.408   7.336  -5.004  1.00  0.00    -0.246 OA
BRANCH  75  77
ATOM     77  C   UNL     1      -7.358   6.154  -5.128  1.00  0.00     0.078 A 
ATOM     78  C   UNL     1      -6.662   5.324  -6.001  1.00  0.00     0.019 A 
ATOM     79  C   UNL     1      -6.644   6.861  -4.177  1.00  0.00     0.127 A 
ATOM     80  C   UNL     1      -5.281   5.194  -5.848  1.00  0.00     0.031 A 
ATOM     81  N   UNL     1      -5.310   6.726  -3.991  1.00  0.00    -0.254 NA
ATOM     82  C   UNL     1      -4.642   5.865  -4.807  1.00  0.00     0.094 A 
BRANCH  82  83
ATOM     83  C   UNL     1      -3.170   5.577  -4.518  1.00  0.00     0.318 C 
BRANCH  83  84
ATOM     84  N   UNL     1      -2.481   6.751  -3.984  1.00  0.00    -0.337 N 
ATOM     85  H   UNL     1      -2.713   6.834  -2.994  1.00  0.00     0.346 HD
ATOM     86  H   UNL     1      -2.795   7.549  -4.535  1.00  0.00     0.346 HD
BRANCH  84  87
ATOM     87  C   UNL     1      -1.019   6.706  -4.109  1.00  0.00     0.211 C 
ATOM     88  C   UNL     1      -0.445   7.800  -3.186  1.00  0.00     0.068 C 
ATOM     89  C   UNL     1      -0.490   6.923  -5.554  1.00  0.00     0.172 C 
ATOM     90  C   UNL     1      -0.749   9.213  -3.688  1.00  0.00     0.006 C 
ATOM     91  C   UNL     1      -0.792   8.331  -6.075  1.00  0.00     0.038 C 
ATOM     92  C   UNL     1      -0.284   9.420  -5.128  1.00  0.00     0.003 C 
BRANCH  89  93
ATOM     93  O   UNL     1       0.928   6.722  -5.575  1.00  0.00    -0.387 OA
ATOM     94  H   UNL     1       1.355   7.372  -4.995  1.00  0.00     0.211 HD
ENDBRANCH  89  93
ENDBRANCH  84  87
ENDBRANCH  83  84
ENDBRANCH  82  83
ENDBRANCH  75  77
ENDBRANCH  74  75
ENDBRANCH   1  74
TORSDOF 18
