REMARK SMILES Cc1ncc(CC(=O)N2CCC(Cc3cccc(C(=O)OCCOC(=O)c4ccc(-c5c6nc(c(-c7c(F)cc(S(=O)(=O)[O-])cc7F)c7ccc([nH]7)c(-c7c(F)cc(S(=O)(=O)[O-])cc7F)c7nc(c(-c8c(F)cc(S(=O)(=O)[O-])cc8F)c8ccc5[nH]8)C=C7)C=C6)cc4)c3)CC2)c(=O)[nH]1
REMARK SMILES IDX 22 1 21 2 19 3 20 4 18 5 14 6 15 7 93 8 16 9 17 10 13 11
REMARK SMILES IDX 12 12 7 13 8 14 9 15 10 16 95 17 11 18 94 19 6 20 5 21 1 22
REMARK SMILES IDX 2 23 3 24 98 25 4 26 96 27 97 29 23 30 24 31 25 32 26 33
REMARK SMILES IDX 27 34 28 35 92 36 29 37 91 38 30 39 31 40 32 41 85 42 33 43
REMARK SMILES IDX 90 44 84 45 86 46 34 47 89 48 83 49 82 50 35 52 69 53 48 54
REMARK SMILES IDX 68 55 49 56 52 57 67 58 87 59 50 60 51 61 66 63 88 64 53 65
REMARK SMILES IDX 36 66 37 67 46 68 38 69 39 70 45 71 47 72 40 73 41 74 42 75
REMARK SMILES IDX 43 76 44 77 70 78 71 79 80 80 72 81 73 82 79 83 81 84 74 85
REMARK SMILES IDX 75 86 76 87 77 88 78 89 54 90 55 91 64 92 56 93 57 94 63 95
REMARK SMILES IDX 65 96 58 97 59 98 60 99 61 100 62 101
REMARK H PARENT 98 28 86 51 52 62
REMARK Flexibility Score: inf
ROOT
ATOM      1  C   UNL     1       0.016   4.176  10.585  1.00  0.00     0.275 C 
ENDROOT
BRANCH   1   2
ATOM      2  O   UNL     1       0.683   3.152   9.822  1.00  0.00    -0.458 OA
BRANCH   2   3
ATOM      3  C   UNL     1       2.039   3.199   9.807  1.00  0.00     0.338 C 
ATOM      4  O   UNL     1       2.738   4.054  10.327  1.00  0.00    -0.246 OA
BRANCH   3   5
ATOM      5  C   UNL     1       2.594   1.997   9.133  1.00  0.00     0.060 A 
ATOM      6  C   UNL     1       2.449   0.236   7.473  1.00  0.00    -0.047 A 
ATOM      7  C   UNL     1       3.703  -0.243   7.870  1.00  0.00     0.004 A 
ATOM      8  C   UNL     1       1.864   1.308   8.167  1.00  0.00     0.019 A 
ATOM      9  C   UNL     1       4.423   0.424   8.857  1.00  0.00     0.001 A 
ATOM     10  C   UNL     1       3.895   1.576   9.440  1.00  0.00     0.016 A 
BRANCH   6  11
ATOM     11  C   UNL     1       1.811  -0.256   6.195  1.00  0.00     0.039 C 
BRANCH  11  12
ATOM     12  C   UNL     1       1.752   0.897   5.168  1.00  0.00    -0.003 C 
ATOM     13  C   UNL     1       2.918   1.989   1.383  1.00  0.00     0.227 C 
ATOM     14  O   UNL     1       4.154   1.992   1.322  1.00  0.00    -0.275 OA
ATOM     15  N   UNL     1       2.267   2.134   2.603  1.00  0.00    -0.342 N 
ATOM     16  C   UNL     1       3.059   2.544   3.761  1.00  0.00     0.120 C 
ATOM     17  C   UNL     1       0.916   1.698   2.951  1.00  0.00     0.120 C 
ATOM     18  C   UNL     1       3.155   1.420   4.787  1.00  0.00     0.025 C 
ATOM     19  C   UNL     1       0.985   0.499   3.903  1.00  0.00     0.025 C 
BRANCH  13  20
ATOM     20  C   UNL     1       2.139   2.074   0.062  1.00  0.00     0.143 C 
BRANCH  20  21
ATOM     21  C   UNL     1       0.970   1.178  -0.147  1.00  0.00     0.045 A 
ATOM     22  C   UNL     1      -2.402  -1.364  -0.147  1.00  0.00     0.087 C 
ATOM     23  C   UNL     1      -1.230  -0.431  -0.207  1.00  0.00     0.105 A 
ATOM     24  N   UNL     1      -1.402   0.836  -0.398  1.00  0.00    -0.243 NA
ATOM     25  N   UNL     1      -0.004  -1.008  -0.041  1.00  0.00    -0.311 N 
ATOM     26  C   UNL     1      -0.279   1.619  -0.364  1.00  0.00     0.123 A 
ATOM     27  C   UNL     1       1.152  -0.282  -0.042  1.00  0.00     0.254 A 
ATOM     28  H   UNL     1       0.049  -1.983   0.083  1.00  0.00     0.171 HD
ATOM     29  O   UNL     1       2.252  -0.808   0.058  1.00  0.00    -0.269 OA
ENDBRANCH  20  21
ENDBRANCH  13  20
ENDBRANCH  11  12
ENDBRANCH   6  11
ENDBRANCH   3   5
ENDBRANCH   2   3
ENDBRANCH   1   2
BRANCH   1  30
ATOM     30  C   UNL     1      -0.526   3.604  11.895  1.00  0.00     0.275 C 
BRANCH  30  31
ATOM     31  O   UNL     1       0.561   3.222  12.757  1.00  0.00    -0.458 OA
BRANCH  31  32
ATOM     32  C   UNL     1       0.738   1.890  12.919  1.00  0.00     0.338 C 
ATOM     33  O   UNL     1       0.042   0.989  12.483  1.00  0.00    -0.246 OA
BRANCH  32  34
ATOM     34  C   UNL     1       1.998   1.650  13.638  1.00  0.00     0.060 A 
ATOM     35  C   UNL     1       3.174   1.662  12.898  1.00  0.00     0.016 A 
ATOM     36  C   UNL     1       2.023   1.281  14.978  1.00  0.00     0.016 A 
ATOM     37  C   UNL     1       4.373   1.236  13.455  1.00  0.00     0.010 A 
ATOM     38  C   UNL     1       3.248   0.932  15.568  1.00  0.00     0.010 A 
ATOM     39  C   UNL     1       4.432   0.874  14.805  1.00  0.00    -0.014 A 
BRANCH  39  40
ATOM     40  C   UNL     1       5.716   0.389  15.386  1.00  0.00     0.031 A 
ATOM     41  C   UNL     1       5.804  -0.996  15.974  1.00  0.00     0.074 A 
ATOM     42  C   UNL     1       6.816   1.170  15.361  1.00  0.00     0.049 A 
ATOM     43  N   UNL     1       6.777  -1.548  16.654  1.00  0.00    -0.248 NA
ATOM     44  C   UNL     1       4.637  -1.872  15.783  1.00  0.00     0.031 C 
ATOM     45  C   UNL     1       6.890   2.513  14.781  1.00  0.00     0.029 A 
ATOM     46  N   UNL     1       8.088   0.947  15.832  1.00  0.00    -0.354 N 
ATOM     47  C   UNL     1       6.318  -2.808  17.023  1.00  0.00     0.074 A 
ATOM     48  C   UNL     1       4.977  -2.938  16.494  1.00  0.00     0.031 C 
ATOM     49  C   UNL     1       8.141   2.981  14.906  1.00  0.00     0.029 A 
ATOM     50  C   UNL     1       8.938   2.013  15.650  1.00  0.00     0.049 A 
ATOM     51  H   UNL     1       8.364   0.104  16.260  1.00  0.00     0.167 HD
ATOM     52  C   UNL     1       6.957  -3.766  17.738  1.00  0.00     0.037 A 
ATOM     53  C   UNL     1      10.202   2.215  16.072  1.00  0.00     0.037 A 
ATOM     54  C   UNL     1       8.313  -3.651  18.211  1.00  0.00     0.049 A 
ATOM     55  C   UNL     1      10.885   1.147  16.880  1.00  0.00     0.074 A 
ATOM     56  C   UNL     1       9.059  -4.579  18.917  1.00  0.00     0.029 A 
ATOM     57  N   UNL     1       9.131  -2.546  18.020  1.00  0.00    -0.354 N 
ATOM     58  N   UNL     1      10.424  -0.024  17.253  1.00  0.00    -0.248 NA
ATOM     59  C   UNL     1      12.252   1.430  17.337  1.00  0.00     0.031 C 
ATOM     60  C   UNL     1      10.312  -4.019  19.190  1.00  0.00     0.029 A 
ATOM     61  C   UNL     1      10.366  -2.762  18.611  1.00  0.00     0.049 A 
ATOM     62  H   UNL     1       8.872  -1.730  17.536  1.00  0.00     0.167 HD
ATOM     63  C   UNL     1      11.448  -0.621  17.980  1.00  0.00     0.074 A 
ATOM     64  C   UNL     1      12.560   0.309  17.975  1.00  0.00     0.031 C 
ATOM     65  C   UNL     1      11.464  -1.827  18.599  1.00  0.00     0.037 A 
BRANCH  52  66
ATOM     66  C   UNL     1       6.183  -5.009  18.090  1.00  0.00     0.058 A 
ATOM     67  C   UNL     1       5.847  -5.980  17.134  1.00  0.00     0.135 A 
ATOM     68  C   UNL     1       5.794  -5.240  19.420  1.00  0.00     0.135 A 
ATOM     69  F   UNL     1       6.179  -5.804  15.845  1.00  0.00    -0.206 F 
ATOM     70  C   UNL     1       5.126  -7.120  17.478  1.00  0.00     0.059 A 
ATOM     71  C   UNL     1       5.098  -6.386  19.792  1.00  0.00     0.059 A 
ATOM     72  F   UNL     1       6.090  -4.346  20.376  1.00  0.00    -0.206 F 
ATOM     73  C   UNL     1       4.753  -7.313  18.810  1.00  0.00     0.060 A 
BRANCH  73  74
ATOM     74  S   UNL     1       3.812  -8.792  19.241  1.00  0.00     0.124 S 
ATOM     75  O   UNL     1       2.498  -8.472  18.692  1.00  0.00    -0.237 OA
ATOM     76  O   UNL     1       4.548  -9.845  18.548  1.00  0.00    -0.237 OA
ATOM     77  O   UNL     1       3.889  -8.833  20.698  1.00  0.00    -0.744 OA
ENDBRANCH  73  74
ENDBRANCH  52  66
BRANCH  53  78
ATOM     78  C   UNL     1      10.882   3.506  15.777  1.00  0.00     0.058 A 
ATOM     79  C   UNL     1      11.962   3.574  14.885  1.00  0.00     0.135 A 
ATOM     80  C   UNL     1      10.443   4.705  16.363  1.00  0.00     0.135 A 
ATOM     81  F   UNL     1      12.428   2.455  14.310  1.00  0.00    -0.206 F 
ATOM     82  C   UNL     1      12.585   4.782  14.586  1.00  0.00     0.059 A 
ATOM     83  C   UNL     1      11.030   5.928  16.057  1.00  0.00     0.059 A 
ATOM     84  F   UNL     1       9.407   4.697  17.216  1.00  0.00    -0.206 F 
ATOM     85  C   UNL     1      12.107   5.955  15.172  1.00  0.00     0.060 A 
BRANCH  85  86
ATOM     86  S   UNL     1      12.877   7.527  14.728  1.00  0.00     0.124 S 
ATOM     87  O   UNL     1      14.137   7.453  15.459  1.00  0.00    -0.237 OA
ATOM     88  O   UNL     1      12.975   7.422  13.276  1.00  0.00    -0.237 OA
ATOM     89  O   UNL     1      11.921   8.518  15.214  1.00  0.00    -0.744 OA
ENDBRANCH  85  86
ENDBRANCH  53  78
BRANCH  65  90
ATOM     90  C   UNL     1      12.734  -2.224  19.300  1.00  0.00     0.058 A 
ATOM     91  C   UNL     1      13.125  -1.629  20.510  1.00  0.00     0.135 A 
ATOM     92  C   UNL     1      13.550  -3.237  18.772  1.00  0.00     0.135 A 
ATOM     93  F   UNL     1      12.384  -0.651  21.054  1.00  0.00    -0.206 F 
ATOM     94  C   UNL     1      14.296  -2.007  21.159  1.00  0.00     0.059 A 
ATOM     95  C   UNL     1      14.712  -3.649  19.418  1.00  0.00     0.059 A 
ATOM     96  F   UNL     1      13.217  -3.845  17.623  1.00  0.00    -0.206 F 
ATOM     97  C   UNL     1      15.084  -3.018  20.604  1.00  0.00     0.060 A 
BRANCH  97  98
ATOM     98  S   UNL     1      16.590  -3.514  21.467  1.00  0.00     0.124 S 
ATOM     99  O   UNL     1      17.480  -2.396  21.172  1.00  0.00    -0.237 OA
ATOM    100  O   UNL     1      16.140  -3.618  22.851  1.00  0.00    -0.237 OA
ATOM    101  O   UNL     1      16.942  -4.782  20.832  1.00  0.00    -0.744 OA
ENDBRANCH  97  98
ENDBRANCH  65  90
ENDBRANCH  39  40
ENDBRANCH  32  34
ENDBRANCH  31  32
ENDBRANCH  30  31
ENDBRANCH   1  30
TORSDOF 18
