REMARK SMILES COc1cc(-c2cccc(C(N)=O)c2)ccc1C(=O)OCCOC(=O)c1ccc(-c2c3nc(c(-c4c(F)cc(S(=O)(=O)[O-])cc4F)c4ccc([nH]4)c(-c4c(F)cc(S(=O)(=O)[O-])cc4F)c4nc(c(-c5c(F)cc(S(=O)(=O)[O-])cc5F)c5ccc2[nH]5)C=C4)C=C3)cc1
REMARK SMILES IDX 22 1 21 2 20 3 18 4 19 5 17 6 3 7 4 8 5 9 16 10 15 11 2 12
REMARK SMILES IDX 1 13 6 14 7 15 14 16 8 17 10 18 9 19 11 20 12 21 13 22 23 25
REMARK SMILES IDX 24 26 25 27 26 28 27 29 91 30 28 31 90 32 29 33 30 34 31 35
REMARK SMILES IDX 84 36 32 37 89 38 83 39 85 40 33 41 88 42 82 43 81 44 34 46
REMARK SMILES IDX 68 47 47 48 67 49 48 50 51 51 66 52 86 53 49 54 50 55 65 57
REMARK SMILES IDX 87 58 52 59 35 60 36 61 45 62 37 63 38 64 44 65 46 66 39 67
REMARK SMILES IDX 40 68 41 69 42 70 43 71 69 72 70 73 79 74 71 75 72 76 78 77
REMARK SMILES IDX 80 78 73 79 74 80 75 81 76 82 77 83 53 84 54 85 63 86 55 87
REMARK SMILES IDX 56 88 62 89 64 90 57 91 58 92 59 93 60 94 61 95
REMARK H PARENT 12 23 12 24 85 45 51 56
REMARK Flexibility Score: inf
ROOT
ATOM      1  C   UNL     1       4.793  -0.496  -0.526  1.00  0.00     0.275 C 
ENDROOT
BRANCH   1   2
ATOM      2  C   UNL     1       3.601  -0.747   0.397  1.00  0.00     0.275 C 
BRANCH   2   3
ATOM      3  O   UNL     1       2.712   0.392   0.397  1.00  0.00    -0.458 OA
BRANCH   3   4
ATOM      4  C   UNL     1       2.269   0.822   1.603  1.00  0.00     0.342 C 
ATOM      5  O   UNL     1       2.617   0.395   2.693  1.00  0.00    -0.246 OA
BRANCH   4   6
ATOM      6  C   UNL     1       1.395   2.006   1.449  1.00  0.00     0.102 A 
ATOM      7  C   UNL     1       0.140   2.046   0.832  1.00  0.00     0.134 A 
ATOM      8  C   UNL     1      -0.568   3.268   0.827  1.00  0.00     0.056 A 
ATOM      9  C   UNL     1      -0.062   4.442   1.410  1.00  0.00    -0.015 A 
ATOM     10  C   UNL     1       1.866   3.163   2.100  1.00  0.00     0.020 A 
ATOM     11  C   UNL     1       1.171   4.371   2.052  1.00  0.00     0.010 A 
BRANCH   7  12
ATOM     12  O   UNL     1      -0.621   1.036   0.311  1.00  0.00    -0.496 OA
ATOM     13  C   UNL     1       0.007  -0.097  -0.255  1.00  0.00     0.278 C 
ENDBRANCH   7  12
BRANCH   9  14
ATOM     14  C   UNL     1      -0.824   5.694   1.401  1.00  0.00    -0.017 A 
ATOM     15  C   UNL     1      -2.035   5.800   2.100  1.00  0.00     0.009 A 
ATOM     16  C   UNL     1      -0.345   6.826   0.722  1.00  0.00     0.022 A 
ATOM     17  C   UNL     1      -2.744   7.002   2.124  1.00  0.00     0.001 A 
ATOM     18  C   UNL     1      -1.056   8.037   0.727  1.00  0.00     0.040 A 
ATOM     19  C   UNL     1      -2.258   8.119   1.440  1.00  0.00     0.014 A 
BRANCH  18  20
ATOM     20  C   UNL     1      -0.480   9.179  -0.039  1.00  0.00     0.248 C 
ATOM     21  N   UNL     1      -1.182  10.349  -0.111  1.00  0.00    -0.366 N 
ATOM     22  O   UNL     1       0.598   9.082  -0.614  1.00  0.00    -0.270 OA
ATOM     23  H   UNL     1      -2.048  10.432   0.349  1.00  0.00     0.159 HD
ATOM     24  H   UNL     1      -0.822  11.108  -0.624  1.00  0.00     0.159 HD
ENDBRANCH  18  20
ENDBRANCH   9  14
ENDBRANCH   4   6
ENDBRANCH   3   4
ENDBRANCH   2   3
ENDBRANCH   1   2
BRANCH   1  25
ATOM     25  O   UNL     1       5.662   0.488   0.061  1.00  0.00    -0.458 OA
BRANCH  25  26
ATOM     26  C   UNL     1       5.440   1.750  -0.367  1.00  0.00     0.338 C 
ATOM     27  O   UNL     1       4.677   2.114  -1.245  1.00  0.00    -0.246 OA
BRANCH  26  28
ATOM     28  C   UNL     1       6.169   2.694   0.486  1.00  0.00     0.060 A 
ATOM     29  C   UNL     1       5.494   3.203   1.590  1.00  0.00     0.016 A 
ATOM     30  C   UNL     1       7.397   3.220   0.104  1.00  0.00     0.016 A 
ATOM     31  C   UNL     1       5.968   4.340   2.236  1.00  0.00     0.010 A 
ATOM     32  C   UNL     1       7.925   4.299   0.822  1.00  0.00     0.010 A 
ATOM     33  C   UNL     1       7.189   4.915   1.855  1.00  0.00    -0.014 A 
BRANCH  33  34
ATOM     34  C   UNL     1       7.654   6.199   2.462  1.00  0.00     0.031 A 
ATOM     35  C   UNL     1       7.951   7.382   1.568  1.00  0.00     0.074 A 
ATOM     36  C   UNL     1       7.798   6.328   3.797  1.00  0.00     0.049 A 
ATOM     37  N   UNL     1       8.571   8.500   1.848  1.00  0.00    -0.248 NA
ATOM     38  C   UNL     1       7.514   7.281   0.165  1.00  0.00     0.031 C 
ATOM     39  C   UNL     1       7.496   5.296   4.791  1.00  0.00     0.029 A 
ATOM     40  N   UNL     1       8.238   7.389   4.553  1.00  0.00    -0.354 N 
ATOM     41  C   UNL     1       8.665   9.197   0.647  1.00  0.00     0.074 A 
ATOM     42  C   UNL     1       8.039   8.377  -0.366  1.00  0.00     0.031 C 
ATOM     43  C   UNL     1       7.723   5.784   6.020  1.00  0.00     0.029 A 
ATOM     44  C   UNL     1       8.278   7.127   5.903  1.00  0.00     0.049 A 
ATOM     45  H   UNL     1       8.500   8.255   4.164  1.00  0.00     0.167 HD
ATOM     46  C   UNL     1       9.224  10.410   0.412  1.00  0.00     0.037 A 
ATOM     47  C   UNL     1       8.752   7.860   6.929  1.00  0.00     0.037 A 
ATOM     48  C   UNL     1       9.764  11.259   1.443  1.00  0.00     0.049 A 
ATOM     49  C   UNL     1       9.371   9.202   6.644  1.00  0.00     0.074 A 
ATOM     50  C   UNL     1      10.329  12.517   1.315  1.00  0.00     0.029 A 
ATOM     51  N   UNL     1       9.780  10.951   2.795  1.00  0.00    -0.354 N 
ATOM     52  N   UNL     1       9.516   9.816   5.494  1.00  0.00    -0.248 NA
ATOM     53  C   UNL     1       9.905   9.945   7.794  1.00  0.00     0.031 C 
ATOM     54  C   UNL     1      10.717  12.954   2.586  1.00  0.00     0.029 A 
ATOM     55  C   UNL     1      10.349  11.991   3.511  1.00  0.00     0.049 A 
ATOM     56  H   UNL     1       9.438  10.116   3.188  1.00  0.00     0.167 HD
ATOM     57  C   UNL     1      10.129  11.029   5.787  1.00  0.00     0.074 A 
ATOM     58  C   UNL     1      10.319  11.066   7.222  1.00  0.00     0.031 C 
ATOM     59  C   UNL     1      10.504  12.022   4.943  1.00  0.00     0.037 A 
BRANCH  46  60
ATOM     60  C   UNL     1       9.313  10.887  -1.014  1.00  0.00     0.058 A 
ATOM     61  C   UNL     1       8.189  11.316  -1.736  1.00  0.00     0.135 A 
ATOM     62  C   UNL     1      10.565  10.967  -1.650  1.00  0.00     0.135 A 
ATOM     63  F   UNL     1       6.967  11.249  -1.186  1.00  0.00    -0.206 F 
ATOM     64  C   UNL     1       8.299  11.787  -3.043  1.00  0.00     0.059 A 
ATOM     65  C   UNL     1      10.702  11.461  -2.944  1.00  0.00     0.059 A 
ATOM     66  F   UNL     1      11.675  10.572  -1.007  1.00  0.00    -0.206 F 
ATOM     67  C   UNL     1       9.560  11.857  -3.638  1.00  0.00     0.060 A 
BRANCH  67  68
ATOM     68  S   UNL     1       9.692  12.492  -5.323  1.00  0.00     0.124 S 
ATOM     69  O   UNL     1       9.156  11.378  -6.099  1.00  0.00    -0.237 OA
ATOM     70  O   UNL     1       8.859  13.689  -5.274  1.00  0.00    -0.237 OA
ATOM     71  O   UNL     1      11.122  12.736  -5.485  1.00  0.00    -0.744 OA
ENDBRANCH  67  68
ENDBRANCH  46  60
BRANCH  47  72
ATOM     72  C   UNL     1       8.700   7.328   8.319  1.00  0.00     0.058 A 
ATOM     73  C   UNL     1       7.883   7.924   9.292  1.00  0.00     0.135 A 
ATOM     74  C   UNL     1       9.473   6.222   8.707  1.00  0.00     0.135 A 
ATOM     75  F   UNL     1       7.133   8.991   8.976  1.00  0.00    -0.206 F 
ATOM     76  C   UNL     1       7.850   7.457  10.603  1.00  0.00     0.059 A 
ATOM     77  C   UNL     1       9.432   5.717  10.003  1.00  0.00     0.059 A 
ATOM     78  F   UNL     1      10.263   5.606   7.814  1.00  0.00    -0.206 F 
ATOM     79  C   UNL     1       8.629   6.352  10.948  1.00  0.00     0.060 A 
BRANCH  79  80
ATOM     80  S   UNL     1       8.559   5.734  12.643  1.00  0.00     0.124 S 
ATOM     81  O   UNL     1       9.346   6.735  13.353  1.00  0.00    -0.237 OA
ATOM     82  O   UNL     1       7.125   5.739  12.915  1.00  0.00    -0.237 OA
ATOM     83  O   UNL     1       9.164   4.409  12.542  1.00  0.00    -0.744 OA
ENDBRANCH  79  80
ENDBRANCH  47  72
BRANCH  59  84
ATOM     84  C   UNL     1      11.091  13.262   5.557  1.00  0.00     0.058 A 
ATOM     85  C   UNL     1      12.387  13.285   6.093  1.00  0.00     0.135 A 
ATOM     86  C   UNL     1      10.351  14.456   5.577  1.00  0.00     0.135 A 
ATOM     87  F   UNL     1      13.133  12.169   6.105  1.00  0.00    -0.206 F 
ATOM     88  C   UNL     1      12.919  14.441   6.656  1.00  0.00     0.059 A 
ATOM     89  C   UNL     1      10.873  15.630   6.109  1.00  0.00     0.059 A 
ATOM     90  F   UNL     1       9.110  14.491   5.066  1.00  0.00    -0.206 F 
ATOM     91  C   UNL     1      12.153  15.608   6.661  1.00  0.00     0.060 A 
BRANCH  91  92
ATOM     92  S   UNL     1      12.859  17.107   7.377  1.00  0.00     0.124 S 
ATOM     93  O   UNL     1      12.759  16.825   8.805  1.00  0.00    -0.237 OA
ATOM     94  O   UNL     1      14.211  17.112   6.825  1.00  0.00    -0.237 OA
ATOM     95  O   UNL     1      11.983  18.165   6.883  1.00  0.00    -0.744 OA
ENDBRANCH  91  92
ENDBRANCH  59  84
ENDBRANCH  33  34
ENDBRANCH  26  28
ENDBRANCH  25  26
ENDBRANCH   1  25
TORSDOF 17
