REMARK SMILES COc1cccc(C(=O)N[C@H]2C=C[C@@H](C(=O)OCCOC(=O)c3ccc(-c4c5nc(c(-c6c(F)cc(S(=O)(=O)[O-])cc6F)c6ccc([nH]6)c(-c6c(F)cc(S(=O)(=O)[O-])cc6F)c6nc(c(-c7c(F)cc(S(=O)(=O)[O-])cc7F)c7ccc4[nH]7)C=C6)C=C5)cc3)C2)c1
REMARK SMILES IDX 18 1 17 2 15 3 16 4 14 5 11 6 12 7 89 8 13 9 10 10 8 11 9 12
REMARK SMILES IDX 7 14 3 15 4 16 90 17 5 18 6 19 2 20 1 21 19 22 20 23 21 24
REMARK SMILES IDX 22 25 23 26 24 27 88 28 25 29 87 30 26 31 27 32 28 33 81 34
REMARK SMILES IDX 29 35 86 36 80 37 82 38 30 39 85 40 79 41 78 42 31 44 65 45
REMARK SMILES IDX 44 46 64 47 45 48 48 49 63 50 83 51 46 52 47 53 62 55 84 56
REMARK SMILES IDX 49 57 32 58 33 59 42 60 34 61 35 62 41 63 43 64 36 65 37 66
REMARK SMILES IDX 38 67 39 68 40 69 66 70 67 71 76 72 68 73 69 74 75 75 77 76
REMARK SMILES IDX 70 77 71 78 72 79 73 80 74 81 50 82 51 83 60 84 52 85 53 86
REMARK SMILES IDX 59 87 61 88 54 89 55 90 56 91 57 92 58 93
REMARK H PARENT 10 13 82 43 48 54
REMARK Flexibility Score: inf
ROOT
ATOM      1  C   UNL     1       7.244   1.806   4.041  1.00  0.00     0.274 C 
ENDROOT
BRANCH   1   2
ATOM      2  O   UNL     1       6.537   0.789   3.310  1.00  0.00    -0.462 OA
BRANCH   2   3
ATOM      3  C   UNL     1       5.219   1.038   3.128  1.00  0.00     0.312 C 
ATOM      4  O   UNL     1       4.615   1.991   3.615  1.00  0.00    -0.252 OA
BRANCH   3   5
ATOM      5  C   UNL     1       4.522   0.035   2.242  1.00  0.00     0.124 C 
ATOM      6  C   UNL     1       4.186  -2.061   1.202  1.00  0.00     0.106 C 
ATOM      7  C   UNL     1       3.400  -1.985   2.476  1.00  0.00    -0.006 C 
ATOM      8  C   UNL     1       5.308  -1.061   1.509  1.00  0.00     0.048 C 
ATOM      9  C   UNL     1       3.551  -0.784   3.041  1.00  0.00    -0.014 C 
BRANCH   6  10
ATOM     10  N   UNL     1       4.558  -3.409   0.862  1.00  0.00    -0.346 N 
ATOM     11  C   UNL     1       3.705  -4.431   0.477  1.00  0.00     0.251 C 
ATOM     12  O   UNL     1       4.145  -5.521   0.126  1.00  0.00    -0.269 OA
ATOM     13  H   UNL     1       5.517  -3.627   0.907  1.00  0.00     0.164 HD
BRANCH  11  14
ATOM     14  C   UNL     1       2.238  -4.236   0.616  1.00  0.00     0.043 A 
ATOM     15  C   UNL     1       0.311  -2.795   0.436  1.00  0.00     0.119 A 
ATOM     16  C   UNL     1      -0.352  -3.580   1.382  1.00  0.00     0.046 A 
ATOM     17  C   UNL     1       1.578  -3.169  -0.007  1.00  0.00     0.060 A 
ATOM     18  C   UNL     1       0.262  -4.714   1.919  1.00  0.00     0.005 A 
ATOM     19  C   UNL     1       1.566  -5.038   1.545  1.00  0.00     0.014 A 
BRANCH  15  20
ATOM     20  O   UNL     1      -0.355  -1.671   0.028  1.00  0.00    -0.497 OA
ATOM     21  C   UNL     1       0.473  -0.561  -0.316  1.00  0.00     0.278 C 
ENDBRANCH  15  20
ENDBRANCH  11  14
ENDBRANCH   6  10
ENDBRANCH   3   5
ENDBRANCH   2   3
ENDBRANCH   1   2
BRANCH   1  22
ATOM     22  C   UNL     1       7.991   2.755   3.097  1.00  0.00     0.275 C 
BRANCH  22  23
ATOM     23  O   UNL     1       7.110   3.576   2.305  1.00  0.00    -0.458 OA
BRANCH  23  24
ATOM     24  C   UNL     1       6.700   3.033   1.133  1.00  0.00     0.338 C 
ATOM     25  O   UNL     1       6.977   1.927   0.699  1.00  0.00    -0.246 OA
BRANCH  24  26
ATOM     26  C   UNL     1       5.733   3.925   0.470  1.00  0.00     0.060 A 
ATOM     27  C   UNL     1       4.465   3.414   0.180  1.00  0.00     0.016 A 
ATOM     28  C   UNL     1       6.080   5.216   0.072  1.00  0.00     0.016 A 
ATOM     29  C   UNL     1       3.533   4.191  -0.500  1.00  0.00     0.010 A 
ATOM     30  C   UNL     1       5.140   6.000  -0.608  1.00  0.00     0.010 A 
ATOM     31  C   UNL     1       3.860   5.493  -0.896  1.00  0.00    -0.014 A 
BRANCH  31  32
ATOM     32  C   UNL     1       2.852   6.324  -1.597  1.00  0.00     0.031 A 
ATOM     33  C   UNL     1       3.000   6.621  -3.061  1.00  0.00     0.074 A 
ATOM     34  C   UNL     1       1.796   6.800  -0.910  1.00  0.00     0.049 A 
ATOM     35  N   UNL     1       2.283   7.409  -3.818  1.00  0.00    -0.248 NA
ATOM     36  C   UNL     1       4.097   5.940  -3.766  1.00  0.00     0.031 C 
ATOM     37  C   UNL     1       1.524   6.537   0.505  1.00  0.00     0.029 A 
ATOM     38  N   UNL     1       0.760   7.607  -1.303  1.00  0.00    -0.354 N 
ATOM     39  C   UNL     1       2.851   7.340  -5.084  1.00  0.00     0.074 A 
ATOM     40  C   UNL     1       3.979   6.437  -4.991  1.00  0.00     0.031 C 
ATOM     41  C   UNL     1       0.397   7.173   0.861  1.00  0.00     0.029 A 
ATOM     42  C   UNL     1      -0.101   7.932  -0.282  1.00  0.00     0.049 A 
ATOM     43  H   UNL     1       0.644   7.925  -2.228  1.00  0.00     0.167 HD
ATOM     44  C   UNL     1       2.464   7.975  -6.217  1.00  0.00     0.037 A 
ATOM     45  C   UNL     1      -1.149   8.778  -0.258  1.00  0.00     0.037 A 
ATOM     46  C   UNL     1       1.333   8.863  -6.300  1.00  0.00     0.049 A 
ATOM     47  C   UNL     1      -1.514   9.526  -1.510  1.00  0.00     0.074 A 
ATOM     48  C   UNL     1       0.848   9.539  -7.405  1.00  0.00     0.029 A 
ATOM     49  N   UNL     1       0.511   9.201  -5.234  1.00  0.00    -0.354 N 
ATOM     50  N   UNL     1      -0.961   9.460  -2.698  1.00  0.00    -0.248 NA
ATOM     51  C   UNL     1      -2.631  10.475  -1.416  1.00  0.00     0.031 C 
ATOM     52  C   UNL     1      -0.242  10.319  -6.999  1.00  0.00     0.029 A 
ATOM     53  C   UNL     1      -0.460  10.098  -5.649  1.00  0.00     0.049 A 
ATOM     54  H   UNL     1       0.605   8.855  -4.317  1.00  0.00     0.167 HD
ATOM     55  C   UNL     1      -1.666  10.354  -3.494  1.00  0.00     0.074 A 
ATOM     56  C   UNL     1      -2.699  10.933  -2.659  1.00  0.00     0.031 C 
ATOM     57  C   UNL     1      -1.474  10.671  -4.798  1.00  0.00     0.037 A 
BRANCH  44  58
ATOM     58  C   UNL     1       3.291   7.759  -7.453  1.00  0.00     0.058 A 
ATOM     59  C   UNL     1       3.234   6.561  -8.181  1.00  0.00     0.135 A 
ATOM     60  C   UNL     1       4.124   8.781  -7.936  1.00  0.00     0.135 A 
ATOM     61  F   UNL     1       2.466   5.546  -7.754  1.00  0.00    -0.206 F 
ATOM     62  C   UNL     1       3.992   6.374  -9.333  1.00  0.00     0.059 A 
ATOM     63  C   UNL     1       4.875   8.624  -9.097  1.00  0.00     0.059 A 
ATOM     64  F   UNL     1       4.216   9.946  -7.276  1.00  0.00    -0.206 F 
ATOM     65  C   UNL     1       4.813   7.412  -9.782  1.00  0.00     0.060 A 
BRANCH  65  66
ATOM     66  S   UNL     1       5.793   7.155 -11.276  1.00  0.00     0.124 S 
ATOM     67  O   UNL     1       6.844   6.269 -10.785  1.00  0.00    -0.237 OA
ATOM     68  O   UNL     1       4.827   6.549 -12.186  1.00  0.00    -0.237 OA
ATOM     69  O   UNL     1       6.226   8.503 -11.634  1.00  0.00    -0.744 OA
ENDBRANCH  65  66
ENDBRANCH  44  58
BRANCH  45  70
ATOM     70  C   UNL     1      -1.894   8.995   1.009  1.00  0.00     0.058 A 
ATOM     71  C   UNL     1      -3.202   8.517   1.171  1.00  0.00     0.135 A 
ATOM     72  C   UNL     1      -1.304   9.668   2.091  1.00  0.00     0.135 A 
ATOM     73  F   UNL     1      -3.812   7.878   0.162  1.00  0.00    -0.206 F 
ATOM     74  C   UNL     1      -3.902   8.703   2.359  1.00  0.00     0.059 A 
ATOM     75  C   UNL     1      -1.974   9.845   3.296  1.00  0.00     0.059 A 
ATOM     76  F   UNL     1      -0.050  10.136   1.988  1.00  0.00    -0.206 F 
ATOM     77  C   UNL     1      -3.277   9.366   3.418  1.00  0.00     0.060 A 
BRANCH  77  78
ATOM     78  S   UNL     1      -4.170   9.552   4.977  1.00  0.00     0.124 S 
ATOM     79  O   UNL     1      -5.097  10.630   4.657  1.00  0.00    -0.237 OA
ATOM     80  O   UNL     1      -4.763   8.229   5.153  1.00  0.00    -0.237 OA
ATOM     81  O   UNL     1      -3.114   9.886   5.928  1.00  0.00    -0.744 OA
ENDBRANCH  77  78
ENDBRANCH  45  70
BRANCH  57  82
ATOM     82  C   UNL     1      -2.402  11.686  -5.402  1.00  0.00     0.058 A 
ATOM     83  C   UNL     1      -2.270  13.054  -5.119  1.00  0.00     0.135 A 
ATOM     84  C   UNL     1      -3.401  11.294  -6.306  1.00  0.00     0.135 A 
ATOM     85  F   UNL     1      -1.336  13.478  -4.253  1.00  0.00    -0.206 F 
ATOM     86  C   UNL     1      -3.109  13.999  -5.700  1.00  0.00     0.059 A 
ATOM     87  C   UNL     1      -4.237  12.223  -6.916  1.00  0.00     0.059 A 
ATOM     88  F   UNL     1      -3.563   9.997  -6.614  1.00  0.00    -0.206 F 
ATOM     89  C   UNL     1      -4.090  13.573  -6.599  1.00  0.00     0.060 A 
BRANCH  89  90
ATOM     90  S   UNL     1      -5.148  14.812  -7.377  1.00  0.00     0.124 S 
ATOM     91  O   UNL     1      -6.063  15.142  -6.289  1.00  0.00    -0.237 OA
ATOM     92  O   UNL     1      -4.195  15.856  -7.742  1.00  0.00    -0.237 OA
ATOM     93  O   UNL     1      -5.741  14.093  -8.501  1.00  0.00    -0.744 OA
ENDBRANCH  89  90
ENDBRANCH  57  82
ENDBRANCH  31  32
ENDBRANCH  24  26
ENDBRANCH  23  24
ENDBRANCH  22  23
ENDBRANCH   1  22
TORSDOF 17
