REMARK SMILES COc1cc(/C=C/C(=O)OCCOC(=O)c2ccc(-c3c4nc(c(-c5c(F)cc(S(=O)(=O)[O-])cc5F)c5ccc([nH]5)c(-c5c(F)cc(S(=O)(=O)[O-])cc5F)c5nc(c(-c6c(F)cc(S(=O)(=O)[O-])cc6F)c6ccc3[nH]6)C=C5)C=C4)cc2)cc(OC)c1O
REMARK SMILES IDX 12 1 11 2 10 3 8 4 9 5 7 6 6 7 5 8 3 9 4 10 86 11 83 12
REMARK SMILES IDX 82 13 2 14 1 15 87 16 84 18 85 19 13 20 14 21 15 22 16 23
REMARK SMILES IDX 17 24 81 25 18 26 80 27 19 28 20 29 21 30 74 31 22 32 79 33
REMARK SMILES IDX 73 34 75 35 23 36 78 37 72 38 71 39 24 41 58 42 37 43 57 44
REMARK SMILES IDX 38 45 41 46 56 47 76 48 39 49 40 50 55 52 77 53 42 54 25 55
REMARK SMILES IDX 26 56 35 57 27 58 28 59 34 60 36 61 29 62 30 63 31 64 32 65
REMARK SMILES IDX 33 66 59 67 60 68 69 69 61 70 62 71 68 72 70 73 63 74 64 75
REMARK SMILES IDX 65 76 66 77 67 78 43 79 44 80 53 81 45 82 46 83 52 84 54 85
REMARK SMILES IDX 47 86 48 87 49 88 50 89 51 90
REMARK H PARENT 87 17 75 40 41 51
REMARK Flexibility Score: inf
ROOT
ATOM      1  C   UNL     1      -1.708  -9.894  -1.238  1.00  0.00     0.275 C 
ENDROOT
BRANCH   1   2
ATOM      2  C   UNL     1      -0.244  -9.775  -1.674  1.00  0.00     0.275 C 
BRANCH   2   3
ATOM      3  O   UNL     1       0.346  -8.537  -1.232  1.00  0.00    -0.459 OA
BRANCH   3   4
ATOM      4  C   UNL     1       0.465  -7.577  -2.180  1.00  0.00     0.330 C 
ATOM      5  O   UNL     1       0.182  -7.696  -3.364  1.00  0.00    -0.247 OA
BRANCH   4   6
ATOM      6  C   UNL     1       0.937  -6.285  -1.641  1.00  0.00     0.094 C 
ATOM      7  C   UNL     1       1.264  -6.036  -0.363  1.00  0.00     0.016 C 
BRANCH   7   8
ATOM      8  C   UNL     1       1.633  -4.693   0.113  1.00  0.00    -0.018 A 
ATOM      9  C   UNL     1       1.202  -2.305   0.298  1.00  0.00     0.165 A 
ATOM     10  C   UNL     1       0.889  -3.559  -0.236  1.00  0.00     0.058 A 
ATOM     11  C   UNL     1       2.245  -2.179   1.227  1.00  0.00     0.200 A 
ATOM     12  C   UNL     1       3.024  -3.293   1.564  1.00  0.00     0.165 A 
ATOM     13  C   UNL     1       2.697  -4.543   1.011  1.00  0.00     0.058 A 
BRANCH   9  14
ATOM     14  O   UNL     1       0.350  -1.288  -0.050  1.00  0.00    -0.493 OA
ATOM     15  C   UNL     1       0.975  -0.073  -0.466  1.00  0.00     0.278 C 
ENDBRANCH   9  14
BRANCH  11  16
ATOM     16  O   UNL     1       2.421  -0.983   1.868  1.00  0.00    -0.502 OA
ATOM     17  H   UNL     1       1.894  -0.244   1.635  1.00  0.00     0.293 HD
ENDBRANCH  11  16
BRANCH  12  18
ATOM     18  O   UNL     1       4.073  -3.359   2.445  1.00  0.00    -0.493 OA
ATOM     19  C   UNL     1       4.597  -2.140   2.952  1.00  0.00     0.278 C 
ENDBRANCH  12  18
ENDBRANCH   7   8
ENDBRANCH   4   6
ENDBRANCH   3   4
ENDBRANCH   2   3
ENDBRANCH   1   2
BRANCH   1  20
ATOM     20  O   UNL     1      -2.543  -8.905  -1.866  1.00  0.00    -0.458 OA
BRANCH  20  21
ATOM     21  C   UNL     1      -2.698  -7.755  -1.164  1.00  0.00     0.338 C 
ATOM     22  O   UNL     1      -2.235  -7.495  -0.067  1.00  0.00    -0.246 OA
BRANCH  21  23
ATOM     23  C   UNL     1      -3.429  -6.774  -1.984  1.00  0.00     0.060 A 
ATOM     24  C   UNL     1      -2.805  -5.553  -2.256  1.00  0.00     0.016 A 
ATOM     25  C   UNL     1      -4.724  -7.026  -2.442  1.00  0.00     0.016 A 
ATOM     26  C   UNL     1      -3.470  -4.583  -3.003  1.00  0.00     0.010 A 
ATOM     27  C   UNL     1      -5.391  -6.049  -3.189  1.00  0.00     0.010 A 
ATOM     28  C   UNL     1      -4.768  -4.823  -3.476  1.00  0.00    -0.014 A 
BRANCH  28  29
ATOM     29  C   UNL     1      -5.463  -3.792  -4.285  1.00  0.00     0.031 A 
ATOM     30  C   UNL     1      -6.551  -2.954  -3.679  1.00  0.00     0.074 A 
ATOM     31  C   UNL     1      -5.104  -3.610  -5.570  1.00  0.00     0.049 A 
ATOM     32  N   UNL     1      -7.298  -2.039  -4.241  1.00  0.00    -0.248 NA
ATOM     33  C   UNL     1      -6.835  -3.172  -2.253  1.00  0.00     0.031 C 
ATOM     34  C   UNL     1      -4.043  -4.346  -6.258  1.00  0.00     0.029 A 
ATOM     35  N   UNL     1      -5.594  -2.756  -6.525  1.00  0.00    -0.354 N 
ATOM     36  C   UNL     1      -8.146  -1.574  -3.244  1.00  0.00     0.074 A 
ATOM     37  C   UNL     1      -7.835  -2.326  -2.045  1.00  0.00     0.031 C 
ATOM     38  C   UNL     1      -3.962  -3.911  -7.526  1.00  0.00     0.029 A 
ATOM     39  C   UNL     1      -4.990  -2.899  -7.752  1.00  0.00     0.049 A 
ATOM     40  H   UNL     1      -6.310  -2.103  -6.350  1.00  0.00     0.167 HD
ATOM     41  C   UNL     1      -9.091  -0.606  -3.322  1.00  0.00     0.037 A 
ATOM     42  C   UNL     1      -5.254  -2.304  -8.931  1.00  0.00     0.037 A 
ATOM     43  C   UNL     1      -9.395   0.135  -4.520  1.00  0.00     0.049 A 
ATOM     44  C   UNL     1      -6.362  -1.290  -9.012  1.00  0.00     0.074 A 
ATOM     45  C   UNL     1     -10.311   1.159  -4.691  1.00  0.00     0.029 A 
ATOM     46  N   UNL     1      -8.801  -0.077  -5.756  1.00  0.00    -0.354 N 
ATOM     47  N   UNL     1      -7.138  -0.841  -8.055  1.00  0.00    -0.248 NA
ATOM     48  C   UNL     1      -6.640  -0.712 -10.334  1.00  0.00     0.031 C 
ATOM     49  C   UNL     1     -10.306   1.532  -6.040  1.00  0.00     0.029 A 
ATOM     50  C   UNL     1      -9.356   0.771  -6.702  1.00  0.00     0.049 A 
ATOM     51  H   UNL     1      -8.089  -0.733  -5.935  1.00  0.00     0.167 HD
ATOM     52  C   UNL     1      -7.992   0.077  -8.656  1.00  0.00     0.074 A 
ATOM     53  C   UNL     1      -7.625   0.133 -10.056  1.00  0.00     0.031 C 
ATOM     54  C   UNL     1      -8.991   0.804  -8.098  1.00  0.00     0.037 A 
BRANCH  41  55
ATOM     55  C   UNL     1      -9.886  -0.311  -2.080  1.00  0.00     0.058 A 
ATOM     56  C   UNL     1      -9.326   0.370  -0.989  1.00  0.00     0.135 A 
ATOM     57  C   UNL     1     -11.235  -0.693  -1.991  1.00  0.00     0.135 A 
ATOM     58  F   UNL     1      -8.038   0.748  -1.016  1.00  0.00    -0.206 F 
ATOM     59  C   UNL     1     -10.065   0.634   0.161  1.00  0.00     0.059 A 
ATOM     60  C   UNL     1     -11.999  -0.419  -0.861  1.00  0.00     0.059 A 
ATOM     61  F   UNL     1     -11.821  -1.345  -3.008  1.00  0.00    -0.206 F 
ATOM     62  C   UNL     1     -11.400   0.230   0.218  1.00  0.00     0.060 A 
BRANCH  62  63
ATOM     63  S   UNL     1     -12.342   0.564   1.722  1.00  0.00     0.124 S 
ATOM     64  O   UNL     1     -11.790  -0.430   2.636  1.00  0.00    -0.237 OA
ATOM     65  O   UNL     1     -11.992   1.952   2.009  1.00  0.00    -0.237 OA
ATOM     66  O   UNL     1     -13.725   0.342   1.313  1.00  0.00    -0.744 OA
ENDBRANCH  62  63
ENDBRANCH  41  55
BRANCH  42  67
ATOM     67  C   UNL     1      -4.464  -2.674 -10.134  1.00  0.00     0.058 A 
ATOM     68  C   UNL     1      -3.537  -1.784 -10.693  1.00  0.00     0.135 A 
ATOM     69  C   UNL     1      -4.601  -3.938 -10.730  1.00  0.00     0.135 A 
ATOM     70  F   UNL     1      -3.380  -0.560 -10.166  1.00  0.00    -0.206 F 
ATOM     71  C   UNL     1      -2.770  -2.133 -11.800  1.00  0.00     0.059 A 
ATOM     72  C   UNL     1      -3.829  -4.318 -11.823  1.00  0.00     0.059 A 
ATOM     73  F   UNL     1      -5.471  -4.828 -10.227  1.00  0.00    -0.206 F 
ATOM     74  C   UNL     1      -2.919  -3.406 -12.354  1.00  0.00     0.060 A 
BRANCH  74  75
ATOM     75  S   UNL     1      -1.870  -3.874 -13.748  1.00  0.00     0.124 S 
ATOM     76  O   UNL     1      -2.482  -3.128 -14.840  1.00  0.00    -0.237 OA
ATOM     77  O   UNL     1      -0.556  -3.409 -13.314  1.00  0.00    -0.237 OA
ATOM     78  O   UNL     1      -2.023  -5.325 -13.809  1.00  0.00    -0.744 OA
ENDBRANCH  74  75
ENDBRANCH  42  67
BRANCH  54  79
ATOM     79  C   UNL     1      -9.764   1.723  -9.003  1.00  0.00     0.058 A 
ATOM     80  C   UNL     1     -10.712   1.226  -9.911  1.00  0.00     0.135 A 
ATOM     81  C   UNL     1      -9.597   3.115  -8.925  1.00  0.00     0.135 A 
ATOM     82  F   UNL     1     -10.902  -0.098 -10.032  1.00  0.00    -0.206 F 
ATOM     83  C   UNL     1     -11.459   2.076 -10.719  1.00  0.00     0.059 A 
ATOM     84  C   UNL     1     -10.350   3.985  -9.708  1.00  0.00     0.059 A 
ATOM     85  F   UNL     1      -8.708   3.642  -8.068  1.00  0.00    -0.206 F 
ATOM     86  C   UNL     1     -11.273   3.455 -10.608  1.00  0.00     0.060 A 
BRANCH  86  87
ATOM     87  S   UNL     1     -12.282   4.550 -11.630  1.00  0.00     0.124 S 
ATOM     88  O   UNL     1     -11.661   4.385 -12.940  1.00  0.00    -0.237 OA
ATOM     89  O   UNL     1     -13.616   3.975 -11.484  1.00  0.00    -0.237 OA
ATOM     90  O   UNL     1     -12.099   5.858 -11.009  1.00  0.00    -0.744 OA
ENDBRANCH  86  87
ENDBRANCH  54  79
ENDBRANCH  28  29
ENDBRANCH  21  23
ENDBRANCH  20  21
ENDBRANCH   1  20
TORSDOF 18
