REMARK SMILES COc1cc(CC(=O)N[C@@H](CC(=O)OCCOC(=O)c2ccc(-c3c4nc(c(-c5c(F)cc(S(=O)(=O)[O-])cc5F)c5ccc([nH]5)c(-c5c(F)cc(S(=O)(=O)[O-])cc5F)c5nc(c(-c6c(F)cc(S(=O)(=O)[O-])cc6F)c6ccc3[nH]6)C=C5)C=C4)cc2)c2cccs2)ccc1C
REMARK SMILES IDX 15 1 14 2 12 3 13 4 11 5 10 6 9 7 7 8 8 9 6 11 5 12 3 13
REMARK SMILES IDX 4 14 93 15 92 16 94 17 91 18 2 19 1 20 86 21 87 22 90 23
REMARK SMILES IDX 88 24 89 25 16 26 17 27 18 28 19 29 20 30 21 31 85 32 22 33
REMARK SMILES IDX 84 34 23 35 24 36 25 37 78 38 26 39 83 40 77 41 79 42 27 43
REMARK SMILES IDX 82 44 76 45 75 46 28 48 62 49 41 50 61 51 42 52 45 53 60 54
REMARK SMILES IDX 80 55 43 56 44 57 59 59 81 60 46 61 29 62 30 63 39 64 31 65
REMARK SMILES IDX 32 66 38 67 40 68 33 69 34 70 35 71 36 72 37 73 63 74 64 75
REMARK SMILES IDX 73 76 65 77 66 78 72 79 74 80 67 81 68 82 69 83 70 84 71 85
REMARK SMILES IDX 47 86 48 87 57 88 49 89 50 90 56 91 58 92 51 93 52 94 53 95
REMARK SMILES IDX 54 96 55 97
REMARK H PARENT 9 10 79 47 45 58
REMARK Flexibility Score: inf
ROOT
ATOM      1  C   UNL     1       6.098  -8.093  -4.041  1.00  0.00     0.274 C 
ENDROOT
BRANCH   1   2
ATOM      2  O   UNL     1       5.940  -6.487  -4.249  1.00  0.00    -0.462 OA
BRANCH   2   3
ATOM      3  C   UNL     1       5.099  -5.651  -4.938  1.00  0.00     0.308 C 
ATOM      4  O   UNL     1       4.533  -6.055  -5.962  1.00  0.00    -0.252 OA
BRANCH   3   5
ATOM      5  C   UNL     1       4.588  -4.223  -4.302  1.00  0.00     0.153 C 
BRANCH   5   6
ATOM      6  C   UNL     1       5.084  -2.948  -3.531  1.00  0.00     0.133 C 
BRANCH   6   7
ATOM      7  N   UNL     1       5.624  -1.984  -4.473  1.00  0.00    -0.348 N 
ATOM      8  C   UNL     1       4.830  -1.145  -5.214  1.00  0.00     0.224 C 
ATOM      9  O   UNL     1       5.109  -0.986  -6.405  1.00  0.00    -0.275 OA
ATOM     10  H   UNL     1       6.601  -1.931  -4.585  1.00  0.00     0.164 HD
BRANCH   8  11
ATOM     11  C   UNL     1       3.772  -0.280  -4.531  1.00  0.00     0.135 C 
BRANCH  11  12
ATOM     12  C   UNL     1       2.458  -0.867  -4.051  1.00  0.00    -0.035 A 
ATOM     13  C   UNL     1       0.823  -1.096  -2.226  1.00  0.00     0.122 A 
ATOM     14  C   UNL     1       2.079  -0.691  -2.702  1.00  0.00     0.051 A 
ATOM     15  C   UNL     1      -0.083  -1.707  -3.104  1.00  0.00    -0.009 A 
ATOM     16  C   UNL     1       0.293  -1.893  -4.446  1.00  0.00     0.007 A 
ATOM     17  C   UNL     1      -1.464  -2.125  -2.669  1.00  0.00     0.048 C 
ATOM     18  C   UNL     1       1.547  -1.476  -4.917  1.00  0.00     0.005 A 
BRANCH  13  19
ATOM     19  O   UNL     1       0.412  -0.962  -0.925  1.00  0.00    -0.496 OA
ATOM     20  C   UNL     1       1.025   0.066  -0.160  1.00  0.00     0.278 C 
ENDBRANCH  13  19
ENDBRANCH  11  12
ENDBRANCH   8  11
ENDBRANCH   6   7
BRANCH   6  21
ATOM     21  C   UNL     1       5.847  -2.913  -2.215  1.00  0.00     0.027 A 
ATOM     22  C   UNL     1       7.174  -2.645  -1.917  1.00  0.00     0.017 A 
ATOM     23  S   UNL     1       4.968  -3.029  -0.699  1.00  0.00    -0.147 S 
ATOM     24  C   UNL     1       7.510  -2.962  -0.561  1.00  0.00     0.012 A 
ATOM     25  C   UNL     1       6.411  -3.358   0.164  1.00  0.00     0.065 A 
ENDBRANCH   6  21
ENDBRANCH   5   6
ENDBRANCH   3   5
ENDBRANCH   2   3
ENDBRANCH   1   2
BRANCH   1  26
ATOM     26  C   UNL     1       6.662  -8.861  -2.370  1.00  0.00     0.275 C 
BRANCH  26  27
ATOM     27  O   UNL     1       5.742  -8.680  -0.719  1.00  0.00    -0.458 OA
BRANCH  27  28
ATOM     28  C   UNL     1       4.359  -7.840   0.013  1.00  0.00     0.338 C 
ATOM     29  O   UNL     1       4.127  -8.240   1.165  1.00  0.00    -0.246 OA
BRANCH  28  30
ATOM     30  C   UNL     1       3.102  -6.594  -0.724  1.00  0.00     0.060 A 
ATOM     31  C   UNL     1       1.735  -6.652  -0.379  1.00  0.00     0.016 A 
ATOM     32  C   UNL     1       3.004  -6.107  -2.133  1.00  0.00     0.016 A 
ATOM     33  C   UNL     1       0.619  -6.738  -1.467  1.00  0.00     0.010 A 
ATOM     34  C   UNL     1       1.958  -5.912  -3.116  1.00  0.00     0.010 A 
ATOM     35  C   UNL     1       0.818  -6.590  -2.888  1.00  0.00    -0.014 A 
BRANCH  35  36
ATOM     36  C   UNL     1       0.437  -7.481  -4.128  1.00  0.00     0.031 A 
ATOM     37  C   UNL     1      -0.136  -6.867  -5.360  1.00  0.00     0.074 A 
ATOM     38  C   UNL     1       0.920  -8.720  -4.500  1.00  0.00     0.049 A 
ATOM     39  N   UNL     1      -1.395  -6.814  -5.649  1.00  0.00    -0.248 NA
ATOM     40  C   UNL     1       0.750  -6.463  -6.473  1.00  0.00     0.031 C 
ATOM     41  C   UNL     1       0.444  -9.665  -5.532  1.00  0.00     0.029 A 
ATOM     42  N   UNL     1       1.851  -9.539  -3.898  1.00  0.00    -0.354 N 
ATOM     43  C   UNL     1      -1.449  -6.712  -7.036  1.00  0.00     0.074 A 
ATOM     44  C   UNL     1      -0.128  -6.277  -7.465  1.00  0.00     0.031 C 
ATOM     45  C   UNL     1       0.665 -10.933  -5.101  1.00  0.00     0.029 A 
ATOM     46  C   UNL     1       1.382 -10.863  -3.845  1.00  0.00     0.049 A 
ATOM     47  H   UNL     1       2.723  -9.238  -3.553  1.00  0.00     0.167 HD
ATOM     48  C   UNL     1      -2.285  -7.496  -7.793  1.00  0.00     0.037 A 
ATOM     49  C   UNL     1       1.054 -11.343  -2.602  1.00  0.00     0.037 A 
ATOM     50  C   UNL     1      -2.683  -8.706  -7.058  1.00  0.00     0.049 A 
ATOM     51  C   UNL     1      -0.477 -11.131  -2.383  1.00  0.00     0.074 A 
ATOM     52  C   UNL     1      -2.421 -10.053  -7.276  1.00  0.00     0.029 A 
ATOM     53  N   UNL     1      -3.182  -8.627  -5.762  1.00  0.00    -0.354 N 
ATOM     54  N   UNL     1      -1.274 -10.763  -3.353  1.00  0.00    -0.248 NA
ATOM     55  C   UNL     1      -1.237 -11.271  -1.132  1.00  0.00     0.031 C 
ATOM     56  C   UNL     1      -2.679 -10.762  -6.080  1.00  0.00     0.029 A 
ATOM     57  C   UNL     1      -3.096  -9.854  -5.127  1.00  0.00     0.049 A 
ATOM     58  H   UNL     1      -3.546  -7.810  -5.352  1.00  0.00     0.167 HD
ATOM     59  C   UNL     1      -2.542 -10.508  -2.899  1.00  0.00     0.074 A 
ATOM     60  C   UNL     1      -2.484 -10.901  -1.505  1.00  0.00     0.031 C 
ATOM     61  C   UNL     1      -3.503  -9.999  -3.735  1.00  0.00     0.037 A 
BRANCH  48  62
ATOM     62  C   UNL     1      -2.439  -7.349  -9.307  1.00  0.00     0.058 A 
ATOM     63  C   UNL     1      -3.006  -8.364 -10.111  1.00  0.00     0.135 A 
ATOM     64  C   UNL     1      -2.144  -6.154 -10.005  1.00  0.00     0.135 A 
ATOM     65  F   UNL     1      -3.462  -9.509  -9.590  1.00  0.00    -0.206 F 
ATOM     66  C   UNL     1      -3.178  -8.246 -11.492  1.00  0.00     0.059 A 
ATOM     67  C   UNL     1      -2.295  -6.015 -11.393  1.00  0.00     0.059 A 
ATOM     68  F   UNL     1      -1.729  -5.058  -9.350  1.00  0.00    -0.206 F 
ATOM     69  C   UNL     1      -2.811  -7.072 -12.131  1.00  0.00     0.060 A 
BRANCH  69  70
ATOM     70  S   UNL     1      -3.080  -6.946 -13.911  1.00  0.00     0.124 S 
ATOM     71  O   UNL     1      -2.288  -8.062 -14.419  1.00  0.00    -0.237 OA
ATOM     72  O   UNL     1      -4.528  -7.100 -14.012  1.00  0.00    -0.237 OA
ATOM     73  O   UNL     1      -2.568  -5.620 -14.241  1.00  0.00    -0.744 OA
ENDBRANCH  69  70
ENDBRANCH  48  62
BRANCH  49  74
ATOM     74  C   UNL     1       2.182 -10.931  -1.630  1.00  0.00     0.058 A 
ATOM     75  C   UNL     1       3.521 -11.155  -1.936  1.00  0.00     0.135 A 
ATOM     76  C   UNL     1       2.085  -9.665  -1.181  1.00  0.00     0.135 A 
ATOM     77  F   UNL     1       3.964 -12.424  -1.970  1.00  0.00    -0.206 F 
ATOM     78  C   UNL     1       4.538 -10.055  -2.122  1.00  0.00     0.059 A 
ATOM     79  C   UNL     1       3.011  -8.667  -1.777  1.00  0.00     0.059 A 
ATOM     80  F   UNL     1       0.889  -9.252  -0.736  1.00  0.00    -0.206 F 
ATOM     81  C   UNL     1       4.354  -8.540  -2.234  1.00  0.00     0.060 A 
BRANCH  81  82
ATOM     82  S   UNL     1       5.800  -6.675  -1.703  1.00  0.00     0.124 S 
ATOM     83  O   UNL     1       5.995  -6.488  -0.261  1.00  0.00    -0.237 OA
ATOM     84  O   UNL     1       7.136  -6.769  -2.313  1.00  0.00    -0.237 OA
ATOM     85  O   UNL     1       5.196  -5.473  -2.240  1.00  0.00    -0.744 OA
ENDBRANCH  81  82
ENDBRANCH  49  74
BRANCH  61  86
ATOM     86  C   UNL     1      -4.951  -9.696  -3.415  1.00  0.00     0.058 A 
ATOM     87  C   UNL     1      -5.440  -9.284  -2.170  1.00  0.00     0.135 A 
ATOM     88  C   UNL     1      -5.916  -9.758  -4.459  1.00  0.00     0.135 A 
ATOM     89  F   UNL     1      -4.613  -9.077  -1.135  1.00  0.00    -0.206 F 
ATOM     90  C   UNL     1      -6.803  -9.048  -1.950  1.00  0.00     0.059 A 
ATOM     91  C   UNL     1      -7.261  -9.471  -4.278  1.00  0.00     0.059 A 
ATOM     92  F   UNL     1      -5.584 -10.120  -5.708  1.00  0.00    -0.206 F 
ATOM     93  C   UNL     1      -7.707  -9.164  -3.006  1.00  0.00     0.060 A 
BRANCH  93  94
ATOM     94  S   UNL     1      -9.471  -8.928  -2.730  1.00  0.00     0.124 S 
ATOM     95  O   UNL     1      -9.877 -10.266  -2.311  1.00  0.00    -0.237 OA
ATOM     96  O   UNL     1      -9.502  -7.904  -1.691  1.00  0.00    -0.237 OA
ATOM     97  O   UNL     1      -9.964  -8.502  -4.036  1.00  0.00    -0.744 OA
ENDBRANCH  93  94
ENDBRANCH  61  86
ENDBRANCH  35  36
ENDBRANCH  28  30
ENDBRANCH  27  28
ENDBRANCH  26  27
ENDBRANCH   1  26
TORSDOF 20
