REMARK SMILES Cc1ccc(OCC(=O)NNC(=O)[C@H]2CCCC[C@@H]2C(=O)OCCOC(=O)c2ccc(-c3c4nc(c(-c5c(F)cc(S(=O)(=O)[O-])cc5F)c5ccc([nH]5)c(-c5c(F)cc(S(=O)(=O)[O-])cc5F)c5nc(c(-c6c(F)cc(S(=O)(=O)[O-])cc6F)c6ccc3[nH]6)C=C5)C=C4)cc2)cc1
REMARK SMILES IDX 23 1 22 2 20 3 21 4 19 5 14 6 15 7 16 8 18 9 17 10 12 11
REMARK SMILES IDX 11 12 13 14 10 15 8 16 9 17 7 19 6 20 5 21 1 22 2 23 3 24
REMARK SMILES IDX 95 25 4 26 94 27 24 28 25 29 26 30 27 31 28 32 29 33 93 34
REMARK SMILES IDX 30 35 92 36 31 37 32 38 33 39 86 40 34 41 91 42 85 43 87 44
REMARK SMILES IDX 35 45 90 46 84 47 83 48 36 50 70 51 49 52 69 53 50 54 53 55
REMARK SMILES IDX 68 56 88 57 51 58 52 59 67 61 89 62 54 63 37 64 38 65 47 66
REMARK SMILES IDX 39 67 40 68 46 69 48 70 41 71 42 72 43 73 44 74 45 75 71 76
REMARK SMILES IDX 72 77 81 78 73 79 74 80 80 81 82 82 75 83 76 84 77 85 78 86
REMARK SMILES IDX 79 87 55 88 56 89 65 90 57 91 58 92 64 93 66 94 59 95 60 96
REMARK SMILES IDX 61 97 62 98 63 99
REMARK H PARENT 11 13 10 18 87 49 53 60
REMARK Flexibility Score: inf
ROOT
ATOM      1  C   UNL     1      -6.171   5.136   4.441  1.00  0.00     0.274 C 
ENDROOT
BRANCH   1   2
ATOM      2  O   UNL     1      -4.933   4.452   4.730  1.00  0.00    -0.462 OA
BRANCH   2   3
ATOM      3  C   UNL     1      -5.066   3.355   5.529  1.00  0.00     0.309 C 
ATOM      4  O   UNL     1      -6.144   2.977   5.970  1.00  0.00    -0.252 OA
BRANCH   3   5
ATOM      5  C   UNL     1      -3.720   2.745   5.923  1.00  0.00     0.111 C 
ATOM      6  C   UNL     1      -3.695   1.209   5.779  1.00  0.00     0.094 C 
ATOM      7  C   UNL     1      -4.599   0.507   6.819  1.00  0.00     0.014 C 
ATOM      8  C   UNL     1      -4.434   1.009   8.257  1.00  0.00     0.001 C 
ATOM      9  C   UNL     1      -3.434   3.183   7.366  1.00  0.00     0.016 C 
ATOM     10  C   UNL     1      -4.366   2.526   8.388  1.00  0.00     0.001 C 
BRANCH   6  11
ATOM     11  C   UNL     1      -2.281   0.635   5.905  1.00  0.00     0.242 C 
ATOM     12  N   UNL     1      -1.523   0.343   4.807  1.00  0.00    -0.267 N 
ATOM     13  H   UNL     1      -0.799  -0.311   4.939  1.00  0.00     0.191 HD
ATOM     14  O   UNL     1      -1.779   0.372   7.004  1.00  0.00    -0.273 OA
BRANCH  12  15
ATOM     15  N   UNL     1      -1.657   0.865   3.521  1.00  0.00    -0.265 N 
ATOM     16  C   UNL     1      -0.563   1.357   2.831  1.00  0.00     0.276 C 
ATOM     17  O   UNL     1      -0.634   1.765   1.671  1.00  0.00    -0.269 OA
ATOM     18  H   UNL     1      -2.545   0.883   3.097  1.00  0.00     0.191 HD
BRANCH  16  19
ATOM     19  C   UNL     1       0.806   1.327   3.532  1.00  0.00     0.331 C 
BRANCH  19  20
ATOM     20  O   UNL     1       0.913   1.920   4.815  1.00  0.00    -0.484 OA
BRANCH  20  21
ATOM     21  C   UNL     1       0.834   3.283   4.886  1.00  0.00     0.120 A 
ATOM     22  C   UNL     1       0.599   7.537   5.553  1.00  0.00     0.044 C 
ATOM     23  C   UNL     1       0.682   6.060   5.319  1.00  0.00    -0.051 A 
ATOM     24  C   UNL     1       0.858   5.184   6.395  1.00  0.00     0.007 A 
ATOM     25  C   UNL     1       0.590   5.534   4.028  1.00  0.00     0.007 A 
ATOM     26  C   UNL     1       0.929   3.805   6.177  1.00  0.00     0.047 A 
ATOM     27  C   UNL     1       0.669   4.156   3.812  1.00  0.00     0.047 A 
ENDBRANCH  20  21
ENDBRANCH  19  20
ENDBRANCH  16  19
ENDBRANCH  12  15
ENDBRANCH   6  11
ENDBRANCH   3   5
ENDBRANCH   2   3
ENDBRANCH   1   2
BRANCH   1  28
ATOM     28  C   UNL     1      -6.091   5.919   3.119  1.00  0.00     0.275 C 
BRANCH  28  29
ATOM     29  O   UNL     1      -6.214   5.148   1.904  1.00  0.00    -0.458 OA
BRANCH  29  30
ATOM     30  C   UNL     1      -5.502   3.987   1.866  1.00  0.00     0.338 C 
ATOM     31  O   UNL     1      -4.288   3.933   1.880  1.00  0.00    -0.246 OA
BRANCH  30  32
ATOM     32  C   UNL     1      -6.458   2.887   2.186  1.00  0.00     0.060 A 
ATOM     33  C   UNL     1      -5.970   1.769   2.865  1.00  0.00     0.016 A 
ATOM     34  C   UNL     1      -7.835   3.133   2.139  1.00  0.00     0.016 A 
ATOM     35  C   UNL     1      -6.832   0.999   3.647  1.00  0.00     0.010 A 
ATOM     36  C   UNL     1      -8.684   2.398   2.947  1.00  0.00     0.010 A 
ATOM     37  C   UNL     1      -8.176   1.369   3.748  1.00  0.00    -0.014 A 
BRANCH  37  38
ATOM     38  C   UNL     1      -9.156   0.596   4.506  1.00  0.00     0.031 A 
ATOM     39  C   UNL     1      -9.255   0.602   5.987  1.00  0.00     0.074 A 
ATOM     40  C   UNL     1      -9.917  -0.233   3.761  1.00  0.00     0.049 A 
ATOM     41  N   UNL     1      -9.597  -0.436   6.682  1.00  0.00    -0.248 NA
ATOM     42  C   UNL     1      -8.950   1.764   6.821  1.00  0.00     0.031 C 
ATOM     43  C   UNL     1     -11.036  -1.062   4.170  1.00  0.00     0.029 A 
ATOM     44  N   UNL     1      -9.603  -0.684   2.474  1.00  0.00    -0.354 N 
ATOM     45  C   UNL     1      -9.771  -0.033   7.990  1.00  0.00     0.074 A 
ATOM     46  C   UNL     1      -9.264   1.319   8.047  1.00  0.00     0.031 C 
ATOM     47  C   UNL     1     -11.108  -2.103   3.319  1.00  0.00     0.029 A 
ATOM     48  C   UNL     1      -9.924  -2.040   2.463  1.00  0.00     0.049 A 
ATOM     49  H   UNL     1      -9.233  -0.154   1.731  1.00  0.00     0.167 HD
ATOM     50  C   UNL     1     -10.467  -0.811   8.867  1.00  0.00     0.037 A 
ATOM     51  C   UNL     1      -8.992  -3.027   2.308  1.00  0.00     0.037 A 
ATOM     52  C   UNL     1     -10.991  -1.999   8.215  1.00  0.00     0.049 A 
ATOM     53  C   UNL     1      -9.066  -4.066   3.402  1.00  0.00     0.074 A 
ATOM     54  C   UNL     1     -12.192  -2.247   7.572  1.00  0.00     0.029 A 
ATOM     55  N   UNL     1     -10.142  -3.033   7.874  1.00  0.00    -0.354 N 
ATOM     56  N   UNL     1      -9.562  -3.836   4.585  1.00  0.00    -0.248 NA
ATOM     57  C   UNL     1      -8.515  -5.412   3.272  1.00  0.00     0.031 C 
ATOM     58  C   UNL     1     -12.063  -3.450   6.838  1.00  0.00     0.029 A 
ATOM     59  C   UNL     1     -10.782  -3.926   7.037  1.00  0.00     0.049 A 
ATOM     60  H   UNL     1      -9.211  -3.120   8.183  1.00  0.00     0.167 HD
ATOM     61  C   UNL     1      -9.501  -4.986   5.322  1.00  0.00     0.074 A 
ATOM     62  C   UNL     1      -8.780  -5.926   4.486  1.00  0.00     0.031 C 
ATOM     63  C   UNL     1     -10.070  -5.088   6.553  1.00  0.00     0.037 A 
BRANCH  50  64
ATOM     64  C   UNL     1     -10.936  -0.347  10.226  1.00  0.00     0.058 A 
ATOM     65  C   UNL     1     -12.245  -0.638  10.671  1.00  0.00     0.135 A 
ATOM     66  C   UNL     1     -10.149   0.399  11.125  1.00  0.00     0.135 A 
ATOM     67  F   UNL     1     -13.087  -1.380   9.941  1.00  0.00    -0.206 F 
ATOM     68  C   UNL     1     -12.768  -0.149  11.866  1.00  0.00     0.059 A 
ATOM     69  C   UNL     1     -10.660   0.920  12.324  1.00  0.00     0.059 A 
ATOM     70  F   UNL     1      -8.857   0.646  10.857  1.00  0.00    -0.206 F 
ATOM     71  C   UNL     1     -11.982   0.660  12.673  1.00  0.00     0.060 A 
BRANCH  71  72
ATOM     72  S   UNL     1     -12.750   1.394  14.133  1.00  0.00     0.124 S 
ATOM     73  O   UNL     1     -13.871   2.126  13.549  1.00  0.00    -0.237 OA
ATOM     74  O   UNL     1     -13.105   0.219  14.921  1.00  0.00    -0.237 OA
ATOM     75  O   UNL     1     -11.691   2.229  14.692  1.00  0.00    -0.744 OA
ENDBRANCH  71  72
ENDBRANCH  50  64
BRANCH  51  76
ATOM     76  C   UNL     1      -7.702  -2.649   1.655  1.00  0.00     0.058 A 
ATOM     77  C   UNL     1      -7.692  -2.047   0.381  1.00  0.00     0.135 A 
ATOM     78  C   UNL     1      -6.499  -2.634   2.377  1.00  0.00     0.135 A 
ATOM     79  F   UNL     1      -8.809  -2.033  -0.365  1.00  0.00    -0.206 F 
ATOM     80  C   UNL     1      -6.583  -1.352  -0.098  1.00  0.00     0.059 A 
ATOM     81  C   UNL     1      -5.370  -1.972   1.906  1.00  0.00     0.059 A 
ATOM     82  F   UNL     1      -6.425  -3.181   3.598  1.00  0.00    -0.206 F 
ATOM     83  C   UNL     1      -5.435  -1.295   0.690  1.00  0.00     0.060 A 
BRANCH  83  84
ATOM     84  S   UNL     1      -4.096  -0.169   0.231  1.00  0.00     0.124 S 
ATOM     85  O   UNL     1      -3.380  -0.960  -0.761  1.00  0.00    -0.237 OA
ATOM     86  O   UNL     1      -4.837   0.983  -0.273  1.00  0.00    -0.237 OA
ATOM     87  O   UNL     1      -3.413   0.039   1.511  1.00  0.00    -0.744 OA
ENDBRANCH  83  84
ENDBRANCH  51  76
BRANCH  63  88
ATOM     88  C   UNL     1     -10.079  -6.328   7.383  1.00  0.00     0.058 A 
ATOM     89  C   UNL     1     -10.400  -7.590   6.864  1.00  0.00     0.135 A 
ATOM     90  C   UNL     1      -9.893  -6.245   8.780  1.00  0.00     0.135 A 
ATOM     91  F   UNL     1     -10.674  -7.748   5.559  1.00  0.00    -0.206 F 
ATOM     92  C   UNL     1     -10.471  -8.720   7.675  1.00  0.00     0.059 A 
ATOM     93  C   UNL     1     -10.007  -7.350   9.614  1.00  0.00     0.059 A 
ATOM     94  F   UNL     1      -9.575  -5.083   9.370  1.00  0.00    -0.206 F 
ATOM     95  C   UNL     1     -10.266  -8.591   9.048  1.00  0.00     0.060 A 
BRANCH  95  96
ATOM     96  S   UNL     1     -10.350 -10.054  10.094  1.00  0.00     0.124 S 
ATOM     97  O   UNL     1     -11.445 -10.811   9.496  1.00  0.00    -0.237 OA
ATOM     98  O   UNL     1      -9.017 -10.618   9.905  1.00  0.00    -0.237 OA
ATOM     99  O   UNL     1     -10.623  -9.510  11.420  1.00  0.00    -0.744 OA
ENDBRANCH  95  96
ENDBRANCH  63  88
ENDBRANCH  37  38
ENDBRANCH  30  32
ENDBRANCH  29  30
ENDBRANCH  28  29
ENDBRANCH   1  28
TORSDOF 19
