REMARK SMILES O=C(/C=C/c1ccc(O)c(O)c1)OCCOC(=O)c1ccc(-c2c3nc(c(-c4c(F)cc(S(=O)(=O)[O-])cc4F)c4ccc([nH]4)c(-c4c(F)cc(S(=O)(=O)[O-])cc4F)c4nc(c(-c5c(F)cc(S(=O)(=O)[O-])cc5F)c5ccc2[nH]5)C=C4)C=C3)cc1
REMARK SMILES IDX 15 1 14 2 13 3 2 4 1 5 3 6 4 7 5 8 6 9 12 10 7 11 10 12 8 13
REMARK SMILES IDX 11 14 9 16 16 18 17 19 18 20 19 21 20 22 84 23 21 24 83 25
REMARK SMILES IDX 22 26 23 27 24 28 77 29 25 30 82 31 76 32 78 33 26 34 81 35
REMARK SMILES IDX 75 36 74 37 27 39 61 40 40 41 60 42 41 43 44 44 59 45 79 46
REMARK SMILES IDX 42 47 43 48 58 50 80 51 45 52 28 53 29 54 38 55 30 56 31 57
REMARK SMILES IDX 37 58 39 59 32 60 33 61 34 62 35 63 36 64 62 65 63 66 72 67
REMARK SMILES IDX 64 68 65 69 71 70 73 71 66 72 67 73 68 74 69 75 70 76 46 77
REMARK SMILES IDX 47 78 56 79 48 80 49 81 55 82 57 83 50 84 51 85 52 86 53 87
REMARK SMILES IDX 54 88
REMARK H PARENT 11 15 9 17 78 38 44 49
REMARK Flexibility Score: inf
ROOT
ATOM      1  C   UNL     1       4.221  -1.800   0.719  1.00  0.00     0.275 C 
ENDROOT
BRANCH   1   2
ATOM      2  C   UNL     1       4.284  -0.339   1.170  1.00  0.00     0.275 C 
BRANCH   2   3
ATOM      3  O   UNL     1       3.086   0.432   0.944  1.00  0.00    -0.459 OA
BRANCH   3   4
ATOM      4  C   UNL     1       2.757   1.167  -0.145  1.00  0.00     0.330 C 
ATOM      5  O   UNL     1       1.783   1.915  -0.125  1.00  0.00    -0.247 OA
BRANCH   4   6
ATOM      6  C   UNL     1       3.444   0.944  -1.427  1.00  0.00     0.094 C 
ATOM      7  C   UNL     1       4.762   0.972  -1.663  1.00  0.00     0.016 C 
BRANCH   7   8
ATOM      8  C   UNL     1       5.331   0.546  -2.946  1.00  0.00    -0.021 A 
ATOM      9  C   UNL     1       4.900   1.071  -4.175  1.00  0.00     0.012 A 
ATOM     10  C   UNL     1       6.341  -0.425  -2.930  1.00  0.00     0.058 A 
ATOM     11  C   UNL     1       5.470   0.631  -5.376  1.00  0.00     0.051 A 
ATOM     12  C   UNL     1       6.899  -0.855  -4.125  1.00  0.00     0.157 A 
ATOM     13  C   UNL     1       6.472  -0.330  -5.341  1.00  0.00     0.157 A 
BRANCH  12  14
ATOM     14  O   UNL     1       7.878  -1.808  -4.099  1.00  0.00    -0.504 OA
ATOM     15  H   UNL     1       8.262  -2.107  -4.900  1.00  0.00     0.293 HD
ENDBRANCH  12  14
BRANCH  13  16
ATOM     16  O   UNL     1       7.075  -0.792  -6.477  1.00  0.00    -0.504 OA
ATOM     17  H   UNL     1       6.813  -0.462  -7.314  1.00  0.00     0.293 HD
ENDBRANCH  13  16
ENDBRANCH   7   8
ENDBRANCH   4   6
ENDBRANCH   3   4
ENDBRANCH   2   3
ENDBRANCH   1   2
BRANCH   1  18
ATOM     18  O   UNL     1       3.856  -1.943  -0.659  1.00  0.00    -0.458 OA
BRANCH  18  19
ATOM     19  C   UNL     1       2.545  -2.224  -0.874  1.00  0.00     0.338 C 
ATOM     20  O   UNL     1       1.698  -2.413  -0.017  1.00  0.00    -0.246 OA
BRANCH  19  21
ATOM     21  C   UNL     1       2.229  -2.126  -2.317  1.00  0.00     0.060 A 
ATOM     22  C   UNL     1       0.993  -1.569  -2.671  1.00  0.00     0.016 A 
ATOM     23  C   UNL     1       3.114  -2.557  -3.310  1.00  0.00     0.016 A 
ATOM     24  C   UNL     1       0.630  -1.465  -4.015  1.00  0.00     0.010 A 
ATOM     25  C   UNL     1       2.746  -2.454  -4.657  1.00  0.00     0.010 A 
ATOM     26  C   UNL     1       1.493  -1.929  -5.017  1.00  0.00    -0.014 A 
BRANCH  26  27
ATOM     27  C   UNL     1       1.039  -1.949  -6.431  1.00  0.00     0.031 A 
ATOM     28  C   UNL     1       0.522  -3.233  -7.021  1.00  0.00     0.074 A 
ATOM     29  C   UNL     1       1.064  -0.831  -7.178  1.00  0.00     0.049 A 
ATOM     30  N   UNL     1       0.064  -3.464  -8.225  1.00  0.00    -0.248 NA
ATOM     31  C   UNL     1       0.523  -4.410  -6.139  1.00  0.00     0.031 C 
ATOM     32  C   UNL     1       1.520   0.481  -6.722  1.00  0.00     0.029 A 
ATOM     33  N   UNL     1       0.698  -0.624  -8.486  1.00  0.00    -0.354 N 
ATOM     34  C   UNL     1      -0.286  -4.808  -8.245  1.00  0.00     0.074 A 
ATOM     35  C   UNL     1       0.050  -5.350  -6.945  1.00  0.00     0.031 C 
ATOM     36  C   UNL     1       1.412   1.357  -7.737  1.00  0.00     0.029 A 
ATOM     37  C   UNL     1       0.899   0.665  -8.919  1.00  0.00     0.049 A 
ATOM     38  H   UNL     1       0.326  -1.332  -9.059  1.00  0.00     0.167 HD
ATOM     39  C   UNL     1      -0.847  -5.525  -9.248  1.00  0.00     0.037 A 
ATOM     40  C   UNL     1       0.701   1.220 -10.131  1.00  0.00     0.037 A 
ATOM     41  C   UNL     1      -1.179  -4.992 -10.544  1.00  0.00     0.049 A 
ATOM     42  C   UNL     1       0.132   0.389 -11.253  1.00  0.00     0.074 A 
ATOM     43  C   UNL     1      -1.775  -5.639 -11.613  1.00  0.00     0.029 A 
ATOM     44  N   UNL     1      -0.933  -3.690 -10.954  1.00  0.00    -0.354 N 
ATOM     45  N   UNL     1      -0.236  -0.870 -11.241  1.00  0.00    -0.248 NA
ATOM     46  C   UNL     1      -0.053   1.055 -12.551  1.00  0.00     0.031 C 
ATOM     47  C   UNL     1      -1.846  -4.742 -12.685  1.00  0.00     0.029 A 
ATOM     48  C   UNL     1      -1.339  -3.522 -12.268  1.00  0.00     0.049 A 
ATOM     49  H   UNL     1      -0.530  -2.989 -10.393  1.00  0.00     0.167 HD
ATOM     50  C   UNL     1      -0.725  -1.137 -12.518  1.00  0.00     0.074 A 
ATOM     51  C   UNL     1      -0.609   0.092 -13.274  1.00  0.00     0.031 C 
ATOM     52  C   UNL     1      -1.227  -2.294 -13.015  1.00  0.00     0.037 A 
BRANCH  39  53
ATOM     53  C   UNL     1      -1.126  -6.978  -8.988  1.00  0.00     0.058 A 
ATOM     54  C   UNL     1      -2.171  -7.388  -8.145  1.00  0.00     0.135 A 
ATOM     55  C   UNL     1      -0.358  -7.974  -9.614  1.00  0.00     0.135 A 
ATOM     56  F   UNL     1      -2.925  -6.476  -7.511  1.00  0.00    -0.206 F 
ATOM     57  C   UNL     1      -2.429  -8.734  -7.911  1.00  0.00     0.059 A 
ATOM     58  C   UNL     1      -0.614  -9.326  -9.413  1.00  0.00     0.059 A 
ATOM     59  F   UNL     1       0.653  -7.635 -10.429  1.00  0.00    -0.206 F 
ATOM     60  C   UNL     1      -1.643  -9.696  -8.547  1.00  0.00     0.060 A 
BRANCH  60  61
ATOM     61  S   UNL     1      -1.987 -11.440  -8.230  1.00  0.00     0.124 S 
ATOM     62  O   UNL     1      -1.459 -11.599  -6.879  1.00  0.00    -0.237 OA
ATOM     63  O   UNL     1      -3.440 -11.500  -8.354  1.00  0.00    -0.237 OA
ATOM     64  O   UNL     1      -1.242 -12.129  -9.280  1.00  0.00    -0.744 OA
ENDBRANCH  60  61
ENDBRANCH  39  53
BRANCH  40  65
ATOM     65  C   UNL     1       1.050   2.648 -10.357  1.00  0.00     0.058 A 
ATOM     66  C   UNL     1       0.056   3.616 -10.559  1.00  0.00     0.135 A 
ATOM     67  C   UNL     1       2.389   3.068 -10.385  1.00  0.00     0.135 A 
ATOM     68  F   UNL     1      -1.238   3.260 -10.551  1.00  0.00    -0.206 F 
ATOM     69  C   UNL     1       0.375   4.949 -10.797  1.00  0.00     0.059 A 
ATOM     70  C   UNL     1       2.733   4.398 -10.600  1.00  0.00     0.059 A 
ATOM     71  F   UNL     1       3.378   2.182 -10.184  1.00  0.00    -0.206 F 
ATOM     72  C   UNL     1       1.718   5.330 -10.816  1.00  0.00     0.060 A 
BRANCH  72  73
ATOM     73  S   UNL     1       2.125   7.069 -11.084  1.00  0.00     0.124 S 
ATOM     74  O   UNL     1       1.868   7.213 -12.511  1.00  0.00    -0.237 OA
ATOM     75  O   UNL     1       1.187   7.744 -10.192  1.00  0.00    -0.237 OA
ATOM     76  O   UNL     1       3.526   7.148 -10.681  1.00  0.00    -0.744 OA
ENDBRANCH  72  73
ENDBRANCH  40  65
BRANCH  52  77
ATOM     77  C   UNL     1      -1.722  -2.291 -14.436  1.00  0.00     0.058 A 
ATOM     78  C   UNL     1      -0.839  -2.261 -15.526  1.00  0.00     0.135 A 
ATOM     79  C   UNL     1      -3.097  -2.381 -14.711  1.00  0.00     0.135 A 
ATOM     80  F   UNL     1       0.484  -2.170 -15.321  1.00  0.00    -0.206 F 
ATOM     81  C   UNL     1      -1.301  -2.304 -16.839  1.00  0.00     0.059 A 
ATOM     82  C   UNL     1      -3.580  -2.450 -16.015  1.00  0.00     0.059 A 
ATOM     83  F   UNL     1      -3.986  -2.422 -13.706  1.00  0.00    -0.206 F 
ATOM     84  C   UNL     1      -2.675  -2.400 -17.073  1.00  0.00     0.060 A 
BRANCH  84  85
ATOM     85  S   UNL     1      -3.259  -2.495 -18.779  1.00  0.00     0.124 S 
ATOM     86  O   UNL     1      -3.096  -1.115 -19.223  1.00  0.00    -0.237 OA
ATOM     87  O   UNL     1      -2.342  -3.464 -19.372  1.00  0.00    -0.237 OA
ATOM     88  O   UNL     1      -4.639  -2.952 -18.641  1.00  0.00    -0.744 OA
ENDBRANCH  84  85
ENDBRANCH  52  77
ENDBRANCH  26  27
ENDBRANCH  19  21
ENDBRANCH  18  19
ENDBRANCH   1  18
TORSDOF 17
