REMARK SMILES O=C(C[C@H]1C[C@H]2CC[C@@H](C1)[N@H+]2[C@@H]1CCCSC1)OCCOC(=O)c1ccc(-c2c3nc(c(-c4c(F)cc(S(=O)(=O)[O-])cc4F)c4ccc([nH]4)c(-c4c(F)cc(S(=O)(=O)[O-])cc4F)c4nc(c(-c5c(F)cc(S(=O)(=O)[O-])cc5F)c5ccc2[nH]5)C=C4)C=C3)cc1
REMARK SMILES IDX 20 1 19 2 18 3 2 4 1 5 3 6 4 7 5 8 10 9 6 10 9 11 7 12 11 13
REMARK SMILES IDX 8 14 12 16 13 17 17 18 14 19 16 20 15 21 21 22 22 23 23 24
REMARK SMILES IDX 24 25 25 26 89 27 26 28 88 29 27 30 28 31 29 32 82 33 30 34
REMARK SMILES IDX 87 35 81 36 83 37 31 38 86 39 80 40 79 41 32 43 66 44 45 45
REMARK SMILES IDX 65 46 46 47 49 48 64 49 84 50 47 51 48 52 63 54 85 55 50 56
REMARK SMILES IDX 33 57 34 58 43 59 35 60 36 61 42 62 44 63 37 64 38 65 39 66
REMARK SMILES IDX 40 67 41 68 67 69 68 70 77 71 69 72 70 73 76 74 78 75 71 76
REMARK SMILES IDX 72 77 73 78 74 79 75 80 51 81 52 82 61 83 53 84 54 85 60 86
REMARK SMILES IDX 62 87 55 88 56 89 57 90 58 91 59 92
REMARK H PARENT 11 15 83 42 49 53
REMARK Flexibility Score: inf
ROOT
ATOM      1  C   UNL     1       4.145   2.020  -1.037  1.00  0.00     0.275 C 
ENDROOT
BRANCH   1   2
ATOM      2  C   UNL     1       4.194   0.495  -1.118  1.00  0.00     0.274 C 
BRANCH   2   3
ATOM      3  O   UNL     1       2.881  -0.093  -1.219  1.00  0.00    -0.462 OA
BRANCH   3   4
ATOM      4  C   UNL     1       2.421  -1.007  -0.328  1.00  0.00     0.306 C 
ATOM      5  O   UNL     1       1.795  -1.994  -0.702  1.00  0.00    -0.252 OA
BRANCH   4   6
ATOM      6  C   UNL     1       2.608  -0.698   1.141  1.00  0.00     0.126 C 
BRANCH   6   7
ATOM      7  C   UNL     1       3.899  -1.273   1.746  1.00  0.00     0.012 C 
ATOM      8  C   UNL     1       4.775  -0.146   2.364  1.00  0.00     0.069 C 
ATOM      9  C   UNL     1       3.624  -2.488   2.668  1.00  0.00     0.069 C 
ATOM     10  C   UNL     1       5.031  -0.247   3.868  1.00  0.00     0.185 C 
ATOM     11  C   UNL     1       4.028  -2.309   4.136  1.00  0.00     0.185 C 
ATOM     12  C   UNL     1       3.734   0.042   4.626  1.00  0.00     0.071 C 
ATOM     13  N   UNL     1       5.291  -1.606   4.303  1.00  0.00    -0.327 N 
ATOM     14  C   UNL     1       3.085  -1.324   4.827  1.00  0.00     0.071 C 
ATOM     15  H   UNL     1       5.563  -1.645   5.285  1.00  0.00     0.348 HD
BRANCH  13  16
ATOM     16  C   UNL     1       6.591  -2.236   4.074  1.00  0.00     0.194 C 
ATOM     17  C   UNL     1       6.964  -2.525   2.607  1.00  0.00     0.067 C 
ATOM     18  C   UNL     1       6.713  -3.490   4.972  1.00  0.00     0.134 C 
ATOM     19  C   UNL     1       8.328  -3.182   2.413  1.00  0.00     0.017 C 
ATOM     20  S   UNL     1       8.345  -4.298   4.901  1.00  0.00    -0.156 SA
ATOM     21  C   UNL     1       8.435  -4.525   3.111  1.00  0.00     0.070 C 
ENDBRANCH  13  16
ENDBRANCH   6   7
ENDBRANCH   4   6
ENDBRANCH   3   4
ENDBRANCH   2   3
ENDBRANCH   1   2
BRANCH   1  22
ATOM     22  O   UNL     1       3.691   2.449   0.260  1.00  0.00    -0.458 OA
BRANCH  22  23
ATOM     23  C   UNL     1       2.384   2.808   0.342  1.00  0.00     0.338 C 
ATOM     24  O   UNL     1       1.595   2.877  -0.584  1.00  0.00    -0.246 OA
BRANCH  23  25
ATOM     25  C   UNL     1       1.990   2.920   1.770  1.00  0.00     0.060 A 
ATOM     26  C   UNL     1       0.715   2.466   2.132  1.00  0.00     0.016 A 
ATOM     27  C   UNL     1       2.862   3.403   2.753  1.00  0.00     0.016 A 
ATOM     28  C   UNL     1       0.302   2.507   3.467  1.00  0.00     0.010 A 
ATOM     29  C   UNL     1       2.446   3.441   4.091  1.00  0.00     0.010 A 
ATOM     30  C   UNL     1       1.156   3.010   4.456  1.00  0.00    -0.014 A 
BRANCH  30  31
ATOM     31  C   UNL     1       0.655   3.226   5.840  1.00  0.00     0.031 A 
ATOM     32  C   UNL     1       0.270   4.617   6.253  1.00  0.00     0.074 A 
ATOM     33  C   UNL     1       0.523   2.216   6.722  1.00  0.00     0.049 A 
ATOM     34  N   UNL     1      -0.230   5.032   7.387  1.00  0.00    -0.248 NA
ATOM     35  C   UNL     1       0.460   5.678   5.250  1.00  0.00     0.031 C 
ATOM     36  C   UNL     1       0.817   0.815   6.448  1.00  0.00     0.029 A 
ATOM     37  N   UNL     1       0.128   2.215   8.038  1.00  0.00    -0.354 N 
ATOM     38  C   UNL     1      -0.469   6.387   7.215  1.00  0.00     0.074 A 
ATOM     39  C   UNL     1       0.029   6.745   5.904  1.00  0.00     0.031 C 
ATOM     40  C   UNL     1       0.670   0.097   7.575  1.00  0.00     0.029 A 
ATOM     41  C   UNL     1       0.231   0.985   8.648  1.00  0.00     0.049 A 
ATOM     42  H   UNL     1      -0.198   3.019   8.502  1.00  0.00     0.167 HD
ATOM     43  C   UNL     1      -1.096   7.249   8.049  1.00  0.00     0.037 A 
ATOM     44  C   UNL     1      -0.011   0.615   9.921  1.00  0.00     0.037 A 
ATOM     45  C   UNL     1      -1.567   6.910   9.364  1.00  0.00     0.049 A 
ATOM     46  C   UNL     1      -0.589   1.622  10.881  1.00  0.00     0.074 A 
ATOM     47  C   UNL     1      -2.214   7.717  10.282  1.00  0.00     0.029 A 
ATOM     48  N   UNL     1      -1.429   5.663   9.954  1.00  0.00    -0.354 N 
ATOM     49  N   UNL     1      -0.887   2.882  10.673  1.00  0.00    -0.248 NA
ATOM     50  C   UNL     1      -0.907   1.147  12.236  1.00  0.00     0.031 C 
ATOM     51  C   UNL     1      -2.436   6.968  11.443  1.00  0.00     0.029 A 
ATOM     52  C   UNL     1      -1.961   5.683  11.232  1.00  0.00     0.049 A 
ATOM     53  H   UNL     1      -1.014   4.879   9.528  1.00  0.00     0.167 HD
ATOM     54  C   UNL     1      -1.480   3.332  11.848  1.00  0.00     0.074 A 
ATOM     55  C   UNL     1      -1.488   2.213  12.767  1.00  0.00     0.031 C 
ATOM     56  C   UNL     1      -1.986   4.558  12.132  1.00  0.00     0.037 A 
BRANCH  43  57
ATOM     57  C   UNL     1      -1.323   8.637   7.531  1.00  0.00     0.058 A 
ATOM     58  C   UNL     1      -2.277   8.886   6.530  1.00  0.00     0.135 A 
ATOM     59  C   UNL     1      -0.579   9.722   8.017  1.00  0.00     0.135 A 
ATOM     60  F   UNL     1      -2.997   7.875   6.016  1.00  0.00    -0.206 F 
ATOM     61  C   UNL     1      -2.462  10.158   6.004  1.00  0.00     0.059 A 
ATOM     62  C   UNL     1      -0.764  11.008   7.521  1.00  0.00     0.059 A 
ATOM     63  F   UNL     1       0.350   9.533   8.967  1.00  0.00    -0.206 F 
ATOM     64  C   UNL     1      -1.695  11.212   6.502  1.00  0.00     0.060 A 
BRANCH  64  65
ATOM     65  S   UNL     1      -1.929  12.854   5.791  1.00  0.00     0.124 S 
ATOM     66  O   UNL     1      -1.261  12.708   4.501  1.00  0.00    -0.237 OA
ATOM     67  O   UNL     1      -3.382  12.970   5.743  1.00  0.00    -0.237 OA
ATOM     68  O   UNL     1      -1.263  13.734   6.746  1.00  0.00    -0.744 OA
ENDBRANCH  64  65
ENDBRANCH  43  57
BRANCH  44  69
ATOM     69  C   UNL     1       0.257  -0.778  10.370  1.00  0.00     0.058 A 
ATOM     70  C   UNL     1      -0.790  -1.666  10.657  1.00  0.00     0.135 A 
ATOM     71  C   UNL     1       1.571  -1.230  10.574  1.00  0.00     0.135 A 
ATOM     72  F   UNL     1      -2.063  -1.277  10.485  1.00  0.00    -0.206 F 
ATOM     73  C   UNL     1      -0.549  -2.938  11.166  1.00  0.00     0.059 A 
ATOM     74  C   UNL     1       1.838  -2.506  11.063  1.00  0.00     0.059 A 
ATOM     75  F   UNL     1       2.608  -0.423  10.304  1.00  0.00    -0.206 F 
ATOM     76  C   UNL     1       0.770  -3.346  11.374  1.00  0.00     0.060 A 
BRANCH  76  77
ATOM     77  S   UNL     1       1.070  -4.999  12.040  1.00  0.00     0.124 S 
ATOM     78  O   UNL     1       0.672  -4.831  13.432  1.00  0.00    -0.237 OA
ATOM     79  O   UNL     1       0.189  -5.824  11.219  1.00  0.00    -0.237 OA
ATOM     80  O   UNL     1       2.497  -5.199  11.810  1.00  0.00    -0.744 OA
ENDBRANCH  76  77
ENDBRANCH  44  69
BRANCH  56  81
ATOM     81  C   UNL     1      -2.647   4.744  13.469  1.00  0.00     0.058 A 
ATOM     82  C   UNL     1      -1.906   4.825  14.658  1.00  0.00     0.135 A 
ATOM     83  C   UNL     1      -4.041   4.891  13.554  1.00  0.00     0.135 A 
ATOM     84  F   UNL     1      -0.571   4.684  14.632  1.00  0.00    -0.206 F 
ATOM     85  C   UNL     1      -2.526   5.024  15.887  1.00  0.00     0.059 A 
ATOM     86  C   UNL     1      -4.680   5.116  14.769  1.00  0.00     0.059 A 
ATOM     87  F   UNL     1      -4.796   4.831  12.445  1.00  0.00    -0.206 F 
ATOM     88  C   UNL     1      -3.914   5.169  15.933  1.00  0.00     0.060 A 
BRANCH  88  89
ATOM     89  S   UNL     1      -4.705   5.466  17.528  1.00  0.00     0.124 S 
ATOM     90  O   UNL     1      -4.687   4.132  18.118  1.00  0.00    -0.237 OA
ATOM     91  O   UNL     1      -3.814   6.444  18.145  1.00  0.00    -0.237 OA
ATOM     92  O   UNL     1      -6.024   5.975  17.163  1.00  0.00    -0.744 OA
ENDBRANCH  88  89
ENDBRANCH  56  81
ENDBRANCH  30  31
ENDBRANCH  23  25
ENDBRANCH  22  23
ENDBRANCH   1  22
TORSDOF 16
