REMARK SMILES COCC[C@H]([NH3+])C(=O)N1CC(n2cc(C(=O)OCCOC(=O)c3ccc(-c4c5nc(c(-c6c(F)cc(S(=O)(=O)[O-])cc6F)c6ccc([nH]6)c(-c6c(F)cc(S(=O)(=O)[O-])cc6F)c6nc(c(-c7c(F)cc(S(=O)(=O)[O-])cc7F)c7ccc4[nH]7)C=C6)C=C5)cc3)nn2)C1
REMARK SMILES IDX 18 1 17 2 15 3 16 4 14 5 12 6 13 7 90 8 89 9 11 10 7 11 8 12
REMARK SMILES IDX 9 13 10 14 91 15 5 16 4 17 3 18 2 19 1 20 6 21 19 25 20 26
REMARK SMILES IDX 21 27 22 28 23 29 24 30 88 31 25 32 87 33 26 34 27 35 28 36
REMARK SMILES IDX 81 37 29 38 86 39 80 40 82 41 30 42 85 43 79 44 78 45 31 47
REMARK SMILES IDX 65 48 44 49 64 50 45 51 48 52 63 53 83 54 46 55 47 56 62 58
REMARK SMILES IDX 84 59 49 60 32 61 33 62 42 63 34 64 35 65 41 66 43 67 36 68
REMARK SMILES IDX 37 69 38 70 39 71 40 72 66 73 67 74 76 75 68 76 69 77 75 78
REMARK SMILES IDX 77 79 70 80 71 81 72 82 73 83 74 84 50 85 51 86 60 87 52 88
REMARK SMILES IDX 53 89 59 90 61 91 54 92 55 93 56 94 57 95 58 96
REMARK H PARENT 6 22 6 23 6 24 82 46 48 57
REMARK Flexibility Score: inf
ROOT
ATOM      1  C   UNL     1       1.161  -3.405  12.010  1.00  0.00     0.275 C 
ENDROOT
BRANCH   1   2
ATOM      2  O   UNL     1       1.229  -3.493  10.578  1.00  0.00    -0.457 OA
BRANCH   2   3
ATOM      3  C   UNL     1       2.353  -4.090  10.070  1.00  0.00     0.360 C 
ATOM      4  O   UNL     1       3.369  -4.313  10.725  1.00  0.00    -0.244 OA
BRANCH   3   5
ATOM      5  C   UNL     1       2.197  -4.462   8.676  1.00  0.00     0.190 A 
ATOM      6  N   UNL     1       1.484  -4.752   6.656  1.00  0.00    -0.245 N 
ATOM      7  C   UNL     1       1.097  -4.262   7.867  1.00  0.00     0.147 A 
ATOM      8  N   UNL     1       2.727  -5.253   6.703  1.00  0.00    -0.066 NA
ATOM      9  N   UNL     1       3.168  -5.106   7.946  1.00  0.00    -0.123 NA
BRANCH   6  10
ATOM     10  C   UNL     1       0.743  -4.510   5.463  1.00  0.00     0.148 C 
ATOM     11  C   UNL     1       0.605  -3.300   2.440  1.00  0.00     0.280 C 
ATOM     12  O   UNL     1       0.013  -4.072   1.684  1.00  0.00    -0.268 OA
ATOM     13  N   UNL     1       1.143  -3.712   3.625  1.00  0.00    -0.333 N 
ATOM     14  C   UNL     1       1.314  -5.060   4.156  1.00  0.00     0.149 C 
ATOM     15  C   UNL     1       1.082  -3.097   4.936  1.00  0.00     0.149 C 
BRANCH  11  16
ATOM     16  C   UNL     1       0.925  -1.858   1.995  1.00  0.00     0.273 C 
BRANCH  16  17
ATOM     17  C   UNL     1       2.423  -1.720   1.678  1.00  0.00     0.104 C 
BRANCH  17  18
ATOM     18  C   UNL     1       2.965  -2.758   0.685  1.00  0.00     0.166 C 
BRANCH  18  19
ATOM     19  O   UNL     1       2.685  -2.430  -0.674  1.00  0.00    -0.384 OA
ATOM     20  C   UNL     1       1.422  -2.883  -1.140  1.00  0.00     0.194 C 
ENDBRANCH  18  19
ENDBRANCH  17  18
ENDBRANCH  16  17
BRANCH  16  21
ATOM     21  N   UNL     1       0.516  -0.854   3.004  1.00  0.00    -0.347 N 
ATOM     22  H   UNL     1       1.039  -1.006   3.866  1.00  0.00     0.345 HD
ATOM     23  H   UNL     1      -0.482  -0.947   3.191  1.00  0.00     0.345 HD
ATOM     24  H   UNL     1       0.710   0.083   2.649  1.00  0.00     0.345 HD
ENDBRANCH  16  21
ENDBRANCH  11  16
ENDBRANCH   6  10
ENDBRANCH   3   5
ENDBRANCH   2   3
ENDBRANCH   1   2
BRANCH   1  25
ATOM     25  C   UNL     1       0.521  -4.654  12.598  1.00  0.00     0.275 C 
BRANCH  25  26
ATOM     26  O   UNL     1       1.359  -5.793  12.418  1.00  0.00    -0.458 OA
BRANCH  26  27
ATOM     27  C   UNL     1       1.064  -6.561  11.342  1.00  0.00     0.338 C 
ATOM     28  O   UNL     1       0.430  -6.225  10.356  1.00  0.00    -0.246 OA
BRANCH  27  29
ATOM     29  C   UNL     1       1.411  -7.951  11.644  1.00  0.00     0.060 A 
ATOM     30  C   UNL     1       1.283  -8.895  10.620  1.00  0.00     0.016 A 
ATOM     31  C   UNL     1       1.548  -8.325  12.988  1.00  0.00     0.016 A 
ATOM     32  C   UNL     1       1.117 -10.220  10.966  1.00  0.00     0.010 A 
ATOM     33  C   UNL     1       1.350  -9.636  13.331  1.00  0.00     0.010 A 
ATOM     34  C   UNL     1       1.066 -10.555  12.322  1.00  0.00    -0.014 A 
BRANCH  34  35
ATOM     35  C   UNL     1       0.843 -11.932  12.707  1.00  0.00     0.031 A 
ATOM     36  C   UNL     1       2.059 -12.762  12.523  1.00  0.00     0.074 A 
ATOM     37  C   UNL     1      -0.284 -12.309  13.342  1.00  0.00     0.049 A 
ATOM     38  N   UNL     1       2.249 -13.712  11.669  1.00  0.00    -0.248 NA
ATOM     39  C   UNL     1       3.290 -12.332  13.214  1.00  0.00     0.031 C 
ATOM     40  C   UNL     1      -1.385 -11.456  13.805  1.00  0.00     0.029 A 
ATOM     41  N   UNL     1      -0.634 -13.531  13.822  1.00  0.00    -0.354 N 
ATOM     42  C   UNL     1       3.539 -14.172  11.919  1.00  0.00     0.074 A 
ATOM     43  C   UNL     1       4.197 -13.132  12.655  1.00  0.00     0.031 C 
ATOM     44  C   UNL     1      -2.143 -12.143  14.691  1.00  0.00     0.029 A 
ATOM     45  C   UNL     1      -1.661 -13.510  14.765  1.00  0.00     0.049 A 
ATOM     46  H   UNL     1      -0.199 -14.364  13.528  1.00  0.00     0.167 HD
ATOM     47  C   UNL     1       3.841 -15.494  11.795  1.00  0.00     0.037 A 
ATOM     48  C   UNL     1      -2.003 -14.532  15.595  1.00  0.00     0.037 A 
ATOM     49  C   UNL     1       2.842 -16.165  10.995  1.00  0.00     0.049 A 
ATOM     50  C   UNL     1      -1.429 -15.774  15.003  1.00  0.00     0.074 A 
ATOM     51  C   UNL     1       2.360 -16.012   9.710  1.00  0.00     0.029 A 
ATOM     52  N   UNL     1       1.905 -16.918  11.663  1.00  0.00    -0.354 N 
ATOM     53  N   UNL     1      -1.819 -16.275  13.861  1.00  0.00    -0.248 NA
ATOM     54  C   UNL     1      -0.091 -16.161  15.427  1.00  0.00     0.031 C 
ATOM     55  C   UNL     1       0.962 -16.275   9.804  1.00  0.00     0.029 A 
ATOM     56  C   UNL     1       0.678 -16.648  11.119  1.00  0.00     0.049 A 
ATOM     57  H   UNL     1       2.085 -17.541  12.403  1.00  0.00     0.167 HD
ATOM     58  C   UNL     1      -0.648 -16.675  13.228  1.00  0.00     0.074 A 
ATOM     59  C   UNL     1       0.377 -16.639  14.270  1.00  0.00     0.031 C 
ATOM     60  C   UNL     1      -0.560 -16.709  11.865  1.00  0.00     0.037 A 
BRANCH  47  61
ATOM     61  C   UNL     1       4.745 -16.253  12.752  1.00  0.00     0.058 A 
ATOM     62  C   UNL     1       4.958 -17.628  12.515  1.00  0.00     0.135 A 
ATOM     63  C   UNL     1       5.147 -15.795  14.029  1.00  0.00     0.135 A 
ATOM     64  F   UNL     1       4.651 -18.174  11.328  1.00  0.00    -0.206 F 
ATOM     65  C   UNL     1       5.400 -18.500  13.510  1.00  0.00     0.059 A 
ATOM     66  C   UNL     1       5.636 -16.639  15.018  1.00  0.00     0.059 A 
ATOM     67  F   UNL     1       5.015 -14.528  14.430  1.00  0.00    -0.206 F 
ATOM     68  C   UNL     1       5.709 -17.996  14.768  1.00  0.00     0.060 A 
BRANCH  68  69
ATOM     69  S   UNL     1       6.154 -19.129  16.092  1.00  0.00     0.124 S 
ATOM     70  O   UNL     1       4.891 -19.823  16.314  1.00  0.00    -0.237 OA
ATOM     71  O   UNL     1       7.217 -19.911  15.471  1.00  0.00    -0.237 OA
ATOM     72  O   UNL     1       6.583 -18.237  17.166  1.00  0.00    -0.744 OA
ENDBRANCH  68  69
ENDBRANCH  47  61
BRANCH  48  73
ATOM     73  C   UNL     1      -2.423 -14.447  17.024  1.00  0.00     0.058 A 
ATOM     74  C   UNL     1      -2.960 -15.557  17.704  1.00  0.00     0.135 A 
ATOM     75  C   UNL     1      -2.052 -13.354  17.834  1.00  0.00     0.135 A 
ATOM     76  F   UNL     1      -3.318 -16.655  17.021  1.00  0.00    -0.206 F 
ATOM     77  C   UNL     1      -3.083 -15.596  19.101  1.00  0.00     0.059 A 
ATOM     78  C   UNL     1      -2.174 -13.365  19.224  1.00  0.00     0.059 A 
ATOM     79  F   UNL     1      -1.472 -12.266  17.306  1.00  0.00    -0.206 F 
ATOM     80  C   UNL     1      -2.669 -14.499  19.855  1.00  0.00     0.060 A 
BRANCH  80  81
ATOM     81  S   UNL     1      -2.675 -14.594  21.663  1.00  0.00     0.124 S 
ATOM     82  O   UNL     1      -4.103 -14.605  21.962  1.00  0.00    -0.237 OA
ATOM     83  O   UNL     1      -1.962 -15.841  21.912  1.00  0.00    -0.237 OA
ATOM     84  O   UNL     1      -1.965 -13.383  22.069  1.00  0.00    -0.744 OA
ENDBRANCH  80  81
ENDBRANCH  48  73
BRANCH  60  85
ATOM     85  C   UNL     1      -1.829 -16.601  11.060  1.00  0.00     0.058 A 
ATOM     86  C   UNL     1      -2.652 -15.462  11.008  1.00  0.00     0.135 A 
ATOM     87  C   UNL     1      -2.123 -17.645  10.171  1.00  0.00     0.135 A 
ATOM     88  F   UNL     1      -2.380 -14.380  11.752  1.00  0.00    -0.206 F 
ATOM     89  C   UNL     1      -3.740 -15.382  10.134  1.00  0.00     0.059 A 
ATOM     90  C   UNL     1      -3.180 -17.574   9.271  1.00  0.00     0.059 A 
ATOM     91  F   UNL     1      -1.336 -18.733  10.130  1.00  0.00    -0.206 F 
ATOM     92  C   UNL     1      -3.993 -16.444   9.265  1.00  0.00     0.060 A 
BRANCH  92  93
ATOM     93  S   UNL     1      -5.352 -16.316   8.083  1.00  0.00     0.124 S 
ATOM     94  O   UNL     1      -6.522 -16.401   8.950  1.00  0.00    -0.237 OA
ATOM     95  O   UNL     1      -5.114 -15.014   7.466  1.00  0.00    -0.237 OA
ATOM     96  O   UNL     1      -5.146 -17.461   7.199  1.00  0.00    -0.744 OA
ENDBRANCH  92  93
ENDBRANCH  60  85
ENDBRANCH  34  35
ENDBRANCH  27  29
ENDBRANCH  26  27
ENDBRANCH  25  26
ENDBRANCH   1  25
TORSDOF 20
