REMARK SMILES CC[C@@H](NC(=O)[C@H](C)C[NH2+]C)C(=O)OCCOC(=O)c1ccc(-c2c3nc(c(-c4c(F)cc(S(=O)(=O)[O-])cc4F)c4ccc([nH]4)c(-c4c(F)cc(S(=O)(=O)[O-])cc4F)c4nc(c(-c5c(F)cc(S(=O)(=O)[O-])cc5F)c5ccc2[nH]5)C=C4)C=C3)cc1
REMARK SMILES IDX 15 1 14 2 12 3 13 4 3 5 2 6 1 7 4 8 5 9 6 11 7 12 8 13 9 14
REMARK SMILES IDX 10 15 11 16 16 19 17 20 18 21 19 22 20 23 21 24 85 25 22 26
REMARK SMILES IDX 84 27 23 28 24 29 25 30 78 31 26 32 83 33 77 34 79 35 27 36
REMARK SMILES IDX 82 37 76 38 75 39 28 41 62 42 41 43 61 44 42 45 45 46 60 47
REMARK SMILES IDX 80 48 43 49 44 50 59 52 81 53 46 54 29 55 30 56 39 57 31 58
REMARK SMILES IDX 32 59 38 60 40 61 33 62 34 63 35 64 36 65 37 66 63 67 64 68
REMARK SMILES IDX 73 69 65 70 66 71 72 72 74 73 67 74 68 75 69 76 70 77 71 78
REMARK SMILES IDX 47 79 48 80 57 81 49 82 50 83 56 84 58 85 51 86 52 87 53 88
REMARK SMILES IDX 54 89 55 90
REMARK H PARENT 4 10 10 17 10 18 79 40 45 51
REMARK Flexibility Score: inf
ROOT
ATOM      1  C   UNL     1       2.260  -0.335   4.374  1.00  0.00     0.274 C 
ENDROOT
BRANCH   1   2
ATOM      2  O   UNL     1       1.711  -0.965   3.196  1.00  0.00    -0.461 OA
BRANCH   2   3
ATOM      3  C   UNL     1       0.411  -0.667   2.922  1.00  0.00     0.328 C 
ATOM      4  O   UNL     1      -0.252   0.142   3.562  1.00  0.00    -0.250 OA
BRANCH   3   5
ATOM      5  C   UNL     1      -0.192  -1.484   1.766  1.00  0.00     0.192 C 
BRANCH   5   6
ATOM      6  C   UNL     1       0.813  -1.551   0.594  1.00  0.00     0.033 C 
ATOM      7  C   UNL     1       0.146  -1.739  -0.764  1.00  0.00     0.007 C 
ENDBRANCH   5   6
BRANCH   5   8
ATOM      8  N   UNL     1      -0.734  -2.839   2.012  1.00  0.00    -0.342 N 
ATOM      9  C   UNL     1      -1.528  -3.349   2.992  1.00  0.00     0.229 C 
ATOM     10  H   UNL     1      -0.468  -3.501   1.333  1.00  0.00     0.164 HD
ATOM     11  O   UNL     1      -2.437  -4.102   2.633  1.00  0.00    -0.275 OA
BRANCH   9  12
ATOM     12  C   UNL     1      -1.216  -3.173   4.474  1.00  0.00     0.130 C 
ATOM     13  C   UNL     1      -1.694  -1.842   5.037  1.00  0.00     0.024 C 
BRANCH  12  14
ATOM     14  C   UNL     1       0.247  -3.587   4.724  1.00  0.00     0.273 C 
BRANCH  14  15
ATOM     15  N   UNL     1       0.750  -3.330   6.078  1.00  0.00    -0.348 N 
ATOM     16  C   UNL     1       2.138  -3.766   6.189  1.00  0.00     0.330 C 
ATOM     17  H   UNL     1       0.181  -3.843   6.752  1.00  0.00     0.346 HD
ATOM     18  H   UNL     1       0.697  -2.330   6.270  1.00  0.00     0.346 HD
ENDBRANCH  14  15
ENDBRANCH  12  14
ENDBRANCH   9  12
ENDBRANCH   5   8
ENDBRANCH   3   5
ENDBRANCH   2   3
ENDBRANCH   1   2
BRANCH   1  19
ATOM     19  C   UNL     1       2.973   0.992   4.095  1.00  0.00     0.275 C 
BRANCH  19  20
ATOM     20  O   UNL     1       2.053   2.033   3.733  1.00  0.00    -0.458 OA
BRANCH  20  21
ATOM     21  C   UNL     1       1.793   2.113   2.407  1.00  0.00     0.338 C 
ATOM     22  O   UNL     1       2.317   1.455   1.523  1.00  0.00    -0.246 OA
BRANCH  21  23
ATOM     23  C   UNL     1       0.649   3.006   2.164  1.00  0.00     0.060 A 
ATOM     24  C   UNL     1      -0.361   2.547   1.309  1.00  0.00     0.016 A 
ATOM     25  C   UNL     1       0.601   4.294   2.701  1.00  0.00     0.016 A 
ATOM     26  C   UNL     1      -1.411   3.387   0.958  1.00  0.00     0.010 A 
ATOM     27  C   UNL     1      -0.445   5.142   2.334  1.00  0.00     0.010 A 
ATOM     28  C   UNL     1      -1.435   4.700   1.439  1.00  0.00    -0.014 A 
BRANCH  28  29
ATOM     29  C   UNL     1      -2.402   5.663   0.872  1.00  0.00     0.031 A 
ATOM     30  C   UNL     1      -1.937   6.578  -0.225  1.00  0.00     0.074 A 
ATOM     31  C   UNL     1      -3.669   5.702   1.317  1.00  0.00     0.049 A 
ATOM     32  N   UNL     1      -2.566   7.564  -0.805  1.00  0.00    -0.248 NA
ATOM     33  C   UNL     1      -0.573   6.350  -0.734  1.00  0.00     0.031 C 
ATOM     34  C   UNL     1      -4.232   4.819   2.338  1.00  0.00     0.029 A 
ATOM     35  N   UNL     1      -4.707   6.528   0.974  1.00  0.00    -0.354 N 
ATOM     36  C   UNL     1      -1.675   8.084  -1.736  1.00  0.00     0.074 A 
ATOM     37  C   UNL     1      -0.453   7.316  -1.632  1.00  0.00     0.031 C 
ATOM     38  C   UNL     1      -5.513   5.166   2.555  1.00  0.00     0.029 A 
ATOM     39  C   UNL     1      -5.844   6.316   1.716  1.00  0.00     0.049 A 
ATOM     40  H   UNL     1      -4.644   7.208   0.265  1.00  0.00     0.167 HD
ATOM     41  C   UNL     1      -1.863   9.110  -2.598  1.00  0.00     0.037 A 
ATOM     42  C   UNL     1      -7.005   6.998   1.735  1.00  0.00     0.037 A 
ATOM     43  C   UNL     1      -3.085   9.864  -2.685  1.00  0.00     0.049 A 
ATOM     44  C   UNL     1      -7.171   8.174   0.808  1.00  0.00     0.074 A 
ATOM     45  C   UNL     1      -3.385  10.930  -3.514  1.00  0.00     0.029 A 
ATOM     46  N   UNL     1      -4.212   9.628  -1.910  1.00  0.00    -0.354 N 
ATOM     47  N   UNL     1      -6.318   8.667  -0.059  1.00  0.00    -0.248 NA
ATOM     48  C   UNL     1      -8.454   8.888   0.862  1.00  0.00     0.031 C 
ATOM     49  C   UNL     1      -4.682  11.361  -3.215  1.00  0.00     0.029 A 
ATOM     50  C   UNL     1      -5.206  10.536  -2.231  1.00  0.00     0.049 A 
ATOM     51  H   UNL     1      -4.293   8.919  -1.232  1.00  0.00     0.167 HD
ATOM     52  C   UNL     1      -6.968   9.735  -0.669  1.00  0.00     0.074 A 
ATOM     53  C   UNL     1      -8.289   9.809  -0.079  1.00  0.00     0.031 C 
ATOM     54  C   UNL     1      -6.516  10.579  -1.630  1.00  0.00     0.037 A 
BRANCH  41  55
ATOM     55  C   UNL     1      -0.711   9.490  -3.485  1.00  0.00     0.058 A 
ATOM     56  C   UNL     1      -0.316   8.689  -4.568  1.00  0.00     0.135 A 
ATOM     57  C   UNL     1       0.002  10.678  -3.254  1.00  0.00     0.135 A 
ATOM     58  F   UNL     1      -0.948   7.532  -4.819  1.00  0.00    -0.206 F 
ATOM     59  C   UNL     1       0.762   9.039  -5.376  1.00  0.00     0.059 A 
ATOM     60  C   UNL     1       1.068  11.059  -4.064  1.00  0.00     0.059 A 
ATOM     61  F   UNL     1      -0.329  11.476  -2.227  1.00  0.00    -0.206 F 
ATOM     62  C   UNL     1       1.450  10.226  -5.114  1.00  0.00     0.060 A 
BRANCH  62  63
ATOM     63  S   UNL     1       2.848  10.666  -6.168  1.00  0.00     0.124 S 
ATOM     64  O   UNL     1       3.867   9.730  -5.704  1.00  0.00    -0.237 OA
ATOM     65  O   UNL     1       2.322  10.416  -7.506  1.00  0.00    -0.237 OA
ATOM     66  O   UNL     1       3.089  12.068  -5.844  1.00  0.00    -0.744 OA
ENDBRANCH  62  63
ENDBRANCH  41  55
BRANCH  42  67
ATOM     67  C   UNL     1      -8.084   6.605   2.679  1.00  0.00     0.058 A 
ATOM     68  C   UNL     1      -9.277   6.028   2.220  1.00  0.00     0.135 A 
ATOM     69  C   UNL     1      -7.939   6.792   4.063  1.00  0.00     0.135 A 
ATOM     70  F   UNL     1      -9.467   5.838   0.906  1.00  0.00    -0.206 F 
ATOM     71  C   UNL     1     -10.293   5.662   3.097  1.00  0.00     0.059 A 
ATOM     72  C   UNL     1      -8.931   6.412   4.961  1.00  0.00     0.059 A 
ATOM     73  F   UNL     1      -6.812   7.331   4.555  1.00  0.00    -0.206 F 
ATOM     74  C   UNL     1     -10.110   5.857   4.467  1.00  0.00     0.060 A 
BRANCH  74  75
ATOM     75  S   UNL     1     -11.416   5.336   5.602  1.00  0.00     0.124 S 
ATOM     76  O   UNL     1     -12.410   6.385   5.405  1.00  0.00    -0.237 OA
ATOM     77  O   UNL     1     -11.767   4.018   5.084  1.00  0.00    -0.237 OA
ATOM     78  O   UNL     1     -10.749   5.333   6.901  1.00  0.00    -0.744 OA
ENDBRANCH  74  75
ENDBRANCH  42  67
BRANCH  54  79
ATOM     79  C   UNL     1      -7.468  11.630  -2.126  1.00  0.00     0.058 A 
ATOM     80  C   UNL     1      -7.769  12.768  -1.363  1.00  0.00     0.135 A 
ATOM     81  C   UNL     1      -8.037  11.523  -3.405  1.00  0.00     0.135 A 
ATOM     82  F   UNL     1      -7.253  12.913  -0.132  1.00  0.00    -0.206 F 
ATOM     83  C   UNL     1      -8.620  13.757  -1.844  1.00  0.00     0.059 A 
ATOM     84  C   UNL     1      -8.871  12.512  -3.915  1.00  0.00     0.059 A 
ATOM     85  F   UNL     1      -7.770  10.459  -4.178  1.00  0.00    -0.206 F 
ATOM     86  C   UNL     1      -9.165  13.621  -3.122  1.00  0.00     0.060 A 
BRANCH  86  87
ATOM     87  S   UNL     1     -10.238  14.929  -3.751  1.00  0.00     0.124 S 
ATOM     88  O   UNL     1     -11.476  14.669  -3.023  1.00  0.00    -0.237 OA
ATOM     89  O   UNL     1      -9.518  16.139  -3.366  1.00  0.00    -0.237 OA
ATOM     90  O   UNL     1     -10.287  14.666  -5.186  1.00  0.00    -0.744 OA
ENDBRANCH  86  87
ENDBRANCH  54  79
ENDBRANCH  28  29
ENDBRANCH  21  23
ENDBRANCH  20  21
ENDBRANCH  19  20
ENDBRANCH   1  19
TORSDOF 19
