REMARK SMILES CC[NH2+][C@]1(C(=O)OCCOC(=O)c2ccc(-c3c4nc(c(-c5c(F)cc(S(=O)(=O)[O-])cc5F)c5ccc([nH]5)c(-c5c(F)cc(S(=O)(=O)[O-])cc5F)c5nc(c(-c6c(F)cc(S(=O)(=O)[O-])cc6F)c6ccc3[nH]6)C=C5)C=C4)cc2)CC[C@@H]([N@@H+](C)CC(C)(C)C)C1
REMARK SMILES IDX 8 1 7 2 5 3 6 4 4 5 79 6 89 7 80 8 81 9 3 10 2 13 1 14 82 15
REMARK SMILES IDX 83 16 84 18 85 19 86 20 87 21 88 22 9 23 10 24 11 25 12 26
REMARK SMILES IDX 13 27 14 28 78 29 15 30 77 31 16 32 17 33 18 34 71 35 19 36
REMARK SMILES IDX 76 37 70 38 72 39 20 40 75 41 69 42 68 43 21 45 55 46 34 47
REMARK SMILES IDX 54 48 35 49 38 50 53 51 73 52 36 53 37 54 52 56 74 57 39 58
REMARK SMILES IDX 22 59 23 60 32 61 24 62 25 63 31 64 33 65 26 66 27 67 28 68
REMARK SMILES IDX 29 69 30 70 56 71 57 72 66 73 58 74 59 75 65 76 67 77 60 78
REMARK SMILES IDX 61 79 62 80 63 81 64 82 40 83 41 84 50 85 42 86 43 87 49 88
REMARK SMILES IDX 51 89 44 90 45 91 46 92 47 93 48 94
REMARK H PARENT 3 11 3 12 82 17 72 44 38 55
REMARK Flexibility Score: inf
ROOT
ATOM      1  C   UNL     1       1.801  -0.714  -2.185  1.00  0.00     0.274 C 
ENDROOT
BRANCH   1   2
ATOM      2  O   UNL     1       1.466   0.515  -2.865  1.00  0.00    -0.457 OA
BRANCH   2   3
ATOM      3  C   UNL     1       0.218   1.005  -2.626  1.00  0.00     0.368 C 
ATOM      4  O   UNL     1      -0.577   0.470  -1.858  1.00  0.00    -0.245 OA
BRANCH   3   5
ATOM      5  C   UNL     1      -0.117   2.294  -3.442  1.00  0.00     0.200 C 
ATOM      6  C   UNL     1       0.074   3.565  -2.602  1.00  0.00     0.087 C 
ATOM      7  C   UNL     1       0.877   2.589  -4.597  1.00  0.00     0.146 C 
ATOM      8  C   UNL     1       0.071   4.689  -3.623  1.00  0.00     0.072 C 
ATOM      9  C   UNL     1       0.918   4.135  -4.759  1.00  0.00     0.191 C 
BRANCH   5  10
ATOM     10  N   UNL     1      -1.510   2.171  -3.990  1.00  0.00    -0.332 N 
ATOM     11  H   UNL     1      -1.606   2.813  -4.776  1.00  0.00     0.347 HD
ATOM     12  H   UNL     1      -1.640   1.198  -4.267  1.00  0.00     0.347 HD
BRANCH  10  13
ATOM     13  C   UNL     1      -2.559   2.485  -3.001  1.00  0.00     0.257 C 
ATOM     14  C   UNL     1      -3.899   1.887  -3.397  1.00  0.00     0.071 C 
ENDBRANCH  10  13
ENDBRANCH   5  10
BRANCH   9  15
ATOM     15  N   UNL     1       2.261   4.717  -4.862  1.00  0.00    -0.334 N 
ATOM     16  C   UNL     1       2.284   5.945  -5.641  1.00  0.00     0.332 C 
ATOM     17  H   UNL     1       2.701   3.964  -5.391  1.00  0.00     0.348 HD
BRANCH  15  18
ATOM     18  C   UNL     1       3.257   4.620  -3.783  1.00  0.00     0.268 C 
BRANCH  18  19
ATOM     19  C   UNL     1       3.531   5.665  -2.623  1.00  0.00     0.011 C 
ATOM     20  C   UNL     1       2.631   5.481  -1.391  1.00  0.00     0.017 C 
ATOM     21  C   UNL     1       4.977   5.405  -2.120  1.00  0.00     0.017 C 
ATOM     22  C   UNL     1       3.457   7.137  -3.050  1.00  0.00     0.017 C 
ENDBRANCH  18  19
ENDBRANCH  15  18
ENDBRANCH   9  15
ENDBRANCH   3   5
ENDBRANCH   2   3
ENDBRANCH   1   2
BRANCH   1  23
ATOM     23  C   UNL     1       2.695  -0.438  -0.979  1.00  0.00     0.275 C 
BRANCH  23  24
ATOM     24  O   UNL     1       2.015   0.460  -0.090  1.00  0.00    -0.458 OA
BRANCH  24  25
ATOM     25  C   UNL     1       2.803   1.344   0.566  1.00  0.00     0.338 C 
ATOM     26  O   UNL     1       4.021   1.367   0.575  1.00  0.00    -0.246 OA
BRANCH  25  27
ATOM     27  C   UNL     1       1.960   2.344   1.260  1.00  0.00     0.060 A 
ATOM     28  C   UNL     1       0.793   2.815   0.661  1.00  0.00     0.016 A 
ATOM     29  C   UNL     1       2.390   2.908   2.460  1.00  0.00     0.016 A 
ATOM     30  C   UNL     1       0.131   3.925   1.183  1.00  0.00     0.010 A 
ATOM     31  C   UNL     1       1.649   3.942   3.050  1.00  0.00     0.010 A 
ATOM     32  C   UNL     1       0.534   4.497   2.397  1.00  0.00    -0.014 A 
BRANCH  32  33
ATOM     33  C   UNL     1      -0.181   5.689   2.946  1.00  0.00     0.031 A 
ATOM     34  C   UNL     1       0.580   6.953   3.275  1.00  0.00     0.074 A 
ATOM     35  C   UNL     1      -1.520   5.668   3.124  1.00  0.00     0.049 A 
ATOM     36  N   UNL     1       0.173   8.020   3.917  1.00  0.00    -0.248 NA
ATOM     37  C   UNL     1       1.985   7.021   2.842  1.00  0.00     0.031 C 
ATOM     38  C   UNL     1      -2.403   4.537   2.826  1.00  0.00     0.029 A 
ATOM     39  N   UNL     1      -2.379   6.637   3.585  1.00  0.00    -0.354 N 
ATOM     40  C   UNL     1       1.282   8.852   4.022  1.00  0.00     0.074 A 
ATOM     41  C   UNL     1       2.382   8.169   3.375  1.00  0.00     0.031 C 
ATOM     42  C   UNL     1      -3.676   4.897   3.049  1.00  0.00     0.029 A 
ATOM     43  C   UNL     1      -3.699   6.248   3.594  1.00  0.00     0.049 A 
ATOM     44  H   UNL     1      -2.079   7.527   3.880  1.00  0.00     0.167 HD
ATOM     45  C   UNL     1       1.378  10.072   4.604  1.00  0.00     0.037 A 
ATOM     46  C   UNL     1      -4.804   6.886   4.026  1.00  0.00     0.037 A 
ATOM     47  C   UNL     1       0.270  10.788   5.184  1.00  0.00     0.049 A 
ATOM     48  C   UNL     1      -4.675   8.246   4.650  1.00  0.00     0.074 A 
ATOM     49  C   UNL     1       0.274  12.025   5.808  1.00  0.00     0.029 A 
ATOM     50  N   UNL     1      -1.045  10.349   5.180  1.00  0.00    -0.354 N 
ATOM     51  N   UNL     1      -3.597   8.970   4.830  1.00  0.00    -0.248 NA
ATOM     52  C   UNL     1      -5.910   8.864   5.155  1.00  0.00     0.031 C 
ATOM     53  C   UNL     1      -1.038  12.329   6.192  1.00  0.00     0.029 A 
ATOM     54  C   UNL     1      -1.861  11.293   5.782  1.00  0.00     0.049 A 
ATOM     55  H   UNL     1      -1.353   9.493   4.805  1.00  0.00     0.167 HD
ATOM     56  C   UNL     1      -4.023  10.125   5.476  1.00  0.00     0.074 A 
ATOM     57  C   UNL     1      -5.460  10.019   5.623  1.00  0.00     0.031 C 
ATOM     58  C   UNL     1      -3.288  11.171   5.924  1.00  0.00     0.037 A 
BRANCH  45  59
ATOM     59  C   UNL     1       2.735  10.715   4.663  1.00  0.00     0.058 A 
ATOM     60  C   UNL     1       3.318  11.320   3.540  1.00  0.00     0.135 A 
ATOM     61  C   UNL     1       3.436  10.775   5.879  1.00  0.00     0.135 A 
ATOM     62  F   UNL     1       2.699  11.273   2.350  1.00  0.00    -0.206 F 
ATOM     63  C   UNL     1       4.556  11.952   3.617  1.00  0.00     0.059 A 
ATOM     64  C   UNL     1       4.665  11.420   5.984  1.00  0.00     0.059 A 
ATOM     65  F   UNL     1       2.922  10.210   6.984  1.00  0.00    -0.206 F 
ATOM     66  C   UNL     1       5.221  11.998   4.844  1.00  0.00     0.060 A 
BRANCH  66  67
ATOM     67  S   UNL     1       6.815  12.842   4.937  1.00  0.00     0.124 S 
ATOM     68  O   UNL     1       7.701  11.860   4.321  1.00  0.00    -0.237 OA
ATOM     69  O   UNL     1       6.575  14.054   4.159  1.00  0.00    -0.237 OA
ATOM     70  O   UNL     1       7.005  13.050   6.369  1.00  0.00    -0.744 OA
ENDBRANCH  66  67
ENDBRANCH  45  59
BRANCH  46  71
ATOM     71  C   UNL     1      -6.133   6.225   3.932  1.00  0.00     0.058 A 
ATOM     72  C   UNL     1      -7.109   6.691   3.039  1.00  0.00     0.135 A 
ATOM     73  C   UNL     1      -6.456   5.124   4.739  1.00  0.00     0.135 A 
ATOM     74  F   UNL     1      -6.851   7.749   2.255  1.00  0.00    -0.206 F 
ATOM     75  C   UNL     1      -8.366   6.099   2.960  1.00  0.00     0.059 A 
ATOM     76  C   UNL     1      -7.695   4.499   4.660  1.00  0.00     0.059 A 
ATOM     77  F   UNL     1      -5.552   4.634   5.601  1.00  0.00    -0.206 F 
ATOM     78  C   UNL     1      -8.649   5.004   3.777  1.00  0.00     0.060 A 
BRANCH  78  79
ATOM     79  S   UNL     1     -10.264   4.204   3.647  1.00  0.00     0.124 S 
ATOM     80  O   UNL     1     -11.081   5.058   4.500  1.00  0.00    -0.237 OA
ATOM     81  O   UNL     1     -10.539   4.281   2.215  1.00  0.00    -0.237 OA
ATOM     82  O   UNL     1     -10.006   2.860   4.154  1.00  0.00    -0.744 OA
ENDBRANCH  78  79
ENDBRANCH  46  71
BRANCH  58  83
ATOM     83  C   UNL     1      -4.035  12.282   6.602  1.00  0.00     0.058 A 
ATOM     84  C   UNL     1      -4.518  12.142   7.912  1.00  0.00     0.135 A 
ATOM     85  C   UNL     1      -4.276  13.493   5.936  1.00  0.00     0.135 A 
ATOM     86  F   UNL     1      -4.318  10.999   8.587  1.00  0.00    -0.206 F 
ATOM     87  C   UNL     1      -5.247  13.154   8.528  1.00  0.00     0.059 A 
ATOM     88  C   UNL     1      -4.986  14.526   6.540  1.00  0.00     0.059 A 
ATOM     89  F   UNL     1      -3.827  13.678   4.684  1.00  0.00    -0.206 F 
ATOM     90  C   UNL     1      -5.484  14.339   7.830  1.00  0.00     0.060 A 
BRANCH  90  91
ATOM     91  S   UNL     1      -6.438  15.647   8.630  1.00  0.00     0.124 S 
ATOM     92  O   UNL     1      -7.804  15.174   8.433  1.00  0.00    -0.237 OA
ATOM     93  O   UNL     1      -5.944  15.606  10.003  1.00  0.00    -0.237 OA
ATOM     94  O   UNL     1      -6.070  16.841   7.875  1.00  0.00    -0.744 OA
ENDBRANCH  90  91
ENDBRANCH  58  83
ENDBRANCH  32  33
ENDBRANCH  25  27
ENDBRANCH  24  25
ENDBRANCH  23  24
ENDBRANCH   1  23
TORSDOF 19
