REMARK SMILES COc1ccc(NC2=[NH+]C(=O)/C(=C\c3ccccc3C(=O)OCCOC(=O)c3ccc(-c4c5nc(c(-c6c(F)cc(S(=O)(=O)[O-])cc6F)c6ccc([nH]6)c(-c6c(F)cc(S(=O)(=O)[O-])cc6F)c6nc(c(-c7c(F)cc(S(=O)(=O)[O-])cc7F)c7ccc4[nH]7)C=C6)C=C5)cc3)S2)cc1
REMARK SMILES IDX 23 1 22 2 20 3 21 4 19 5 14 6 15 7 16 8 18 9 17 10 13 11
REMARK SMILES IDX 7 12 8 13 9 15 94 16 10 17 12 19 11 20 6 21 3 22 4 23 96 24
REMARK SMILES IDX 5 25 95 26 2 27 1 28 24 29 25 30 26 31 27 32 28 33 29 34
REMARK SMILES IDX 93 35 30 36 92 37 31 38 32 39 33 40 86 41 34 42 91 43 85 44
REMARK SMILES IDX 87 45 35 46 90 47 84 48 83 49 36 51 70 52 49 53 69 54 50 55
REMARK SMILES IDX 53 56 68 57 88 58 51 59 52 60 67 62 89 63 54 64 37 65 38 66
REMARK SMILES IDX 47 67 39 68 40 69 46 70 48 71 41 72 42 73 43 74 44 75 45 76
REMARK SMILES IDX 71 77 72 78 81 79 73 80 74 81 80 82 82 83 75 84 76 85 77 86
REMARK SMILES IDX 78 87 79 88 55 89 56 90 65 91 57 92 58 93 64 94 66 95 59 96
REMARK SMILES IDX 60 97 61 98 62 99 63 100
REMARK H PARENT 7 14 9 18 87 50 53 61
REMARK Flexibility Score: inf
ROOT
ATOM      1  C   UNL     1      -1.015  -4.415   7.110  1.00  0.00     0.275 C 
ENDROOT
BRANCH   1   2
ATOM      2  O   UNL     1      -1.586  -5.742   7.128  1.00  0.00    -0.458 OA
BRANCH   2   3
ATOM      3  C   UNL     1      -1.226  -6.539   8.168  1.00  0.00     0.338 C 
ATOM      4  O   UNL     1      -0.545  -6.189   9.120  1.00  0.00    -0.246 OA
BRANCH   3   5
ATOM      5  C   UNL     1      -1.806  -7.909   8.061  1.00  0.00     0.067 A 
ATOM      6  C   UNL     1      -1.843  -8.661   6.870  1.00  0.00    -0.010 A 
ATOM      7  C   UNL     1      -2.377  -9.963   6.910  1.00  0.00     0.009 A 
ATOM      8  C   UNL     1      -2.876 -10.507   8.098  1.00  0.00     0.001 A 
ATOM      9  C   UNL     1      -2.282  -8.487   9.253  1.00  0.00     0.016 A 
ATOM     10  C   UNL     1      -2.840  -9.763   9.268  1.00  0.00     0.001 A 
BRANCH   6  11
ATOM     11  C   UNL     1      -1.429  -8.152   5.553  1.00  0.00     0.033 C 
ATOM     12  N   UNL     1       2.173  -5.054   3.880  1.00  0.00    -0.235 N 
ATOM     13  C   UNL     1       1.472  -6.052   4.487  1.00  0.00     0.322 C 
ATOM     14  H   UNL     1       3.152  -5.151   3.924  1.00  0.00     0.313 HD
ATOM     15  N   UNL     1       1.863  -6.587   5.598  1.00  0.00    -0.199 N 
ATOM     16  S   UNL     1       0.033  -6.751   3.773  1.00  0.00     0.006 SA
ATOM     17  C   UNL     1       0.997  -7.549   6.073  1.00  0.00     0.346 C 
ATOM     18  H   UNL     1       2.695  -6.332   6.059  1.00  0.00     0.316 HD
ATOM     19  C   UNL     1      -0.237  -7.631   5.231  1.00  0.00     0.110 C 
ATOM     20  O   UNL     1       1.206  -8.252   7.045  1.00  0.00    -0.240 OA
BRANCH  12  21
ATOM     21  C   UNL     1       1.724  -3.909   3.200  1.00  0.00     0.125 A 
ATOM     22  C   UNL     1       0.974  -1.560   1.811  1.00  0.00     0.119 A 
ATOM     23  C   UNL     1       0.046  -2.256   2.581  1.00  0.00     0.051 A 
ATOM     24  C   UNL     1       2.280  -2.034   1.729  1.00  0.00     0.051 A 
ATOM     25  C   UNL     1       0.411  -3.430   3.251  1.00  0.00     0.055 A 
ATOM     26  C   UNL     1       2.646  -3.199   2.416  1.00  0.00     0.055 A 
BRANCH  22  27
ATOM     27  O   UNL     1       0.514  -0.411   1.233  1.00  0.00    -0.497 OA
ATOM     28  C   UNL     1       1.125  -0.061  -0.003  1.00  0.00     0.278 C 
ENDBRANCH  22  27
ENDBRANCH  12  21
ENDBRANCH   6  11
ENDBRANCH   3   5
ENDBRANCH   2   3
ENDBRANCH   1   2
BRANCH   1  29
ATOM     29  C   UNL     1      -2.073  -3.334   7.329  1.00  0.00     0.275 C 
BRANCH  29  30
ATOM     30  O   UNL     1      -2.527  -3.348   8.690  1.00  0.00    -0.458 OA
BRANCH  30  31
ATOM     31  C   UNL     1      -3.636  -4.092   8.894  1.00  0.00     0.338 C 
ATOM     32  O   UNL     1      -4.324  -4.649   8.055  1.00  0.00    -0.246 OA
BRANCH  31  33
ATOM     33  C   UNL     1      -3.846  -4.276  10.332  1.00  0.00     0.060 A 
ATOM     34  C   UNL     1      -3.256  -5.390  10.915  1.00  0.00     0.016 A 
ATOM     35  C   UNL     1      -4.750  -3.502  11.047  1.00  0.00     0.016 A 
ATOM     36  C   UNL     1      -3.665  -5.830  12.163  1.00  0.00     0.010 A 
ATOM     37  C   UNL     1      -5.070  -3.876  12.357  1.00  0.00     0.010 A 
ATOM     38  C   UNL     1      -4.570  -5.072  12.910  1.00  0.00    -0.014 A 
BRANCH  38  39
ATOM     39  C   UNL     1      -5.024  -5.563  14.240  1.00  0.00     0.031 A 
ATOM     40  C   UNL     1      -6.495  -5.761  14.500  1.00  0.00     0.074 A 
ATOM     41  C   UNL     1      -4.123  -5.852  15.201  1.00  0.00     0.049 A 
ATOM     42  N   UNL     1      -7.112  -5.986  15.631  1.00  0.00    -0.248 NA
ATOM     43  C   UNL     1      -7.394  -5.672  13.337  1.00  0.00     0.031 C 
ATOM     44  C   UNL     1      -2.667  -5.765  15.056  1.00  0.00     0.029 A 
ATOM     45  N   UNL     1      -4.295  -6.282  16.493  1.00  0.00    -0.354 N 
ATOM     46  C   UNL     1      -8.470  -6.003  15.327  1.00  0.00     0.074 A 
ATOM     47  C   UNL     1      -8.587  -5.752  13.907  1.00  0.00     0.031 C 
ATOM     48  C   UNL     1      -2.082  -6.160  16.195  1.00  0.00     0.029 A 
ATOM     49  C   UNL     1      -3.115  -6.423  17.186  1.00  0.00     0.049 A 
ATOM     50  H   UNL     1      -5.178  -6.472  16.886  1.00  0.00     0.167 HD
ATOM     51  C   UNL     1      -9.517  -6.208  16.161  1.00  0.00     0.037 A 
ATOM     52  C   UNL     1      -2.886  -6.675  18.489  1.00  0.00     0.037 A 
ATOM     53  C   UNL     1      -9.372  -6.505  17.564  1.00  0.00     0.049 A 
ATOM     54  C   UNL     1      -4.064  -6.851  19.404  1.00  0.00     0.074 A 
ATOM     55  C   UNL     1     -10.362  -6.746  18.500  1.00  0.00     0.029 A 
ATOM     56  N   UNL     1      -8.158  -6.614  18.230  1.00  0.00    -0.354 N 
ATOM     57  N   UNL     1      -5.344  -6.812  19.116  1.00  0.00    -0.248 NA
ATOM     58  C   UNL     1      -3.770  -7.093  20.821  1.00  0.00     0.031 C 
ATOM     59  C   UNL     1      -9.750  -6.946  19.742  1.00  0.00     0.029 A 
ATOM     60  C   UNL     1      -8.375  -6.898  19.569  1.00  0.00     0.049 A 
ATOM     61  H   UNL     1      -7.273  -6.505  17.813  1.00  0.00     0.167 HD
ATOM     62  C   UNL     1      -6.009  -7.050  20.313  1.00  0.00     0.074 A 
ATOM     63  C   UNL     1      -4.987  -7.247  21.323  1.00  0.00     0.031 C 
ATOM     64  C   UNL     1      -7.342  -7.099  20.556  1.00  0.00     0.037 A 
BRANCH  51  65
ATOM     65  C   UNL     1     -10.907  -6.079  15.594  1.00  0.00     0.058 A 
ATOM     66  C   UNL     1     -11.439  -7.008  14.686  1.00  0.00     0.135 A 
ATOM     67  C   UNL     1     -11.734  -5.015  15.995  1.00  0.00     0.135 A 
ATOM     68  F   UNL     1     -10.691  -8.035  14.252  1.00  0.00    -0.206 F 
ATOM     69  C   UNL     1     -12.727  -6.872  14.174  1.00  0.00     0.059 A 
ATOM     70  C   UNL     1     -13.036  -4.877  15.521  1.00  0.00     0.059 A 
ATOM     71  F   UNL     1     -11.280  -4.093  16.859  1.00  0.00    -0.206 F 
ATOM     72  C   UNL     1     -13.519  -5.803  14.600  1.00  0.00     0.060 A 
BRANCH  72  73
ATOM     73  S   UNL     1     -15.190  -5.646  13.933  1.00  0.00     0.124 S 
ATOM     74  O   UNL     1     -14.918  -5.250  12.554  1.00  0.00    -0.237 OA
ATOM     75  O   UNL     1     -15.723  -6.993  14.111  1.00  0.00    -0.237 OA
ATOM     76  O   UNL     1     -15.797  -4.618  14.771  1.00  0.00    -0.744 OA
ENDBRANCH  72  73
ENDBRANCH  51  65
BRANCH  52  77
ATOM     77  C   UNL     1      -1.490  -6.727  19.003  1.00  0.00     0.058 A 
ATOM     78  C   UNL     1      -0.937  -7.924  19.479  1.00  0.00     0.135 A 
ATOM     79  C   UNL     1      -0.673  -5.584  19.011  1.00  0.00     0.135 A 
ATOM     80  F   UNL     1      -1.677  -9.043  19.502  1.00  0.00    -0.206 F 
ATOM     81  C   UNL     1       0.369  -7.985  19.957  1.00  0.00     0.059 A 
ATOM     82  C   UNL     1       0.646  -5.627  19.450  1.00  0.00     0.059 A 
ATOM     83  F   UNL     1      -1.147  -4.413  18.554  1.00  0.00    -0.206 F 
ATOM     84  C   UNL     1       1.154  -6.831  19.933  1.00  0.00     0.060 A 
BRANCH  84  85
ATOM     85  S   UNL     1       2.860  -6.931  20.518  1.00  0.00     0.124 S 
ATOM     86  O   UNL     1       2.669  -7.078  21.956  1.00  0.00    -0.237 OA
ATOM     87  O   UNL     1       3.355  -8.111  19.815  1.00  0.00    -0.237 OA
ATOM     88  O   UNL     1       3.439  -5.663  20.085  1.00  0.00    -0.744 OA
ENDBRANCH  84  85
ENDBRANCH  52  77
BRANCH  64  89
ATOM     89  C   UNL     1      -7.770  -7.432  21.959  1.00  0.00     0.058 A 
ATOM     90  C   UNL     1      -7.606  -6.529  23.020  1.00  0.00     0.135 A 
ATOM     91  C   UNL     1      -8.381  -8.666  22.235  1.00  0.00     0.135 A 
ATOM     92  F   UNL     1      -7.021  -5.339  22.812  1.00  0.00    -0.206 F 
ATOM     93  C   UNL     1      -8.001  -6.851  24.314  1.00  0.00     0.059 A 
ATOM     94  C   UNL     1      -8.815  -8.995  23.514  1.00  0.00     0.059 A 
ATOM     95  F   UNL     1      -8.571  -9.562  21.253  1.00  0.00    -0.206 F 
ATOM     96  C   UNL     1      -8.606  -8.087  24.550  1.00  0.00     0.060 A 
BRANCH  96  97
ATOM     97  S   UNL     1      -9.133  -8.485  26.230  1.00  0.00     0.124 S 
ATOM     98  O   UNL     1      -7.853  -8.717  26.892  1.00  0.00    -0.237 OA
ATOM     99  O   UNL     1      -9.843  -7.274  26.628  1.00  0.00    -0.237 OA
ATOM    100  O   UNL     1      -9.972  -9.667  26.053  1.00  0.00    -0.744 OA
ENDBRANCH  96  97
ENDBRANCH  64  89
ENDBRANCH  38  39
ENDBRANCH  31  33
ENDBRANCH  30  31
ENDBRANCH  29  30
ENDBRANCH   1  29
TORSDOF 17
