REMARK SMILES CCc1cc(Oc2cncc(C(=O)OCCOC(=O)c3ccc(-c4c5nc(c(-c6c(F)cc(S(=O)(=O)[O-])cc6F)c6ccc([nH]6)c(-c6c(F)cc(S(=O)(=O)[O-])cc6F)c6nc(c(-c7c(F)cc(S(=O)(=O)[O-])cc7F)c7ccc4[nH]7)C=C6)C=C5)cc3)n2)ccc1Cl
REMARK SMILES IDX 15 1 14 2 12 3 13 4 11 5 7 6 8 7 86 8 9 9 10 10 6 11 5 12
REMARK SMILES IDX 3 13 4 14 89 15 88 16 90 17 87 18 2 19 1 20 16 21 17 22
REMARK SMILES IDX 18 23 19 24 20 25 21 26 85 27 22 28 84 29 23 30 24 31 25 32
REMARK SMILES IDX 78 33 26 34 83 35 77 36 79 37 27 38 82 39 76 40 75 41 28 43
REMARK SMILES IDX 62 44 41 45 61 46 42 47 45 48 60 49 80 50 43 51 44 52 59 54
REMARK SMILES IDX 81 55 46 56 29 57 30 58 39 59 31 60 32 61 38 62 40 63 33 64
REMARK SMILES IDX 34 65 35 66 36 67 37 68 63 69 64 70 73 71 65 72 66 73 72 74
REMARK SMILES IDX 74 75 67 76 68 77 69 78 70 79 71 80 47 81 48 82 57 83 49 84
REMARK SMILES IDX 50 85 56 86 58 87 51 88 52 89 53 90 54 91 55 92
REMARK H PARENT 79 42 45 53
REMARK Flexibility Score: inf
ROOT
ATOM      1  C   UNL     1       8.171   3.701   7.257  1.00  0.00     0.275 C 
ENDROOT
BRANCH   1   2
ATOM      2  O   UNL     1       6.839   3.226   6.991  1.00  0.00    -0.457 OA
BRANCH   2   3
ATOM      3  C   UNL     1       5.976   3.253   8.042  1.00  0.00     0.358 C 
ATOM      4  O   UNL     1       6.228   3.630   9.169  1.00  0.00    -0.244 OA
BRANCH   3   5
ATOM      5  C   UNL     1       4.619   2.809   7.628  1.00  0.00     0.170 A 
ATOM      6  C   UNL     1       3.181   1.868   6.114  1.00  0.00     0.238 A 
ATOM      7  C   UNL     1       2.114   2.125   6.970  1.00  0.00     0.179 A 
ATOM      8  N   UNL     1       4.456   2.191   6.428  1.00  0.00    -0.203 NA
ATOM      9  N   UNL     1       2.273   2.740   8.167  1.00  0.00    -0.257 NA
ATOM     10  C   UNL     1       3.551   3.069   8.480  1.00  0.00     0.147 A 
BRANCH   6  11
ATOM     11  O   UNL     1       3.032   1.144   4.957  1.00  0.00    -0.437 OA
BRANCH  11  12
ATOM     12  C   UNL     1       2.136   1.580   4.010  1.00  0.00     0.129 A 
ATOM     13  C   UNL     1       0.774   0.903   2.094  1.00  0.00    -0.026 A 
ATOM     14  C   UNL     1       1.658   0.591   3.143  1.00  0.00     0.052 A 
ATOM     15  C   UNL     1       0.375   2.239   1.938  1.00  0.00     0.044 A 
ATOM     16  C   UNL     1       0.866   3.232   2.792  1.00  0.00     0.024 A 
ATOM     17  Cl  UNL     1      -0.721   2.724   0.694  1.00  0.00    -0.084 Cl
ATOM     18  C   UNL     1       1.757   2.908   3.819  1.00  0.00     0.049 A 
BRANCH  13  19
ATOM     19  C   UNL     1       0.334  -0.204   1.165  1.00  0.00     0.034 C 
ATOM     20  C   UNL     1       1.129  -0.218  -0.133  1.00  0.00     0.009 C 
ENDBRANCH  13  19
ENDBRANCH  11  12
ENDBRANCH   6  11
ENDBRANCH   3   5
ENDBRANCH   2   3
ENDBRANCH   1   2
BRANCH   1  21
ATOM     21  C   UNL     1       8.357   5.128   6.742  1.00  0.00     0.275 C 
BRANCH  21  22
ATOM     22  O   UNL     1       7.521   6.038   7.482  1.00  0.00    -0.458 OA
BRANCH  22  23
ATOM     23  C   UNL     1       6.559   6.665   6.769  1.00  0.00     0.338 C 
ATOM     24  O   UNL     1       6.352   6.595   5.569  1.00  0.00    -0.246 OA
BRANCH  23  25
ATOM     25  C   UNL     1       5.692   7.421   7.684  1.00  0.00     0.060 A 
ATOM     26  C   UNL     1       4.625   6.755   8.282  1.00  0.00     0.016 A 
ATOM     27  C   UNL     1       5.850   8.797   7.852  1.00  0.00     0.016 A 
ATOM     28  C   UNL     1       3.691   7.464   9.033  1.00  0.00     0.010 A 
ATOM     29  C   UNL     1       4.930   9.504   8.639  1.00  0.00     0.010 A 
ATOM     30  C   UNL     1       3.829   8.847   9.220  1.00  0.00    -0.014 A 
BRANCH  30  31
ATOM     31  C   UNL     1       2.780   9.593   9.970  1.00  0.00     0.031 A 
ATOM     32  C   UNL     1       1.905  10.595   9.260  1.00  0.00     0.074 A 
ATOM     33  C   UNL     1       2.564   9.327  11.274  1.00  0.00     0.049 A 
ATOM     34  N   UNL     1       0.990  11.390   9.754  1.00  0.00    -0.248 NA
ATOM     35  C   UNL     1       2.085  10.723   7.805  1.00  0.00     0.031 C 
ATOM     36  C   UNL     1       3.314   8.357  12.075  1.00  0.00     0.029 A 
ATOM     37  N   UNL     1       1.640   9.836  12.153  1.00  0.00    -0.354 N 
ATOM     38  C   UNL     1       0.506  12.130   8.681  1.00  0.00     0.074 A 
ATOM     39  C   UNL     1       1.239  11.700   7.509  1.00  0.00     0.031 C 
ATOM     40  C   UNL     1       2.800   8.317  13.314  1.00  0.00     0.029 A 
ATOM     41  C   UNL     1       1.724   9.299  13.417  1.00  0.00     0.049 A 
ATOM     42  H   UNL     1       0.978  10.521  11.903  1.00  0.00     0.167 HD
ATOM     43  C   UNL     1      -0.465  13.076   8.672  1.00  0.00     0.037 A 
ATOM     44  C   UNL     1       1.034   9.582  14.540  1.00  0.00     0.037 A 
ATOM     45  C   UNL     1      -1.222  13.477   9.830  1.00  0.00     0.049 A 
ATOM     46  C   UNL     1      -0.028  10.646  14.503  1.00  0.00     0.074 A 
ATOM     47  C   UNL     1      -2.212  14.442   9.921  1.00  0.00     0.029 A 
ATOM     48  N   UNL     1      -1.091  12.922  11.094  1.00  0.00    -0.354 N 
ATOM     49  N   UNL     1      -0.430  11.376  13.490  1.00  0.00    -0.248 NA
ATOM     50  C   UNL     1      -0.723  10.936  15.766  1.00  0.00     0.031 C 
ATOM     51  C   UNL     1      -2.665  14.485  11.244  1.00  0.00     0.029 A 
ATOM     52  C   UNL     1      -1.982  13.523  11.969  1.00  0.00     0.049 A 
ATOM     53  H   UNL     1      -0.459  12.207  11.334  1.00  0.00     0.167 HD
ATOM     54  C   UNL     1      -1.424  12.208  13.993  1.00  0.00     0.074 A 
ATOM     55  C   UNL     1      -1.586  11.870  15.392  1.00  0.00     0.031 C 
ATOM     56  C   UNL     1      -2.131  13.175  13.358  1.00  0.00     0.037 A 
BRANCH  43  57
ATOM     57  C   UNL     1      -0.763  13.761   7.367  1.00  0.00     0.058 A 
ATOM     58  C   UNL     1      -1.491  13.124   6.350  1.00  0.00     0.135 A 
ATOM     59  C   UNL     1      -0.372  15.093   7.158  1.00  0.00     0.135 A 
ATOM     60  F   UNL     1      -1.873  11.845   6.492  1.00  0.00    -0.206 F 
ATOM     61  C   UNL     1      -1.813  13.781   5.167  1.00  0.00     0.059 A 
ATOM     62  C   UNL     1      -0.701  15.777   5.991  1.00  0.00     0.059 A 
ATOM     63  F   UNL     1       0.328  15.747   8.098  1.00  0.00    -0.206 F 
ATOM     64  C   UNL     1      -1.415  15.109   4.998  1.00  0.00     0.060 A 
BRANCH  64  65
ATOM     65  S   UNL     1      -1.865  15.960   3.469  1.00  0.00     0.124 S 
ATOM     66  O   UNL     1      -0.940  15.355   2.517  1.00  0.00    -0.237 OA
ATOM     67  O   UNL     1      -3.269  15.593   3.308  1.00  0.00    -0.237 OA
ATOM     68  O   UNL     1      -1.620  17.365   3.777  1.00  0.00    -0.744 OA
ENDBRANCH  64  65
ENDBRANCH  43  57
BRANCH  44  69
ATOM     69  C   UNL     1       1.354   8.880  15.812  1.00  0.00     0.058 A 
ATOM     70  C   UNL     1       0.448   7.984  16.398  1.00  0.00     0.135 A 
ATOM     71  C   UNL     1       2.567   9.113  16.479  1.00  0.00     0.135 A 
ATOM     72  F   UNL     1      -0.730   7.737  15.804  1.00  0.00    -0.206 F 
ATOM     73  C   UNL     1       0.722   7.362  17.612  1.00  0.00     0.059 A 
ATOM     74  C   UNL     1       2.875   8.482  17.679  1.00  0.00     0.059 A 
ATOM     75  F   UNL     1       3.473   9.953  15.954  1.00  0.00    -0.206 F 
ATOM     76  C   UNL     1       1.938   7.621  18.247  1.00  0.00     0.060 A 
BRANCH  76  77
ATOM     77  S   UNL     1       2.306   6.794  19.809  1.00  0.00     0.124 S 
ATOM     78  O   UNL     1       1.559   7.614  20.756  1.00  0.00    -0.237 OA
ATOM     79  O   UNL     1       1.787   5.449  19.581  1.00  0.00    -0.237 OA
ATOM     80  O   UNL     1       3.760   6.888  19.899  1.00  0.00    -0.744 OA
ENDBRANCH  76  77
ENDBRANCH  44  69
BRANCH  56  81
ATOM     81  C   UNL     1      -3.152  13.919  14.171  1.00  0.00     0.058 A 
ATOM     82  C   UNL     1      -2.773  14.884  15.117  1.00  0.00     0.135 A 
ATOM     83  C   UNL     1      -4.523  13.677  13.992  1.00  0.00     0.135 A 
ATOM     84  F   UNL     1      -1.473  15.148  15.328  1.00  0.00    -0.206 F 
ATOM     85  C   UNL     1      -3.716  15.560  15.883  1.00  0.00     0.059 A 
ATOM     86  C   UNL     1      -5.485  14.357  14.731  1.00  0.00     0.059 A 
ATOM     87  F   UNL     1      -4.938  12.771  13.092  1.00  0.00    -0.206 F 
ATOM     88  C   UNL     1      -5.071  15.285  15.686  1.00  0.00     0.060 A 
BRANCH  88  89
ATOM     89  S   UNL     1      -6.290  16.171  16.681  1.00  0.00     0.124 S 
ATOM     90  O   UNL     1      -6.203  15.459  17.952  1.00  0.00    -0.237 OA
ATOM     91  O   UNL     1      -5.769  17.534  16.681  1.00  0.00    -0.237 OA
ATOM     92  O   UNL     1      -7.533  15.982  15.939  1.00  0.00    -0.744 OA
ENDBRANCH  88  89
ENDBRANCH  56  81
ENDBRANCH  30  31
ENDBRANCH  23  25
ENDBRANCH  22  23
ENDBRANCH  21  22
ENDBRANCH   1  21
TORSDOF 17
