REMARK SMILES CC[N@@H+]1CCO[C@@H](c2ncc(C(=O)OCCOC(=O)c3ccc(-c4c5nc(c(-c6c(F)cc(S(=O)(=O)[O-])cc6F)c6ccc([nH]6)c(-c6c(F)cc(S(=O)(=O)[O-])cc6F)c6nc(c(-c7c(F)cc(S(=O)(=O)[O-])cc7F)c7ccc4[nH]7)C=C6)C=C5)cc3)s2)C1
REMARK SMILES IDX 16 1 15 2 14 3 12 4 13 5 11 6 8 7 9 8 86 9 10 10 7 11 3 12
REMARK SMILES IDX 4 13 87 14 5 16 6 17 2 18 1 19 17 20 18 21 19 22 20 23 21 24
REMARK SMILES IDX 85 25 22 26 84 27 23 28 24 29 25 30 78 31 26 32 83 33 77 34
REMARK SMILES IDX 79 35 27 36 82 37 76 38 75 39 28 41 62 42 41 43 61 44 42 45
REMARK SMILES IDX 45 46 60 47 80 48 43 49 44 50 59 52 81 53 46 54 29 55 30 56
REMARK SMILES IDX 39 57 31 58 32 59 38 60 40 61 33 62 34 63 35 64 36 65 37 66
REMARK SMILES IDX 63 67 64 68 73 69 65 70 66 71 72 72 74 73 67 74 68 75 69 76
REMARK SMILES IDX 70 77 71 78 47 79 48 80 57 81 49 82 50 83 56 84 58 85 51 86
REMARK SMILES IDX 52 87 53 88 54 89 55 90
REMARK H PARENT 3 15 79 40 45 51
REMARK Flexibility Score: inf
ROOT
ATOM      1  C   UNL     1      -4.483  -6.647  -5.975  1.00  0.00     0.275 C 
ENDROOT
BRANCH   1   2
ATOM      2  C   UNL     1      -2.973  -6.861  -6.111  1.00  0.00     0.275 C 
BRANCH   2   3
ATOM      3  O   UNL     1      -2.263  -6.043  -5.163  1.00  0.00    -0.458 OA
BRANCH   3   4
ATOM      4  C   UNL     1      -1.565  -4.982  -5.671  1.00  0.00     0.350 C 
ATOM      5  O   UNL     1      -1.390  -4.783  -6.862  1.00  0.00    -0.245 OA
BRANCH   4   6
ATOM      6  C   UNL     1      -1.154  -4.117  -4.591  1.00  0.00     0.132 A 
ATOM      7  C   UNL     1      -0.668  -2.160  -3.246  1.00  0.00     0.128 A 
ATOM      8  N   UNL     1      -0.945  -3.184  -2.459  1.00  0.00    -0.246 NA
ATOM      9  S   UNL     1      -0.490  -2.565  -4.911  1.00  0.00    -0.109 S 
ATOM     10  C   UNL     1      -1.252  -4.290  -3.226  1.00  0.00     0.139 A 
BRANCH   7  11
ATOM     11  C   UNL     1      -0.529  -0.747  -2.743  1.00  0.00     0.232 C 
ATOM     12  N   UNL     1       1.098   1.038  -2.025  1.00  0.00    -0.331 N 
ATOM     13  C   UNL     1       0.311   1.959  -2.888  1.00  0.00     0.291 C 
ATOM     14  C   UNL     1       0.942  -0.330  -2.581  1.00  0.00     0.302 C 
ATOM     15  H   UNL     1       2.091   1.270  -2.026  1.00  0.00     0.348 HD
ATOM     16  C   UNL     1      -1.140   1.499  -3.159  1.00  0.00     0.222 C 
ATOM     17  O   UNL     1      -1.204   0.150  -3.647  1.00  0.00    -0.359 OA
BRANCH  12  18
ATOM     18  C   UNL     1       0.684   1.167  -0.617  1.00  0.00     0.258 C 
ATOM     19  C   UNL     1       1.329   0.152   0.324  1.00  0.00     0.071 C 
ENDBRANCH  12  18
ENDBRANCH   7  11
ENDBRANCH   4   6
ENDBRANCH   3   4
ENDBRANCH   2   3
ENDBRANCH   1   2
BRANCH   1  20
ATOM     20  O   UNL     1      -4.864  -5.320  -6.387  1.00  0.00    -0.458 OA
BRANCH  20  21
ATOM     21  C   UNL     1      -5.040  -4.427  -5.384  1.00  0.00     0.338 C 
ATOM     22  O   UNL     1      -4.923  -4.631  -4.188  1.00  0.00    -0.246 OA
BRANCH  21  23
ATOM     23  C   UNL     1      -5.272  -3.092  -5.958  1.00  0.00     0.060 A 
ATOM     24  C   UNL     1      -4.241  -2.158  -5.869  1.00  0.00     0.016 A 
ATOM     25  C   UNL     1      -6.498  -2.735  -6.522  1.00  0.00     0.016 A 
ATOM     26  C   UNL     1      -4.416  -0.865  -6.353  1.00  0.00     0.010 A 
ATOM     27  C   UNL     1      -6.673  -1.435  -7.016  1.00  0.00     0.010 A 
ATOM     28  C   UNL     1      -5.633  -0.491  -6.936  1.00  0.00    -0.014 A 
BRANCH  28  29
ATOM     29  C   UNL     1      -5.808   0.891  -7.451  1.00  0.00     0.031 A 
ATOM     30  C   UNL     1      -6.694   1.865  -6.727  1.00  0.00     0.074 A 
ATOM     31  C   UNL     1      -5.149   1.278  -8.560  1.00  0.00     0.049 A 
ATOM     32  N   UNL     1      -7.035   3.082  -7.065  1.00  0.00    -0.248 NA
ATOM     33  C   UNL     1      -7.273   1.409  -5.454  1.00  0.00     0.031 C 
ATOM     34  C   UNL     1      -4.224   0.441  -9.326  1.00  0.00     0.029 A 
ATOM     35  N   UNL     1      -5.155   2.473  -9.237  1.00  0.00    -0.354 N 
ATOM     36  C   UNL     1      -7.885   3.532  -6.062  1.00  0.00     0.074 A 
ATOM     37  C   UNL     1      -8.017   2.451  -5.107  1.00  0.00     0.031 C 
ATOM     38  C   UNL     1      -3.745   1.149 -10.361  1.00  0.00     0.029 A 
ATOM     39  C   UNL     1      -4.369   2.470 -10.365  1.00  0.00     0.049 A 
ATOM     40  H   UNL     1      -5.672   3.257  -8.942  1.00  0.00     0.167 HD
ATOM     41  C   UNL     1      -8.495   4.737  -5.950  1.00  0.00     0.037 A 
ATOM     42  C   UNL     1      -4.196   3.410 -11.315  1.00  0.00     0.037 A 
ATOM     43  C   UNL     1      -8.344   5.814  -6.895  1.00  0.00     0.049 A 
ATOM     44  C   UNL     1      -4.939   4.712 -11.204  1.00  0.00     0.074 A 
ATOM     45  C   UNL     1      -8.901   7.081  -6.853  1.00  0.00     0.029 A 
ATOM     46  N   UNL     1      -7.586   5.751  -8.055  1.00  0.00    -0.354 N 
ATOM     47  N   UNL     1      -5.746   5.121 -10.255  1.00  0.00    -0.248 NA
ATOM     48  C   UNL     1      -4.763   5.673 -12.302  1.00  0.00     0.031 C 
ATOM     49  C   UNL     1      -8.514   7.769  -8.009  1.00  0.00     0.029 A 
ATOM     50  C   UNL     1      -7.684   6.945  -8.752  1.00  0.00     0.049 A 
ATOM     51  H   UNL     1      -7.057   4.972  -8.342  1.00  0.00     0.167 HD
ATOM     52  C   UNL     1      -6.175   6.386 -10.640  1.00  0.00     0.074 A 
ATOM     53  C   UNL     1      -5.520   6.685 -11.898  1.00  0.00     0.031 C 
ATOM     54  C   UNL     1      -7.039   7.221 -10.012  1.00  0.00     0.037 A 
BRANCH  41  55
ATOM     55  C   UNL     1      -9.410   4.944  -4.776  1.00  0.00     0.058 A 
ATOM     56  C   UNL     1      -8.918   5.131  -3.475  1.00  0.00     0.135 A 
ATOM     57  C   UNL     1     -10.802   4.980  -4.960  1.00  0.00     0.135 A 
ATOM     58  F   UNL     1      -7.596   5.092  -3.240  1.00  0.00    -0.206 F 
ATOM     59  C   UNL     1      -9.774   5.318  -2.394  1.00  0.00     0.059 A 
ATOM     60  C   UNL     1     -11.676   5.187  -3.897  1.00  0.00     0.059 A 
ATOM     61  F   UNL     1     -11.326   4.807  -6.184  1.00  0.00    -0.206 F 
ATOM     62  C   UNL     1     -11.152   5.339  -2.614  1.00  0.00     0.060 A 
BRANCH  62  63
ATOM     63  S   UNL     1     -12.252   5.571  -1.201  1.00  0.00     0.124 S 
ATOM     64  O   UNL     1     -12.184   4.260  -0.563  1.00  0.00    -0.237 OA
ATOM     65  O   UNL     1     -11.608   6.662  -0.477  1.00  0.00    -0.237 OA
ATOM     66  O   UNL     1     -13.533   5.903  -1.818  1.00  0.00    -0.744 OA
ENDBRANCH  62  63
ENDBRANCH  41  55
BRANCH  42  67
ATOM     67  C   UNL     1      -3.309   3.131 -12.474  1.00  0.00     0.058 A 
ATOM     68  C   UNL     1      -2.075   3.781 -12.617  1.00  0.00     0.135 A 
ATOM     69  C   UNL     1      -3.669   2.188 -13.450  1.00  0.00     0.135 A 
ATOM     70  F   UNL     1      -1.694   4.701 -11.718  1.00  0.00    -0.206 F 
ATOM     71  C   UNL     1      -1.227   3.506 -13.685  1.00  0.00     0.059 A 
ATOM     72  C   UNL     1      -2.828   1.879 -14.514  1.00  0.00     0.059 A 
ATOM     73  F   UNL     1      -4.837   1.534 -13.355  1.00  0.00    -0.206 F 
ATOM     74  C   UNL     1      -1.611   2.548 -14.627  1.00  0.00     0.060 A 
BRANCH  74  75
ATOM     75  S   UNL     1      -0.476   2.147 -15.973  1.00  0.00     0.124 S 
ATOM     76  O   UNL     1      -0.645   3.298 -16.852  1.00  0.00    -0.237 OA
ATOM     77  O   UNL     1       0.806   2.056 -15.281  1.00  0.00    -0.237 OA
ATOM     78  O   UNL     1      -0.995   0.881 -16.482  1.00  0.00    -0.744 OA
ENDBRANCH  74  75
ENDBRANCH  42  67
BRANCH  54  79
ATOM     79  C   UNL     1      -7.330   8.537 -10.678  1.00  0.00     0.058 A 
ATOM     80  C   UNL     1      -8.169   8.616 -11.800  1.00  0.00     0.135 A 
ATOM     81  C   UNL     1      -6.805   9.733 -10.164  1.00  0.00     0.135 A 
ATOM     82  F   UNL     1      -8.689   7.499 -12.335  1.00  0.00    -0.206 F 
ATOM     83  C   UNL     1      -8.467   9.835 -12.400  1.00  0.00     0.059 A 
ATOM     84  C   UNL     1      -7.107  10.966 -10.735  1.00  0.00     0.059 A 
ATOM     85  F   UNL     1      -6.003   9.712  -9.088  1.00  0.00    -0.206 F 
ATOM     86  C   UNL     1      -7.931  11.005 -11.860  1.00  0.00     0.060 A 
BRANCH  86  87
ATOM     87  S   UNL     1      -8.354  12.586 -12.624  1.00  0.00     0.124 S 
ATOM     88  O   UNL     1      -7.525  12.563 -13.824  1.00  0.00    -0.237 OA
ATOM     89  O   UNL     1      -9.791  12.454 -12.843  1.00  0.00    -0.237 OA
ATOM     90  O   UNL     1      -7.969  13.565 -11.612  1.00  0.00    -0.744 OA
ENDBRANCH  86  87
ENDBRANCH  54  79
ENDBRANCH  28  29
ENDBRANCH  21  23
ENDBRANCH  20  21
ENDBRANCH   1  20
TORSDOF 16
