REMARK SMILES C[C@@H]1[C@H](C(=O)OCCOC(=O)c2ccc(-c3c4nc(c(-c5c(F)cc(S(=O)(=O)[O-])cc5F)c5ccc([nH]5)c(-c5c(F)cc(S(=O)(=O)[O-])cc5F)c5nc(c(-c6c(F)cc(S(=O)(=O)[O-])cc6F)c6ccc3[nH]6)C=C5)C=C4)cc2)CC[N@@H+]1CCOc1c(Cl)cccc1Cl
REMARK SMILES IDX 7 1 6 2 4 3 5 4 3 5 1 6 2 7 80 8 78 9 79 10 81 12 82 13
REMARK SMILES IDX 83 14 84 15 85 16 90 17 86 18 87 19 89 20 91 21 88 22 8 23
REMARK SMILES IDX 9 24 10 25 11 26 12 27 13 28 77 29 14 30 76 31 15 32 16 33
REMARK SMILES IDX 17 34 70 35 18 36 75 37 69 38 71 39 19 40 74 41 68 42 67 43
REMARK SMILES IDX 20 45 54 46 33 47 53 48 34 49 37 50 52 51 72 52 35 53 36 54
REMARK SMILES IDX 51 56 73 57 38 58 21 59 22 60 31 61 23 62 24 63 30 64 32 65
REMARK SMILES IDX 25 66 26 67 27 68 28 69 29 70 55 71 56 72 65 73 57 74 58 75
REMARK SMILES IDX 64 76 66 77 59 78 60 79 61 80 62 81 63 82 39 83 40 84 49 85
REMARK SMILES IDX 41 86 42 87 48 88 50 89 43 90 44 91 45 92 46 93 47 94
REMARK H PARENT 80 11 71 44 37 55
REMARK Flexibility Score: inf
ROOT
ATOM      1  C   UNL     1       2.418   3.913   1.049  1.00  0.00     0.274 C 
ENDROOT
BRANCH   1   2
ATOM      2  O   UNL     1       2.199   2.531   0.711  1.00  0.00    -0.462 OA
BRANCH   2   3
ATOM      3  C   UNL     1       0.928   2.166   0.414  1.00  0.00     0.315 C 
ATOM      4  O   UNL     1      -0.056   2.867   0.624  1.00  0.00    -0.252 OA
BRANCH   3   5
ATOM      5  C   UNL     1       0.889   0.883  -0.399  1.00  0.00     0.162 C 
ATOM      6  C   UNL     1       2.624  -0.248   1.226  1.00  0.00     0.076 C 
ATOM      7  C   UNL     1       1.664  -0.368   0.049  1.00  0.00     0.195 C 
ATOM      8  N   UNL     1       0.694  -1.485   0.062  1.00  0.00    -0.329 N 
ATOM      9  C   UNL     1      -0.551   0.409  -0.583  1.00  0.00     0.083 C 
ATOM     10  C   UNL     1      -0.428  -1.083  -0.783  1.00  0.00     0.263 C 
ATOM     11  H   UNL     1       1.190  -2.294  -0.311  1.00  0.00     0.348 HD
BRANCH   8  12
ATOM     12  C   UNL     1       0.312  -2.108   1.337  1.00  0.00     0.304 C 
BRANCH  12  13
ATOM     13  C   UNL     1      -0.293  -1.234   2.453  1.00  0.00     0.291 C 
BRANCH  13  14
ATOM     14  O   UNL     1      -1.688  -1.519   2.673  1.00  0.00    -0.485 OA
BRANCH  14  15
ATOM     15  C   UNL     1      -2.519  -0.480   2.331  1.00  0.00     0.156 A 
ATOM     16  C   UNL     1      -2.437   0.798   2.907  1.00  0.00     0.084 A 
ATOM     17  C   UNL     1      -3.502  -0.718   1.358  1.00  0.00     0.084 A 
ATOM     18  Cl  UNL     1      -1.434   1.137   4.277  1.00  0.00    -0.080 Cl
ATOM     19  C   UNL     1      -3.207   1.849   2.399  1.00  0.00     0.024 A 
ATOM     20  C   UNL     1      -4.272   0.334   0.855  1.00  0.00     0.024 A 
ATOM     21  Cl  UNL     1      -3.789  -2.305   0.733  1.00  0.00    -0.080 Cl
ATOM     22  C   UNL     1      -4.103   1.624   1.355  1.00  0.00     0.003 A 
ENDBRANCH  14  15
ENDBRANCH  13  14
ENDBRANCH  12  13
ENDBRANCH   8  12
ENDBRANCH   3   5
ENDBRANCH   2   3
ENDBRANCH   1   2
BRANCH   1  23
ATOM     23  C   UNL     1       3.251   4.562  -0.056  1.00  0.00     0.275 C 
BRANCH  23  24
ATOM     24  O   UNL     1       2.512   4.602  -1.293  1.00  0.00    -0.458 OA
BRANCH  24  25
ATOM     25  C   UNL     1       2.743   3.567  -2.131  1.00  0.00     0.338 C 
ATOM     26  O   UNL     1       3.503   2.624  -1.959  1.00  0.00    -0.246 OA
BRANCH  25  27
ATOM     27  C   UNL     1       1.901   3.695  -3.325  1.00  0.00     0.060 A 
ATOM     28  C   UNL     1       0.610   3.162  -3.322  1.00  0.00     0.016 A 
ATOM     29  C   UNL     1       2.449   4.224  -4.492  1.00  0.00     0.016 A 
ATOM     30  C   UNL     1      -0.113   3.093  -4.511  1.00  0.00     0.010 A 
ATOM     31  C   UNL     1       1.692   4.219  -5.666  1.00  0.00     0.010 A 
ATOM     32  C   UNL     1       0.416   3.630  -5.694  1.00  0.00    -0.014 A 
BRANCH  32  33
ATOM     33  C   UNL     1      -0.347   3.572  -6.968  1.00  0.00     0.031 A 
ATOM     34  C   UNL     1       0.196   2.797  -8.139  1.00  0.00     0.074 A 
ATOM     35  C   UNL     1      -1.514   4.235  -7.084  1.00  0.00     0.049 A 
ATOM     36  N   UNL     1      -0.206   2.790  -9.383  1.00  0.00    -0.248 NA
ATOM     37  C   UNL     1       1.350   1.923  -7.875  1.00  0.00     0.031 C 
ATOM     38  C   UNL     1      -2.172   4.988  -6.013  1.00  0.00     0.029 A 
ATOM     39  N   UNL     1      -2.351   4.392  -8.160  1.00  0.00    -0.354 N 
ATOM     40  C   UNL     1       0.667   1.945 -10.060  1.00  0.00     0.074 A 
ATOM     41  C   UNL     1       1.624   1.462  -9.088  1.00  0.00     0.031 C 
ATOM     42  C   UNL     1      -3.313   5.516  -6.482  1.00  0.00     0.029 A 
ATOM     43  C   UNL     1      -3.433   5.201  -7.902  1.00  0.00     0.049 A 
ATOM     44  H   UNL     1      -2.192   3.966  -9.034  1.00  0.00     0.167 HD
ATOM     45  C   UNL     1       0.668   1.607 -11.372  1.00  0.00     0.037 A 
ATOM     46  C   UNL     1      -4.389   5.674  -8.723  1.00  0.00     0.037 A 
ATOM     47  C   UNL     1      -0.307   2.068 -12.327  1.00  0.00     0.049 A 
ATOM     48  C   UNL     1      -4.343   5.319 -10.183  1.00  0.00     0.074 A 
ATOM     49  C   UNL     1      -0.390   1.789 -13.680  1.00  0.00     0.029 A 
ATOM     50  N   UNL     1      -1.380   2.893 -12.024  1.00  0.00    -0.354 N 
ATOM     51  N   UNL     1      -3.478   4.566 -10.820  1.00  0.00    -0.248 NA
ATOM     52  C   UNL     1      -5.392   5.891 -11.038  1.00  0.00     0.031 C 
ATOM     53  C   UNL     1      -1.499   2.466 -14.200  1.00  0.00     0.029 A 
ATOM     54  C   UNL     1      -2.127   3.138 -13.164  1.00  0.00     0.049 A 
ATOM     55  H   UNL     1      -1.582   3.252 -11.130  1.00  0.00     0.167 HD
ATOM     56  C   UNL     1      -3.886   4.563 -12.148  1.00  0.00     0.074 A 
ATOM     57  C   UNL     1      -5.082   5.378 -12.221  1.00  0.00     0.031 C 
ATOM     58  C   UNL     1      -3.319   3.946 -13.213  1.00  0.00     0.037 A 
BRANCH  45  59
ATOM     59  C   UNL     1       1.774   0.713 -11.861  1.00  0.00     0.058 A 
ATOM     60  C   UNL     1       1.794  -0.661 -11.578  1.00  0.00     0.135 A 
ATOM     61  C   UNL     1       2.812   1.235 -12.651  1.00  0.00     0.135 A 
ATOM     62  F   UNL     1       0.836  -1.207 -10.813  1.00  0.00    -0.206 F 
ATOM     63  C   UNL     1       2.817  -1.484 -12.042  1.00  0.00     0.059 A 
ATOM     64  C   UNL     1       3.833   0.427 -13.144  1.00  0.00     0.059 A 
ATOM     65  F   UNL     1       2.841   2.543 -12.950  1.00  0.00    -0.206 F 
ATOM     66  C   UNL     1       3.834  -0.929 -12.821  1.00  0.00     0.060 A 
BRANCH  66  67
ATOM     67  S   UNL     1       5.156  -2.005 -13.418  1.00  0.00     0.124 S 
ATOM     68  O   UNL     1       5.957  -2.176 -12.210  1.00  0.00    -0.237 OA
ATOM     69  O   UNL     1       4.424  -3.186 -13.865  1.00  0.00    -0.237 OA
ATOM     70  O   UNL     1       5.779  -1.220 -14.479  1.00  0.00    -0.744 OA
ENDBRANCH  66  67
ENDBRANCH  45  59
BRANCH  46  71
ATOM     71  C   UNL     1      -5.450   6.565  -8.188  1.00  0.00     0.058 A 
ATOM     72  C   UNL     1      -6.771   6.115  -8.061  1.00  0.00     0.135 A 
ATOM     73  C   UNL     1      -5.161   7.876  -7.779  1.00  0.00     0.135 A 
ATOM     74  F   UNL     1      -7.096   4.872  -8.447  1.00  0.00    -0.206 F 
ATOM     75  C   UNL     1      -7.774   6.935  -7.554  1.00  0.00     0.059 A 
ATOM     76  C   UNL     1      -6.141   8.707  -7.247  1.00  0.00     0.059 A 
ATOM     77  F   UNL     1      -3.908   8.349  -7.868  1.00  0.00    -0.206 F 
ATOM     78  C   UNL     1      -7.448   8.231  -7.148  1.00  0.00     0.060 A 
BRANCH  78  79
ATOM     79  S   UNL     1      -8.740   9.273  -6.437  1.00  0.00     0.124 S 
ATOM     80  O   UNL     1      -9.448   9.716  -7.632  1.00  0.00    -0.237 OA
ATOM     81  O   UNL     1      -9.458   8.335  -5.579  1.00  0.00    -0.237 OA
ATOM     82  O   UNL     1      -7.984  10.302  -5.729  1.00  0.00    -0.744 OA
ENDBRANCH  78  79
ENDBRANCH  46  71
BRANCH  58  83
ATOM     83  C   UNL     1      -4.005   4.102 -14.539  1.00  0.00     0.058 A 
ATOM     84  C   UNL     1      -3.897   5.285 -15.285  1.00  0.00     0.135 A 
ATOM     85  C   UNL     1      -4.746   3.043 -15.085  1.00  0.00     0.135 A 
ATOM     86  F   UNL     1      -3.206   6.329 -14.800  1.00  0.00    -0.206 F 
ATOM     87  C   UNL     1      -4.517   5.420 -16.522  1.00  0.00     0.059 A 
ATOM     88  C   UNL     1      -5.358   3.149 -16.329  1.00  0.00     0.059 A 
ATOM     89  F   UNL     1      -4.872   1.888 -14.411  1.00  0.00    -0.206 F 
ATOM     90  C   UNL     1      -5.247   4.346 -17.036  1.00  0.00     0.060 A 
BRANCH  90  91
ATOM     91  S   UNL     1      -6.024   4.518 -18.657  1.00  0.00     0.124 S 
ATOM     92  O   UNL     1      -7.202   5.317 -18.334  1.00  0.00    -0.237 OA
ATOM     93  O   UNL     1      -4.990   5.198 -19.431  1.00  0.00    -0.237 OA
ATOM     94  O   UNL     1      -6.288   3.138 -19.052  1.00  0.00    -0.744 OA
ENDBRANCH  90  91
ENDBRANCH  58  83
ENDBRANCH  32  33
ENDBRANCH  25  27
ENDBRANCH  24  25
ENDBRANCH  23  24
ENDBRANCH   1  23
TORSDOF 18
