REMARK SMILES O=C(CN(Cc1ccccc1Cl)S(=O)(=O)c1ccc(Cl)cc1)OCCOC(=O)c1ccc(-c2c3nc(c(-c4c(F)cc(S(=O)(=O)[O-])cc4F)c4ccc([nH]4)c(-c4c(F)cc(S(=O)(=O)[O-])cc4F)c4nc(c(-c5c(F)cc(S(=O)(=O)[O-])cc5F)c5ccc2[nH]5)C=C4)C=C3)cc1
REMARK SMILES IDX 24 1 23 2 2 3 1 4 3 5 4 6 5 7 6 8 7 9 11 10 8 11 10 12 12 13
REMARK SMILES IDX 9 14 13 15 14 16 15 17 16 18 17 19 22 20 18 21 21 22 19 23
REMARK SMILES IDX 20 24 25 25 26 26 27 27 28 28 29 29 30 30 94 31 31 32 93 33
REMARK SMILES IDX 32 34 33 35 34 36 87 37 35 38 92 39 86 40 88 41 36 42 91 43
REMARK SMILES IDX 85 44 84 45 37 47 71 48 50 49 70 50 51 51 54 52 69 53 89 54
REMARK SMILES IDX 52 55 53 56 68 58 90 59 55 60 38 61 39 62 48 63 40 64 41 65
REMARK SMILES IDX 47 66 49 67 42 68 43 69 44 70 45 71 46 72 72 73 73 74 82 75
REMARK SMILES IDX 74 76 75 77 81 78 83 79 76 80 77 81 78 82 79 83 80 84 56 85
REMARK SMILES IDX 57 86 66 87 58 88 59 89 65 90 67 91 60 92 61 93 62 94 63 95
REMARK SMILES IDX 64 96
REMARK H PARENT 88 46 54 57
REMARK Flexibility Score: inf
ROOT
ATOM      1  C   UNL     1       4.393   0.704  -0.643  1.00  0.00     0.274 C 
ENDROOT
BRANCH   1   2
ATOM      2  O   UNL     1       3.067   0.240  -0.966  1.00  0.00    -0.461 OA
BRANCH   2   3
ATOM      3  C   UNL     1       2.310  -0.527  -0.141  1.00  0.00     0.321 C 
ATOM      4  O   UNL     1       1.100  -0.627  -0.329  1.00  0.00    -0.251 OA
BRANCH   3   5
ATOM      5  C   UNL     1       2.986  -1.203   1.034  1.00  0.00     0.225 C 
BRANCH   5   6
ATOM      6  N   UNL     1       3.861  -2.383   0.740  1.00  0.00    -0.182 NA
BRANCH   6   7
ATOM      7  C   UNL     1       4.852  -2.636   1.834  1.00  0.00     0.140 C 
BRANCH   7   8
ATOM      8  C   UNL     1       4.359  -3.053   3.197  1.00  0.00    -0.014 A 
ATOM      9  C   UNL     1       3.837  -2.078   4.063  1.00  0.00     0.006 A 
ATOM     10  C   UNL     1       4.442  -4.370   3.681  1.00  0.00     0.045 A 
ATOM     11  C   UNL     1       3.349  -2.422   5.322  1.00  0.00     0.000 A 
ATOM     12  C   UNL     1       3.872  -4.726   4.905  1.00  0.00     0.021 A 
ATOM     13  Cl  UNL     1       5.384  -5.583   2.902  1.00  0.00    -0.084 Cl
ATOM     14  C   UNL     1       3.322  -3.751   5.722  1.00  0.00     0.002 A 
ENDBRANCH   7   8
ENDBRANCH   6   7
BRANCH   6  15
ATOM     15  S   UNL     1       2.905  -3.671   0.141  1.00  0.00     0.243 S 
ATOM     16  O   UNL     1       1.983  -4.032   1.194  1.00  0.00    -0.207 OA
ATOM     17  O   UNL     1       2.437  -3.273  -1.169  1.00  0.00    -0.207 OA
BRANCH  15  18
ATOM     18  C   UNL     1       3.976  -5.050  -0.139  1.00  0.00     0.082 A 
ATOM     19  C   UNL     1       3.513  -6.328   0.203  1.00  0.00     0.023 A 
ATOM     20  C   UNL     1       5.263  -4.867  -0.650  1.00  0.00     0.023 A 
ATOM     21  C   UNL     1       4.365  -7.425   0.084  1.00  0.00     0.022 A 
ATOM     22  C   UNL     1       6.118  -5.967  -0.746  1.00  0.00     0.022 A 
ATOM     23  C   UNL     1       5.669  -7.237  -0.371  1.00  0.00     0.041 A 
ATOM     24  Cl  UNL     1       6.746  -8.577  -0.451  1.00  0.00    -0.084 Cl
ENDBRANCH  15  18
ENDBRANCH   6  15
ENDBRANCH   5   6
ENDBRANCH   3   5
ENDBRANCH   2   3
ENDBRANCH   1   2
BRANCH   1  25
ATOM     25  C   UNL     1       4.351   2.038   0.113  1.00  0.00     0.275 C 
BRANCH  25  26
ATOM     26  O   UNL     1       3.798   1.861   1.434  1.00  0.00    -0.458 OA
BRANCH  26  27
ATOM     27  C   UNL     1       2.497   2.225   1.592  1.00  0.00     0.338 C 
ATOM     28  O   UNL     1       1.796   2.777   0.763  1.00  0.00    -0.246 OA
BRANCH  27  29
ATOM     29  C   UNL     1       1.989   1.676   2.875  1.00  0.00     0.060 A 
ATOM     30  C   UNL     1       0.705   1.116   2.904  1.00  0.00     0.016 A 
ATOM     31  C   UNL     1       2.765   1.690   4.036  1.00  0.00     0.016 A 
ATOM     32  C   UNL     1       0.180   0.600   4.098  1.00  0.00     0.010 A 
ATOM     33  C   UNL     1       2.242   1.164   5.224  1.00  0.00     0.010 A 
ATOM     34  C   UNL     1       0.933   0.639   5.277  1.00  0.00    -0.014 A 
BRANCH  34  35
ATOM     35  C   UNL     1       0.348   0.269   6.600  1.00  0.00     0.031 A 
ATOM     36  C   UNL     1       0.093   1.358   7.611  1.00  0.00     0.074 A 
ATOM     37  C   UNL     1       0.079  -1.007   6.946  1.00  0.00     0.049 A 
ATOM     38  N   UNL     1      -0.315   1.259   8.850  1.00  0.00    -0.248 NA
ATOM     39  C   UNL     1       0.307   2.742   7.156  1.00  0.00     0.031 C 
ATOM     40  C   UNL     1       0.183  -2.175   6.077  1.00  0.00     0.029 A 
ATOM     41  N   UNL     1      -0.271  -1.538   8.168  1.00  0.00    -0.354 N 
ATOM     42  C   UNL     1      -0.479   2.563   9.297  1.00  0.00     0.074 A 
ATOM     43  C   UNL     1      -0.005   3.433   8.242  1.00  0.00     0.031 C 
ATOM     44  C   UNL     1       0.035  -3.289   6.819  1.00  0.00     0.029 A 
ATOM     45  C   UNL     1      -0.188  -2.911   8.210  1.00  0.00     0.049 A 
ATOM     46  H   UNL     1      -0.553  -0.989   8.936  1.00  0.00     0.167 HD
ATOM     47  C   UNL     1      -1.043   3.004  10.447  1.00  0.00     0.037 A 
ATOM     48  C   UNL     1      -0.248  -3.764   9.252  1.00  0.00     0.037 A 
ATOM     49  C   UNL     1      -1.505   2.151  11.508  1.00  0.00     0.049 A 
ATOM     50  C   UNL     1      -0.634  -3.255  10.614  1.00  0.00     0.074 A 
ATOM     51  C   UNL     1      -2.151   2.505  12.680  1.00  0.00     0.029 A 
ATOM     52  N   UNL     1      -1.350   0.775  11.539  1.00  0.00    -0.354 N 
ATOM     53  N   UNL     1      -0.881  -2.025  10.990  1.00  0.00    -0.248 NA
ATOM     54  C   UNL     1      -0.815  -4.256  11.676  1.00  0.00     0.031 C 
ATOM     55  C   UNL     1      -2.343   1.345  13.442  1.00  0.00     0.029 A 
ATOM     56  C   UNL     1      -1.854   0.266  12.724  1.00  0.00     0.049 A 
ATOM     57  H   UNL     1      -0.941   0.237  10.822  1.00  0.00     0.167 HD
ATOM     58  C   UNL     1      -1.350  -2.116  12.297  1.00  0.00     0.074 A 
ATOM     59  C   UNL     1      -1.292  -3.514  12.667  1.00  0.00     0.031 C 
ATOM     60  C   UNL     1      -1.831  -1.128  13.091  1.00  0.00     0.037 A 
BRANCH  47  61
ATOM     61  C   UNL     1      -1.230   4.487  10.580  1.00  0.00     0.058 A 
ATOM     62  C   UNL     1      -2.183   5.166   9.802  1.00  0.00     0.135 A 
ATOM     63  C   UNL     1      -0.459   5.238  11.479  1.00  0.00     0.135 A 
ATOM     64  F   UNL     1      -2.936   4.494   8.916  1.00  0.00    -0.206 F 
ATOM     65  C   UNL     1      -2.335   6.545   9.879  1.00  0.00     0.059 A 
ATOM     66  C   UNL     1      -0.612   6.617  11.591  1.00  0.00     0.059 A 
ATOM     67  F   UNL     1       0.465   4.636  12.245  1.00  0.00    -0.206 F 
ATOM     68  C   UNL     1      -1.538   7.263  10.771  1.00  0.00     0.060 A 
BRANCH  68  69
ATOM     69  S   UNL     1      -1.721   9.057  10.833  1.00  0.00     0.124 S 
ATOM     70  O   UNL     1      -1.064   9.457   9.593  1.00  0.00    -0.237 OA
ATOM     71  O   UNL     1      -3.170   9.223  10.865  1.00  0.00    -0.237 OA
ATOM     72  O   UNL     1      -1.023   9.426  12.061  1.00  0.00    -0.744 OA
ENDBRANCH  68  69
ENDBRANCH  47  61
BRANCH  48  73
ATOM     73  C   UNL     1       0.064  -5.205   9.058  1.00  0.00     0.058 A 
ATOM     74  C   UNL     1      -0.944  -6.176   9.025  1.00  0.00     0.135 A 
ATOM     75  C   UNL     1       1.395  -5.636   8.947  1.00  0.00     0.135 A 
ATOM     76  F   UNL     1      -2.229  -5.811   9.151  1.00  0.00    -0.206 F 
ATOM     77  C   UNL     1      -0.645  -7.530   8.904  1.00  0.00     0.059 A 
ATOM     78  C   UNL     1       1.720  -6.982   8.807  1.00  0.00     0.059 A 
ATOM     79  F   UNL     1       2.397  -4.743   8.983  1.00  0.00    -0.206 F 
ATOM     80  C   UNL     1       0.691  -7.923   8.796  1.00  0.00     0.060 A 
BRANCH  80  81
ATOM     81  S   UNL     1       1.063  -9.682   8.622  1.00  0.00     0.124 S 
ATOM     82  O   UNL     1       0.698 -10.192   9.939  1.00  0.00    -0.237 OA
ATOM     83  O   UNL     1       0.188 -10.069   7.521  1.00  0.00    -0.237 OA
ATOM     84  O   UNL     1       2.490  -9.694   8.315  1.00  0.00    -0.744 OA
ENDBRANCH  80  81
ENDBRANCH  48  73
BRANCH  60  85
ATOM     85  C   UNL     1      -2.443  -1.524  14.406  1.00  0.00     0.058 A 
ATOM     86  C   UNL     1      -1.671  -1.943  15.499  1.00  0.00     0.135 A 
ATOM     87  C   UNL     1      -3.836  -1.445  14.580  1.00  0.00     0.135 A 
ATOM     88  F   UNL     1      -0.338  -2.049  15.384  1.00  0.00    -0.206 F 
ATOM     89  C   UNL     1      -2.260  -2.289  16.713  1.00  0.00     0.059 A 
ATOM     90  C   UNL     1      -4.442  -1.759  15.792  1.00  0.00     0.059 A 
ATOM     91  F   UNL     1      -4.622  -1.044  13.568  1.00  0.00    -0.206 F 
ATOM     92  C   UNL     1      -3.646  -2.192  16.850  1.00  0.00     0.060 A 
BRANCH  92  93
ATOM     93  S   UNL     1      -4.396  -2.605  18.441  1.00  0.00     0.124 S 
ATOM     94  O   UNL     1      -4.348  -4.063  18.419  1.00  0.00    -0.237 OA
ATOM     95  O   UNL     1      -3.497  -1.955  19.390  1.00  0.00    -0.237 OA
ATOM     96  O   UNL     1      -5.730  -2.018  18.349  1.00  0.00    -0.744 OA
ENDBRANCH  92  93
ENDBRANCH  60  85
ENDBRANCH  34  35
ENDBRANCH  27  29
ENDBRANCH  26  27
ENDBRANCH  25  26
ENDBRANCH   1  25
TORSDOF 19
