REMARK SMILES N#Cc1ccc(/C=C/C(=O)N2C[C@@H](O)C[C@H]2C(=O)OCCOC(=O)c2ccc(-c3c4nc(c(-c5c(F)cc(S(=O)(=O)[O-])cc5F)c5ccc([nH]5)c(-c5c(F)cc(S(=O)(=O)[O-])cc5F)c5nc(c(-c6c(F)cc(S(=O)(=O)[O-])cc6F)c6ccc3[nH]6)C=C5)C=C4)cc2)cc1
REMARK SMILES IDX 20 1 19 2 17 3 18 4 16 5 11 6 12 7 13 8 15 9 9 10 10 11 8 12
REMARK SMILES IDX 7 13 6 14 3 15 4 16 92 17 5 18 91 19 2 20 1 21 14 22 21 24
REMARK SMILES IDX 22 25 23 26 24 27 25 28 26 29 90 30 27 31 89 32 28 33 29 34
REMARK SMILES IDX 30 35 83 36 31 37 88 38 82 39 84 40 32 41 87 42 81 43 80 44
REMARK SMILES IDX 33 46 67 47 46 48 66 49 47 50 50 51 65 52 85 53 48 54 49 55
REMARK SMILES IDX 64 57 86 58 51 59 34 60 35 61 44 62 36 63 37 64 43 65 45 66
REMARK SMILES IDX 38 67 39 68 40 69 41 70 42 71 68 72 69 73 78 74 70 75 71 76
REMARK SMILES IDX 77 77 79 78 72 79 73 80 74 81 75 82 76 83 52 84 53 85 62 86
REMARK SMILES IDX 54 87 55 88 61 89 63 90 56 91 57 92 58 93 59 94 60 95
REMARK H PARENT 14 23 84 45 50 56
REMARK Flexibility Score: inf
ROOT
ATOM      1  C   UNL     1      10.759   1.130  -0.353  1.00  0.00     0.274 C 
ENDROOT
BRANCH   1   2
ATOM      2  O   UNL     1       9.442   0.547  -0.231  1.00  0.00    -0.461 OA
BRANCH   2   3
ATOM      3  C   UNL     1       9.245  -0.182   0.901  1.00  0.00     0.329 C 
ATOM      4  O   UNL     1      10.124  -0.423   1.726  1.00  0.00    -0.250 OA
BRANCH   3   5
ATOM      5  C   UNL     1       7.852  -0.813   1.021  1.00  0.00     0.198 C 
ATOM      6  N   UNL     1       6.766  -0.413   0.119  1.00  0.00    -0.323 N 
ATOM      7  C   UNL     1       6.479  -1.477  -0.820  1.00  0.00     0.152 C 
ATOM      8  C   UNL     1       6.773  -2.725   0.007  1.00  0.00     0.136 C 
ATOM      9  C   UNL     1       8.010  -2.323   0.804  1.00  0.00     0.071 C 
BRANCH   6  10
ATOM     10  C   UNL     1       5.955   0.634   0.488  1.00  0.00     0.247 C 
ATOM     11  O   UNL     1       6.266   1.432   1.366  1.00  0.00    -0.270 OA
BRANCH  10  12
ATOM     12  C   UNL     1       4.597   0.741  -0.097  1.00  0.00     0.072 C 
ATOM     13  C   UNL     1       3.674  -0.152   0.298  1.00  0.00     0.014 C 
BRANCH  13  14
ATOM     14  C   UNL     1       2.224  -0.072   0.060  1.00  0.00    -0.025 A 
ATOM     15  C   UNL     1      -0.593  -0.022  -0.086  1.00  0.00     0.052 A 
ATOM     16  C   UNL     1       0.132   1.172  -0.041  1.00  0.00     0.020 A 
ATOM     17  C   UNL     1       0.090  -1.242  -0.069  1.00  0.00     0.020 A 
ATOM     18  C   UNL     1       1.532   1.146   0.034  1.00  0.00     0.009 A 
ATOM     19  C   UNL     1       1.487  -1.264   0.008  1.00  0.00     0.009 A 
BRANCH  15  20
ATOM     20  C   UNL     1      -2.024  -0.005  -0.136  1.00  0.00     0.099 C 
ATOM     21  N   UNL     1      -3.187  -0.016  -0.193  1.00  0.00    -0.192 NA
ENDBRANCH  15  20
ENDBRANCH  13  14
ENDBRANCH  10  12
ENDBRANCH   6  10
BRANCH   8  22
ATOM     22  O   UNL     1       7.005  -3.875  -0.783  1.00  0.00    -0.391 OA
ATOM     23  H   UNL     1       7.751  -3.712  -1.381  1.00  0.00     0.211 HD
ENDBRANCH   8  22
ENDBRANCH   3   5
ENDBRANCH   2   3
ENDBRANCH   1   2
BRANCH   1  24
ATOM     24  C   UNL     1      10.777   2.585   0.114  1.00  0.00     0.275 C 
BRANCH  24  25
ATOM     25  O   UNL     1      10.324   2.680   1.475  1.00  0.00    -0.458 OA
BRANCH  25  26
ATOM     26  C   UNL     1       9.046   3.115   1.608  1.00  0.00     0.338 C 
ATOM     27  O   UNL     1       8.316   3.505   0.713  1.00  0.00    -0.246 OA
BRANCH  26  28
ATOM     28  C   UNL     1       8.655   3.092   3.027  1.00  0.00     0.060 A 
ATOM     29  C   UNL     1       8.257   1.899   3.628  1.00  0.00     0.016 A 
ATOM     30  C   UNL     1       8.546   4.293   3.720  1.00  0.00     0.016 A 
ATOM     31  C   UNL     1       7.656   1.910   4.884  1.00  0.00     0.010 A 
ATOM     32  C   UNL     1       8.030   4.292   5.020  1.00  0.00     0.010 A 
ATOM     33  C   UNL     1       7.548   3.106   5.603  1.00  0.00    -0.014 A 
BRANCH  33  34
ATOM     34  C   UNL     1       6.933   3.120   6.957  1.00  0.00     0.031 A 
ATOM     35  C   UNL     1       5.699   3.941   7.224  1.00  0.00     0.074 A 
ATOM     36  C   UNL     1       7.496   2.406   7.953  1.00  0.00     0.049 A 
ATOM     37  N   UNL     1       5.110   4.200   8.364  1.00  0.00    -0.248 NA
ATOM     38  C   UNL     1       5.049   4.561   6.059  1.00  0.00     0.031 C 
ATOM     39  C   UNL     1       8.671   1.541   7.815  1.00  0.00     0.029 A 
ATOM     40  N   UNL     1       7.165   2.301   9.280  1.00  0.00    -0.354 N 
ATOM     41  C   UNL     1       4.040   5.035   8.059  1.00  0.00     0.074 A 
ATOM     42  C   UNL     1       4.079   5.263   6.630  1.00  0.00     0.031 C 
ATOM     43  C   UNL     1       8.952   0.985   9.003  1.00  0.00     0.029 A 
ATOM     44  C   UNL     1       8.030   1.512  10.002  1.00  0.00     0.049 A 
ATOM     45  H   UNL     1       6.383   2.747   9.678  1.00  0.00     0.167 HD
ATOM     46  C   UNL     1       3.109   5.556   8.896  1.00  0.00     0.037 A 
ATOM     47  C   UNL     1       8.103   1.270  11.325  1.00  0.00     0.037 A 
ATOM     48  C   UNL     1       3.072   5.309  10.316  1.00  0.00     0.049 A 
ATOM     49  C   UNL     1       7.103   1.920  12.241  1.00  0.00     0.074 A 
ATOM     50  C   UNL     1       2.164   5.780  11.249  1.00  0.00     0.029 A 
ATOM     51  N   UNL     1       3.981   4.522  11.011  1.00  0.00    -0.354 N 
ATOM     52  N   UNL     1       6.102   2.713  11.941  1.00  0.00    -0.248 NA
ATOM     53  C   UNL     1       7.243   1.645  13.677  1.00  0.00     0.031 C 
ATOM     54  C   UNL     1       2.556   5.326  12.512  1.00  0.00     0.029 A 
ATOM     55  C   UNL     1       3.669   4.515  12.362  1.00  0.00     0.049 A 
ATOM     56  H   UNL     1       4.737   4.040  10.604  1.00  0.00     0.167 HD
ATOM     57  C   UNL     1       5.473   3.004  13.146  1.00  0.00     0.074 A 
ATOM     58  C   UNL     1       6.199   2.290  14.177  1.00  0.00     0.031 C 
ATOM     59  C   UNL     1       4.392   3.790  13.378  1.00  0.00     0.037 A 
BRANCH  46  60
ATOM     60  C   UNL     1       2.063   6.467   8.306  1.00  0.00     0.058 A 
ATOM     61  C   UNL     1       1.051   5.987   7.459  1.00  0.00     0.135 A 
ATOM     62  C   UNL     1       2.042   7.834   8.634  1.00  0.00     0.135 A 
ATOM     63  F   UNL     1       1.025   4.694   7.101  1.00  0.00    -0.206 F 
ATOM     64  C   UNL     1       0.076   6.832   6.936  1.00  0.00     0.059 A 
ATOM     65  C   UNL     1       1.058   8.691   8.148  1.00  0.00     0.059 A 
ATOM     66  F   UNL     1       2.983   8.350   9.441  1.00  0.00    -0.206 F 
ATOM     67  C   UNL     1       0.087   8.183   7.288  1.00  0.00     0.060 A 
BRANCH  67  68
ATOM     68  S   UNL     1      -1.191   9.262   6.607  1.00  0.00     0.124 S 
ATOM     69  O   UNL     1      -0.800   9.326   5.202  1.00  0.00    -0.237 OA
ATOM     70  O   UNL     1      -2.412   8.515   6.891  1.00  0.00    -0.237 OA
ATOM     71  O   UNL     1      -1.028  10.502   7.359  1.00  0.00    -0.744 OA
ENDBRANCH  67  68
ENDBRANCH  46  60
BRANCH  47  72
ATOM     72  C   UNL     1       9.174   0.389  11.866  1.00  0.00     0.058 A 
ATOM     73  C   UNL     1       8.864  -0.847  12.450  1.00  0.00     0.135 A 
ATOM     74  C   UNL     1      10.527   0.764  11.812  1.00  0.00     0.135 A 
ATOM     75  F   UNL     1       7.586  -1.249  12.532  1.00  0.00    -0.206 F 
ATOM     76  C   UNL     1       9.851  -1.669  12.985  1.00  0.00     0.059 A 
ATOM     77  C   UNL     1      11.535  -0.056  12.309  1.00  0.00     0.059 A 
ATOM     78  F   UNL     1      10.881   1.931  11.250  1.00  0.00    -0.206 F 
ATOM     79  C   UNL     1      11.185  -1.265  12.907  1.00  0.00     0.060 A 
BRANCH  79  80
ATOM     80  S   UNL     1      12.458  -2.354  13.578  1.00  0.00     0.124 S 
ATOM     81  O   UNL     1      12.227  -2.228  15.012  1.00  0.00    -0.237 OA
ATOM     82  O   UNL     1      12.103  -3.640  12.984  1.00  0.00    -0.237 OA
ATOM     83  O   UNL     1      13.699  -1.765  13.084  1.00  0.00    -0.744 OA
ENDBRANCH  79  80
ENDBRANCH  47  72
BRANCH  59  84
ATOM     84  C   UNL     1       3.893   3.878  14.796  1.00  0.00     0.058 A 
ATOM     85  C   UNL     1       4.608   4.552  15.798  1.00  0.00     0.135 A 
ATOM     86  C   UNL     1       2.658   3.307  15.147  1.00  0.00     0.135 A 
ATOM     87  F   UNL     1       5.798   5.108  15.521  1.00  0.00    -0.206 F 
ATOM     88  C   UNL     1       4.133   4.631  17.103  1.00  0.00     0.059 A 
ATOM     89  C   UNL     1       2.147   3.404  16.438  1.00  0.00     0.059 A 
ATOM     90  F   UNL     1       1.926   2.657  14.227  1.00  0.00    -0.206 F 
ATOM     91  C   UNL     1       2.899   4.056  17.413  1.00  0.00     0.060 A 
BRANCH  91  92
ATOM     92  S   UNL     1       2.282   4.192  19.103  1.00  0.00     0.124 S 
ATOM     93  O   UNL     1       3.170   3.280  19.816  1.00  0.00    -0.237 OA
ATOM     94  O   UNL     1       2.468   5.611  19.389  1.00  0.00    -0.237 OA
ATOM     95  O   UNL     1       0.892   3.757  18.995  1.00  0.00    -0.744 OA
ENDBRANCH  91  92
ENDBRANCH  59  84
ENDBRANCH  33  34
ENDBRANCH  26  28
ENDBRANCH  25  26
ENDBRANCH  24  25
ENDBRANCH   1  24
TORSDOF 19
