REMARK SMILES O=C(OCCOC(=O)c1cc2nn[nH]n2n1)c1ccc(-c2c3nc(c(-c4c(F)cc(S(=O)(=O)[O-])cc4F)c4ccc([nH]4)c(-c4c(F)cc(S(=O)(=O)[O-])cc4F)c4nc(c(-c5c(F)cc(S(=O)(=O)[O-])cc5F)c5ccc2[nH]5)C=C4)C=C3)cc1
REMARK SMILES IDX 3 1 2 2 1 3 17 4 18 5 82 6 19 7 81 8 20 9 21 10 22 11 75 12
REMARK SMILES IDX 23 13 80 14 74 15 76 16 24 17 79 18 73 19 72 20 25 22 59 23
REMARK SMILES IDX 38 24 58 25 39 26 42 27 57 28 77 29 40 30 41 31 56 33 78 34
REMARK SMILES IDX 43 35 26 36 27 37 36 38 28 39 29 40 35 41 37 42 30 43 31 44
REMARK SMILES IDX 32 45 33 46 34 47 60 48 61 49 70 50 62 51 63 52 69 53 71 54
REMARK SMILES IDX 64 55 65 56 66 57 67 58 68 59 44 60 45 61 54 62 46 63 47 64
REMARK SMILES IDX 53 65 55 66 48 67 49 68 50 69 51 70 52 71 4 72 5 73 6 74
REMARK SMILES IDX 7 75 8 76 9 77 10 78 16 79 11 80 15 81 12 82 14 83 13 84
REMARK H PARENT 76 21 42 32 14 85
REMARK Flexibility Score: inf
ROOT
ATOM      1  O   UNL     1       3.479   0.922  -1.197  1.00  0.00    -0.458 OA
ENDROOT
BRANCH   1   2
ATOM      2  C   UNL     1       2.362   0.325  -0.723  1.00  0.00     0.338 C 
ATOM      3  O   UNL     1       1.520   0.898  -0.052  1.00  0.00    -0.246 OA
BRANCH   2   4
ATOM      4  C   UNL     1       2.207  -1.052  -1.255  1.00  0.00     0.060 A 
ATOM      5  C   UNL     1       3.297  -1.772  -1.756  1.00  0.00     0.016 A 
ATOM      6  C   UNL     1       0.932  -1.632  -1.249  1.00  0.00     0.016 A 
ATOM      7  C   UNL     1       3.106  -3.032  -2.305  1.00  0.00     0.010 A 
ATOM      8  C   UNL     1       0.740  -2.897  -1.799  1.00  0.00     0.010 A 
ATOM      9  C   UNL     1       1.822  -3.580  -2.361  1.00  0.00    -0.014 A 
BRANCH   9  10
ATOM     10  C   UNL     1       1.682  -4.885  -3.007  1.00  0.00     0.031 A 
ATOM     11  C   UNL     1       2.409  -6.026  -2.372  1.00  0.00     0.074 A 
ATOM     12  C   UNL     1       0.871  -5.097  -4.061  1.00  0.00     0.049 A 
ATOM     13  N   UNL     1       3.344  -6.774  -2.864  1.00  0.00    -0.248 NA
ATOM     14  C   UNL     1       2.089  -6.325  -0.969  1.00  0.00     0.031 C 
ATOM     15  C   UNL     1      -0.130  -4.192  -4.633  1.00  0.00     0.029 A 
ATOM     16  N   UNL     1       0.707  -6.238  -4.788  1.00  0.00    -0.354 N 
ATOM     17  C   UNL     1       3.609  -7.755  -1.904  1.00  0.00     0.074 A 
ATOM     18  C   UNL     1       2.896  -7.356  -0.717  1.00  0.00     0.031 C 
ATOM     19  C   UNL     1      -0.942  -4.892  -5.455  1.00  0.00     0.029 A 
ATOM     20  C   UNL     1      -0.431  -6.246  -5.581  1.00  0.00     0.049 A 
ATOM     21  H   UNL     1       1.341  -6.990  -4.754  1.00  0.00     0.167 HD
ATOM     22  C   UNL     1       4.257  -8.918  -2.199  1.00  0.00     0.037 A 
ATOM     23  C   UNL     1      -0.954  -7.312  -6.234  1.00  0.00     0.037 A 
ATOM     24  C   UNL     1       4.972  -8.829  -3.443  1.00  0.00     0.049 A 
ATOM     25  C   UNL     1       0.131  -8.313  -6.398  1.00  0.00     0.074 A 
ATOM     26  C   UNL     1       6.005  -8.046  -3.919  1.00  0.00     0.029 A 
ATOM     27  N   UNL     1       4.433  -9.439  -4.549  1.00  0.00    -0.354 N 
ATOM     28  N   UNL     1       1.188  -8.134  -7.143  1.00  0.00    -0.248 NA
ATOM     29  C   UNL     1       0.244  -9.366  -5.401  1.00  0.00     0.031 C 
ATOM     30  C   UNL     1       5.706  -7.839  -5.296  1.00  0.00     0.029 A 
ATOM     31  C   UNL     1       4.532  -8.540  -5.579  1.00  0.00     0.049 A 
ATOM     32  H   UNL     1       4.050 -10.345  -4.593  1.00  0.00     0.167 HD
ATOM     33  C   UNL     1       2.220  -8.758  -6.457  1.00  0.00     0.074 A 
ATOM     34  C   UNL     1       1.561  -9.580  -5.446  1.00  0.00     0.031 C 
ATOM     35  C   UNL     1       3.516  -8.350  -6.592  1.00  0.00     0.037 A 
BRANCH  22  36
ATOM     36  C   UNL     1       4.008 -10.247  -1.518  1.00  0.00     0.058 A 
ATOM     37  C   UNL     1       4.864 -11.339  -1.780  1.00  0.00     0.135 A 
ATOM     38  C   UNL     1       2.804 -10.566  -0.856  1.00  0.00     0.135 A 
ATOM     39  F   UNL     1       6.039 -11.156  -2.405  1.00  0.00    -0.206 F 
ATOM     40  C   UNL     1       4.509 -12.658  -1.486  1.00  0.00     0.059 A 
ATOM     41  C   UNL     1       2.454 -11.867  -0.505  1.00  0.00     0.059 A 
ATOM     42  F   UNL     1       1.863  -9.646  -0.609  1.00  0.00    -0.206 F 
ATOM     43  C   UNL     1       3.288 -12.912  -0.869  1.00  0.00     0.060 A 
BRANCH  43  44
ATOM     44  S   UNL     1       2.759 -14.617  -0.624  1.00  0.00     0.124 S 
ATOM     45  O   UNL     1       2.487 -15.034  -1.995  1.00  0.00    -0.237 OA
ATOM     46  O   UNL     1       3.932 -15.214   0.005  1.00  0.00    -0.237 OA
ATOM     47  O   UNL     1       1.590 -14.484   0.240  1.00  0.00    -0.744 OA
ENDBRANCH  43  44
ENDBRANCH  22  36
BRANCH  23  48
ATOM     48  C   UNL     1      -2.394  -7.644  -6.388  1.00  0.00     0.058 A 
ATOM     49  C   UNL     1      -2.831  -8.608  -7.312  1.00  0.00     0.135 A 
ATOM     50  C   UNL     1      -3.348  -7.212  -5.441  1.00  0.00     0.135 A 
ATOM     51  F   UNL     1      -1.981  -9.097  -8.228  1.00  0.00    -0.206 F 
ATOM     52  C   UNL     1      -4.125  -9.140  -7.277  1.00  0.00     0.059 A 
ATOM     53  C   UNL     1      -4.645  -7.717  -5.396  1.00  0.00     0.059 A 
ATOM     54  F   UNL     1      -3.017  -6.350  -4.468  1.00  0.00    -0.206 F 
ATOM     55  C   UNL     1      -5.021  -8.698  -6.303  1.00  0.00     0.060 A 
BRANCH  55  56
ATOM     56  S   UNL     1      -6.636  -9.497  -6.149  1.00  0.00     0.124 S 
ATOM     57  O   UNL     1      -7.318  -9.031  -7.351  1.00  0.00    -0.237 OA
ATOM     58  O   UNL     1      -6.279 -10.911  -6.124  1.00  0.00    -0.237 OA
ATOM     59  O   UNL     1      -7.157  -8.967  -4.891  1.00  0.00    -0.744 OA
ENDBRANCH  55  56
ENDBRANCH  23  48
BRANCH  35  60
ATOM     60  C   UNL     1       3.867  -7.408  -7.713  1.00  0.00     0.058 A 
ATOM     61  C   UNL     1       3.411  -6.081  -7.792  1.00  0.00     0.135 A 
ATOM     62  C   UNL     1       4.865  -7.799  -8.620  1.00  0.00     0.135 A 
ATOM     63  F   UNL     1       2.533  -5.600  -6.901  1.00  0.00    -0.206 F 
ATOM     64  C   UNL     1       3.911  -5.188  -8.741  1.00  0.00     0.059 A 
ATOM     65  C   UNL     1       5.400  -6.917  -9.555  1.00  0.00     0.059 A 
ATOM     66  F   UNL     1       5.386  -9.036  -8.554  1.00  0.00    -0.206 F 
ATOM     67  C   UNL     1       4.915  -5.612  -9.612  1.00  0.00     0.060 A 
BRANCH  67  68
ATOM     68  S   UNL     1       5.658  -4.415 -10.743  1.00  0.00     0.124 S 
ATOM     69  O   UNL     1       4.608  -4.242 -11.741  1.00  0.00    -0.237 OA
ATOM     70  O   UNL     1       5.904  -3.266  -9.875  1.00  0.00    -0.237 OA
ATOM     71  O   UNL     1       6.863  -5.094 -11.215  1.00  0.00    -0.744 OA
ENDBRANCH  67  68
ENDBRANCH  35  60
ENDBRANCH   9  10
ENDBRANCH   2   4
ENDBRANCH   1   2
BRANCH   1  72
ATOM     72  C   UNL     1       4.656   0.973  -0.364  1.00  0.00     0.275 C 
BRANCH  72  73
ATOM     73  C   UNL     1       4.453   0.925   1.151  1.00  0.00     0.275 C 
BRANCH  73  74
ATOM     74  O   UNL     1       4.009  -0.385   1.538  1.00  0.00    -0.457 OA
BRANCH  74  75
ATOM     75  C   UNL     1       2.948  -0.436   2.398  1.00  0.00     0.359 C 
ATOM     76  O   UNL     1       2.465   0.529   2.980  1.00  0.00    -0.244 OA
BRANCH  75  77
ATOM     77  C   UNL     1       2.481  -1.811   2.564  1.00  0.00     0.174 A 
ATOM     78  C   UNL     1       3.231  -2.898   3.137  1.00  0.00     0.091 A 
ATOM     79  N   UNL     1       1.262  -2.221   2.127  1.00  0.00    -0.142 NA
ATOM     80  C   UNL     1       2.401  -3.973   2.998  1.00  0.00     0.199 A 
ATOM     81  N   UNL     1       1.301  -3.509   2.402  1.00  0.00    -0.135 N 
ATOM     82  N   UNL     1       2.272  -5.304   3.197  1.00  0.00    -0.109 NA
ATOM     83  N   UNL     1       0.499  -4.541   2.232  1.00  0.00    -0.177 N 
ATOM     84  N   UNL     1       1.154  -5.672   2.689  1.00  0.00    -0.050 NA
ATOM     85  H   UNL     1      -0.407  -4.513   1.848  1.00  0.00     0.216 HD
ENDBRANCH  75  77
ENDBRANCH  74  75
ENDBRANCH  73  74
ENDBRANCH  72  73
ENDBRANCH   1  72
TORSDOF 14
