REMARK SMILES O=C(NC1(C(=O)OCCOC(=O)c2ccc(-c3c4nc(c(-c5c(F)cc(S(=O)(=O)[O-])cc5F)c5ccc([nH]5)c(-c5c(F)cc(S(=O)(=O)[O-])cc5F)c5nc(c(-c6c(F)cc(S(=O)(=O)[O-])cc6F)c6ccc3[nH]6)C=C5)C=C4)cc2)Cc2ccccc2C1)OCC1c2ccccc2-c2ccccc21
REMARK SMILES IDX 8 1 7 2 5 3 6 4 4 5 79 6 86 7 80 8 85 9 81 10 84 11 82 12
REMARK SMILES IDX 83 13 3 14 1 15 2 16 87 18 88 19 89 20 90 21 101 22 91 23
REMARK SMILES IDX 95 24 96 25 100 26 92 27 94 28 97 29 99 30 93 31 98 32 9 33
REMARK SMILES IDX 10 34 11 35 12 36 13 37 14 38 78 39 15 40 77 41 16 42 17 43
REMARK SMILES IDX 18 44 71 45 19 46 76 47 70 48 72 49 20 50 75 51 69 52 68 53
REMARK SMILES IDX 21 55 55 56 34 57 54 58 35 59 38 60 53 61 73 62 36 63 37 64
REMARK SMILES IDX 52 66 74 67 39 68 22 69 23 70 32 71 24 72 25 73 31 74 33 75
REMARK SMILES IDX 26 76 27 77 28 78 29 79 30 80 56 81 57 82 66 83 58 84 59 85
REMARK SMILES IDX 65 86 67 87 60 88 61 89 62 90 63 91 64 92 40 93 41 94 50 95
REMARK SMILES IDX 42 96 43 97 49 98 51 99 44 100 45 101 46 102 47 103 48 104
REMARK H PARENT 3 17 72 54 38 65
REMARK Flexibility Score: inf
ROOT
ATOM      1  C   UNL     1       6.239  -3.952   0.801  1.00  0.00     0.274 C 
ENDROOT
BRANCH   1   2
ATOM      2  O   UNL     1       6.013  -2.673   0.170  1.00  0.00    -0.460 OA
BRANCH   2   3
ATOM      3  C   UNL     1       5.009  -2.634  -0.745  1.00  0.00     0.332 C 
ATOM      4  O   UNL     1       4.279  -3.592  -0.995  1.00  0.00    -0.249 OA
BRANCH   3   5
ATOM      5  C   UNL     1       4.870  -1.289  -1.496  1.00  0.00     0.149 C 
ATOM      6  C   UNL     1       5.276  -1.584  -2.979  1.00  0.00     0.076 C 
ATOM      7  C   UNL     1       5.785  -0.121  -1.075  1.00  0.00     0.076 C 
ATOM      8  C   UNL     1       6.677  -1.038  -3.060  1.00  0.00    -0.042 A 
ATOM      9  C   UNL     1       6.922  -0.163  -2.013  1.00  0.00    -0.042 A 
ATOM     10  C   UNL     1       7.660  -1.241  -4.008  1.00  0.00     0.004 A 
ATOM     11  C   UNL     1       8.079   0.585  -1.905  1.00  0.00     0.004 A 
ATOM     12  C   UNL     1       8.869  -0.536  -3.885  1.00  0.00     0.000 A 
ATOM     13  C   UNL     1       9.071   0.386  -2.848  1.00  0.00     0.000 A 
BRANCH   5  14
ATOM     14  N   UNL     1       3.469  -0.856  -1.339  1.00  0.00    -0.305 N 
ATOM     15  O   UNL     1       1.969   0.475  -0.279  1.00  0.00    -0.225 OA
ATOM     16  C   UNL     1       3.026  -0.148  -0.252  1.00  0.00     0.408 C 
ATOM     17  H   UNL     1       2.823  -1.085  -2.046  1.00  0.00     0.168 HD
BRANCH  16  18
ATOM     18  O   UNL     1       3.917  -0.135   0.790  1.00  0.00    -0.449 OA
BRANCH  18  19
ATOM     19  C   UNL     1       3.936   1.133   1.446  1.00  0.00     0.248 C 
BRANCH  19  20
ATOM     20  C   UNL     1       5.134   1.443   2.399  1.00  0.00     0.088 C 
ATOM     21  C   UNL     1       6.525   0.851   2.153  1.00  0.00    -0.029 A 
ATOM     22  C   UNL     1       5.432   2.938   2.159  1.00  0.00    -0.029 A 
ATOM     23  C   UNL     1       6.972  -0.446   2.341  1.00  0.00     0.005 A 
ATOM     24  C   UNL     1       7.435   1.847   1.741  1.00  0.00    -0.014 A 
ATOM     25  C   UNL     1       6.725   3.094   1.619  1.00  0.00    -0.014 A 
ATOM     26  C   UNL     1       4.522   3.985   2.174  1.00  0.00     0.005 A 
ATOM     27  C   UNL     1       8.315  -0.754   2.081  1.00  0.00     0.000 A 
ATOM     28  C   UNL     1       8.781   1.562   1.542  1.00  0.00     0.009 A 
ATOM     29  C   UNL     1       7.073   4.260   0.962  1.00  0.00     0.009 A 
ATOM     30  C   UNL     1       4.873   5.159   1.512  1.00  0.00     0.000 A 
ATOM     31  C   UNL     1       9.218   0.246   1.698  1.00  0.00     0.001 A 
ATOM     32  C   UNL     1       6.124   5.282   0.883  1.00  0.00     0.001 A 
ENDBRANCH  19  20
ENDBRANCH  18  19
ENDBRANCH  16  18
ENDBRANCH   5  14
ENDBRANCH   3   5
ENDBRANCH   2   3
ENDBRANCH   1   2
BRANCH   1  33
ATOM     33  C   UNL     1       5.605  -4.043   2.188  1.00  0.00     0.275 C 
BRANCH  33  34
ATOM     34  O   UNL     1       4.194  -3.812   2.095  1.00  0.00    -0.458 OA
BRANCH  34  35
ATOM     35  C   UNL     1       3.703  -2.803   2.849  1.00  0.00     0.338 C 
ATOM     36  O   UNL     1       4.306  -2.119   3.660  1.00  0.00    -0.246 OA
BRANCH  35  37
ATOM     37  C   UNL     1       2.269  -2.635   2.577  1.00  0.00     0.060 A 
ATOM     38  C   UNL     1       1.802  -2.560   1.267  1.00  0.00     0.016 A 
ATOM     39  C   UNL     1       1.396  -2.452   3.647  1.00  0.00     0.016 A 
ATOM     40  C   UNL     1       0.483  -2.200   1.022  1.00  0.00     0.010 A 
ATOM     41  C   UNL     1       0.041  -2.236   3.397  1.00  0.00     0.010 A 
ATOM     42  C   UNL     1      -0.428  -2.090   2.081  1.00  0.00    -0.014 A 
BRANCH  42  43
ATOM     43  C   UNL     1      -1.876  -1.895   1.813  1.00  0.00     0.031 A 
ATOM     44  C   UNL     1      -2.622  -0.750   2.441  1.00  0.00     0.074 A 
ATOM     45  C   UNL     1      -2.525  -2.797   1.048  1.00  0.00     0.049 A 
ATOM     46  N   UNL     1      -3.912  -0.549   2.517  1.00  0.00    -0.248 NA
ATOM     47  C   UNL     1      -1.814   0.294   3.093  1.00  0.00     0.031 C 
ATOM     48  C   UNL     1      -1.902  -3.941   0.372  1.00  0.00     0.029 A 
ATOM     49  N   UNL     1      -3.850  -2.906   0.713  1.00  0.00    -0.354 N 
ATOM     50  C   UNL     1      -4.074   0.609   3.269  1.00  0.00     0.074 A 
ATOM     51  C   UNL     1      -2.749   1.062   3.636  1.00  0.00     0.031 C 
ATOM     52  C   UNL     1      -2.831  -4.607  -0.325  1.00  0.00     0.029 A 
ATOM     53  C   UNL     1      -4.130  -4.010  -0.059  1.00  0.00     0.049 A 
ATOM     54  H   UNL     1      -4.535  -2.257   0.997  1.00  0.00     0.167 HD
ATOM     55  C   UNL     1      -5.228   1.228   3.620  1.00  0.00     0.037 A 
ATOM     56  C   UNL     1      -5.306  -4.524  -0.463  1.00  0.00     0.037 A 
ATOM     57  C   UNL     1      -6.533   0.774   3.204  1.00  0.00     0.049 A 
ATOM     58  C   UNL     1      -6.569  -3.837  -0.037  1.00  0.00     0.074 A 
ATOM     59  C   UNL     1      -7.767   1.339   3.473  1.00  0.00     0.029 A 
ATOM     60  N   UNL     1      -6.771  -0.352   2.426  1.00  0.00    -0.354 N 
ATOM     61  N   UNL     1      -6.711  -2.758   0.696  1.00  0.00    -0.248 NA
ATOM     62  C   UNL     1      -7.831  -4.441  -0.478  1.00  0.00     0.031 C 
ATOM     63  C   UNL     1      -8.753   0.528   2.901  1.00  0.00     0.029 A 
ATOM     64  C   UNL     1      -8.133  -0.510   2.223  1.00  0.00     0.049 A 
ATOM     65  H   UNL     1      -6.075  -0.950   2.070  1.00  0.00     0.167 HD
ATOM     66  C   UNL     1      -8.079  -2.541   0.789  1.00  0.00     0.074 A 
ATOM     67  C   UNL     1      -8.719  -3.592   0.022  1.00  0.00     0.031 C 
ATOM     68  C   UNL     1      -8.746  -1.563   1.450  1.00  0.00     0.037 A 
BRANCH  55  69
ATOM     69  C   UNL     1      -5.143   2.434   4.519  1.00  0.00     0.058 A 
ATOM     70  C   UNL     1      -4.620   3.661   4.082  1.00  0.00     0.135 A 
ATOM     71  C   UNL     1      -5.637   2.371   5.835  1.00  0.00     0.135 A 
ATOM     72  F   UNL     1      -4.120   3.780   2.842  1.00  0.00    -0.206 F 
ATOM     73  C   UNL     1      -4.564   4.771   4.922  1.00  0.00     0.059 A 
ATOM     74  C   UNL     1      -5.620   3.476   6.681  1.00  0.00     0.059 A 
ATOM     75  F   UNL     1      -6.150   1.225   6.309  1.00  0.00    -0.206 F 
ATOM     76  C   UNL     1      -5.068   4.670   6.220  1.00  0.00     0.060 A 
BRANCH  76  77
ATOM     77  S   UNL     1      -4.996   6.121   7.292  1.00  0.00     0.124 S 
ATOM     78  O   UNL     1      -3.565   6.206   7.572  1.00  0.00    -0.237 OA
ATOM     79  O   UNL     1      -5.536   7.170   6.434  1.00  0.00    -0.237 OA
ATOM     80  O   UNL     1      -5.835   5.750   8.427  1.00  0.00    -0.744 OA
ENDBRANCH  76  77
ENDBRANCH  55  69
BRANCH  56  81
ATOM     81  C   UNL     1      -5.330  -5.765  -1.283  1.00  0.00     0.058 A 
ATOM     82  C   UNL     1      -5.737  -5.734  -2.624  1.00  0.00     0.135 A 
ATOM     83  C   UNL     1      -4.905  -6.997  -0.758  1.00  0.00     0.135 A 
ATOM     84  F   UNL     1      -6.155  -4.582  -3.171  1.00  0.00    -0.206 F 
ATOM     85  C   UNL     1      -5.736  -6.880  -3.413  1.00  0.00     0.059 A 
ATOM     86  C   UNL     1      -4.862  -8.149  -1.536  1.00  0.00     0.059 A 
ATOM     87  F   UNL     1      -4.486  -7.080   0.514  1.00  0.00    -0.206 F 
ATOM     88  C   UNL     1      -5.290  -8.082  -2.861  1.00  0.00     0.060 A 
BRANCH  88  89
ATOM     89  S   UNL     1      -5.245  -9.552  -3.908  1.00  0.00     0.124 S 
ATOM     90  O   UNL     1      -6.663  -9.863  -4.039  1.00  0.00    -0.237 OA
ATOM     91  O   UNL     1      -4.588  -9.050  -5.111  1.00  0.00    -0.237 OA
ATOM     92  O   UNL     1      -4.460 -10.501  -3.124  1.00  0.00    -0.744 OA
ENDBRANCH  88  89
ENDBRANCH  56  81
BRANCH  68  93
ATOM     93  C   UNL     1     -10.244  -1.563   1.334  1.00  0.00     0.058 A 
ATOM     94  C   UNL     1     -11.036  -2.525   1.980  1.00  0.00     0.135 A 
ATOM     95  C   UNL     1     -10.894  -0.565   0.591  1.00  0.00     0.135 A 
ATOM     96  F   UNL     1     -10.462  -3.507   2.692  1.00  0.00    -0.206 F 
ATOM     97  C   UNL     1     -12.422  -2.512   1.871  1.00  0.00     0.059 A 
ATOM     98  C   UNL     1     -12.280  -0.514   0.496  1.00  0.00     0.059 A 
ATOM     99  F   UNL     1     -10.182   0.382  -0.040  1.00  0.00    -0.206 F 
ATOM    100  C   UNL     1     -13.035  -1.500   1.129  1.00  0.00     0.060 A 
BRANCH 100 101
ATOM    101  S   UNL     1     -14.836  -1.477   1.023  1.00  0.00     0.124 S 
ATOM    102  O   UNL     1     -15.093  -2.603   0.131  1.00  0.00    -0.237 OA
ATOM    103  O   UNL     1     -15.233  -1.667   2.415  1.00  0.00    -0.237 OA
ATOM    104  O   UNL     1     -15.128  -0.159   0.469  1.00  0.00    -0.744 OA
ENDBRANCH 100 101
ENDBRANCH  68  93
ENDBRANCH  42  43
ENDBRANCH  35  37
ENDBRANCH  34  35
ENDBRANCH  33  34
ENDBRANCH   1  33
TORSDOF 18
