REMARK SMILES Cc1nc(-c2ccc(S(=O)(=O)N3CC[NH2+][C@H](C(=O)OCCOC(=O)c4ccc(-c5c6nc(c(-c7c(F)cc(S(=O)(=O)[O-])cc7F)c7ccc([nH]7)c(-c7c(F)cc(S(=O)(=O)[O-])cc7F)c7nc(c(-c8c(F)cc(S(=O)(=O)[O-])cc8F)c8ccc5[nH]8)C=C7)C=C6)cc4)C3)s2)cs1
REMARK SMILES IDX 20 1 19 2 17 3 18 4 16 5 12 6 13 7 91 8 14 9 15 10 9 13
REMARK SMILES IDX 10 14 11 15 8 16 5 17 6 18 92 19 7 20 4 21 1 22 2 23 3 24
REMARK SMILES IDX 94 25 93 26 21 27 22 28 23 29 24 30 25 31 26 32 90 33 27 34
REMARK SMILES IDX 89 35 28 36 29 37 30 38 83 39 31 40 88 41 82 42 84 43 32 44
REMARK SMILES IDX 87 45 81 46 80 47 33 49 67 50 46 51 66 52 47 53 50 54 65 55
REMARK SMILES IDX 85 56 48 57 49 58 64 60 86 61 51 62 34 63 35 64 44 65 36 66
REMARK SMILES IDX 37 67 43 68 45 69 38 70 39 71 40 72 41 73 42 74 68 75 69 76
REMARK SMILES IDX 78 77 70 78 71 79 77 80 79 81 72 82 73 83 74 84 75 85 76 86
REMARK SMILES IDX 52 87 53 88 62 89 54 90 55 91 61 92 63 93 56 94 57 95 58 96
REMARK SMILES IDX 59 97 60 98
REMARK H PARENT 15 11 15 12 84 48 50 59
REMARK Flexibility Score: inf
ROOT
ATOM      1  C   UNL     1       6.678  -4.847  -5.250  1.00  0.00     0.274 C 
ENDROOT
BRANCH   1   2
ATOM      2  O   UNL     1       6.314  -5.476  -4.005  1.00  0.00    -0.458 OA
BRANCH   2   3
ATOM      3  C   UNL     1       5.468  -4.735  -3.243  1.00  0.00     0.366 C 
ATOM      4  O   UNL     1       5.140  -3.578  -3.489  1.00  0.00    -0.245 OA
BRANCH   3   5
ATOM      5  C   UNL     1       4.914  -5.488  -2.049  1.00  0.00     0.308 C 
ATOM      6  N   UNL     1       5.280  -6.218   0.237  1.00  0.00    -0.185 NA
ATOM      7  C   UNL     1       4.420  -7.419   0.058  1.00  0.00     0.164 C 
ATOM      8  C   UNL     1       5.974  -5.830  -1.018  1.00  0.00     0.180 C 
ATOM      9  C   UNL     1       3.581  -7.404  -1.245  1.00  0.00     0.278 C 
ATOM     10  N   UNL     1       4.081  -6.657  -2.412  1.00  0.00    -0.332 N 
ATOM     11  H   UNL     1       3.281  -6.328  -2.952  1.00  0.00     0.347 HD
ATOM     12  H   UNL     1       4.672  -7.294  -2.946  1.00  0.00     0.347 HD
BRANCH   6  13
ATOM     13  S   UNL     1       4.838  -4.986   1.325  1.00  0.00     0.253 S 
ATOM     14  O   UNL     1       5.971  -4.083   1.390  1.00  0.00    -0.206 OA
ATOM     15  O   UNL     1       4.316  -5.622   2.513  1.00  0.00    -0.206 OA
BRANCH  13  16
ATOM     16  C   UNL     1       3.469  -3.990   0.724  1.00  0.00     0.135 A 
ATOM     17  C   UNL     1       1.945  -2.050   0.438  1.00  0.00     0.055 A 
ATOM     18  C   UNL     1       1.503  -3.164  -0.236  1.00  0.00     0.023 A 
ATOM     19  S   UNL     1       3.438  -2.330   1.210  1.00  0.00    -0.121 S 
ATOM     20  C   UNL     1       2.357  -4.276  -0.045  1.00  0.00     0.034 A 
BRANCH  17  21
ATOM     21  C   UNL     1       1.108  -0.810   0.460  1.00  0.00     0.091 A 
ATOM     22  C   UNL     1      -2.275   0.455  -0.069  1.00  0.00     0.079 C 
ATOM     23  C   UNL     1      -0.824   0.251   0.200  1.00  0.00     0.090 A 
ATOM     24  N   UNL     1      -0.214  -0.901   0.053  1.00  0.00    -0.241 NA
ATOM     25  S   UNL     1       0.177   1.536   0.746  1.00  0.00    -0.127 S 
ATOM     26  C   UNL     1       1.505   0.444   0.865  1.00  0.00     0.096 A 
ENDBRANCH  17  21
ENDBRANCH  13  16
ENDBRANCH   6  13
ENDBRANCH   3   5
ENDBRANCH   2   3
ENDBRANCH   1   2
BRANCH   1  27
ATOM     27  C   UNL     1       5.809  -5.365  -6.396  1.00  0.00     0.275 C 
BRANCH  27  28
ATOM     28  O   UNL     1       4.411  -5.108  -6.164  1.00  0.00    -0.458 OA
BRANCH  28  29
ATOM     29  C   UNL     1       3.722  -6.148  -5.636  1.00  0.00     0.338 C 
ATOM     30  O   UNL     1       4.163  -7.250  -5.350  1.00  0.00    -0.246 OA
BRANCH  29  31
ATOM     31  C   UNL     1       2.313  -5.773  -5.438  1.00  0.00     0.060 A 
ATOM     32  C   UNL     1       1.915  -5.125  -4.267  1.00  0.00     0.016 A 
ATOM     33  C   UNL     1       1.363  -6.203  -6.363  1.00  0.00     0.016 A 
ATOM     34  C   UNL     1       0.560  -4.973  -3.979  1.00  0.00     0.010 A 
ATOM     35  C   UNL     1       0.007  -5.981  -6.106  1.00  0.00     0.010 A 
ATOM     36  C   UNL     1      -0.409  -5.390  -4.899  1.00  0.00    -0.014 A 
BRANCH  36  37
ATOM     37  C   UNL     1      -1.861  -5.235  -4.616  1.00  0.00     0.031 A 
ATOM     38  C   UNL     1      -2.742  -6.453  -4.545  1.00  0.00     0.074 A 
ATOM     39  C   UNL     1      -2.397  -4.008  -4.470  1.00  0.00     0.049 A 
ATOM     40  N   UNL     1      -4.046  -6.536  -4.575  1.00  0.00    -0.248 NA
ATOM     41  C   UNL     1      -2.060  -7.753  -4.438  1.00  0.00     0.031 C 
ATOM     42  C   UNL     1      -1.649  -2.750  -4.449  1.00  0.00     0.029 A 
ATOM     43  N   UNL     1      -3.707  -3.616  -4.339  1.00  0.00    -0.354 N 
ATOM     44  C   UNL     1      -4.342  -7.894  -4.539  1.00  0.00     0.074 A 
ATOM     45  C   UNL     1      -3.080  -8.600  -4.485  1.00  0.00     0.031 C 
ATOM     46  C   UNL     1      -2.508  -1.728  -4.323  1.00  0.00     0.029 A 
ATOM     47  C   UNL     1      -3.870  -2.250  -4.339  1.00  0.00     0.049 A 
ATOM     48  H   UNL     1      -4.456  -4.250  -4.253  1.00  0.00     0.167 HD
ATOM     49  C   UNL     1      -5.558  -8.492  -4.556  1.00  0.00     0.037 A 
ATOM     50  C   UNL     1      -4.987  -1.500  -4.410  1.00  0.00     0.037 A 
ATOM     51  C   UNL     1      -6.806  -7.772  -4.578  1.00  0.00     0.049 A 
ATOM     52  C   UNL     1      -6.324  -2.181  -4.500  1.00  0.00     0.074 A 
ATOM     53  C   UNL     1      -8.093  -8.281  -4.588  1.00  0.00     0.029 A 
ATOM     54  N   UNL     1      -6.923  -6.389  -4.585  1.00  0.00    -0.354 N 
ATOM     55  N   UNL     1      -6.593  -3.464  -4.510  1.00  0.00    -0.248 NA
ATOM     56  C   UNL     1      -7.508  -1.316  -4.603  1.00  0.00     0.031 C 
ATOM     57  C   UNL     1      -8.987  -7.207  -4.644  1.00  0.00     0.029 A 
ATOM     58  C   UNL     1      -8.259  -6.027  -4.617  1.00  0.00     0.049 A 
ATOM     59  H   UNL     1      -6.167  -5.759  -4.571  1.00  0.00     0.167 HD
ATOM     60  C   UNL     1      -7.978  -3.561  -4.591  1.00  0.00     0.074 A 
ATOM     61  C   UNL     1      -8.491  -2.207  -4.628  1.00  0.00     0.031 C 
ATOM     62  C   UNL     1      -8.752  -4.673  -4.627  1.00  0.00     0.037 A 
BRANCH  49  63
ATOM     63  C   UNL     1      -5.604  -9.995  -4.593  1.00  0.00     0.058 A 
ATOM     64  C   UNL     1      -5.281 -10.778  -3.475  1.00  0.00     0.135 A 
ATOM     65  C   UNL     1      -6.019 -10.660  -5.759  1.00  0.00     0.135 A 
ATOM     66  F   UNL     1      -4.864 -10.196  -2.339  1.00  0.00    -0.206 F 
ATOM     67  C   UNL     1      -5.342 -12.168  -3.518  1.00  0.00     0.059 A 
ATOM     68  C   UNL     1      -6.112 -12.048  -5.818  1.00  0.00     0.059 A 
ATOM     69  F   UNL     1      -6.342  -9.960  -6.858  1.00  0.00    -0.206 F 
ATOM     70  C   UNL     1      -5.756 -12.794  -4.696  1.00  0.00     0.060 A 
BRANCH  70  71
ATOM     71  S   UNL     1      -5.824 -14.598  -4.739  1.00  0.00     0.124 S 
ATOM     72  O   UNL     1      -4.406 -14.940  -4.794  1.00  0.00    -0.237 OA
ATOM     73  O   UNL     1      -6.505 -14.916  -3.488  1.00  0.00    -0.237 OA
ATOM     74  O   UNL     1      -6.584 -14.881  -5.953  1.00  0.00    -0.744 OA
ENDBRANCH  70  71
ENDBRANCH  49  63
BRANCH  50  75
ATOM     75  C   UNL     1      -4.876  -0.018  -4.446  1.00  0.00     0.058 A 
ATOM     76  C   UNL     1      -5.286   0.763  -3.357  1.00  0.00     0.135 A 
ATOM     77  C   UNL     1      -4.332   0.645  -5.559  1.00  0.00     0.135 A 
ATOM     78  F   UNL     1      -5.816   0.176  -2.272  1.00  0.00    -0.206 F 
ATOM     79  C   UNL     1      -5.170   2.148  -3.370  1.00  0.00     0.059 A 
ATOM     80  C   UNL     1      -4.179   2.027  -5.584  1.00  0.00     0.059 A 
ATOM     81  F   UNL     1      -3.911  -0.059  -6.622  1.00  0.00    -0.206 F 
ATOM     82  C   UNL     1      -4.610   2.771  -4.488  1.00  0.00     0.060 A 
BRANCH  82  83
ATOM     83  S   UNL     1      -4.407   4.565  -4.467  1.00  0.00     0.124 S 
ATOM     84  O   UNL     1      -5.779   5.017  -4.665  1.00  0.00    -0.237 OA
ATOM     85  O   UNL     1      -3.844   4.792  -3.139  1.00  0.00    -0.237 OA
ATOM     86  O   UNL     1      -3.492   4.812  -5.577  1.00  0.00    -0.744 OA
ENDBRANCH  82  83
ENDBRANCH  50  75
BRANCH  62  87
ATOM     87  C   UNL     1     -10.242  -4.486  -4.652  1.00  0.00     0.058 A 
ATOM     88  C   UNL     1     -10.920  -4.108  -5.820  1.00  0.00     0.135 A 
ATOM     89  C   UNL     1     -11.008  -4.788  -3.514  1.00  0.00     0.135 A 
ATOM     90  F   UNL     1     -10.232  -3.799  -6.931  1.00  0.00    -0.206 F 
ATOM     91  C   UNL     1     -12.309  -4.040  -5.861  1.00  0.00     0.059 A 
ATOM     92  C   UNL     1     -12.398  -4.747  -3.538  1.00  0.00     0.059 A 
ATOM     93  F   UNL     1     -10.405  -5.159  -2.373  1.00  0.00    -0.206 F 
ATOM     94  C   UNL     1     -13.040  -4.371  -4.717  1.00  0.00     0.060 A 
BRANCH  94  95
ATOM     95  S   UNL     1     -14.843  -4.358  -4.808  1.00  0.00     0.124 S 
ATOM     96  O   UNL     1     -15.127  -2.927  -4.815  1.00  0.00    -0.237 OA
ATOM     97  O   UNL     1     -15.098  -5.061  -6.061  1.00  0.00    -0.237 OA
ATOM     98  O   UNL     1     -15.249  -5.073  -3.602  1.00  0.00    -0.744 OA
ENDBRANCH  94  95
ENDBRANCH  62  87
ENDBRANCH  36  37
ENDBRANCH  29  31
ENDBRANCH  28  29
ENDBRANCH  27  28
ENDBRANCH   1  27
TORSDOF 17
