REMARK SMILES O=C(Cc1ccc(F)c(F)c1)NC1(C(=O)OCCOC(=O)c2ccc(-c3c4nc(c(-c5c(F)cc(S(=O)(=O)[O-])cc5F)c5ccc([nH]5)c(-c5c(F)cc(S(=O)(=O)[O-])cc5F)c5nc(c(-c6c(F)cc(S(=O)(=O)[O-])cc6F)c6ccc3[nH]6)C=C5)C=C4)cc2)CCCC1
REMARK SMILES IDX 17 1 16 2 14 3 15 4 13 5 88 6 91 7 89 8 90 9 12 10 1 11 2 12
REMARK SMILES IDX 3 14 4 15 5 16 11 17 6 18 9 19 7 20 10 21 8 22 18 23 19 24
REMARK SMILES IDX 20 25 21 26 22 27 23 28 87 29 24 30 86 31 25 32 26 33 27 34
REMARK SMILES IDX 80 35 28 36 85 37 79 38 81 39 29 40 84 41 78 42 77 43 30 45
REMARK SMILES IDX 64 46 43 47 63 48 44 49 47 50 62 51 82 52 45 53 46 54 61 56
REMARK SMILES IDX 83 57 48 58 31 59 32 60 41 61 33 62 34 63 40 64 42 65 35 66
REMARK SMILES IDX 36 67 37 68 38 69 39 70 65 71 66 72 75 73 67 74 68 75 74 76
REMARK SMILES IDX 76 77 69 78 70 79 71 80 72 81 73 82 49 83 50 84 59 85 51 86
REMARK SMILES IDX 52 87 58 88 60 89 53 90 54 91 55 92 56 93 57 94
REMARK H PARENT 12 13 81 44 47 55
REMARK Flexibility Score: inf
ROOT
ATOM      1  C   UNL     1       2.647  -1.896   5.147  1.00  0.00     0.274 C 
ENDROOT
BRANCH   1   2
ATOM      2  O   UNL     1       2.370  -2.330   3.801  1.00  0.00    -0.460 OA
BRANCH   2   3
ATOM      3  C   UNL     1       1.934  -1.371   2.938  1.00  0.00     0.331 C 
ATOM      4  O   UNL     1       1.752  -0.205   3.270  1.00  0.00    -0.249 OA
BRANCH   3   5
ATOM      5  C   UNL     1       1.656  -1.915   1.502  1.00  0.00     0.138 C 
ATOM      6  C   UNL     1       0.172  -2.272   1.370  1.00  0.00     0.040 C 
ATOM      7  C   UNL     1       2.339  -3.260   1.205  1.00  0.00     0.040 C 
ATOM      8  C   UNL     1       0.057  -3.655   1.994  1.00  0.00     0.003 C 
ATOM      9  C   UNL     1       1.384  -4.346   1.704  1.00  0.00     0.003 C 
BRANCH   5  10
ATOM     10  N   UNL     1       2.134  -0.903   0.538  1.00  0.00    -0.340 N 
ATOM     11  O   UNL     1       0.216   0.367   0.388  1.00  0.00    -0.275 OA
ATOM     12  C   UNL     1       1.423   0.239   0.211  1.00  0.00     0.225 C 
ATOM     13  H   UNL     1       3.006  -1.049   0.105  1.00  0.00     0.164 HD
BRANCH  12  14
ATOM     14  C   UNL     1       2.285   1.375  -0.331  1.00  0.00     0.135 C 
BRANCH  14  15
ATOM     15  C   UNL     1       2.652   2.358   0.761  1.00  0.00    -0.036 A 
ATOM     16  C   UNL     1       3.345   1.924   1.904  1.00  0.00     0.007 A 
ATOM     17  C   UNL     1       2.327   3.716   0.659  1.00  0.00     0.046 A 
ATOM     18  C   UNL     1       3.695   2.803   2.930  1.00  0.00     0.043 A 
ATOM     19  C   UNL     1       2.680   4.595   1.685  1.00  0.00     0.159 A 
ATOM     20  C   UNL     1       3.361   4.143   2.811  1.00  0.00     0.158 A 
ATOM     21  F   UNL     1       2.402   5.898   1.551  1.00  0.00    -0.204 F 
ATOM     22  F   UNL     1       3.751   5.000   3.764  1.00  0.00    -0.204 F 
ENDBRANCH  14  15
ENDBRANCH  12  14
ENDBRANCH   5  10
ENDBRANCH   3   5
ENDBRANCH   2   3
ENDBRANCH   1   2
BRANCH   1  23
ATOM     23  C   UNL     1       4.134  -2.034   5.476  1.00  0.00     0.275 C 
BRANCH  23  24
ATOM     24  O   UNL     1       4.939  -1.159   4.663  1.00  0.00    -0.458 OA
BRANCH  24  25
ATOM     25  C   UNL     1       5.466  -1.715   3.545  1.00  0.00     0.338 C 
ATOM     26  O   UNL     1       5.341  -2.872   3.174  1.00  0.00    -0.246 OA
BRANCH  25  27
ATOM     27  C   UNL     1       6.093  -0.664   2.717  1.00  0.00     0.060 A 
ATOM     28  C   UNL     1       5.800  -0.644   1.348  1.00  0.00     0.016 A 
ATOM     29  C   UNL     1       6.947   0.297   3.264  1.00  0.00     0.016 A 
ATOM     30  C   UNL     1       6.295   0.382   0.536  1.00  0.00     0.010 A 
ATOM     31  C   UNL     1       7.481   1.295   2.440  1.00  0.00     0.010 A 
ATOM     32  C   UNL     1       7.148   1.355   1.075  1.00  0.00    -0.014 A 
BRANCH  32  33
ATOM     33  C   UNL     1       7.815   2.355   0.198  1.00  0.00     0.031 A 
ATOM     34  C   UNL     1       9.060   1.959  -0.521  1.00  0.00     0.074 A 
ATOM     35  C   UNL     1       7.332   3.601   0.035  1.00  0.00     0.049 A 
ATOM     36  N   UNL     1       9.839   2.693  -1.265  1.00  0.00    -0.248 NA
ATOM     37  C   UNL     1       9.458   0.547  -0.421  1.00  0.00     0.031 C 
ATOM     38  C   UNL     1       6.051   4.047   0.545  1.00  0.00     0.029 A 
ATOM     39  N   UNL     1       7.835   4.717  -0.587  1.00  0.00    -0.354 N 
ATOM     40  C   UNL     1      10.804   1.830  -1.753  1.00  0.00     0.074 A 
ATOM     41  C   UNL     1      10.531   0.522  -1.197  1.00  0.00     0.031 C 
ATOM     42  C   UNL     1       5.878   5.351   0.281  1.00  0.00     0.029 A 
ATOM     43  C   UNL     1       7.062   5.846  -0.402  1.00  0.00     0.049 A 
ATOM     44  H   UNL     1       8.667   4.713  -1.113  1.00  0.00     0.167 HD
ATOM     45  C   UNL     1      11.824   2.112  -2.594  1.00  0.00     0.037 A 
ATOM     46  C   UNL     1       7.288   7.136  -0.719  1.00  0.00     0.037 A 
ATOM     47  C   UNL     1      12.129   3.432  -3.073  1.00  0.00     0.049 A 
ATOM     48  C   UNL     1       8.545   7.462  -1.476  1.00  0.00     0.074 A 
ATOM     49  C   UNL     1      13.196   3.836  -3.854  1.00  0.00     0.029 A 
ATOM     50  N   UNL     1      11.381   4.570  -2.796  1.00  0.00    -0.354 N 
ATOM     51  N   UNL     1       9.468   6.638  -1.913  1.00  0.00    -0.248 NA
ATOM     52  C   UNL     1       8.791   8.872  -1.804  1.00  0.00     0.031 C 
ATOM     53  C   UNL     1      13.126   5.225  -4.000  1.00  0.00     0.029 A 
ATOM     54  C   UNL     1      11.979   5.680  -3.368  1.00  0.00     0.049 A 
ATOM     55  H   UNL     1      10.548   4.584  -2.272  1.00  0.00     0.167 HD
ATOM     56  C   UNL     1      10.368   7.420  -2.623  1.00  0.00     0.074 A 
ATOM     57  C   UNL     1       9.891   8.786  -2.541  1.00  0.00     0.031 C 
ATOM     58  C   UNL     1      11.477   7.032  -3.298  1.00  0.00     0.037 A 
BRANCH  45  59
ATOM     59  C   UNL     1      12.710   0.965  -2.970  1.00  0.00     0.058 A 
ATOM     60  C   UNL     1      12.271  -0.048  -3.838  1.00  0.00     0.135 A 
ATOM     61  C   UNL     1      13.992   0.851  -2.414  1.00  0.00     0.135 A 
ATOM     62  F   UNL     1      11.037  -0.002  -4.364  1.00  0.00    -0.206 F 
ATOM     63  C   UNL     1      13.065  -1.153  -4.117  1.00  0.00     0.059 A 
ATOM     64  C   UNL     1      14.813  -0.233  -2.699  1.00  0.00     0.059 A 
ATOM     65  F   UNL     1      14.446   1.784  -1.563  1.00  0.00    -0.206 F 
ATOM     66  C   UNL     1      14.333  -1.239  -3.538  1.00  0.00     0.060 A 
BRANCH  66  67
ATOM     67  S   UNL     1      15.338  -2.697  -3.881  1.00  0.00     0.124 S 
ATOM     68  O   UNL     1      14.632  -3.722  -3.118  1.00  0.00    -0.237 OA
ATOM     69  O   UNL     1      15.241  -2.807  -5.332  1.00  0.00    -0.237 OA
ATOM     70  O   UNL     1      16.654  -2.330  -3.368  1.00  0.00    -0.744 OA
ENDBRANCH  66  67
ENDBRANCH  45  59
BRANCH  46  71
ATOM     71  C   UNL     1       6.326   8.207  -0.327  1.00  0.00     0.058 A 
ATOM     72  C   UNL     1       5.608   8.932  -1.290  1.00  0.00     0.135 A 
ATOM     73  C   UNL     1       6.131   8.556   1.021  1.00  0.00     0.135 A 
ATOM     74  F   UNL     1       5.759   8.647  -2.592  1.00  0.00    -0.206 F 
ATOM     75  C   UNL     1       4.764   9.984  -0.938  1.00  0.00     0.059 A 
ATOM     76  C   UNL     1       5.271   9.585   1.400  1.00  0.00     0.059 A 
ATOM     77  F   UNL     1       6.786   7.894   1.988  1.00  0.00    -0.206 F 
ATOM     78  C   UNL     1       4.606  10.307   0.411  1.00  0.00     0.060 A 
BRANCH  78  79
ATOM     79  S   UNL     1       3.526  11.689   0.847  1.00  0.00     0.124 S 
ATOM     80  O   UNL     1       4.282  12.826   0.336  1.00  0.00    -0.237 OA
ATOM     81  O   UNL     1       2.301  11.362   0.123  1.00  0.00    -0.237 OA
ATOM     82  O   UNL     1       3.432  11.601   2.301  1.00  0.00    -0.744 OA
ENDBRANCH  78  79
ENDBRANCH  46  71
BRANCH  58  83
ATOM     83  C   UNL     1      12.225   8.082  -4.067  1.00  0.00     0.058 A 
ATOM     84  C   UNL     1      13.017   9.048  -3.430  1.00  0.00     0.135 A 
ATOM     85  C   UNL     1      12.218   8.054  -5.471  1.00  0.00     0.135 A 
ATOM     86  F   UNL     1      13.045   9.124  -2.091  1.00  0.00    -0.206 F 
ATOM     87  C   UNL     1      13.779   9.952  -4.161  1.00  0.00     0.059 A 
ATOM     88  C   UNL     1      12.995   8.928  -6.221  1.00  0.00     0.059 A 
ATOM     89  F   UNL     1      11.477   7.146  -6.127  1.00  0.00    -0.206 F 
ATOM     90  C   UNL     1      13.773   9.875  -5.556  1.00  0.00     0.060 A 
BRANCH  90  91
ATOM     91  S   UNL     1      14.839  10.993  -6.488  1.00  0.00     0.124 S 
ATOM     92  O   UNL     1      14.141  12.264  -6.334  1.00  0.00    -0.237 OA
ATOM     93  O   UNL     1      16.109  10.876  -5.777  1.00  0.00    -0.237 OA
ATOM     94  O   UNL     1      14.829  10.429  -7.835  1.00  0.00    -0.744 OA
ENDBRANCH  90  91
ENDBRANCH  58  83
ENDBRANCH  32  33
ENDBRANCH  25  27
ENDBRANCH  24  25
ENDBRANCH  23  24
ENDBRANCH   1  23
TORSDOF 17
