REMARK SMILES Cc1ccc(S(=O)(=O)/C=C/C(=O)OCCOC(=O)c2ccc(-c3c4nc(c(-c5c(F)cc(S(=O)(=O)[O-])cc5F)c5ccc([nH]5)c(-c5c(F)cc(S(=O)(=O)[O-])cc5F)c5nc(c(-c6c(F)cc(S(=O)(=O)[O-])cc6F)c6ccc3[nH]6)C=C5)C=C4)cc2)cc1
REMARK SMILES IDX 15 1 14 2 13 3 11 4 12 5 10 6 9 7 6 8 7 9 8 10 5 11 1 12
REMARK SMILES IDX 2 13 3 14 86 15 4 16 85 17 16 18 17 19 18 20 19 21 20 22
REMARK SMILES IDX 84 23 21 24 83 25 22 26 23 27 24 28 77 29 25 30 82 31 76 32
REMARK SMILES IDX 78 33 26 34 81 35 75 36 74 37 27 39 61 40 40 41 60 42 41 43
REMARK SMILES IDX 44 44 59 45 79 46 42 47 43 48 58 50 80 51 45 52 28 53 29 54
REMARK SMILES IDX 38 55 30 56 31 57 37 58 39 59 32 60 33 61 34 62 35 63 36 64
REMARK SMILES IDX 62 65 63 66 72 67 64 68 65 69 71 70 73 71 66 72 67 73 68 74
REMARK SMILES IDX 69 75 70 76 46 77 47 78 56 79 48 80 49 81 55 82 57 83 50 84
REMARK SMILES IDX 51 85 52 86 53 87 54 88
REMARK H PARENT 78 38 44 49
REMARK Flexibility Score: inf
ROOT
ATOM      1  C   UNL     1      -5.428   6.672   2.272  1.00  0.00     0.275 C 
ENDROOT
BRANCH   1   2
ATOM      2  C   UNL     1      -5.627   6.874   0.764  1.00  0.00     0.275 C 
BRANCH   2   3
ATOM      3  O   UNL     1      -5.751   5.582   0.148  1.00  0.00    -0.459 OA
BRANCH   3   4
ATOM      4  C   UNL     1      -4.497   4.917  -0.167  1.00  0.00     0.331 C 
ATOM      5  O   UNL     1      -3.669   5.845  -0.358  1.00  0.00    -0.247 OA
BRANCH   4   6
ATOM      6  C   UNL     1      -4.256   2.794  -0.293  1.00  0.00     0.106 C 
ATOM      7  C   UNL     1      -4.300   1.579   0.396  1.00  0.00     0.118 C 
BRANCH   7   8
ATOM      8  S   UNL     1      -3.722   0.070  -0.310  1.00  0.00     0.200 S 
ATOM      9  O   UNL     1      -4.023   0.036  -1.729  1.00  0.00    -0.219 OA
ATOM     10  O   UNL     1      -4.214  -0.992   0.554  1.00  0.00    -0.219 OA
BRANCH   8  11
ATOM     11  C   UNL     1      -1.929  -0.004  -0.176  1.00  0.00     0.071 A 
ATOM     12  C   UNL     1       2.387  -0.287   0.035  1.00  0.00     0.044 C 
ATOM     13  C   UNL     1       0.889  -0.196  -0.012  1.00  0.00    -0.051 A 
ATOM     14  C   UNL     1       0.092  -1.348   0.009  1.00  0.00     0.005 A 
ATOM     15  C   UNL     1       0.263   1.046  -0.110  1.00  0.00     0.005 A 
ATOM     16  C   UNL     1      -1.309  -1.254  -0.065  1.00  0.00     0.021 A 
ATOM     17  C   UNL     1      -1.130   1.134  -0.202  1.00  0.00     0.021 A 
ENDBRANCH   8  11
ENDBRANCH   7   8
ENDBRANCH   4   6
ENDBRANCH   3   4
ENDBRANCH   2   3
ENDBRANCH   1   2
BRANCH   1  18
ATOM     18  O   UNL     1      -4.291   5.849   2.632  1.00  0.00    -0.458 OA
BRANCH  18  19
ATOM     19  C   UNL     1      -4.505   4.530   2.860  1.00  0.00     0.338 C 
ATOM     20  O   UNL     1      -4.822   3.996   3.905  1.00  0.00    -0.246 OA
BRANCH  19  21
ATOM     21  C   UNL     1      -4.379   3.815   1.587  1.00  0.00     0.060 A 
ATOM     22  C   UNL     1      -2.817   3.978   0.671  1.00  0.00     0.016 A 
ATOM     23  C   UNL     1      -5.946   3.555   0.703  1.00  0.00     0.016 A 
ATOM     24  C   UNL     1      -2.820   4.064  -1.157  1.00  0.00     0.010 A 
ATOM     25  C   UNL     1      -5.961   3.700  -1.107  1.00  0.00     0.010 A 
ATOM     26  C   UNL     1      -4.420   4.032  -2.021  1.00  0.00    -0.014 A 
BRANCH  26  27
ATOM     27  C   UNL     1      -4.652   4.515  -3.350  1.00  0.00     0.031 A 
ATOM     28  C   UNL     1      -5.379   3.603  -4.229  1.00  0.00     0.074 A 
ATOM     29  C   UNL     1      -4.485   5.839  -3.554  1.00  0.00     0.049 A 
ATOM     30  N   UNL     1      -5.564   3.819  -5.472  1.00  0.00    -0.248 NA
ATOM     31  C   UNL     1      -5.946   2.330  -3.788  1.00  0.00     0.031 C 
ATOM     32  C   UNL     1      -5.097   6.708  -4.549  1.00  0.00     0.029 A 
ATOM     33  N   UNL     1      -3.550   6.663  -2.946  1.00  0.00    -0.354 N 
ATOM     34  C   UNL     1      -6.577   2.983  -5.879  1.00  0.00     0.074 A 
ATOM     35  C   UNL     1      -6.697   1.998  -4.839  1.00  0.00     0.031 C 
ATOM     36  C   UNL     1      -4.365   7.833  -4.661  1.00  0.00     0.029 A 
ATOM     37  C   UNL     1      -3.178   7.675  -3.836  1.00  0.00     0.049 A 
ATOM     38  H   UNL     1      -3.202   6.553  -2.032  1.00  0.00     0.167 HD
ATOM     39  C   UNL     1      -7.291   3.369  -6.971  1.00  0.00     0.037 A 
ATOM     40  C   UNL     1      -1.895   7.662  -4.316  1.00  0.00     0.037 A 
ATOM     41  C   UNL     1      -6.667   4.567  -7.560  1.00  0.00     0.049 A 
ATOM     42  C   UNL     1      -1.810   7.131  -5.750  1.00  0.00     0.074 A 
ATOM     43  C   UNL     1      -6.927   5.928  -7.522  1.00  0.00     0.029 A 
ATOM     44  N   UNL     1      -5.344   4.466  -7.952  1.00  0.00    -0.354 N 
ATOM     45  N   UNL     1      -2.838   6.699  -6.437  1.00  0.00    -0.248 NA
ATOM     46  C   UNL     1      -0.575   7.027  -6.523  1.00  0.00     0.031 C 
ATOM     47  C   UNL     1      -5.729   6.622  -7.895  1.00  0.00     0.029 A 
ATOM     48  C   UNL     1      -4.748   5.687  -8.172  1.00  0.00     0.049 A 
ATOM     49  H   UNL     1      -4.876   3.607  -8.062  1.00  0.00     0.167 HD
ATOM     50  C   UNL     1      -2.449   6.231  -7.666  1.00  0.00     0.074 A 
ATOM     51  C   UNL     1      -1.007   6.437  -7.655  1.00  0.00     0.031 C 
ATOM     52  C   UNL     1      -3.340   5.703  -8.571  1.00  0.00     0.037 A 
BRANCH  39  53
ATOM     53  C   UNL     1      -8.652   2.831  -7.346  1.00  0.00     0.058 A 
ATOM     54  C   UNL     1      -9.506   3.613  -8.151  1.00  0.00     0.135 A 
ATOM     55  C   UNL     1      -9.201   1.594  -6.943  1.00  0.00     0.135 A 
ATOM     56  F   UNL     1      -9.116   4.793  -8.649  1.00  0.00    -0.206 F 
ATOM     57  C   UNL     1     -10.803   3.227  -8.485  1.00  0.00     0.059 A 
ATOM     58  C   UNL     1     -10.514   1.204  -7.227  1.00  0.00     0.059 A 
ATOM     59  F   UNL     1      -8.479   0.669  -6.302  1.00  0.00    -0.206 F 
ATOM     60  C   UNL     1     -11.306   2.026  -8.011  1.00  0.00     0.060 A 
BRANCH  60  61
ATOM     61  S   UNL     1     -12.975   1.546  -8.479  1.00  0.00     0.124 S 
ATOM     62  O   UNL     1     -13.761   2.690  -8.028  1.00  0.00    -0.237 OA
ATOM     63  O   UNL     1     -12.848   1.392  -9.924  1.00  0.00    -0.237 OA
ATOM     64  O   UNL     1     -13.197   0.309  -7.734  1.00  0.00    -0.744 OA
ENDBRANCH  60  61
ENDBRANCH  39  53
BRANCH  40  65
ATOM     65  C   UNL     1      -0.916   7.481  -3.188  1.00  0.00     0.058 A 
ATOM     66  C   UNL     1      -0.930   8.470  -2.173  1.00  0.00     0.135 A 
ATOM     67  C   UNL     1      -0.367   6.240  -2.841  1.00  0.00     0.135 A 
ATOM     68  F   UNL     1      -1.401   9.698  -2.448  1.00  0.00    -0.206 F 
ATOM     69  C   UNL     1      -0.609   8.186  -0.846  1.00  0.00     0.059 A 
ATOM     70  C   UNL     1       0.013   5.950  -1.519  1.00  0.00     0.059 A 
ATOM     71  F   UNL     1      -0.330   5.242  -3.736  1.00  0.00    -0.206 F 
ATOM     72  C   UNL     1      -0.178   6.906  -0.518  1.00  0.00     0.060 A 
BRANCH  72  73
ATOM     73  S   UNL     1      -0.001   6.480   1.235  1.00  0.00     0.124 S 
ATOM     74  O   UNL     1       1.151   7.283   1.628  1.00  0.00    -0.237 OA
ATOM     75  O   UNL     1      -1.280   6.897   1.798  1.00  0.00    -0.237 OA
ATOM     76  O   UNL     1       0.228   5.036   1.211  1.00  0.00    -0.744 OA
ENDBRANCH  72  73
ENDBRANCH  40  65
BRANCH  52  77
ATOM     77  C   UNL     1      -2.975   5.098  -9.923  1.00  0.00     0.058 A 
ATOM     78  C   UNL     1      -1.926   5.574 -10.721  1.00  0.00     0.135 A 
ATOM     79  C   UNL     1      -3.736   4.053 -10.518  1.00  0.00     0.135 A 
ATOM     80  F   UNL     1      -1.242   6.676 -10.380  1.00  0.00    -0.206 F 
ATOM     81  C   UNL     1      -1.573   4.972 -11.934  1.00  0.00     0.059 A 
ATOM     82  C   UNL     1      -3.442   3.480 -11.747  1.00  0.00     0.059 A 
ATOM     83  F   UNL     1      -4.812   3.507  -9.942  1.00  0.00    -0.206 F 
ATOM     84  C   UNL     1      -2.332   3.917 -12.433  1.00  0.00     0.060 A 
BRANCH  84  85
ATOM     85  S   UNL     1      -1.899   3.158 -14.002  1.00  0.00     0.124 S 
ATOM     86  O   UNL     1      -1.711   4.322 -14.862  1.00  0.00    -0.237 OA
ATOM     87  O   UNL     1      -0.686   2.427 -13.648  1.00  0.00    -0.237 OA
ATOM     88  O   UNL     1      -3.059   2.332 -14.319  1.00  0.00    -0.744 OA
ENDBRANCH  84  85
ENDBRANCH  52  77
ENDBRANCH  26  27
ENDBRANCH  19  21
ENDBRANCH  18  19
ENDBRANCH   1  18
TORSDOF 16
