REMARK SMILES O=C(OCCOC(=O)c1ccccc1Nc1cccc(C(F)(F)F)c1)c1ccc(-c2c3nc(c(-c4c(F)cc(S(=O)(=O)[O-])cc4F)c4ccc([nH]4)c(-c4c(F)cc(S(=O)(=O)[O-])cc4F)c4nc(c(-c5c(F)cc(S(=O)(=O)[O-])cc5F)c5ccc2[nH]5)C=C4)C=C3)cc1
REMARK SMILES IDX 4 1 3 2 2 3 1 4 26 5 27 6 91 7 28 8 90 9 29 10 30 11 31 12
REMARK SMILES IDX 84 13 32 14 89 15 83 16 85 17 33 18 88 19 82 20 81 21 34 23
REMARK SMILES IDX 68 24 47 25 67 26 48 27 51 28 66 29 86 30 49 31 50 32 65 34
REMARK SMILES IDX 87 35 52 36 35 37 36 38 45 39 37 40 38 41 44 42 46 43 39 44
REMARK SMILES IDX 40 45 41 46 42 47 43 48 69 49 70 50 79 51 71 52 72 53 78 54
REMARK SMILES IDX 80 55 73 56 74 57 75 58 76 59 77 60 53 61 54 62 63 63 55 64
REMARK SMILES IDX 56 65 62 66 64 67 57 68 58 69 59 70 60 71 61 72 5 73 6 74
REMARK SMILES IDX 7 75 8 76 9 77 10 78 14 79 11 80 13 81 12 82 15 83 16 85
REMARK SMILES IDX 17 86 25 87 18 88 20 89 19 90 21 91 22 92 23 93 24 94
REMARK H PARENT 85 22 51 33 15 84
REMARK Flexibility Score: inf
ROOT
ATOM      1  C   UNL     1       4.167   0.794  -1.351  1.00  0.00     0.275 C 
ENDROOT
BRANCH   1   2
ATOM      2  O   UNL     1       3.041  -0.080  -1.161  1.00  0.00    -0.458 OA
BRANCH   2   3
ATOM      3  C   UNL     1       2.796  -1.034  -0.232  1.00  0.00     0.338 C 
ATOM      4  O   UNL     1       1.777  -1.713  -0.379  1.00  0.00    -0.246 OA
BRANCH   3   5
ATOM      5  C   UNL     1       3.613  -1.282   1.011  1.00  0.00     0.060 A 
ATOM      6  C   UNL     1       4.873  -0.758   1.310  1.00  0.00     0.016 A 
ATOM      7  C   UNL     1       3.026  -2.120   1.984  1.00  0.00     0.016 A 
ATOM      8  C   UNL     1       5.522  -1.057   2.520  1.00  0.00     0.010 A 
ATOM      9  C   UNL     1       3.660  -2.406   3.202  1.00  0.00     0.010 A 
ATOM     10  C   UNL     1       4.930  -1.891   3.472  1.00  0.00    -0.014 A 
BRANCH  10  11
ATOM     11  C   UNL     1       5.701  -2.298   4.677  1.00  0.00     0.031 A 
ATOM     12  C   UNL     1       6.296  -3.668   4.734  1.00  0.00     0.074 A 
ATOM     13  C   UNL     1       5.832  -1.486   5.745  1.00  0.00     0.049 A 
ATOM     14  N   UNL     1       7.037  -4.190   5.673  1.00  0.00    -0.248 NA
ATOM     15  C   UNL     1       5.965  -4.588   3.634  1.00  0.00     0.031 C 
ATOM     16  C   UNL     1       5.068  -0.262   5.924  1.00  0.00     0.029 A 
ATOM     17  N   UNL     1       6.573  -1.585   6.904  1.00  0.00    -0.354 N 
ATOM     18  C   UNL     1       7.275  -5.493   5.276  1.00  0.00     0.074 A 
ATOM     19  C   UNL     1       6.534  -5.709   4.051  1.00  0.00     0.031 C 
ATOM     20  C   UNL     1       5.365   0.255   7.128  1.00  0.00     0.029 A 
ATOM     21  C   UNL     1       6.409  -0.519   7.769  1.00  0.00     0.049 A 
ATOM     22  H   UNL     1       7.166  -2.346   7.097  1.00  0.00     0.167 HD
ATOM     23  C   UNL     1       8.068  -6.414   5.867  1.00  0.00     0.037 A 
ATOM     24  C   UNL     1       7.033  -0.201   8.927  1.00  0.00     0.037 A 
ATOM     25  C   UNL     1       8.758  -6.210   7.112  1.00  0.00     0.049 A 
ATOM     26  C   UNL     1       7.997  -1.194   9.481  1.00  0.00     0.074 A 
ATOM     27  C   UNL     1       9.605  -7.077   7.779  1.00  0.00     0.029 A 
ATOM     28  N   UNL     1       8.669  -5.063   7.888  1.00  0.00    -0.354 N 
ATOM     29  N   UNL     1       8.273  -2.393   9.038  1.00  0.00    -0.248 NA
ATOM     30  C   UNL     1       8.708  -0.807  10.708  1.00  0.00     0.031 C 
ATOM     31  C   UNL     1      10.008  -6.465   8.971  1.00  0.00     0.029 A 
ATOM     32  C   UNL     1       9.454  -5.198   9.021  1.00  0.00     0.049 A 
ATOM     33  H   UNL     1       8.129  -4.270   7.665  1.00  0.00     0.167 HD
ATOM     34  C   UNL     1       9.145  -2.929   9.966  1.00  0.00     0.074 A 
ATOM     35  C   UNL     1       9.415  -1.898  10.948  1.00  0.00     0.031 C 
ATOM     36  C   UNL     1       9.649  -4.181  10.018  1.00  0.00     0.037 A 
BRANCH  23  37
ATOM     37  C   UNL     1       8.243  -7.706   5.131  1.00  0.00     0.058 A 
ATOM     38  C   UNL     1       8.960  -7.749   3.924  1.00  0.00     0.135 A 
ATOM     39  C   UNL     1       7.687  -8.898   5.614  1.00  0.00     0.135 A 
ATOM     40  F   UNL     1       9.485  -6.626   3.406  1.00  0.00    -0.206 F 
ATOM     41  C   UNL     1       9.097  -8.927   3.204  1.00  0.00     0.059 A 
ATOM     42  C   UNL     1       7.836 -10.096   4.923  1.00  0.00     0.059 A 
ATOM     43  F   UNL     1       6.981  -8.904   6.755  1.00  0.00    -0.206 F 
ATOM     44  C   UNL     1       8.532 -10.097   3.714  1.00  0.00     0.060 A 
BRANCH  44  45
ATOM     45  S   UNL     1       8.732 -11.619   2.769  1.00  0.00     0.124 S 
ATOM     46  O   UNL     1       7.852 -11.372   1.631  1.00  0.00    -0.237 OA
ATOM     47  O   UNL     1      10.162 -11.616   2.478  1.00  0.00    -0.237 OA
ATOM     48  O   UNL     1       8.285 -12.654   3.696  1.00  0.00    -0.744 OA
ENDBRANCH  44  45
ENDBRANCH  23  37
BRANCH  24  49
ATOM     49  C   UNL     1       6.875   1.092   9.663  1.00  0.00     0.058 A 
ATOM     50  C   UNL     1       7.855   2.097   9.523  1.00  0.00     0.135 A 
ATOM     51  C   UNL     1       5.814   1.350  10.546  1.00  0.00     0.135 A 
ATOM     52  F   UNL     1       8.929   1.882   8.747  1.00  0.00    -0.206 F 
ATOM     53  C   UNL     1       7.751   3.331  10.167  1.00  0.00     0.059 A 
ATOM     54  C   UNL     1       5.678   2.590  11.191  1.00  0.00     0.059 A 
ATOM     55  F   UNL     1       4.848   0.434  10.716  1.00  0.00    -0.206 F 
ATOM     56  C   UNL     1       6.638   3.586  10.971  1.00  0.00     0.060 A 
BRANCH  56  57
ATOM     57  S   UNL     1       6.335   5.290  11.519  1.00  0.00     0.124 S 
ATOM     58  O   UNL     1       7.025   5.321  12.802  1.00  0.00    -0.237 OA
ATOM     59  O   UNL     1       6.944   6.080  10.449  1.00  0.00    -0.237 OA
ATOM     60  O   UNL     1       4.879   5.367  11.581  1.00  0.00    -0.744 OA
ENDBRANCH  56  57
ENDBRANCH  24  49
BRANCH  36  61
ATOM     61  C   UNL     1      10.514  -4.469  11.200  1.00  0.00     0.058 A 
ATOM     62  C   UNL     1       9.971  -4.597  12.489  1.00  0.00     0.135 A 
ATOM     63  C   UNL     1      11.905  -4.532  11.050  1.00  0.00     0.135 A 
ATOM     64  F   UNL     1       8.644  -4.502  12.678  1.00  0.00    -0.206 F 
ATOM     65  C   UNL     1      10.788  -4.743  13.601  1.00  0.00     0.059 A 
ATOM     66  C   UNL     1      12.738  -4.708  12.145  1.00  0.00     0.059 A 
ATOM     67  F   UNL     1      12.463  -4.395   9.837  1.00  0.00    -0.206 F 
ATOM     68  C   UNL     1      12.171  -4.795  13.416  1.00  0.00     0.060 A 
BRANCH  68  69
ATOM     69  S   UNL     1      13.225  -4.985  14.865  1.00  0.00     0.124 S 
ATOM     70  O   UNL     1      13.147  -3.656  15.462  1.00  0.00    -0.237 OA
ATOM     71  O   UNL     1      12.553  -6.053  15.600  1.00  0.00    -0.237 OA
ATOM     72  O   UNL     1      14.520  -5.344  14.295  1.00  0.00    -0.744 OA
ENDBRANCH  68  69
ENDBRANCH  36  61
ENDBRANCH  10  11
ENDBRANCH   3   5
ENDBRANCH   2   3
ENDBRANCH   1   2
BRANCH   1  73
ATOM     73  C   UNL     1       4.084   2.106  -0.565  1.00  0.00     0.275 C 
BRANCH  73  74
ATOM     74  O   UNL     1       3.563   1.929   0.757  1.00  0.00    -0.458 OA
BRANCH  74  75
ATOM     75  C   UNL     1       2.207   2.015   0.847  1.00  0.00     0.340 C 
ATOM     76  O   UNL     1       1.438   2.329  -0.036  1.00  0.00    -0.246 OA
BRANCH  75  77
ATOM     77  C   UNL     1       1.786   1.542   2.180  1.00  0.00     0.083 A 
ATOM     78  C   UNL     1       0.808   0.527   2.190  1.00  0.00     0.018 A 
ATOM     79  C   UNL     1       2.302   2.089   3.368  1.00  0.00     0.053 A 
ATOM     80  C   UNL     1       0.350   0.001   3.392  1.00  0.00     0.001 A 
ATOM     81  C   UNL     1       1.671   1.651   4.546  1.00  0.00     0.027 A 
ATOM     82  C   UNL     1       0.769   0.580   4.574  1.00  0.00     0.002 A 
BRANCH  79  83
ATOM     83  N   UNL     1       3.369   3.029   3.340  1.00  0.00    -0.355 N 
ATOM     84  H   UNL     1       3.595   3.334   2.432  1.00  0.00     0.167 HD
BRANCH  83  85
ATOM     85  C   UNL     1       4.169   3.613   4.338  1.00  0.00     0.039 A 
ATOM     86  C   UNL     1       5.037   4.678   4.064  1.00  0.00     0.026 A 
ATOM     87  C   UNL     1       4.078   3.228   5.659  1.00  0.00     0.039 A 
ATOM     88  C   UNL     1       5.747   5.325   5.093  1.00  0.00     0.003 A 
ATOM     89  C   UNL     1       4.616   3.972   6.702  1.00  0.00     0.058 A 
ATOM     90  C   UNL     1       5.514   4.991   6.421  1.00  0.00     0.013 A 
BRANCH  89  91
ATOM     91  C   UNL     1       4.297   3.551   8.094  1.00  0.00     0.416 C 
ATOM     92  F   UNL     1       5.366   2.907   8.576  1.00  0.00    -0.166 F 
ATOM     93  F   UNL     1       3.994   4.556   8.935  1.00  0.00    -0.166 F 
ATOM     94  F   UNL     1       3.259   2.666   8.171  1.00  0.00    -0.166 F 
ENDBRANCH  89  91
ENDBRANCH  83  85
ENDBRANCH  79  83
ENDBRANCH  75  77
ENDBRANCH  74  75
ENDBRANCH  73  74
ENDBRANCH   1  73
TORSDOF 17
