REMARK SMILES Cc1cccc(O[C@H](C)C(=O)NNC(=O)[C@H]2[C@@H]3CC[C@@H](C3)[C@@H]2C(=O)OCCOC(=O)c2ccc(-c3c4nc(c(-c5c(F)cc(S(=O)(=O)[O-])cc5F)c5ccc([nH]5)c(-c5c(F)cc(S(=O)(=O)[O-])cc5F)c5nc(c(-c6c(F)cc(S(=O)(=O)[O-])cc6F)c6ccc3[nH]6)C=C5)C=C4)cc2)c1
REMARK SMILES IDX 26 1 25 2 23 3 24 4 22 5 16 6 17 7 18 8 21 9 20 10 19 11
REMARK SMILES IDX 14 12 13 13 15 15 12 16 10 17 11 18 8 20 9 21 7 22 6 23 1 24
REMARK SMILES IDX 2 25 3 26 97 27 4 28 5 29 27 30 28 31 29 32 30 33 31 34
REMARK SMILES IDX 32 35 96 36 33 37 95 38 34 39 35 40 36 41 89 42 37 43 94 44
REMARK SMILES IDX 88 45 90 46 38 47 93 48 87 49 86 50 39 52 73 53 52 54 72 55
REMARK SMILES IDX 53 56 56 57 71 58 91 59 54 60 55 61 70 63 92 64 57 65 40 66
REMARK SMILES IDX 41 67 50 68 42 69 43 70 49 71 51 72 44 73 45 74 46 75 47 76
REMARK SMILES IDX 48 77 74 78 75 79 84 80 76 81 77 82 83 83 85 84 78 85 79 86
REMARK SMILES IDX 80 87 81 88 82 89 58 90 59 91 68 92 60 93 61 94 67 95 69 96
REMARK SMILES IDX 62 97 63 98 64 99 65 100 66 101
REMARK H PARENT 13 14 12 19 90 51 56 62
REMARK Flexibility Score: inf
ROOT
ATOM      1  C   UNL     1       5.964   3.272  -1.110  1.00  0.00     0.274 C 
ENDROOT
BRANCH   1   2
ATOM      2  O   UNL     1       4.686   2.645  -1.312  1.00  0.00    -0.462 OA
BRANCH   2   3
ATOM      3  C   UNL     1       4.672   1.826  -2.427  1.00  0.00     0.310 C 
ATOM      4  O   UNL     1       5.655   1.571  -3.076  1.00  0.00    -0.252 OA
BRANCH   3   5
ATOM      5  C   UNL     1       3.270   1.434  -2.868  1.00  0.00     0.115 C 
ATOM      6  C   UNL     1       2.743   0.114  -2.307  1.00  0.00     0.098 C 
ATOM      7  C   UNL     1       2.139  -0.588  -3.554  1.00  0.00     0.003 C 
ATOM      8  C   UNL     1       3.287  -1.097  -4.451  1.00  0.00     0.005 C 
ATOM      9  C   UNL     1       1.629   0.578  -4.396  1.00  0.00     0.009 C 
ATOM     10  C   UNL     1       2.992   1.282  -4.401  1.00  0.00     0.004 C 
ATOM     11  C   UNL     1       3.827   0.193  -5.078  1.00  0.00     0.005 C 
BRANCH   6  12
ATOM     12  C   UNL     1       1.736   0.225  -1.158  1.00  0.00     0.242 C 
ATOM     13  N   UNL     1       1.346   1.478  -0.724  1.00  0.00    -0.267 N 
ATOM     14  H   UNL     1       1.638   1.806   0.157  1.00  0.00     0.191 HD
ATOM     15  O   UNL     1       1.277  -0.783  -0.615  1.00  0.00    -0.273 OA
BRANCH  13  16
ATOM     16  N   UNL     1       0.539   2.281  -1.533  1.00  0.00    -0.264 N 
ATOM     17  C   UNL     1      -0.381   3.215  -1.191  1.00  0.00     0.279 C 
ATOM     18  O   UNL     1      -0.704   3.986  -2.112  1.00  0.00    -0.269 OA
ATOM     19  H   UNL     1       0.658   2.148  -2.501  1.00  0.00     0.191 HD
BRANCH  17  20
ATOM     20  C   UNL     1      -1.124   3.321   0.161  1.00  0.00     0.260 C 
ATOM     21  C   UNL     1      -2.529   2.716   0.042  1.00  0.00     0.064 C 
BRANCH  20  22
ATOM     22  O   UNL     1      -0.558   3.268   1.449  1.00  0.00    -0.481 OA
BRANCH  22  23
ATOM     23  C   UNL     1      -0.122   2.141   2.061  1.00  0.00     0.120 A 
ATOM     24  C   UNL     1       2.415   1.594   4.856  1.00  0.00     0.044 C 
ATOM     25  C   UNL     1       1.404   1.330   3.782  1.00  0.00    -0.047 A 
ATOM     26  C   UNL     1       1.119   0.018   3.400  1.00  0.00     0.003 A 
ATOM     27  C   UNL     1       0.772   2.383   3.110  1.00  0.00     0.049 A 
ATOM     28  C   UNL     1       0.210  -0.230   2.374  1.00  0.00     0.004 A 
ATOM     29  C   UNL     1      -0.417   0.827   1.713  1.00  0.00     0.046 A 
ENDBRANCH  22  23
ENDBRANCH  20  22
ENDBRANCH  17  20
ENDBRANCH  13  16
ENDBRANCH   6  12
ENDBRANCH   3   5
ENDBRANCH   2   3
ENDBRANCH   1   2
BRANCH   1  30
ATOM     30  C   UNL     1       6.095   4.335  -0.006  1.00  0.00     0.275 C 
BRANCH  30  31
ATOM     31  O   UNL     1       4.905   4.756   0.708  1.00  0.00    -0.458 OA
BRANCH  31  32
ATOM     32  C   UNL     1       3.832   5.415   0.199  1.00  0.00     0.338 C 
ATOM     33  O   UNL     1       2.821   5.641   0.850  1.00  0.00    -0.246 OA
BRANCH  32  34
ATOM     34  C   UNL     1       3.880   5.722  -1.236  1.00  0.00     0.060 A 
ATOM     35  C   UNL     1       3.054   4.954  -2.042  1.00  0.00     0.016 A 
ATOM     36  C   UNL     1       4.913   6.476  -1.783  1.00  0.00     0.016 A 
ATOM     37  C   UNL     1       3.497   4.651  -3.317  1.00  0.00     0.010 A 
ATOM     38  C   UNL     1       5.356   6.148  -3.057  1.00  0.00     0.010 A 
ATOM     39  C   UNL     1       4.742   5.104  -3.755  1.00  0.00    -0.014 A 
BRANCH  39  40
ATOM     40  C   UNL     1       5.378   4.635  -4.986  1.00  0.00     0.031 A 
ATOM     41  C   UNL     1       4.627   4.828  -6.257  1.00  0.00     0.074 A 
ATOM     42  C   UNL     1       6.636   4.115  -5.053  1.00  0.00     0.049 A 
ATOM     43  N   UNL     1       5.025   4.439  -7.423  1.00  0.00    -0.248 NA
ATOM     44  C   UNL     1       3.270   5.397  -6.298  1.00  0.00     0.031 C 
ATOM     45  C   UNL     1       7.563   4.383  -6.144  1.00  0.00     0.029 A 
ATOM     46  N   UNL     1       7.353   3.208  -4.272  1.00  0.00    -0.354 N 
ATOM     47  C   UNL     1       4.243   5.119  -8.328  1.00  0.00     0.074 A 
ATOM     48  C   UNL     1       3.043   5.416  -7.610  1.00  0.00     0.031 C 
ATOM     49  C   UNL     1       8.607   3.547  -6.066  1.00  0.00     0.029 A 
ATOM     50  C   UNL     1       8.323   2.556  -5.044  1.00  0.00     0.049 A 
ATOM     51  H   UNL     1       7.199   3.049  -3.313  1.00  0.00     0.167 HD
ATOM     52  C   UNL     1       4.837   5.622  -9.449  1.00  0.00     0.037 A 
ATOM     53  C   UNL     1       8.477   1.197  -5.193  1.00  0.00     0.037 A 
ATOM     54  C   UNL     1       6.136   4.975  -9.665  1.00  0.00     0.049 A 
ATOM     55  C   UNL     1       8.350   0.771  -6.654  1.00  0.00     0.074 A 
ATOM     56  C   UNL     1       7.463   5.351  -9.529  1.00  0.00     0.029 A 
ATOM     57  N   UNL     1       6.156   3.597  -9.799  1.00  0.00    -0.354 N 
ATOM     58  N   UNL     1       8.090   1.612  -7.619  1.00  0.00    -0.248 NA
ATOM     59  C   UNL     1       8.428  -0.599  -7.160  1.00  0.00     0.031 C 
ATOM     60  C   UNL     1       8.271   4.174  -9.599  1.00  0.00     0.029 A 
ATOM     61  C   UNL     1       7.438   3.089  -9.802  1.00  0.00     0.049 A 
ATOM     62  H   UNL     1       5.346   3.043  -9.882  1.00  0.00     0.167 HD
ATOM     63  C   UNL     1       7.927   0.963  -8.808  1.00  0.00     0.074 A 
ATOM     64  C   UNL     1       8.130  -0.433  -8.464  1.00  0.00     0.031 C 
ATOM     65  C   UNL     1       7.609   1.647  -9.951  1.00  0.00     0.037 A 
BRANCH  52  66
ATOM     66  C   UNL     1       4.374   6.892 -10.162  1.00  0.00     0.058 A 
ATOM     67  C   UNL     1       5.248   7.559 -11.050  1.00  0.00     0.135 A 
ATOM     68  C   UNL     1       3.147   7.569  -9.963  1.00  0.00     0.135 A 
ATOM     69  F   UNL     1       6.432   7.034 -11.392  1.00  0.00    -0.206 F 
ATOM     70  C   UNL     1       4.961   8.803 -11.624  1.00  0.00     0.059 A 
ATOM     71  C   UNL     1       2.844   8.817 -10.512  1.00  0.00     0.059 A 
ATOM     72  F   UNL     1       2.145   7.065  -9.242  1.00  0.00    -0.206 F 
ATOM     73  C   UNL     1       3.761   9.435 -11.337  1.00  0.00     0.060 A 
BRANCH  73  74
ATOM     74  S   UNL     1       3.403  11.041 -12.063  1.00  0.00     0.124 S 
ATOM     75  O   UNL     1       4.496  11.859 -11.546  1.00  0.00    -0.237 OA
ATOM     76  O   UNL     1       3.447  10.745 -13.491  1.00  0.00    -0.237 OA
ATOM     77  O   UNL     1       2.081  11.369 -11.536  1.00  0.00    -0.744 OA
ENDBRANCH  73  74
ENDBRANCH  52  66
BRANCH  53  78
ATOM     78  C   UNL     1       8.274   0.329  -3.986  1.00  0.00     0.058 A 
ATOM     79  C   UNL     1       9.009   0.644  -2.828  1.00  0.00     0.135 A 
ATOM     80  C   UNL     1       7.246  -0.609  -3.818  1.00  0.00     0.135 A 
ATOM     81  F   UNL     1      10.117   1.399  -2.921  1.00  0.00    -0.206 F 
ATOM     82  C   UNL     1       8.584   0.289  -1.549  1.00  0.00     0.059 A 
ATOM     83  C   UNL     1       6.779  -0.965  -2.537  1.00  0.00     0.059 A 
ATOM     84  F   UNL     1       6.598  -1.104  -4.883  1.00  0.00    -0.206 F 
ATOM     85  C   UNL     1       7.399  -0.422  -1.409  1.00  0.00     0.060 A 
BRANCH  85  86
ATOM     86  S   UNL     1       6.516  -0.323   0.183  1.00  0.00     0.124 S 
ATOM     87  O   UNL     1       6.815  -1.614   0.786  1.00  0.00    -0.237 OA
ATOM     88  O   UNL     1       7.136   0.836   0.827  1.00  0.00    -0.237 OA
ATOM     89  O   UNL     1       5.130  -0.113  -0.220  1.00  0.00    -0.744 OA
ENDBRANCH  85  86
ENDBRANCH  53  78
BRANCH  65  90
ATOM     90  C   UNL     1       7.376   1.023 -11.310  1.00  0.00     0.058 A 
ATOM     91  C   UNL     1       8.085  -0.092 -11.779  1.00  0.00     0.135 A 
ATOM     92  C   UNL     1       6.476   1.599 -12.244  1.00  0.00     0.135 A 
ATOM     93  F   UNL     1       9.071  -0.641 -11.053  1.00  0.00    -0.206 F 
ATOM     94  C   UNL     1       7.837  -0.663 -13.031  1.00  0.00     0.059 A 
ATOM     95  C   UNL     1       6.251   1.081 -13.513  1.00  0.00     0.059 A 
ATOM     96  F   UNL     1       5.750   2.689 -11.965  1.00  0.00    -0.206 F 
ATOM     97  C   UNL     1       6.908  -0.075 -13.886  1.00  0.00     0.060 A 
BRANCH  97  98
ATOM     98  S   UNL     1       6.585  -0.810 -15.495  1.00  0.00     0.124 S 
ATOM     99  O   UNL     1       7.932  -1.083 -15.987  1.00  0.00    -0.237 OA
ATOM    100  O   UNL     1       5.795  -1.980 -15.126  1.00  0.00    -0.237 OA
ATOM    101  O   UNL     1       5.862   0.235 -16.212  1.00  0.00    -0.744 OA
ENDBRANCH  97  98
ENDBRANCH  65  90
ENDBRANCH  39  40
ENDBRANCH  32  34
ENDBRANCH  31  32
ENDBRANCH  30  31
ENDBRANCH   1  30
TORSDOF 19
