REMARK SMILES COc1ccc(N2/C(=[NH+]/C(=O)CCCC(=O)OCCOC(=O)c3ccc(-c4c5nc(c(-c6c(F)cc(S(=O)(=O)[O-])cc6F)c6ccc([nH]6)c(-c6c(F)cc(S(=O)(=O)[O-])cc6F)c6nc(c(-c7c(F)cc(S(=O)(=O)[O-])cc7F)c7ccc4[nH]7)C=C6)C=C5)cc3)S[C@@H]3CS(=O)(=O)C[C@H]32)cc1Cl
REMARK SMILES IDX 18 1 17 2 15 3 16 4 14 5 13 6 12 7 10 8 7 9 8 10 96 11 9 12
REMARK SMILES IDX 89 13 90 14 95 15 91 17 92 18 11 19 93 20 94 21 6 22 3 23
REMARK SMILES IDX 4 24 98 25 5 26 97 27 99 28 2 29 1 30 19 31 20 32 21 33
REMARK SMILES IDX 22 34 23 35 24 36 88 37 25 38 87 39 26 40 27 41 28 42 81 43
REMARK SMILES IDX 29 44 86 45 80 46 82 47 30 48 85 49 79 50 78 51 31 53 65 54
REMARK SMILES IDX 44 55 64 56 45 57 48 58 63 59 83 60 46 61 47 62 62 64 84 65
REMARK SMILES IDX 49 66 32 67 33 68 42 69 34 70 35 71 41 72 43 73 36 74 37 75
REMARK SMILES IDX 38 76 39 77 40 78 66 79 67 80 76 81 68 82 69 83 75 84 77 85
REMARK SMILES IDX 70 86 71 87 72 88 73 89 74 90 50 91 51 92 60 93 52 94 53 95
REMARK SMILES IDX 59 96 61 97 54 98 55 99 56 100 57 101 58 102
REMARK H PARENT 9 16 82 52 48 63
REMARK Flexibility Score: inf
ROOT
ATOM      1  C   UNL     1       3.701   5.241   3.227  1.00  0.00     0.274 C 
ENDROOT
BRANCH   1   2
ATOM      2  O   UNL     1       4.362   4.432   4.217  1.00  0.00    -0.462 OA
BRANCH   2   3
ATOM      3  C   UNL     1       4.675   3.167   3.853  1.00  0.00     0.305 C 
ATOM      4  O   UNL     1       4.407   2.676   2.764  1.00  0.00    -0.252 OA
BRANCH   3   5
ATOM      5  C   UNL     1       5.373   2.373   4.939  1.00  0.00     0.123 C 
BRANCH   5   6
ATOM      6  C   UNL     1       6.151   3.126   6.014  1.00  0.00     0.024 C 
BRANCH   6   7
ATOM      7  C   UNL     1       5.418   4.153   6.875  1.00  0.00     0.128 C 
BRANCH   7   8
ATOM      8  C   UNL     1       4.102   3.758   7.530  1.00  0.00     0.307 C 
ATOM      9  N   UNL     1       1.648   1.210   6.657  1.00  0.00    -0.217 N 
ATOM     10  C   UNL     1       2.613   2.007   7.281  1.00  0.00     0.319 C 
ATOM     11  C   UNL     1       1.145   0.120   7.491  1.00  0.00     0.212 C 
ATOM     12  N   UNL     1       3.248   3.005   6.764  1.00  0.00    -0.204 N 
ATOM     13  S   UNL     1       2.825   1.420   8.970  1.00  0.00    -0.029 SA
ATOM     14  C   UNL     1       1.177   0.704   8.908  1.00  0.00     0.120 C 
ATOM     15  C   UNL     1      -0.287  -0.340   7.321  1.00  0.00     0.188 C 
ATOM     16  H   UNL     1       3.118   3.227   5.814  1.00  0.00     0.316 HD
ATOM     17  C   UNL     1       0.753  -0.409   9.827  1.00  0.00     0.156 C 
ATOM     18  S   UNL     1      -0.637  -1.102   8.915  1.00  0.00     0.155 S 
ATOM     19  O   UNL     1       3.786   4.263   8.606  1.00  0.00    -0.247 OA
ATOM     20  O   UNL     1      -1.859  -0.525   9.435  1.00  0.00    -0.229 OA
ATOM     21  O   UNL     1      -0.440  -2.530   8.804  1.00  0.00    -0.229 OA
BRANCH   9  22
ATOM     22  C   UNL     1       1.428   1.138   5.278  1.00  0.00     0.130 A 
ATOM     23  C   UNL     1       0.901   0.943   2.487  1.00  0.00     0.137 A 
ATOM     24  C   UNL     1       0.024   1.610   3.355  1.00  0.00     0.052 A 
ATOM     25  C   UNL     1       2.057   0.372   3.031  1.00  0.00     0.087 A 
ATOM     26  C   UNL     1       0.280   1.707   4.726  1.00  0.00     0.056 A 
ATOM     27  C   UNL     1       2.300   0.460   4.418  1.00  0.00     0.076 A 
ATOM     28  Cl  UNL     1       3.284  -0.430   2.115  1.00  0.00    -0.080 Cl
BRANCH  23  29
ATOM     29  O   UNL     1       0.472   1.005   1.191  1.00  0.00    -0.495 OA
ATOM     30  C   UNL     1       0.899   0.016   0.265  1.00  0.00     0.278 C 
ENDBRANCH  23  29
ENDBRANCH   9  22
ENDBRANCH   7   8
ENDBRANCH   6   7
ENDBRANCH   5   6
ENDBRANCH   3   5
ENDBRANCH   2   3
ENDBRANCH   1   2
BRANCH   1  31
ATOM     31  C   UNL     1       4.688   6.156   2.497  1.00  0.00     0.275 C 
BRANCH  31  32
ATOM     32  O   UNL     1       5.595   5.413   1.660  1.00  0.00    -0.458 OA
BRANCH  32  33
ATOM     33  C   UNL     1       6.750   5.039   2.260  1.00  0.00     0.338 C 
ATOM     34  O   UNL     1       7.114   5.319   3.391  1.00  0.00    -0.246 OA
BRANCH  33  35
ATOM     35  C   UNL     1       7.470   4.081   1.408  1.00  0.00     0.060 A 
ATOM     36  C   UNL     1       7.643   2.786   1.899  1.00  0.00     0.016 A 
ATOM     37  C   UNL     1       8.042   4.455   0.192  1.00  0.00     0.016 A 
ATOM     38  C   UNL     1       8.383   1.852   1.187  1.00  0.00     0.010 A 
ATOM     39  C   UNL     1       8.793   3.515  -0.526  1.00  0.00     0.010 A 
ATOM     40  C   UNL     1       8.975   2.212  -0.027  1.00  0.00    -0.014 A 
BRANCH  40  41
ATOM     41  C   UNL     1       9.835   1.226  -0.723  1.00  0.00     0.031 A 
ATOM     42  C   UNL     1      11.328   1.397  -0.701  1.00  0.00     0.074 A 
ATOM     43  C   UNL     1       9.278   0.154  -1.317  1.00  0.00     0.049 A 
ATOM     44  N   UNL     1      12.249   0.682  -1.291  1.00  0.00    -0.248 NA
ATOM     45  C   UNL     1      11.854   2.519   0.093  1.00  0.00     0.031 C 
ATOM     46  C   UNL     1       7.844  -0.142  -1.351  1.00  0.00     0.029 A 
ATOM     47  N   UNL     1       9.850  -0.888  -2.001  1.00  0.00    -0.354 N 
ATOM     48  C   UNL     1      13.460   1.280  -0.967  1.00  0.00     0.074 A 
ATOM     49  C   UNL     1      13.158   2.423  -0.132  1.00  0.00     0.031 C 
ATOM     50  C   UNL     1       7.649  -1.290  -2.021  1.00  0.00     0.029 A 
ATOM     51  C   UNL     1       8.936  -1.785  -2.501  1.00  0.00     0.049 A 
ATOM     52  H   UNL     1      10.822  -0.984  -2.122  1.00  0.00     0.167 HD
ATOM     53  C   UNL     1      14.709   0.906  -1.333  1.00  0.00     0.037 A 
ATOM     54  C   UNL     1       9.116  -2.868  -3.283  1.00  0.00     0.037 A 
ATOM     55  C   UNL     1      15.000  -0.250  -2.140  1.00  0.00     0.049 A 
ATOM     56  C   UNL     1      10.512  -3.239  -3.704  1.00  0.00     0.074 A 
ATOM     57  C   UNL     1      16.233  -0.721  -2.558  1.00  0.00     0.029 A 
ATOM     58  N   UNL     1      14.047  -1.123  -2.647  1.00  0.00    -0.354 N 
ATOM     59  N   UNL     1      11.647  -2.653  -3.404  1.00  0.00    -0.248 NA
ATOM     60  C   UNL     1      10.654  -4.415  -4.574  1.00  0.00     0.031 C 
ATOM     61  C   UNL     1      16.024  -1.858  -3.346  1.00  0.00     0.029 A 
ATOM     62  C   UNL     1      14.664  -2.120  -3.384  1.00  0.00     0.049 A 
ATOM     63  H   UNL     1      13.077  -1.045  -2.503  1.00  0.00     0.167 HD
ATOM     64  C   UNL     1      12.638  -3.400  -4.032  1.00  0.00     0.074 A 
ATOM     65  C   UNL     1      11.970  -4.490  -4.713  1.00  0.00     0.031 C 
ATOM     66  C   UNL     1      13.979  -3.201  -4.047  1.00  0.00     0.037 A 
BRANCH  53  67
ATOM     67  C   UNL     1      15.857   1.769  -0.892  1.00  0.00     0.058 A 
ATOM     68  C   UNL     1      16.326   1.761   0.430  1.00  0.00     0.135 A 
ATOM     69  C   UNL     1      16.534   2.574  -1.823  1.00  0.00     0.135 A 
ATOM     70  F   UNL     1      15.702   1.025   1.364  1.00  0.00    -0.206 F 
ATOM     71  C   UNL     1      17.421   2.528   0.817  1.00  0.00     0.059 A 
ATOM     72  C   UNL     1      17.644   3.332  -1.464  1.00  0.00     0.059 A 
ATOM     73  F   UNL     1      16.122   2.622  -3.100  1.00  0.00    -0.206 F 
ATOM     74  C   UNL     1      18.076   3.308  -0.139  1.00  0.00     0.060 A 
BRANCH  74  75
ATOM     75  S   UNL     1      19.513   4.275   0.370  1.00  0.00     0.124 S 
ATOM     76  O   UNL     1      18.885   5.355   1.125  1.00  0.00    -0.237 OA
ATOM     77  O   UNL     1      20.275   3.311   1.159  1.00  0.00    -0.237 OA
ATOM     78  O   UNL     1      20.125   4.667  -0.895  1.00  0.00    -0.744 OA
ENDBRANCH  74  75
ENDBRANCH  53  67
BRANCH  54  79
ATOM     79  C   UNL     1       7.945  -3.658  -3.748  1.00  0.00     0.058 A 
ATOM     80  C   UNL     1       7.723  -4.966  -3.296  1.00  0.00     0.135 A 
ATOM     81  C   UNL     1       7.032  -3.121  -4.670  1.00  0.00     0.135 A 
ATOM     82  F   UNL     1       8.572  -5.527  -2.422  1.00  0.00    -0.206 F 
ATOM     83  C   UNL     1       6.651  -5.725  -3.758  1.00  0.00     0.059 A 
ATOM     84  C   UNL     1       5.939  -3.849  -5.126  1.00  0.00     0.059 A 
ATOM     85  F   UNL     1       7.193  -1.868  -5.125  1.00  0.00    -0.206 F 
ATOM     86  C   UNL     1       5.765  -5.157  -4.676  1.00  0.00     0.060 A 
BRANCH  86  87
ATOM     87  S   UNL     1       4.359  -6.133  -5.250  1.00  0.00     0.124 S 
ATOM     88  O   UNL     1       4.996  -7.024  -6.213  1.00  0.00    -0.237 OA
ATOM     89  O   UNL     1       3.889  -6.757  -4.017  1.00  0.00    -0.237 OA
ATOM     90  O   UNL     1       3.463  -5.128  -5.814  1.00  0.00    -0.744 OA
ENDBRANCH  86  87
ENDBRANCH  54  79
BRANCH  66  91
ATOM     91  C   UNL     1      14.811  -4.203  -4.795  1.00  0.00     0.058 A 
ATOM     92  C   UNL     1      14.845  -4.232  -6.198  1.00  0.00     0.135 A 
ATOM     93  C   UNL     1      15.608  -5.126  -4.099  1.00  0.00     0.135 A 
ATOM     94  F   UNL     1      14.096  -3.374  -6.909  1.00  0.00    -0.206 F 
ATOM     95  C   UNL     1      15.617  -5.162  -6.886  1.00  0.00     0.059 A 
ATOM     96  C   UNL     1      16.407  -6.048  -4.767  1.00  0.00     0.059 A 
ATOM     97  F   UNL     1      15.621  -5.132  -2.757  1.00  0.00    -0.206 F 
ATOM     98  C   UNL     1      16.392  -6.069  -6.161  1.00  0.00     0.060 A 
BRANCH  98  99
ATOM     99  S   UNL     1      17.403  -7.263  -7.062  1.00  0.00     0.124 S 
ATOM    100  O   UNL     1      16.401  -8.239  -7.479  1.00  0.00    -0.237 OA
ATOM    101  O   UNL     1      17.977  -6.448  -8.129  1.00  0.00    -0.237 OA
ATOM    102  O   UNL     1      18.354  -7.728  -6.057  1.00  0.00    -0.744 OA
ENDBRANCH  98  99
ENDBRANCH  66  91
ENDBRANCH  40  41
ENDBRANCH  33  35
ENDBRANCH  32  33
ENDBRANCH  31  32
ENDBRANCH   1  31
TORSDOF 19
