REMARK SMILES O=C(OCCOC(=O)c1ccc(N[C@@H]2CCCS(=O)(=O)C2)c(F)c1F)c1ccc(-c2c3nc(c(-c4c(F)cc(S(=O)(=O)[O-])cc4F)c4ccc([nH]4)c(-c4c(F)cc(S(=O)(=O)[O-])cc4F)c4nc(c(-c5c(F)cc(S(=O)(=O)[O-])cc5F)c5ccc2[nH]5)C=C4)C=C3)cc1
REMARK SMILES IDX 4 1 3 2 2 3 1 4 26 5 27 6 91 7 28 8 90 9 29 10 30 11 31 12
REMARK SMILES IDX 84 13 32 14 89 15 83 16 85 17 33 18 88 19 82 20 81 21 34 23
REMARK SMILES IDX 68 24 47 25 67 26 48 27 51 28 66 29 86 30 49 31 50 32 65 34
REMARK SMILES IDX 87 35 52 36 35 37 36 38 45 39 37 40 38 41 44 42 46 43 39 44
REMARK SMILES IDX 40 45 41 46 42 47 43 48 69 49 70 50 79 51 71 52 72 53 78 54
REMARK SMILES IDX 80 55 73 56 74 57 75 58 76 59 77 60 53 61 54 62 63 63 55 64
REMARK SMILES IDX 56 65 62 66 64 67 57 68 58 69 59 70 60 71 61 72 5 73 6 74
REMARK SMILES IDX 7 75 8 76 9 77 10 78 24 79 11 80 22 81 25 82 12 83 23 84
REMARK SMILES IDX 13 85 14 87 15 88 21 89 16 90 18 91 17 92 19 93 20 94
REMARK H PARENT 85 22 51 33 13 86
REMARK Flexibility Score: inf
ROOT
ATOM      1  C   UNL     1       3.971   1.134   0.980  1.00  0.00     0.275 C 
ENDROOT
BRANCH   1   2
ATOM      2  O   UNL     1       2.947   1.085  -0.030  1.00  0.00    -0.458 OA
BRANCH   2   3
ATOM      3  C   UNL     1       2.859   0.304  -1.135  1.00  0.00     0.338 C 
ATOM      4  O   UNL     1       2.041   0.595  -2.006  1.00  0.00    -0.246 OA
BRANCH   3   5
ATOM      5  C   UNL     1       3.604  -0.984  -1.283  1.00  0.00     0.060 A 
ATOM      6  C   UNL     1       4.887  -1.236  -0.793  1.00  0.00     0.016 A 
ATOM      7  C   UNL     1       2.951  -2.017  -1.981  1.00  0.00     0.016 A 
ATOM      8  C   UNL     1       5.461  -2.502  -0.893  1.00  0.00     0.010 A 
ATOM      9  C   UNL     1       3.522  -3.290  -2.086  1.00  0.00     0.010 A 
ATOM     10  C   UNL     1       4.779  -3.542  -1.523  1.00  0.00    -0.014 A 
BRANCH  10  11
ATOM     11  C   UNL     1       5.473  -4.833  -1.727  1.00  0.00     0.031 A 
ATOM     12  C   UNL     1       6.035  -5.103  -3.090  1.00  0.00     0.074 A 
ATOM     13  C   UNL     1       5.692  -5.670  -0.691  1.00  0.00     0.049 A 
ATOM     14  N   UNL     1       6.696  -6.142  -3.512  1.00  0.00    -0.248 NA
ATOM     15  C   UNL     1       5.890  -4.031  -4.095  1.00  0.00     0.031 C 
ATOM     16  C   UNL     1       5.373  -5.365   0.703  1.00  0.00     0.029 A 
ATOM     17  N   UNL     1       6.231  -6.931  -0.623  1.00  0.00    -0.354 N 
ATOM     18  C   UNL     1       7.092  -5.829  -4.806  1.00  0.00     0.074 A 
ATOM     19  C   UNL     1       6.539  -4.537  -5.132  1.00  0.00     0.031 C 
ATOM     20  C   UNL     1       5.663  -6.424   1.476  1.00  0.00     0.029 A 
ATOM     21  C   UNL     1       6.161  -7.502   0.635  1.00  0.00     0.049 A 
ATOM     22  H   UNL     1       6.630  -7.387  -1.398  1.00  0.00     0.167 HD
ATOM     23  C   UNL     1       7.892  -6.548  -5.624  1.00  0.00     0.037 A 
ATOM     24  C   UNL     1       6.436  -8.764   1.036  1.00  0.00     0.037 A 
ATOM     25  C   UNL     1       8.416  -7.835  -5.261  1.00  0.00     0.049 A 
ATOM     26  C   UNL     1       7.043  -9.668  -0.035  1.00  0.00     0.074 A 
ATOM     27  C   UNL     1       9.225  -8.675  -6.000  1.00  0.00     0.029 A 
ATOM     28  N   UNL     1       8.159  -8.473  -4.054  1.00  0.00    -0.354 N 
ATOM     29  N   UNL     1       7.494  -9.334  -1.227  1.00  0.00    -0.248 NA
ATOM     30  C   UNL     1       7.200 -11.094   0.274  1.00  0.00     0.031 C 
ATOM     31  C   UNL     1       9.411  -9.847  -5.260  1.00  0.00     0.029 A 
ATOM     32  C   UNL     1       8.766  -9.713  -4.037  1.00  0.00     0.049 A 
ATOM     33  H   UNL     1       7.622  -8.098  -3.319  1.00  0.00     0.167 HD
ATOM     34  C   UNL     1       8.060 -10.486  -1.767  1.00  0.00     0.074 A 
ATOM     35  C   UNL     1       7.896 -11.524  -0.770  1.00  0.00     0.031 C 
ATOM     36  C   UNL     1       8.672 -10.677  -2.965  1.00  0.00     0.037 A 
BRANCH  23  37
ATOM     37  C   UNL     1       8.229  -5.965  -6.965  1.00  0.00     0.058 A 
ATOM     38  C   UNL     1       9.115  -4.882  -7.096  1.00  0.00     0.135 A 
ATOM     39  C   UNL     1       7.683  -6.508  -8.138  1.00  0.00     0.135 A 
ATOM     40  F   UNL     1       9.642  -4.302  -6.005  1.00  0.00    -0.206 F 
ATOM     41  C   UNL     1       9.444  -4.357  -8.342  1.00  0.00     0.059 A 
ATOM     42  C   UNL     1       8.014  -6.013  -9.396  1.00  0.00     0.059 A 
ATOM     43  F   UNL     1       6.815  -7.529  -8.068  1.00  0.00    -0.206 F 
ATOM     44  C   UNL     1       8.893  -4.934  -9.488  1.00  0.00     0.060 A 
BRANCH  44  45
ATOM     45  S   UNL     1       9.360  -4.263 -11.098  1.00  0.00     0.124 S 
ATOM     46  O   UNL     1       8.697  -2.963 -11.077  1.00  0.00    -0.237 OA
ATOM     47  O   UNL     1      10.816  -4.233 -11.011  1.00  0.00    -0.237 OA
ATOM     48  O   UNL     1       8.810  -5.231 -12.043  1.00  0.00    -0.744 OA
ENDBRANCH  44  45
ENDBRANCH  23  37
BRANCH  24  49
ATOM     49  C   UNL     1       6.089  -9.278   2.419  1.00  0.00     0.058 A 
ATOM     50  C   UNL     1       6.973 -10.076   3.165  1.00  0.00     0.135 A 
ATOM     51  C   UNL     1       4.808  -9.103   2.987  1.00  0.00     0.135 A 
ATOM     52  F   UNL     1       8.243 -10.225   2.762  1.00  0.00    -0.206 F 
ATOM     53  C   UNL     1       6.567 -10.784   4.302  1.00  0.00     0.059 A 
ATOM     54  C   UNL     1       4.381  -9.783   4.125  1.00  0.00     0.059 A 
ATOM     55  F   UNL     1       3.914  -8.267   2.437  1.00  0.00    -0.206 F 
ATOM     56  C   UNL     1       5.256 -10.653   4.757  1.00  0.00     0.060 A 
BRANCH  56  57
ATOM     57  S   UNL     1       4.673 -11.673   6.129  1.00  0.00     0.124 S 
ATOM     58  O   UNL     1       5.193 -12.989   5.777  1.00  0.00    -0.237 OA
ATOM     59  O   UNL     1       5.301 -11.015   7.269  1.00  0.00    -0.237 OA
ATOM     60  O   UNL     1       3.221 -11.536   6.045  1.00  0.00    -0.744 OA
ENDBRANCH  56  57
ENDBRANCH  24  49
BRANCH  36  61
ATOM     61  C   UNL     1       9.363 -11.994  -3.191  1.00  0.00     0.058 A 
ATOM     62  C   UNL     1       8.660 -13.180  -3.443  1.00  0.00     0.135 A 
ATOM     63  C   UNL     1      10.768 -12.038  -3.241  1.00  0.00     0.135 A 
ATOM     64  F   UNL     1       7.319 -13.194  -3.402  1.00  0.00    -0.206 F 
ATOM     65  C   UNL     1       9.326 -14.371  -3.714  1.00  0.00     0.059 A 
ATOM     66  C   UNL     1      11.452 -13.207  -3.547  1.00  0.00     0.059 A 
ATOM     67  F   UNL     1      11.488 -10.924  -3.027  1.00  0.00    -0.206 F 
ATOM     68  C   UNL     1      10.723 -14.373  -3.769  1.00  0.00     0.060 A 
BRANCH  68  69
ATOM     69  S   UNL     1      11.574 -15.914  -4.162  1.00  0.00     0.124 S 
ATOM     70  O   UNL     1      11.407 -16.666  -2.924  1.00  0.00    -0.237 OA
ATOM     71  O   UNL     1      10.818 -16.405  -5.310  1.00  0.00    -0.237 OA
ATOM     72  O   UNL     1      12.938 -15.485  -4.456  1.00  0.00    -0.744 OA
ENDBRANCH  68  69
ENDBRANCH  36  61
ENDBRANCH  10  11
ENDBRANCH   3   5
ENDBRANCH   2   3
ENDBRANCH   1   2
BRANCH   1  73
ATOM     73  C   UNL     1       3.780   0.163   2.150  1.00  0.00     0.275 C 
BRANCH  73  74
ATOM     74  O   UNL     1       3.301  -1.131   1.751  1.00  0.00    -0.458 OA
BRANCH  74  75
ATOM     75  C   UNL     1       1.957  -1.313   1.845  1.00  0.00     0.341 C 
ATOM     76  O   UNL     1       1.147  -0.523   2.298  1.00  0.00    -0.246 OA
BRANCH  75  77
ATOM     77  C   UNL     1       1.606  -2.606   1.231  1.00  0.00     0.099 A 
ATOM     78  C   UNL     1       2.300  -3.776   1.542  1.00  0.00     0.021 A 
ATOM     79  C   UNL     1       0.595  -2.652   0.284  1.00  0.00     0.175 A 
ATOM     80  C   UNL     1       2.004  -4.976   0.870  1.00  0.00     0.030 A 
ATOM     81  C   UNL     1       0.311  -3.851  -0.371  1.00  0.00     0.182 A 
ATOM     82  F   UNL     1      -0.069  -1.542  -0.068  1.00  0.00    -0.203 F 
ATOM     83  C   UNL     1       1.008  -5.048  -0.104  1.00  0.00     0.074 A 
ATOM     84  F   UNL     1      -0.639  -3.857  -1.323  1.00  0.00    -0.201 F 
BRANCH  83  85
ATOM     85  N   UNL     1       0.647  -6.190  -0.789  1.00  0.00    -0.379 N 
ATOM     86  H   UNL     1      -0.024  -6.035  -1.493  1.00  0.00     0.160 HD
BRANCH  85  87
ATOM     87  C   UNL     1       1.069  -7.595  -0.674  1.00  0.00     0.094 C 
ATOM     88  C   UNL     1       0.983  -8.124   0.769  1.00  0.00     0.027 C 
ATOM     89  C   UNL     1       2.399  -7.843  -1.372  1.00  0.00     0.161 C 
ATOM     90  C   UNL     1       1.351  -9.603   0.934  1.00  0.00     0.018 C 
ATOM     91  S   UNL     1       2.729  -9.592  -1.417  1.00  0.00     0.152 S 
ATOM     92  C   UNL     1       2.682  -9.976   0.306  1.00  0.00     0.137 C 
ATOM     93  O   UNL     1       4.084  -9.794  -1.880  1.00  0.00    -0.229 OA
ATOM     94  O   UNL     1       1.611 -10.258  -2.058  1.00  0.00    -0.229 OA
ENDBRANCH  85  87
ENDBRANCH  83  85
ENDBRANCH  75  77
ENDBRANCH  74  75
ENDBRANCH  73  74
ENDBRANCH   1  73
TORSDOF 16
