REMARK SMILES C#CC[N@H+](CC(=O)OCCOC(=O)c1ccc(-c2c3nc(c(-c4c(F)cc(S(=O)(=O)[O-])cc4F)c4ccc([nH]4)c(-c4c(F)cc(S(=O)(=O)[O-])cc4F)c4nc(c(-c5c(F)cc(S(=O)(=O)[O-])cc5F)c5ccc2[nH]5)C=C4)C=C3)cc1)[C@H](C)C(=O)NCCC
REMARK SMILES IDX 9 1 8 2 6 3 7 4 5 5 4 6 3 8 2 9 1 10 80 11 81 12 82 13 83 14
REMARK SMILES IDX 84 15 85 17 86 18 87 19 10 20 11 21 12 22 13 23 14 24 15 25
REMARK SMILES IDX 79 26 16 27 78 28 17 29 18 30 19 31 72 32 20 33 77 34 71 35
REMARK SMILES IDX 73 36 21 37 76 38 70 39 69 40 22 42 56 43 35 44 55 45 36 46
REMARK SMILES IDX 39 47 54 48 74 49 37 50 38 51 53 53 75 54 40 55 23 56 24 57
REMARK SMILES IDX 33 58 25 59 26 60 32 61 34 62 27 63 28 64 29 65 30 66 31 67
REMARK SMILES IDX 57 68 58 69 67 70 59 71 60 72 66 73 68 74 61 75 62 76 63 77
REMARK SMILES IDX 64 78 65 79 41 80 42 81 51 82 43 83 44 84 50 85 52 86 45 87
REMARK SMILES IDX 46 88 47 89 48 90 49 91
REMARK H PARENT 4 7 84 16 73 41 39 52
REMARK Flexibility Score: inf
ROOT
ATOM      1  C   UNL     1      -4.729   4.251   3.113  1.00  0.00     0.274 C 
ENDROOT
BRANCH   1   2
ATOM      2  O   UNL     1      -4.141   3.233   2.281  1.00  0.00    -0.458 OA
BRANCH   2   3
ATOM      3  C   UNL     1      -4.671   3.091   1.036  1.00  0.00     0.361 C 
ATOM      4  O   UNL     1      -5.751   3.558   0.692  1.00  0.00    -0.245 OA
BRANCH   3   5
ATOM      5  C   UNL     1      -3.825   2.188   0.140  1.00  0.00     0.387 C 
BRANCH   5   6
ATOM      6  N   UNL     1      -2.419   2.608  -0.145  1.00  0.00    -0.306 N 
ATOM      7  H   UNL     1      -2.394   3.535  -0.570  1.00  0.00     0.350 HD
BRANCH   6   8
ATOM      8  C   UNL     1      -1.657   2.893   1.075  1.00  0.00     0.355 C 
BRANCH   8   9
ATOM      9  C   UNL     1      -0.273   3.376   0.955  1.00  0.00    -0.047 C 
ATOM     10  C   UNL     1       0.871   3.734   0.958  1.00  0.00     0.010 C 
ENDBRANCH   8   9
ENDBRANCH   6   8
BRANCH   6  11
ATOM     11  C   UNL     1      -1.812   1.777  -1.240  1.00  0.00     0.272 C 
ATOM     12  C   UNL     1      -2.456   0.420  -1.597  1.00  0.00     0.086 C 
BRANCH  11  13
ATOM     13  C   UNL     1      -0.280   1.618  -1.275  1.00  0.00     0.278 C 
ATOM     14  O   UNL     1       0.409   2.212  -2.111  1.00  0.00    -0.268 OA
ATOM     15  N   UNL     1       0.366   0.736  -0.452  1.00  0.00    -0.351 N 
ATOM     16  H   UNL     1       1.294   0.525  -0.707  1.00  0.00     0.163 HD
BRANCH  15  17
ATOM     17  C   UNL     1      -0.117   0.069   0.737  1.00  0.00     0.116 C 
BRANCH  17  18
ATOM     18  C   UNL     1       0.555  -1.274   0.978  1.00  0.00     0.018 C 
ATOM     19  C   UNL     1       2.014  -1.118   1.383  1.00  0.00     0.006 C 
ENDBRANCH  17  18
ENDBRANCH  15  17
ENDBRANCH  11  13
ENDBRANCH   6  11
ENDBRANCH   5   6
ENDBRANCH   3   5
ENDBRANCH   2   3
ENDBRANCH   1   2
BRANCH   1  20
ATOM     20  C   UNL     1      -4.139   5.631   2.802  1.00  0.00     0.275 C 
BRANCH  20  21
ATOM     21  O   UNL     1      -4.598   6.095   1.519  1.00  0.00    -0.458 OA
BRANCH  21  22
ATOM     22  C   UNL     1      -3.655   6.239   0.557  1.00  0.00     0.338 C 
ATOM     23  O   UNL     1      -2.452   6.102   0.674  1.00  0.00    -0.246 OA
BRANCH  22  24
ATOM     24  C   UNL     1      -4.317   6.597  -0.705  1.00  0.00     0.060 A 
ATOM     25  C   UNL     1      -4.707   5.598  -1.601  1.00  0.00     0.016 A 
ATOM     26  C   UNL     1      -4.500   7.943  -1.018  1.00  0.00     0.016 A 
ATOM     27  C   UNL     1      -5.307   5.944  -2.811  1.00  0.00     0.010 A 
ATOM     28  C   UNL     1      -5.118   8.287  -2.221  1.00  0.00     0.010 A 
ATOM     29  C   UNL     1      -5.528   7.290  -3.126  1.00  0.00    -0.014 A 
BRANCH  29  30
ATOM     30  C   UNL     1      -6.194   7.674  -4.395  1.00  0.00     0.031 A 
ATOM     31  C   UNL     1      -5.420   8.405  -5.454  1.00  0.00     0.074 A 
ATOM     32  C   UNL     1      -7.503   7.407  -4.565  1.00  0.00     0.049 A 
ATOM     33  N   UNL     1      -5.853   8.971  -6.550  1.00  0.00    -0.248 NA
ATOM     34  C   UNL     1      -3.968   8.524  -5.246  1.00  0.00     0.031 C 
ATOM     35  C   UNL     1      -8.344   6.676  -3.615  1.00  0.00     0.029 A 
ATOM     36  N   UNL     1      -8.362   7.737  -5.583  1.00  0.00    -0.354 N 
ATOM     37  C   UNL     1      -4.734   9.536  -7.152  1.00  0.00     0.074 A 
ATOM     38  C   UNL     1      -3.606   9.261  -6.288  1.00  0.00     0.031 C 
ATOM     39  C   UNL     1      -9.598   6.621  -4.091  1.00  0.00     0.029 A 
ATOM     40  C   UNL     1      -9.665   7.368  -5.343  1.00  0.00     0.049 A 
ATOM     41  H   UNL     1      -8.073   8.195  -6.406  1.00  0.00     0.167 HD
ATOM     42  C   UNL     1      -4.663  10.220  -8.319  1.00  0.00     0.037 A 
ATOM     43  C   UNL     1     -10.793   7.640  -6.028  1.00  0.00     0.037 A 
ATOM     44  C   UNL     1      -5.799  10.474  -9.169  1.00  0.00     0.049 A 
ATOM     45  C   UNL     1     -10.698   8.464  -7.284  1.00  0.00     0.074 A 
ATOM     46  C   UNL     1      -5.832  11.128 -10.388  1.00  0.00     0.029 A 
ATOM     47  N   UNL     1      -7.105  10.096  -8.885  1.00  0.00    -0.354 N 
ATOM     48  N   UNL     1      -9.633   8.974  -7.856  1.00  0.00    -0.248 NA
ATOM     49  C   UNL     1     -11.955   8.758  -7.985  1.00  0.00     0.031 C 
ATOM     50  C   UNL     1      -7.163  11.202 -10.808  1.00  0.00     0.029 A 
ATOM     51  C   UNL     1      -7.955  10.536  -9.886  1.00  0.00     0.049 A 
ATOM     52  H   UNL     1      -7.385   9.589  -8.088  1.00  0.00     0.167 HD
ATOM     53  C   UNL     1     -10.088   9.630  -8.994  1.00  0.00     0.074 A 
ATOM     54  C   UNL     1     -11.523   9.438  -9.039  1.00  0.00     0.031 C 
ATOM     55  C   UNL     1      -9.383  10.330  -9.917  1.00  0.00     0.037 A 
BRANCH  42  56
ATOM     56  C   UNL     1      -3.326  10.774  -8.733  1.00  0.00     0.058 A 
ATOM     57  C   UNL     1      -2.274   9.946  -9.155  1.00  0.00     0.135 A 
ATOM     58  C   UNL     1      -3.111  12.163  -8.758  1.00  0.00     0.135 A 
ATOM     59  F   UNL     1      -2.416   8.611  -9.140  1.00  0.00    -0.206 F 
ATOM     60  C   UNL     1      -1.051  10.472  -9.563  1.00  0.00     0.059 A 
ATOM     61  C   UNL     1      -1.908  12.712  -9.191  1.00  0.00     0.059 A 
ATOM     62  F   UNL     1      -4.082  13.003  -8.365  1.00  0.00    -0.206 F 
ATOM     63  C   UNL     1      -0.879  11.857  -9.582  1.00  0.00     0.060 A 
BRANCH  63  64
ATOM     64  S   UNL     1       0.706  12.523 -10.133  1.00  0.00     0.124 S 
ATOM     65  O   UNL     1       1.583  12.141  -9.030  1.00  0.00    -0.237 OA
ATOM     66  O   UNL     1       0.921  11.813 -11.389  1.00  0.00    -0.237 OA
ATOM     67  O   UNL     1       0.450  13.954 -10.260  1.00  0.00    -0.744 OA
ENDBRANCH  63  64
ENDBRANCH  42  56
BRANCH  43  68
ATOM     68  C   UNL     1     -12.107   7.161  -5.520  1.00  0.00     0.058 A 
ATOM     69  C   UNL     1     -12.843   6.191  -6.215  1.00  0.00     0.135 A 
ATOM     70  C   UNL     1     -12.650   7.656  -4.322  1.00  0.00     0.135 A 
ATOM     71  F   UNL     1     -12.374   5.693  -7.370  1.00  0.00    -0.206 F 
ATOM     72  C   UNL     1     -14.075   5.739  -5.752  1.00  0.00     0.059 A 
ATOM     73  C   UNL     1     -13.864   7.196  -3.822  1.00  0.00     0.059 A 
ATOM     74  F   UNL     1     -11.984   8.578  -3.611  1.00  0.00    -0.206 F 
ATOM     75  C   UNL     1     -14.575   6.245  -4.550  1.00  0.00     0.060 A 
BRANCH  75  76
ATOM     76  S   UNL     1     -16.154   5.617  -3.938  1.00  0.00     0.124 S 
ATOM     77  O   UNL     1     -17.092   6.203  -4.890  1.00  0.00    -0.237 OA
ATOM     78  O   UNL     1     -15.966   4.173  -4.034  1.00  0.00    -0.237 OA
ATOM     79  O   UNL     1     -16.222   6.145  -2.579  1.00  0.00    -0.744 OA
ENDBRANCH  75  76
ENDBRANCH  43  68
BRANCH  55  80
ATOM     80  C   UNL     1     -10.144  10.921 -11.073  1.00  0.00     0.058 A 
ATOM     81  C   UNL     1     -10.988  12.031 -10.910  1.00  0.00     0.135 A 
ATOM     82  C   UNL     1      -9.966  10.418 -12.372  1.00  0.00     0.135 A 
ATOM     83  F   UNL     1     -11.203  12.543  -9.688  1.00  0.00    -0.206 F 
ATOM     84  C   UNL     1     -11.636  12.615 -11.993  1.00  0.00     0.059 A 
ATOM     85  C   UNL     1     -10.578  11.006 -13.474  1.00  0.00     0.059 A 
ATOM     86  F   UNL     1      -9.165   9.362 -12.585  1.00  0.00    -0.206 F 
ATOM     87  C   UNL     1     -11.416  12.101 -13.273  1.00  0.00     0.060 A 
BRANCH  87  88
ATOM     88  S   UNL     1     -12.214  12.911 -14.675  1.00  0.00     0.124 S 
ATOM     89  O   UNL     1     -13.612  12.544 -14.473  1.00  0.00    -0.237 OA
ATOM     90  O   UNL     1     -11.888  14.316 -14.449  1.00  0.00    -0.237 OA
ATOM     91  O   UNL     1     -11.568  12.302 -15.835  1.00  0.00    -0.744 OA
ENDBRANCH  87  88
ENDBRANCH  55  80
ENDBRANCH  29  30
ENDBRANCH  22  24
ENDBRANCH  21  22
ENDBRANCH  20  21
ENDBRANCH   1  20
TORSDOF 21
