REMARK SMILES CC(C)[C@@H](C)[N@@H+]1[C@@H](C(=O)OCCOC(=O)c2ccc(-c3c4nc(c(-c5c(F)cc(S(=O)(=O)[O-])cc5F)c5ccc([nH]5)c(-c5c(F)cc(S(=O)(=O)[O-])cc5F)c5nc(c(-c6c(F)cc(S(=O)(=O)[O-])cc6F)c6ccc3[nH]6)C=C5)C=C4)cc2)C[C@H]2CCCC[C@H]21
REMARK SMILES IDX 12 1 11 2 10 3 8 4 9 5 7 6 6 7 88 8 82 10 83 11 87 12 84 13
REMARK SMILES IDX 86 14 85 15 4 16 5 17 2 18 1 19 3 20 13 21 14 22 15 23 16 24
REMARK SMILES IDX 17 25 81 26 18 27 80 28 19 29 20 30 21 31 74 32 22 33 79 34
REMARK SMILES IDX 73 35 75 36 23 37 78 38 72 39 71 40 24 42 58 43 37 44 57 45
REMARK SMILES IDX 38 46 41 47 56 48 76 49 39 50 40 51 55 53 77 54 42 55 25 56
REMARK SMILES IDX 26 57 35 58 27 59 28 60 34 61 36 62 29 63 30 64 31 65 32 66
REMARK SMILES IDX 33 67 59 68 60 69 69 70 61 71 62 72 68 73 70 74 63 75 64 76
REMARK SMILES IDX 65 77 66 78 67 79 43 80 44 81 53 82 45 83 46 84 52 85 54 86
REMARK SMILES IDX 47 87 48 88 49 89 50 90 51 91
REMARK H PARENT 6 9 75 41 41 52
REMARK Flexibility Score: inf
ROOT
ATOM      1  C   UNL     1       0.775   0.078  -7.580  1.00  0.00     0.275 C 
ENDROOT
BRANCH   1   2
ATOM      2  C   UNL     1      -0.500   0.804  -7.166  1.00  0.00     0.274 C 
BRANCH   2   3
ATOM      3  O   UNL     1      -0.264   1.563  -5.964  1.00  0.00    -0.458 OA
BRANCH   3   4
ATOM      4  C   UNL     1      -0.813   1.062  -4.816  1.00  0.00     0.365 C 
ATOM      5  O   UNL     1      -1.455   0.020  -4.763  1.00  0.00    -0.245 OA
BRANCH   4   6
ATOM      6  C   UNL     1      -0.451   1.950  -3.607  1.00  0.00     0.296 C 
ATOM      7  N   UNL     1      -1.388   1.697  -2.487  1.00  0.00    -0.318 N 
ATOM      8  C   UNL     1      -2.298   2.840  -2.393  1.00  0.00     0.188 C 
ATOM      9  H   UNL     1      -1.949   0.876  -2.711  1.00  0.00     0.349 HD
ATOM     10  C   UNL     1      -0.570   3.454  -3.910  1.00  0.00     0.087 C 
ATOM     11  C   UNL     1      -1.400   4.011  -2.759  1.00  0.00     0.054 C 
ATOM     12  C   UNL     1      -3.476   2.661  -3.378  1.00  0.00     0.065 C 
ATOM     13  C   UNL     1      -2.168   5.293  -3.070  1.00  0.00     0.010 C 
ATOM     14  C   UNL     1      -4.250   3.959  -3.585  1.00  0.00     0.006 C 
ATOM     15  C   UNL     1      -3.332   5.091  -4.036  1.00  0.00     0.001 C 
BRANCH   7  16
ATOM     16  C   UNL     1      -0.919   0.994  -1.267  1.00  0.00     0.184 C 
ATOM     17  C   UNL     1      -1.974   1.062  -0.141  1.00  0.00     0.075 C 
BRANCH  16  18
ATOM     18  C   UNL     1       0.532   1.322  -0.741  1.00  0.00     0.041 C 
ATOM     19  C   UNL     1       0.717   1.154   0.779  1.00  0.00     0.013 C 
ATOM     20  C   UNL     1       1.603   0.414  -1.367  1.00  0.00     0.013 C 
ENDBRANCH  16  18
ENDBRANCH   7  16
ENDBRANCH   4   6
ENDBRANCH   3   4
ENDBRANCH   2   3
ENDBRANCH   1   2
BRANCH   1  21
ATOM     21  O   UNL     1       1.104  -0.903  -6.582  1.00  0.00    -0.458 OA
BRANCH  21  22
ATOM     22  C   UNL     1       2.293  -0.739  -5.957  1.00  0.00     0.338 C 
ATOM     23  O   UNL     1       3.147   0.094  -6.208  1.00  0.00    -0.246 OA
BRANCH  22  24
ATOM     24  C   UNL     1       2.431  -1.734  -4.876  1.00  0.00     0.060 A 
ATOM     25  C   UNL     1       1.402  -1.923  -3.957  1.00  0.00     0.016 A 
ATOM     26  C   UNL     1       3.651  -2.386  -4.695  1.00  0.00     0.016 A 
ATOM     27  C   UNL     1       1.636  -2.674  -2.803  1.00  0.00     0.010 A 
ATOM     28  C   UNL     1       3.841  -3.219  -3.583  1.00  0.00     0.010 A 
ATOM     29  C   UNL     1       2.857  -3.333  -2.585  1.00  0.00    -0.014 A 
BRANCH  29  30
ATOM     30  C   UNL     1       3.134  -4.064  -1.303  1.00  0.00     0.031 A 
ATOM     31  C   UNL     1       4.408  -3.802  -0.527  1.00  0.00     0.074 A 
ATOM     32  C   UNL     1       2.254  -4.949  -0.788  1.00  0.00     0.049 A 
ATOM     33  N   UNL     1       4.953  -4.507   0.434  1.00  0.00    -0.248 NA
ATOM     34  C   UNL     1       5.183  -2.605  -0.893  1.00  0.00     0.031 C 
ATOM     35  C   UNL     1       0.955  -5.297  -1.364  1.00  0.00     0.029 A 
ATOM     36  N   UNL     1       2.317  -5.712   0.356  1.00  0.00    -0.354 N 
ATOM     37  C   UNL     1       6.177  -3.905   0.708  1.00  0.00     0.074 A 
ATOM     38  C   UNL     1       6.282  -2.755  -0.165  1.00  0.00     0.031 C 
ATOM     39  C   UNL     1       0.315  -6.137  -0.538  1.00  0.00     0.029 A 
ATOM     40  C   UNL     1       1.204  -6.492   0.562  1.00  0.00     0.049 A 
ATOM     41  H   UNL     1       3.087  -5.699   0.970  1.00  0.00     0.167 HD
ATOM     42  C   UNL     1       7.131  -4.284   1.594  1.00  0.00     0.037 A 
ATOM     43  C   UNL     1       0.935  -7.436   1.486  1.00  0.00     0.037 A 
ATOM     44  C   UNL     1       6.980  -5.351   2.551  1.00  0.00     0.049 A 
ATOM     45  C   UNL     1       1.984  -7.817   2.489  1.00  0.00     0.074 A 
ATOM     46  C   UNL     1       7.882  -5.783   3.510  1.00  0.00     0.029 A 
ATOM     47  N   UNL     1       5.842  -6.129   2.699  1.00  0.00    -0.354 N 
ATOM     48  N   UNL     1       3.190  -7.327   2.643  1.00  0.00    -0.248 NA
ATOM     49  C   UNL     1       1.652  -8.911   3.413  1.00  0.00     0.031 C 
ATOM     50  C   UNL     1       7.296  -6.835   4.225  1.00  0.00     0.029 A 
ATOM     51  C   UNL     1       6.019  -7.037   3.731  1.00  0.00     0.049 A 
ATOM     52  H   UNL     1       5.028  -6.048   2.151  1.00  0.00     0.167 HD
ATOM     53  C   UNL     1       3.771  -8.071   3.663  1.00  0.00     0.074 A 
ATOM     54  C   UNL     1       2.772  -9.016   4.117  1.00  0.00     0.031 C 
ATOM     55  C   UNL     1       5.028  -7.989   4.163  1.00  0.00     0.037 A 
BRANCH  42  56
ATOM     56  C   UNL     1       8.456  -3.572   1.548  1.00  0.00     0.058 A 
ATOM     57  C   UNL     1       8.640  -2.285   2.072  1.00  0.00     0.135 A 
ATOM     58  C   UNL     1       9.577  -4.227   1.009  1.00  0.00     0.135 A 
ATOM     59  F   UNL     1       7.601  -1.609   2.585  1.00  0.00    -0.206 F 
ATOM     60  C   UNL     1       9.886  -1.662   2.044  1.00  0.00     0.059 A 
ATOM     61  C   UNL     1      10.835  -3.633   0.991  1.00  0.00     0.059 A 
ATOM     62  F   UNL     1       9.456  -5.463   0.497  1.00  0.00    -0.206 F 
ATOM     63  C   UNL     1      10.977  -2.344   1.499  1.00  0.00     0.060 A 
BRANCH  63  64
ATOM     64  S   UNL     1      12.591  -1.533   1.475  1.00  0.00     0.124 S 
ATOM     65  O   UNL     1      12.441  -0.622   0.344  1.00  0.00    -0.237 OA
ATOM     66  O   UNL     1      12.648  -0.903   2.791  1.00  0.00    -0.237 OA
ATOM     67  O   UNL     1      13.522  -2.638   1.273  1.00  0.00    -0.744 OA
ENDBRANCH  63  64
ENDBRANCH  42  56
BRANCH  43  68
ATOM     68  C   UNL     1      -0.372  -8.143   1.443  1.00  0.00     0.058 A 
ATOM     69  C   UNL     1      -1.362  -7.890   2.402  1.00  0.00     0.135 A 
ATOM     70  C   UNL     1      -0.676  -9.034   0.402  1.00  0.00     0.135 A 
ATOM     71  F   UNL     1      -1.109  -7.061   3.426  1.00  0.00    -0.206 F 
ATOM     72  C   UNL     1      -2.619  -8.480   2.320  1.00  0.00     0.059 A 
ATOM     73  C   UNL     1      -1.933  -9.614   0.283  1.00  0.00     0.059 A 
ATOM     74  F   UNL     1       0.238  -9.301  -0.543  1.00  0.00    -0.206 F 
ATOM     75  C   UNL     1      -2.899  -9.331   1.248  1.00  0.00     0.060 A 
BRANCH  75  76
ATOM     76  S   UNL     1      -4.566 -10.003   1.070  1.00  0.00     0.124 S 
ATOM     77  O   UNL     1      -4.513 -11.157   1.959  1.00  0.00    -0.237 OA
ATOM     78  O   UNL     1      -5.403  -8.892   1.514  1.00  0.00    -0.237 OA
ATOM     79  O   UNL     1      -4.649 -10.304  -0.357  1.00  0.00    -0.744 OA
ENDBRANCH  75  76
ENDBRANCH  43  68
BRANCH  55  80
ATOM     80  C   UNL     1       5.397  -8.956   5.250  1.00  0.00     0.058 A 
ATOM     81  C   UNL     1       5.697 -10.296   4.958  1.00  0.00     0.135 A 
ATOM     82  C   UNL     1       5.476  -8.540   6.587  1.00  0.00     0.135 A 
ATOM     83  F   UNL     1       5.629 -10.743   3.694  1.00  0.00    -0.206 F 
ATOM     84  C   UNL     1       6.041 -11.197   5.960  1.00  0.00     0.059 A 
ATOM     85  C   UNL     1       5.834  -9.421   7.604  1.00  0.00     0.059 A 
ATOM     86  F   UNL     1       5.205  -7.267   6.916  1.00  0.00    -0.206 F 
ATOM     87  C   UNL     1       6.102 -10.751   7.281  1.00  0.00     0.060 A 
BRANCH  87  88
ATOM     88  S   UNL     1       6.559 -11.925   8.575  1.00  0.00     0.124 S 
ATOM     89  O   UNL     1       5.315 -12.667   8.751  1.00  0.00    -0.237 OA
ATOM     90  O   UNL     1       7.656 -12.665   7.958  1.00  0.00    -0.237 OA
ATOM     91  O   UNL     1       6.942 -11.066   9.691  1.00  0.00    -0.744 OA
ENDBRANCH  87  88
ENDBRANCH  55  80
ENDBRANCH  29  30
ENDBRANCH  22  24
ENDBRANCH  21  22
ENDBRANCH   1  21
TORSDOF 16
