REMARK SMILES Cc1ccc([C@@H](C)Nc2ccc(N)cc2C(=O)OCCOC(=O)c2ccc(-c3c4nc(c(-c5c(F)cc(S(=O)(=O)[O-])cc5F)c5ccc([nH]5)c(-c5c(F)cc(S(=O)(=O)[O-])cc5F)c5nc(c(-c6c(F)cc(S(=O)(=O)[O-])cc6F)c6ccc3[nH]6)C=C5)C=C4)cc2)cc1F
REMARK SMILES IDX 19 1 18 2 16 3 17 4 15 5 9 6 10 7 11 8 14 9 12 10 8 11 6 13
REMARK SMILES IDX 7 14 5 15 1 16 2 17 3 18 91 19 4 20 90 21 92 22 13 23 20 26
REMARK SMILES IDX 21 27 22 28 23 29 24 30 25 31 89 32 26 33 88 34 27 35 28 36
REMARK SMILES IDX 29 37 82 38 30 39 87 40 81 41 83 42 31 43 86 44 80 45 79 46
REMARK SMILES IDX 32 48 66 49 45 50 65 51 46 52 49 53 64 54 84 55 47 56 48 57
REMARK SMILES IDX 63 59 85 60 50 61 33 62 34 63 43 64 35 65 36 66 42 67 44 68
REMARK SMILES IDX 37 69 38 70 39 71 40 72 41 73 67 74 68 75 77 76 69 77 70 78
REMARK SMILES IDX 76 79 78 80 71 81 72 82 73 83 74 84 75 85 51 86 52 87 61 88
REMARK SMILES IDX 53 89 54 90 60 91 62 92 55 93 56 94 57 95 58 96 59 97
REMARK H PARENT 8 12 13 24 13 25 83 47 49 58
REMARK Flexibility Score: inf
ROOT
ATOM      1  C   UNL     1      -4.316  -2.251  -2.836  1.00  0.00     0.275 C 
ENDROOT
BRANCH   1   2
ATOM      2  O   UNL     1      -3.813  -2.808  -1.604  1.00  0.00    -0.458 OA
BRANCH   2   3
ATOM      3  C   UNL     1      -4.664  -3.520  -0.834  1.00  0.00     0.340 C 
ATOM      4  O   UNL     1      -5.867  -3.662  -1.014  1.00  0.00    -0.246 OA
BRANCH   3   5
ATOM      5  C   UNL     1      -3.927  -4.245   0.227  1.00  0.00     0.085 A 
ATOM      6  C   UNL     1      -3.382  -3.687   1.393  1.00  0.00     0.049 A 
ATOM      7  C   UNL     1      -2.903  -4.639   2.338  1.00  0.00     0.029 A 
ATOM      8  C   UNL     1      -2.897  -6.025   2.132  1.00  0.00     0.027 A 
ATOM      9  C   UNL     1      -3.930  -5.660   0.037  1.00  0.00     0.043 A 
ATOM     10  C   UNL     1      -3.358  -6.550   0.943  1.00  0.00     0.032 A 
BRANCH   6  11
ATOM     11  N   UNL     1      -3.322  -2.386   1.851  1.00  0.00    -0.378 N 
ATOM     12  H   UNL     1      -3.116  -2.367   2.814  1.00  0.00     0.161 HD
BRANCH  11  13
ATOM     13  C   UNL     1      -3.472  -1.027   1.329  1.00  0.00     0.106 C 
ATOM     14  C   UNL     1      -4.656  -0.767   0.414  1.00  0.00     0.036 C 
BRANCH  13  15
ATOM     15  C   UNL     1      -2.161  -0.326   0.971  1.00  0.00    -0.023 A 
ATOM     16  C   UNL     1       1.518   1.802   0.062  1.00  0.00     0.047 C 
ATOM     17  C   UNL     1       0.244   1.105   0.428  1.00  0.00    -0.015 A 
ATOM     18  C   UNL     1      -0.999   1.667   0.130  1.00  0.00     0.007 A 
ATOM     19  C   UNL     1       0.272  -0.169   0.993  1.00  0.00     0.126 A 
ATOM     20  C   UNL     1      -2.180   0.968   0.412  1.00  0.00     0.006 A 
ATOM     21  C   UNL     1      -0.902  -0.876   1.262  1.00  0.00     0.045 A 
ATOM     22  F   UNL     1       1.451  -0.728   1.310  1.00  0.00    -0.207 F 
ENDBRANCH  13  15
ENDBRANCH  11  13
ENDBRANCH   6  11
BRANCH  10  23
ATOM     23  N   UNL     1      -3.414  -7.924   0.748  1.00  0.00    -0.399 N 
ATOM     24  H   UNL     1      -3.002  -8.531   1.403  1.00  0.00     0.156 HD
ATOM     25  H   UNL     1      -3.867  -8.290  -0.047  1.00  0.00     0.156 HD
ENDBRANCH  10  23
ENDBRANCH   3   5
ENDBRANCH   2   3
ENDBRANCH   1   2
BRANCH   1  26
ATOM     26  C   UNL     1      -3.336  -2.538  -3.970  1.00  0.00     0.275 C 
BRANCH  26  27
ATOM     27  O   UNL     1      -3.611  -3.756  -4.689  1.00  0.00    -0.458 OA
BRANCH  27  28
ATOM     28  C   UNL     1      -3.515  -4.875  -3.953  1.00  0.00     0.338 C 
ATOM     29  O   UNL     1      -4.197  -5.157  -2.967  1.00  0.00    -0.246 OA
BRANCH  28  30
ATOM     30  C   UNL     1      -2.430  -5.742  -4.391  1.00  0.00     0.060 A 
ATOM     31  C   UNL     1      -2.130  -6.841  -3.567  1.00  0.00     0.016 A 
ATOM     32  C   UNL     1      -1.569  -5.307  -5.398  1.00  0.00     0.016 A 
ATOM     33  C   UNL     1      -0.862  -7.373  -3.602  1.00  0.00     0.010 A 
ATOM     34  C   UNL     1      -0.305  -5.832  -5.428  1.00  0.00     0.010 A 
ATOM     35  C   UNL     1       0.050  -6.811  -4.495  1.00  0.00    -0.014 A 
BRANCH  35  36
ATOM     36  C   UNL     1       1.355  -7.386  -4.692  1.00  0.00     0.031 A 
ATOM     37  C   UNL     1       1.369  -8.696  -5.359  1.00  0.00     0.074 A 
ATOM     38  C   UNL     1       2.470  -6.726  -4.332  1.00  0.00     0.049 A 
ATOM     39  N   UNL     1       2.267  -9.598  -5.186  1.00  0.00    -0.248 NA
ATOM     40  C   UNL     1       0.266  -9.127  -6.221  1.00  0.00     0.031 C 
ATOM     41  C   UNL     1       3.830  -7.059  -4.713  1.00  0.00     0.029 A 
ATOM     42  N   UNL     1       2.627  -5.712  -3.389  1.00  0.00    -0.354 N 
ATOM     43  C   UNL     1       2.055 -10.544  -6.163  1.00  0.00     0.074 A 
ATOM     44  C   UNL     1       0.725 -10.298  -6.663  1.00  0.00     0.031 C 
ATOM     45  C   UNL     1       4.662  -6.506  -3.816  1.00  0.00     0.029 A 
ATOM     46  C   UNL     1       3.842  -5.963  -2.741  1.00  0.00     0.049 A 
ATOM     47  H   UNL     1       2.007  -4.967  -3.214  1.00  0.00     0.167 HD
ATOM     48  C   UNL     1       3.105 -11.299  -6.589  1.00  0.00     0.037 A 
ATOM     49  C   UNL     1       3.964  -6.317  -1.422  1.00  0.00     0.037 A 
ATOM     50  C   UNL     1       4.319 -10.953  -5.849  1.00  0.00     0.049 A 
ATOM     51  C   UNL     1       4.561  -7.688  -1.209  1.00  0.00     0.074 A 
ATOM     52  C   UNL     1       5.373 -10.087  -6.094  1.00  0.00     0.029 A 
ATOM     53  N   UNL     1       4.374 -11.233  -4.499  1.00  0.00    -0.354 N 
ATOM     54  N   UNL     1       4.875  -8.507  -2.174  1.00  0.00    -0.248 NA
ATOM     55  C   UNL     1       4.772  -8.282   0.109  1.00  0.00     0.031 C 
ATOM     56  C   UNL     1       6.062  -9.862  -4.866  1.00  0.00     0.029 A 
ATOM     57  C   UNL     1       5.434 -10.601  -3.880  1.00  0.00     0.049 A 
ATOM     58  H   UNL     1       3.733 -11.816  -4.032  1.00  0.00     0.167 HD
ATOM     59  C   UNL     1       5.273  -9.707  -1.655  1.00  0.00     0.074 A 
ATOM     60  C   UNL     1       5.193  -9.517  -0.217  1.00  0.00     0.031 C 
ATOM     61  C   UNL     1       5.598 -10.774  -2.443  1.00  0.00     0.037 A 
BRANCH  48  62
ATOM     62  C   UNL     1       3.080 -12.081  -7.878  1.00  0.00     0.058 A 
ATOM     63  C   UNL     1       4.253 -12.221  -8.646  1.00  0.00     0.135 A 
ATOM     64  C   UNL     1       1.931 -12.681  -8.436  1.00  0.00     0.135 A 
ATOM     65  F   UNL     1       5.439 -11.785  -8.201  1.00  0.00    -0.206 F 
ATOM     66  C   UNL     1       4.267 -12.812  -9.908  1.00  0.00     0.059 A 
ATOM     67  C   UNL     1       1.905 -13.224  -9.724  1.00  0.00     0.059 A 
ATOM     68  F   UNL     1       0.797 -12.806  -7.729  1.00  0.00    -0.206 F 
ATOM     69  C   UNL     1       3.082 -13.283 -10.455  1.00  0.00     0.060 A 
BRANCH  69  70
ATOM     70  S   UNL     1       3.125 -14.001 -12.106  1.00  0.00     0.124 S 
ATOM     71  O   UNL     1       3.756 -12.943 -12.888  1.00  0.00    -0.237 OA
ATOM     72  O   UNL     1       3.930 -15.198 -11.891  1.00  0.00    -0.237 OA
ATOM     73  O   UNL     1       1.717 -14.240 -12.410  1.00  0.00    -0.744 OA
ENDBRANCH  69  70
ENDBRANCH  48  62
BRANCH  49  74
ATOM     74  C   UNL     1       3.038  -5.628  -0.476  1.00  0.00     0.058 A 
ATOM     75  C   UNL     1       3.367  -4.288  -0.212  1.00  0.00     0.135 A 
ATOM     76  C   UNL     1       1.683  -5.989  -0.481  1.00  0.00     0.135 A 
ATOM     77  F   UNL     1       4.653  -3.929  -0.066  1.00  0.00    -0.206 F 
ATOM     78  C   UNL     1       2.418  -3.291  -0.358  1.00  0.00     0.059 A 
ATOM     79  C   UNL     1       0.713  -5.008  -0.645  1.00  0.00     0.059 A 
ATOM     80  F   UNL     1       1.328  -7.274  -0.634  1.00  0.00    -0.206 F 
ATOM     81  C   UNL     1       1.135  -3.676  -0.738  1.00  0.00     0.060 A 
BRANCH  81  82
ATOM     82  S   UNL     1       0.247  -2.615  -1.917  1.00  0.00     0.124 S 
ATOM     83  O   UNL     1       1.075  -1.417  -2.014  1.00  0.00    -0.237 OA
ATOM     84  O   UNL     1       0.250  -3.461  -3.107  1.00  0.00    -0.237 OA
ATOM     85  O   UNL     1      -1.042  -2.448  -1.273  1.00  0.00    -0.744 OA
ENDBRANCH  81  82
ENDBRANCH  49  74
BRANCH  61  86
ATOM     86  C   UNL     1       6.054 -12.102  -1.899  1.00  0.00     0.058 A 
ATOM     87  C   UNL     1       6.957 -12.207  -0.829  1.00  0.00     0.135 A 
ATOM     88  C   UNL     1       5.669 -13.324  -2.498  1.00  0.00     0.135 A 
ATOM     89  F   UNL     1       7.481 -11.111  -0.259  1.00  0.00    -0.206 F 
ATOM     90  C   UNL     1       7.361 -13.440  -0.318  1.00  0.00     0.059 A 
ATOM     91  C   UNL     1       6.105 -14.561  -2.044  1.00  0.00     0.059 A 
ATOM     92  F   UNL     1       4.818 -13.375  -3.531  1.00  0.00    -0.206 F 
ATOM     93  C   UNL     1       6.916 -14.612  -0.924  1.00  0.00     0.060 A 
BRANCH  93  94
ATOM     94  S   UNL     1       7.401 -16.206  -0.247  1.00  0.00     0.124 S 
ATOM     95  O   UNL     1       8.801 -15.988   0.104  1.00  0.00    -0.237 OA
ATOM     96  O   UNL     1       6.478 -16.334   0.876  1.00  0.00    -0.237 OA
ATOM     97  O   UNL     1       7.175 -17.130  -1.355  1.00  0.00    -0.744 OA
ENDBRANCH  93  94
ENDBRANCH  61  86
ENDBRANCH  35  36
ENDBRANCH  28  30
ENDBRANCH  27  28
ENDBRANCH  26  27
ENDBRANCH   1  26
TORSDOF 18
