REMARK SMILES CC1CC[NH+]([C@H](c2ccc(F)cc2)c2ccc([C@@H](C)C(=O)OCCOC(=O)c3ccc(-c4c5nc(c(-c6c(F)cc(S(=O)(=O)[O-])cc6F)c6ccc([nH]6)c(-c6c(F)cc(S(=O)(=O)[O-])cc6F)c6nc(c(-c7c(F)cc(S(=O)(=O)[O-])cc7F)c7ccc4[nH]7)C=C6)C=C5)cc3)cc2-c2ccc(C(F)(F)F)cc2)CC1
REMARK SMILES IDX 23 1 22 2 20 3 21 4 18 5 19 6 17 7 14 8 15 9 95 10 16 11
REMARK SMILES IDX 94 12 6 13 5 14 1 15 2 16 3 17 107 18 4 19 106 20 7 22 8 23
REMARK SMILES IDX 13 24 9 25 12 26 10 27 11 28 96 29 97 30 105 31 98 32 104 33
REMARK SMILES IDX 99 34 100 35 101 36 102 37 103 38 24 39 25 40 26 41 27 42
REMARK SMILES IDX 28 43 29 44 93 45 30 46 92 47 31 48 32 49 33 50 86 51 34 52
REMARK SMILES IDX 91 53 85 54 87 55 35 56 90 57 84 58 83 59 36 61 70 62 49 63
REMARK SMILES IDX 69 64 50 65 53 66 68 67 88 68 51 69 52 70 67 72 89 73 54 74
REMARK SMILES IDX 37 75 38 76 47 77 39 78 40 79 46 80 48 81 41 82 42 83 43 84
REMARK SMILES IDX 44 85 45 86 71 87 72 88 81 89 73 90 74 91 80 92 82 93 75 94
REMARK SMILES IDX 76 95 77 96 78 97 79 98 55 99 56 100 65 101 57 102 58 103
REMARK SMILES IDX 64 104 66 105 59 106 60 107 61 108 62 109 63 110
REMARK H PARENT 5 21 87 60 53 71
REMARK Flexibility Score: inf
ROOT
ATOM      1  C   UNL     1       2.631   7.327  -3.098  1.00  0.00     0.274 C 
ENDROOT
BRANCH   1   2
ATOM      2  O   UNL     1       3.068   6.046  -3.588  1.00  0.00    -0.462 OA
BRANCH   2   3
ATOM      3  C   UNL     1       4.381   5.906  -3.913  1.00  0.00     0.313 C 
ATOM      4  O   UNL     1       5.188   6.830  -3.922  1.00  0.00    -0.252 OA
BRANCH   3   5
ATOM      5  C   UNL     1       4.758   4.483  -4.333  1.00  0.00     0.126 C 
ATOM      6  C   UNL     1       4.725   4.373  -5.856  1.00  0.00     0.025 C 
BRANCH   5   7
ATOM      7  C   UNL     1       3.961   3.373  -3.662  1.00  0.00    -0.033 A 
ATOM      8  C   UNL     1       2.443   1.334  -2.331  1.00  0.00     0.022 A 
ATOM      9  C   UNL     1       1.854   2.289  -3.183  1.00  0.00     0.011 A 
ATOM     10  C   UNL     1       3.855   1.409  -2.158  1.00  0.00    -0.009 A 
ATOM     11  C   UNL     1       2.590   3.260  -3.856  1.00  0.00     0.005 A 
ATOM     12  C   UNL     1       4.580   2.434  -2.820  1.00  0.00     0.013 A 
BRANCH   8  13
ATOM     13  C   UNL     1       1.585   0.226  -1.655  1.00  0.00     0.247 C 
BRANCH  13  14
ATOM     14  N   UNL     1       0.147   0.088  -2.077  1.00  0.00    -0.325 N 
ATOM     15  C   UNL     1      -3.440   1.305  -4.308  1.00  0.00     0.008 C 
ATOM     16  C   UNL     1      -2.062   1.144  -3.677  1.00  0.00    -0.003 C 
ATOM     17  C   UNL     1      -1.410  -0.180  -4.068  1.00  0.00     0.065 C 
ATOM     18  C   UNL     1      -2.142   1.174  -2.155  1.00  0.00     0.065 C 
ATOM     19  C   UNL     1      -0.001  -0.304  -3.481  1.00  0.00     0.263 C 
ATOM     20  C   UNL     1      -0.747   1.112  -1.532  1.00  0.00     0.263 C 
ATOM     21  H   UNL     1      -0.233  -0.729  -1.599  1.00  0.00     0.348 HD
ENDBRANCH  13  14
BRANCH  13  22
ATOM     22  C   UNL     1       1.705   0.171  -0.122  1.00  0.00     0.014 A 
ATOM     23  C   UNL     1       1.625   1.329   0.674  1.00  0.00     0.013 A 
ATOM     24  C   UNL     1       1.879  -1.074   0.515  1.00  0.00     0.013 A 
ATOM     25  C   UNL     1       1.706   1.240   2.066  1.00  0.00     0.040 A 
ATOM     26  C   UNL     1       1.982  -1.157   1.905  1.00  0.00     0.040 A 
ATOM     27  C   UNL     1       1.885   0.000   2.666  1.00  0.00     0.123 A 
ATOM     28  F   UNL     1       1.956  -0.082   4.001  1.00  0.00    -0.207 F 
ENDBRANCH  13  22
ENDBRANCH   8  13
BRANCH  10  29
ATOM     29  C   UNL     1       4.619   0.471  -1.311  1.00  0.00    -0.018 A 
ATOM     30  C   UNL     1       5.175   0.897  -0.093  1.00  0.00     0.009 A 
ATOM     31  C   UNL     1       4.810  -0.865  -1.694  1.00  0.00     0.009 A 
ATOM     32  C   UNL     1       5.858   0.002   0.739  1.00  0.00     0.014 A 
ATOM     33  C   UNL     1       5.485  -1.763  -0.861  1.00  0.00     0.014 A 
ATOM     34  C   UNL     1       6.002  -1.343   0.373  1.00  0.00     0.056 A 
BRANCH  34  35
ATOM     35  C   UNL     1       6.708  -2.312   1.291  1.00  0.00     0.416 C 
ATOM     36  F   UNL     1       8.055  -2.126   1.312  1.00  0.00    -0.166 F 
ATOM     37  F   UNL     1       6.284  -2.220   2.580  1.00  0.00    -0.166 F 
ATOM     38  F   UNL     1       6.519  -3.616   0.934  1.00  0.00    -0.166 F 
ENDBRANCH  34  35
ENDBRANCH  10  29
ENDBRANCH   5   7
ENDBRANCH   3   5
ENDBRANCH   2   3
ENDBRANCH   1   2
BRANCH   1  39
ATOM     39  C   UNL     1       2.460   7.290  -1.579  1.00  0.00     0.275 C 
BRANCH  39  40
ATOM     40  O   UNL     1       3.738   7.168  -0.934  1.00  0.00    -0.458 OA
BRANCH  40  41
ATOM     41  C   UNL     1       4.050   5.930  -0.486  1.00  0.00     0.338 C 
ATOM     42  O   UNL     1       3.346   4.937  -0.484  1.00  0.00    -0.246 OA
BRANCH  41  43
ATOM     43  C   UNL     1       5.462   5.925  -0.081  1.00  0.00     0.060 A 
ATOM     44  C   UNL     1       6.386   5.280  -0.905  1.00  0.00     0.016 A 
ATOM     45  C   UNL     1       5.863   6.502   1.123  1.00  0.00     0.016 A 
ATOM     46  C   UNL     1       7.721   5.198  -0.528  1.00  0.00     0.010 A 
ATOM     47  C   UNL     1       7.207   6.427   1.499  1.00  0.00     0.010 A 
ATOM     48  C   UNL     1       8.140   5.764   0.681  1.00  0.00    -0.014 A 
BRANCH  48  49
ATOM     49  C   UNL     1       9.548   5.614   1.113  1.00  0.00     0.031 A 
ATOM     50  C   UNL     1       9.889   4.656   2.215  1.00  0.00     0.074 A 
ATOM     51  C   UNL     1      10.515   6.327   0.507  1.00  0.00     0.049 A 
ATOM     52  N   UNL     1      11.042   4.434   2.789  1.00  0.00    -0.248 NA
ATOM     53  C   UNL     1       8.784   3.842   2.744  1.00  0.00     0.031 C 
ATOM     54  C   UNL     1      10.303   7.256  -0.604  1.00  0.00     0.029 A 
ATOM     55  N   UNL     1      11.865   6.384   0.742  1.00  0.00    -0.354 N 
ATOM     56  C   UNL     1      10.800   3.478   3.766  1.00  0.00     0.074 A 
ATOM     57  C   UNL     1       9.386   3.168   3.713  1.00  0.00     0.031 C 
ATOM     58  C   UNL     1      11.484   7.788  -0.957  1.00  0.00     0.029 A 
ATOM     59  C   UNL     1      12.525   7.275  -0.069  1.00  0.00     0.049 A 
ATOM     60  H   UNL     1      12.317   5.838   1.425  1.00  0.00     0.167 HD
ATOM     61  C   UNL     1      11.679   2.913   4.626  1.00  0.00     0.037 A 
ATOM     62  C   UNL     1      13.818   7.655  -0.078  1.00  0.00     0.037 A 
ATOM     63  C   UNL     1      13.086   3.216   4.656  1.00  0.00     0.049 A 
ATOM     64  C   UNL     1      14.770   7.047   0.912  1.00  0.00     0.074 A 
ATOM     65  C   UNL     1      14.066   2.670   5.465  1.00  0.00     0.029 A 
ATOM     66  N   UNL     1      13.713   4.151   3.844  1.00  0.00    -0.354 N 
ATOM     67  N   UNL     1      14.530   6.143   1.832  1.00  0.00    -0.248 NA
ATOM     68  C   UNL     1      16.162   7.513   0.873  1.00  0.00     0.031 C 
ATOM     69  C   UNL     1      15.278   3.307   5.173  1.00  0.00     0.029 A 
ATOM     70  C   UNL     1      15.062   4.219   4.152  1.00  0.00     0.049 A 
ATOM     71  H   UNL     1      13.264   4.688   3.151  1.00  0.00     0.167 HD
ATOM     72  C   UNL     1      15.741   5.927   2.479  1.00  0.00     0.074 A 
ATOM     73  C   UNL     1      16.715   6.786   1.836  1.00  0.00     0.031 C 
ATOM     74  C   UNL     1      16.017   5.092   3.512  1.00  0.00     0.037 A 
BRANCH  61  75
ATOM     75  C   UNL     1      11.132   1.941   5.634  1.00  0.00     0.058 A 
ATOM     76  C   UNL     1      11.033   2.308   6.985  1.00  0.00     0.135 A 
ATOM     77  C   UNL     1      10.711   0.651   5.272  1.00  0.00     0.135 A 
ATOM     78  F   UNL     1      11.412   3.533   7.383  1.00  0.00    -0.206 F 
ATOM     79  C   UNL     1      10.535   1.432   7.943  1.00  0.00     0.059 A 
ATOM     80  C   UNL     1      10.187  -0.235   6.211  1.00  0.00     0.059 A 
ATOM     81  F   UNL     1      10.761   0.260   3.989  1.00  0.00    -0.206 F 
ATOM     82  C   UNL     1      10.111   0.163   7.546  1.00  0.00     0.060 A 
BRANCH  82  83
ATOM     83  S   UNL     1       9.396  -0.934   8.789  1.00  0.00     0.124 S 
ATOM     84  O   UNL     1      10.579  -1.362   9.527  1.00  0.00    -0.237 OA
ATOM     85  O   UNL     1       8.488  -0.042   9.504  1.00  0.00    -0.237 OA
ATOM     86  O   UNL     1       8.743  -1.968   7.991  1.00  0.00    -0.744 OA
ENDBRANCH  82  83
ENDBRANCH  61  75
BRANCH  62  87
ATOM     87  C   UNL     1      14.259   8.671  -1.067  1.00  0.00     0.058 A 
ATOM     88  C   UNL     1      13.861  10.012  -0.951  1.00  0.00     0.135 A 
ATOM     89  C   UNL     1      14.993   8.300  -2.202  1.00  0.00     0.135 A 
ATOM     90  F   UNL     1      13.153  10.415   0.116  1.00  0.00    -0.206 F 
ATOM     91  C   UNL     1      14.128  10.939  -1.952  1.00  0.00     0.059 A 
ATOM     92  C   UNL     1      15.290   9.215  -3.209  1.00  0.00     0.059 A 
ATOM     93  F   UNL     1      15.409   7.033  -2.347  1.00  0.00    -0.206 F 
ATOM     94  C   UNL     1      14.827  10.525  -3.087  1.00  0.00     0.060 A 
BRANCH  94  95
ATOM     95  S   UNL     1      15.087  11.720  -4.416  1.00  0.00     0.124 S 
ATOM     96  O   UNL     1      13.732  11.880  -4.933  1.00  0.00    -0.237 OA
ATOM     97  O   UNL     1      15.631  12.867  -3.696  1.00  0.00    -0.237 OA
ATOM     98  O   UNL     1      16.022  11.039  -5.305  1.00  0.00    -0.744 OA
ENDBRANCH  94  95
ENDBRANCH  62  87
BRANCH  74  99
ATOM     99  C   UNL     1      17.429   5.062   4.024  1.00  0.00     0.058 A 
ATOM    100  C   UNL     1      18.256   3.956   3.770  1.00  0.00     0.135 A 
ATOM    101  C   UNL     1      17.934   6.089   4.836  1.00  0.00     0.135 A 
ATOM    102  F   UNL     1      17.820   2.946   3.002  1.00  0.00    -0.206 F 
ATOM    103  C   UNL     1      19.529   3.860   4.323  1.00  0.00     0.059 A 
ATOM    104  C   UNL     1      19.213   6.023   5.383  1.00  0.00     0.059 A 
ATOM    105  F   UNL     1      17.186   7.173   5.096  1.00  0.00    -0.206 F 
ATOM    106  C   UNL     1      19.996   4.895   5.135  1.00  0.00     0.060 A 
BRANCH 106 107
ATOM    107  S   UNL     1      21.650   4.755   5.844  1.00  0.00     0.124 S 
ATOM    108  O   UNL     1      21.449   3.740   6.873  1.00  0.00    -0.237 OA
ATOM    109  O   UNL     1      22.447   4.342   4.693  1.00  0.00    -0.237 OA
ATOM    110  O   UNL     1      21.924   6.102   6.334  1.00  0.00    -0.744 OA
ENDBRANCH 106 107
ENDBRANCH  74  99
ENDBRANCH  48  49
ENDBRANCH  41  43
ENDBRANCH  40  41
ENDBRANCH  39  40
ENDBRANCH   1  39
TORSDOF 20
