REMARK SMILES O=C(OCCOC(=O)c1cn(C2C[NH+](CCC[C@@H]3CCCO3)C2)nn1)c1ccc(-c2c3nc(c(-c4c(F)cc(S(=O)(=O)[O-])cc4F)c4ccc([nH]4)c(-c4c(F)cc(S(=O)(=O)[O-])cc4F)c4nc(c(-c5c(F)cc(S(=O)(=O)[O-])cc5F)c5ccc2[nH]5)C=C4)C=C3)cc1
REMARK SMILES IDX 5 1 4 2 3 3 2 4 1 5 26 6 27 7 91 8 28 9 90 10 29 11 30 12
REMARK SMILES IDX 31 13 84 14 32 15 89 16 83 17 85 18 33 19 88 20 82 21 81 22
REMARK SMILES IDX 34 24 68 25 47 26 67 27 48 28 51 29 66 30 86 31 49 32 50 33
REMARK SMILES IDX 65 35 87 36 52 37 35 38 36 39 45 40 37 41 38 42 44 43 46 44
REMARK SMILES IDX 39 45 40 46 41 47 42 48 43 49 69 50 70 51 79 52 71 53 72 54
REMARK SMILES IDX 78 55 80 56 73 57 74 58 75 59 76 60 77 61 53 62 54 63 63 64
REMARK SMILES IDX 55 65 56 66 62 67 64 68 57 69 58 70 59 71 60 72 61 73 6 74
REMARK SMILES IDX 7 75 8 76 9 77 10 78 25 79 11 80 24 81 12 82 13 83 23 84
REMARK SMILES IDX 14 85 15 87 16 88 17 89 18 90 19 91 22 92 20 93 21 94
REMARK H PARENT 85 23 51 34 14 86
REMARK Flexibility Score: inf
ROOT
ATOM      1  C   UNL     1       4.617  -0.686   1.493  1.00  0.00     0.275 C 
ENDROOT
BRANCH   1   2
ATOM      2  C   UNL     1       4.769   0.774   1.069  1.00  0.00     0.275 C 
BRANCH   2   3
ATOM      3  O   UNL     1       3.561   1.493   0.744  1.00  0.00    -0.458 OA
BRANCH   3   4
ATOM      4  C   UNL     1       2.527   0.828   0.176  1.00  0.00     0.338 C 
ATOM      5  O   UNL     1       1.667   0.237   0.808  1.00  0.00    -0.246 OA
BRANCH   4   6
ATOM      6  C   UNL     1       2.456   1.093  -1.280  1.00  0.00     0.060 A 
ATOM      7  C   UNL     1       3.614   1.238  -2.052  1.00  0.00     0.016 A 
ATOM      8  C   UNL     1       1.197   1.196  -1.882  1.00  0.00     0.016 A 
ATOM      9  C   UNL     1       3.518   1.557  -3.398  1.00  0.00     0.010 A 
ATOM     10  C   UNL     1       1.101   1.513  -3.235  1.00  0.00     0.010 A 
ATOM     11  C   UNL     1       2.262   1.722  -3.985  1.00  0.00    -0.014 A 
BRANCH  11  12
ATOM     12  C   UNL     1       2.228   2.043  -5.411  1.00  0.00     0.031 A 
ATOM     13  C   UNL     1       2.732   0.993  -6.350  1.00  0.00     0.074 A 
ATOM     14  C   UNL     1       1.637   3.147  -5.907  1.00  0.00     0.049 A 
ATOM     15  N   UNL     1       3.667   1.074  -7.244  1.00  0.00    -0.248 NA
ATOM     16  C   UNL     1       2.125  -0.343  -6.245  1.00  0.00     0.031 C 
ATOM     17  C   UNL     1       0.797   4.118  -5.203  1.00  0.00     0.029 A 
ATOM     18  N   UNL     1       1.572   3.559  -7.204  1.00  0.00    -0.354 N 
ATOM     19  C   UNL     1       3.653  -0.138  -7.938  1.00  0.00     0.074 A 
ATOM     20  C   UNL     1       2.751  -1.003  -7.220  1.00  0.00     0.031 C 
ATOM     21  C   UNL     1       0.125   4.857  -6.114  1.00  0.00     0.029 A 
ATOM     22  C   UNL     1       0.588   4.503  -7.446  1.00  0.00     0.049 A 
ATOM     23  H   UNL     1       2.171   3.216  -7.906  1.00  0.00     0.167 HD
ATOM     24  C   UNL     1       4.269  -0.316  -9.142  1.00  0.00     0.037 A 
ATOM     25  C   UNL     1       0.125   4.890  -8.660  1.00  0.00     0.037 A 
ATOM     26  C   UNL     1       5.248   0.700  -9.412  1.00  0.00     0.049 A 
ATOM     27  C   UNL     1       1.147   4.527  -9.675  1.00  0.00     0.074 A 
ATOM     28  C   UNL     1       6.396   1.137  -8.778  1.00  0.00     0.029 A 
ATOM     29  N   UNL     1       4.962   1.669 -10.342  1.00  0.00    -0.354 N 
ATOM     30  N   UNL     1       2.325   5.080  -9.771  1.00  0.00    -0.248 NA
ATOM     31  C   UNL     1       1.004   3.248 -10.354  1.00  0.00     0.031 C 
ATOM     32  C   UNL     1       6.418   2.547  -8.985  1.00  0.00     0.029 A 
ATOM     33  C   UNL     1       5.297   2.863  -9.754  1.00  0.00     0.049 A 
ATOM     34  H   UNL     1       4.593   1.535 -11.245  1.00  0.00     0.167 HD
ATOM     35  C   UNL     1       3.172   4.057 -10.169  1.00  0.00     0.074 A 
ATOM     36  C   UNL     1       2.288   2.980 -10.605  1.00  0.00     0.031 C 
ATOM     37  C   UNL     1       4.504   4.065  -9.862  1.00  0.00     0.037 A 
BRANCH  24  38
ATOM     38  C   UNL     1       3.806  -1.282 -10.205  1.00  0.00     0.058 A 
ATOM     39  C   UNL     1       4.657  -1.617 -11.279  1.00  0.00     0.135 A 
ATOM     40  C   UNL     1       2.464  -1.698 -10.337  1.00  0.00     0.135 A 
ATOM     41  F   UNL     1       5.951  -1.258 -11.265  1.00  0.00    -0.206 F 
ATOM     42  C   UNL     1       4.197  -2.277 -12.420  1.00  0.00     0.059 A 
ATOM     43  C   UNL     1       1.996  -2.405 -11.440  1.00  0.00     0.059 A 
ATOM     44  F   UNL     1       1.533  -1.366  -9.433  1.00  0.00    -0.206 F 
ATOM     45  C   UNL     1       2.860  -2.655 -12.495  1.00  0.00     0.060 A 
BRANCH  45  46
ATOM     46  S   UNL     1       2.244  -3.432 -14.001  1.00  0.00     0.124 S 
ATOM     47  O   UNL     1       2.179  -2.292 -14.907  1.00  0.00    -0.237 OA
ATOM     48  O   UNL     1       3.285  -4.415 -14.283  1.00  0.00    -0.237 OA
ATOM     49  O   UNL     1       0.961  -3.989 -13.586  1.00  0.00    -0.744 OA
ENDBRANCH  45  46
ENDBRANCH  24  38
BRANCH  25  50
ATOM     50  C   UNL     1      -1.275   5.229  -9.019  1.00  0.00     0.058 A 
ATOM     51  C   UNL     1      -1.580   5.891 -10.220  1.00  0.00     0.135 A 
ATOM     52  C   UNL     1      -2.366   4.674  -8.318  1.00  0.00     0.135 A 
ATOM     53  F   UNL     1      -0.599   6.417 -10.969  1.00  0.00    -0.206 F 
ATOM     54  C   UNL     1      -2.887   5.971 -10.713  1.00  0.00     0.059 A 
ATOM     55  C   UNL     1      -3.676   4.755  -8.780  1.00  0.00     0.059 A 
ATOM     56  F   UNL     1      -2.179   3.952  -7.203  1.00  0.00    -0.206 F 
ATOM     57  C   UNL     1      -3.928   5.386  -9.991  1.00  0.00     0.060 A 
BRANCH  57  58
ATOM     58  S   UNL     1      -5.589   5.345 -10.701  1.00  0.00     0.124 S 
ATOM     59  O   UNL     1      -5.982   6.748 -10.626  1.00  0.00    -0.237 OA
ATOM     60  O   UNL     1      -5.339   4.823 -12.040  1.00  0.00    -0.237 OA
ATOM     61  O   UNL     1      -6.316   4.444  -9.810  1.00  0.00    -0.744 OA
ENDBRANCH  57  58
ENDBRANCH  25  50
BRANCH  37  62
ATOM     62  C   UNL     1       5.114   5.329  -9.317  1.00  0.00     0.058 A 
ATOM     63  C   UNL     1       4.736   5.916  -8.097  1.00  0.00     0.135 A 
ATOM     64  C   UNL     1       6.239   5.866  -9.962  1.00  0.00     0.135 A 
ATOM     65  F   UNL     1       3.747   5.394  -7.359  1.00  0.00    -0.206 F 
ATOM     66  C   UNL     1       5.416   7.011  -7.564  1.00  0.00     0.059 A 
ATOM     67  C   UNL     1       6.954   6.938  -9.433  1.00  0.00     0.059 A 
ATOM     68  F   UNL     1       6.695   5.307 -11.096  1.00  0.00    -0.206 F 
ATOM     69  C   UNL     1       6.529   7.514  -8.237  1.00  0.00     0.060 A 
BRANCH  69  70
ATOM     70  S   UNL     1       7.469   8.862  -7.489  1.00  0.00     0.124 S 
ATOM     71  O   UNL     1       6.591  10.007  -7.707  1.00  0.00    -0.237 OA
ATOM     72  O   UNL     1       7.606   8.424  -6.102  1.00  0.00    -0.237 OA
ATOM     73  O   UNL     1       8.714   8.874  -8.252  1.00  0.00    -0.744 OA
ENDBRANCH  69  70
ENDBRANCH  37  62
ENDBRANCH  11  12
ENDBRANCH   4   6
ENDBRANCH   3   4
ENDBRANCH   2   3
ENDBRANCH   1   2
BRANCH   1  74
ATOM     74  O   UNL     1       4.135  -1.455   0.387  1.00  0.00    -0.457 OA
BRANCH  74  75
ATOM     75  C   UNL     1       3.141  -2.353   0.671  1.00  0.00     0.360 C 
ATOM     76  O   UNL     1       2.784  -2.679   1.798  1.00  0.00    -0.244 OA
BRANCH  75  77
ATOM     77  C   UNL     1       2.628  -2.941  -0.541  1.00  0.00     0.190 A 
ATOM     78  C   UNL     1       3.152  -4.021  -1.214  1.00  0.00     0.147 A 
ATOM     79  N   UNL     1       1.572  -2.433  -1.250  1.00  0.00    -0.123 NA
ATOM     80  N   UNL     1       2.395  -4.098  -2.348  1.00  0.00    -0.237 N 
ATOM     81  N   UNL     1       1.437  -3.153  -2.357  1.00  0.00    -0.066 NA
BRANCH  80  82
ATOM     82  C   UNL     1       2.552  -4.996  -3.448  1.00  0.00     0.218 C 
ATOM     83  C   UNL     1       4.011  -5.415  -3.756  1.00  0.00     0.295 C 
ATOM     84  C   UNL     1       2.356  -6.476  -3.048  1.00  0.00     0.295 C 
ATOM     85  N   UNL     1       3.603  -6.822  -3.748  1.00  0.00    -0.331 N 
ATOM     86  H   UNL     1       4.231  -7.527  -3.363  1.00  0.00     0.348 HD
BRANCH  85  87
ATOM     87  C   UNL     1       3.394  -7.407  -5.082  1.00  0.00     0.262 C 
BRANCH  87  88
ATOM     88  C   UNL     1       2.462  -6.779  -6.136  1.00  0.00     0.064 C 
BRANCH  88  89
ATOM     89  C   UNL     1       2.946  -5.528  -6.883  1.00  0.00     0.038 C 
BRANCH  89  90
ATOM     90  C   UNL     1       4.330  -5.646  -7.521  1.00  0.00     0.118 C 
ATOM     91  C   UNL     1       4.628  -4.489  -8.465  1.00  0.00     0.034 C 
ATOM     92  O   UNL     1       4.426  -6.856  -8.290  1.00  0.00    -0.378 OA
ATOM     93  C   UNL     1       5.495  -5.140  -9.510  1.00  0.00     0.031 C 
ATOM     94  C   UNL     1       4.875  -6.515  -9.611  1.00  0.00     0.160 C 
ENDBRANCH  89  90
ENDBRANCH  88  89
ENDBRANCH  87  88
ENDBRANCH  85  87
ENDBRANCH  80  82
ENDBRANCH  75  77
ENDBRANCH  74  75
ENDBRANCH   1  74
TORSDOF 19
