REMARK SMILES CN(C(=O)N1CCC(C(=O)OCCOC(=O)c2ccc(-c3c4nc(c(-c5c(F)cc(S(=O)(=O)[O-])cc5F)c5ccc([nH]5)c(-c5c(F)cc(S(=O)(=O)[O-])cc5F)c5nc(c(-c6c(F)cc(S(=O)(=O)[O-])cc6F)c6ccc3[nH]6)C=C5)C=C4)cc2)CC1)[C@H]1CCSC1
REMARK SMILES IDX 13 1 12 2 11 3 9 4 10 5 8 6 3 7 4 8 5 9 6 10 84 11 7 12
REMARK SMILES IDX 83 13 2 14 1 15 85 16 86 17 89 18 87 19 88 20 14 21 15 22
REMARK SMILES IDX 16 23 17 24 18 25 82 26 19 27 81 28 20 29 21 30 22 31 75 32
REMARK SMILES IDX 23 33 80 34 74 35 76 36 24 37 79 38 73 39 72 40 25 42 59 43
REMARK SMILES IDX 38 44 58 45 39 46 42 47 57 48 77 49 40 50 41 51 56 53 78 54
REMARK SMILES IDX 43 55 26 56 27 57 36 58 28 59 29 60 35 61 37 62 30 63 31 64
REMARK SMILES IDX 32 65 33 66 34 67 60 68 61 69 70 70 62 71 63 72 69 73 71 74
REMARK SMILES IDX 64 75 65 76 66 77 67 78 68 79 44 80 45 81 54 82 46 83 47 84
REMARK SMILES IDX 53 85 55 86 48 87 49 88 50 89 51 90 52 91
REMARK H PARENT 76 41 42 52
REMARK Flexibility Score: inf
ROOT
ATOM      1  C   UNL     1       7.890  -4.933  -0.057  1.00  0.00     0.275 C 
ENDROOT
BRANCH   1   2
ATOM      2  C   UNL     1       6.450  -4.871   0.457  1.00  0.00     0.274 C 
BRANCH   2   3
ATOM      3  O   UNL     1       5.976  -3.512   0.495  1.00  0.00    -0.462 OA
BRANCH   3   4
ATOM      4  C   UNL     1       5.898  -2.939   1.721  1.00  0.00     0.309 C 
ATOM      5  O   UNL     1       6.114  -3.518   2.780  1.00  0.00    -0.252 OA
BRANCH   4   6
ATOM      6  C   UNL     1       5.519  -1.474   1.672  1.00  0.00     0.103 C 
ATOM      7  C   UNL     1       2.987   1.486   0.400  1.00  0.00     0.320 C 
ATOM      8  O   UNL     1       2.894   1.368  -0.823  1.00  0.00    -0.248 OA
ATOM      9  N   UNL     1       4.023   0.905   1.100  1.00  0.00    -0.325 N 
ATOM     10  C   UNL     1       5.289   0.668   0.413  1.00  0.00     0.122 C 
ATOM     11  C   UNL     1       3.854   0.249   2.397  1.00  0.00     0.122 C 
ATOM     12  C   UNL     1       5.587  -0.821   0.289  1.00  0.00     0.037 C 
ATOM     13  C   UNL     1       4.139  -1.249   2.292  1.00  0.00     0.037 C 
BRANCH   7  14
ATOM     14  N   UNL     1       2.067   2.236   1.123  1.00  0.00    -0.324 N 
ATOM     15  C   UNL     1       2.419   2.937   2.356  1.00  0.00     0.149 C 
BRANCH  14  16
ATOM     16  C   UNL     1       0.837   2.633   0.420  1.00  0.00     0.097 C 
ATOM     17  C   UNL     1      -0.336   3.006   1.332  1.00  0.00     0.037 C 
ATOM     18  C   UNL     1       1.054   3.827  -0.522  1.00  0.00     0.094 C 
ATOM     19  C   UNL     1      -1.440   3.514   0.422  1.00  0.00     0.072 C 
ATOM     20  S   UNL     1      -0.595   4.547  -0.802  1.00  0.00    -0.160 SA
ENDBRANCH  14  16
ENDBRANCH   7  14
ENDBRANCH   4   6
ENDBRANCH   3   4
ENDBRANCH   2   3
ENDBRANCH   1   2
BRANCH   1  21
ATOM     21  O   UNL     1       8.805  -4.282   0.844  1.00  0.00    -0.458 OA
BRANCH  21  22
ATOM     22  C   UNL     1       9.133  -3.009   0.515  1.00  0.00     0.338 C 
ATOM     23  O   UNL     1       8.757  -2.374  -0.454  1.00  0.00    -0.246 OA
BRANCH  22  24
ATOM     24  C   UNL     1       9.951  -2.421   1.586  1.00  0.00     0.060 A 
ATOM     25  C   UNL     1       9.369  -1.444   2.396  1.00  0.00     0.016 A 
ATOM     26  C   UNL     1      11.295  -2.761   1.742  1.00  0.00     0.016 A 
ATOM     27  C   UNL     1      10.122  -0.807   3.378  1.00  0.00     0.010 A 
ATOM     28  C   UNL     1      12.051  -2.123   2.732  1.00  0.00     0.010 A 
ATOM     29  C   UNL     1      11.470  -1.141   3.555  1.00  0.00    -0.014 A 
BRANCH  29  30
ATOM     30  C   UNL     1      12.268  -0.455   4.600  1.00  0.00     0.031 A 
ATOM     31  C   UNL     1      13.298   0.568   4.215  1.00  0.00     0.074 A 
ATOM     32  C   UNL     1      12.057  -0.753   5.897  1.00  0.00     0.049 A 
ATOM     33  N   UNL     1      14.156   1.199   4.974  1.00  0.00    -0.248 NA
ATOM     34  C   UNL     1      13.375   0.929   2.790  1.00  0.00     0.031 C 
ATOM     35  C   UNL     1      11.064  -1.708   6.392  1.00  0.00     0.029 A 
ATOM     36  N   UNL     1      12.674  -0.293   7.033  1.00  0.00    -0.354 N 
ATOM     37  C   UNL     1      14.894   2.010   4.121  1.00  0.00     0.074 A 
ATOM     38  C   UNL     1      14.383   1.792   2.784  1.00  0.00     0.031 C 
ATOM     39  C   UNL     1      11.148  -1.773   7.731  1.00  0.00     0.029 A 
ATOM     40  C   UNL     1      12.227  -0.900   8.183  1.00  0.00     0.049 A 
ATOM     41  H   UNL     1      13.368   0.404   7.026  1.00  0.00     0.167 HD
ATOM     42  C   UNL     1      15.905   2.857   4.429  1.00  0.00     0.037 A 
ATOM     43  C   UNL     1      12.664  -0.794   9.453  1.00  0.00     0.037 A 
ATOM     44  C   UNL     1      16.388   3.090   5.766  1.00  0.00     0.049 A 
ATOM     45  C   UNL     1      13.812   0.128   9.761  1.00  0.00     0.074 A 
ATOM     46  C   UNL     1      17.379   3.964   6.181  1.00  0.00     0.029 A 
ATOM     47  N   UNL     1      15.920   2.448   6.902  1.00  0.00    -0.354 N 
ATOM     48  N   UNL     1      14.491   0.897   8.945  1.00  0.00    -0.248 NA
ATOM     49  C   UNL     1      14.260   0.188  11.160  1.00  0.00     0.031 C 
ATOM     50  C   UNL     1      17.535   3.823   7.565  1.00  0.00     0.029 A 
ATOM     51  C   UNL     1      16.618   2.887   8.015  1.00  0.00     0.049 A 
ATOM     52  H   UNL     1      15.199   1.778   6.915  1.00  0.00     0.167 HD
ATOM     53  C   UNL     1      15.442   1.538   9.731  1.00  0.00     0.074 A 
ATOM     54  C   UNL     1      15.237   1.082  11.091  1.00  0.00     0.031 C 
ATOM     55  C   UNL     1      16.402   2.420   9.360  1.00  0.00     0.037 A 
BRANCH  42  56
ATOM     56  C   UNL     1      16.581   3.583   3.303  1.00  0.00     0.058 A 
ATOM     57  C   UNL     1      15.993   4.696   2.683  1.00  0.00     0.135 A 
ATOM     58  C   UNL     1      17.869   3.204   2.890  1.00  0.00     0.135 A 
ATOM     59  F   UNL     1      14.758   5.089   3.031  1.00  0.00    -0.206 F 
ATOM     60  C   UNL     1      16.657   5.405   1.687  1.00  0.00     0.059 A 
ATOM     61  C   UNL     1      18.558   3.909   1.909  1.00  0.00     0.059 A 
ATOM     62  F   UNL     1      18.472   2.143   3.450  1.00  0.00    -0.206 F 
ATOM     63  C   UNL     1      17.941   5.006   1.309  1.00  0.00     0.060 A 
BRANCH  63  64
ATOM     64  S   UNL     1      18.806   5.957   0.040  1.00  0.00     0.124 S 
ATOM     65  O   UNL     1      18.115   5.521  -1.170  1.00  0.00    -0.237 OA
ATOM     66  O   UNL     1      18.553   7.333   0.453  1.00  0.00    -0.237 OA
ATOM     67  O   UNL     1      20.190   5.512   0.167  1.00  0.00    -0.744 OA
ENDBRANCH  63  64
ENDBRANCH  42  56
BRANCH  43  68
ATOM     68  C   UNL     1      12.049  -1.623  10.522  1.00  0.00     0.058 A 
ATOM     69  C   UNL     1      11.250  -1.047  11.519  1.00  0.00     0.135 A 
ATOM     70  C   UNL     1      12.257  -3.010  10.568  1.00  0.00     0.135 A 
ATOM     71  F   UNL     1      11.031   0.277  11.522  1.00  0.00    -0.206 F 
ATOM     72  C   UNL     1      10.692  -1.814  12.537  1.00  0.00     0.059 A 
ATOM     73  C   UNL     1      11.691  -3.801  11.561  1.00  0.00     0.059 A 
ATOM     74  F   UNL     1      13.005  -3.610   9.629  1.00  0.00    -0.206 F 
ATOM     75  C   UNL     1      10.921  -3.191  12.550  1.00  0.00     0.060 A 
BRANCH  75  76
ATOM     76  S   UNL     1      10.165  -4.191  13.851  1.00  0.00     0.124 S 
ATOM     77  O   UNL     1      11.068  -3.946  14.969  1.00  0.00    -0.237 OA
ATOM     78  O   UNL     1       8.834  -3.601  13.963  1.00  0.00    -0.237 OA
ATOM     79  O   UNL     1      10.197  -5.540  13.293  1.00  0.00    -0.744 OA
ENDBRANCH  75  76
ENDBRANCH  43  68
BRANCH  55  80
ATOM     80  C   UNL     1      17.295   2.956  10.441  1.00  0.00     0.058 A 
ATOM     81  C   UNL     1      18.328   2.178  10.987  1.00  0.00     0.135 A 
ATOM     82  C   UNL     1      17.144   4.271  10.906  1.00  0.00     0.135 A 
ATOM     83  F   UNL     1      18.507   0.911  10.580  1.00  0.00    -0.206 F 
ATOM     84  C   UNL     1      19.170   2.681  11.973  1.00  0.00     0.059 A 
ATOM     85  C   UNL     1      17.988   4.801  11.877  1.00  0.00     0.059 A 
ATOM     86  F   UNL     1      16.176   5.057  10.409  1.00  0.00    -0.206 F 
ATOM     87  C   UNL     1      18.991   3.994  12.413  1.00  0.00     0.060 A 
BRANCH  87  88
ATOM     88  S   UNL     1      20.107   4.649  13.672  1.00  0.00     0.124 S 
ATOM     89  O   UNL     1      19.566   4.046  14.885  1.00  0.00    -0.237 OA
ATOM     90  O   UNL     1      21.406   4.143  13.238  1.00  0.00    -0.237 OA
ATOM     91  O   UNL     1      19.935   6.094  13.557  1.00  0.00    -0.744 OA
ENDBRANCH  87  88
ENDBRANCH  55  80
ENDBRANCH  29  30
ENDBRANCH  22  24
ENDBRANCH  21  22
ENDBRANCH   1  21
TORSDOF 16
