REMARK SMILES Cc1c(CC(=O)N[C@H](CO)C(=O)OCCOC(=O)c2ccc(-c3c4nc(c(-c5c(F)cc(S(=O)(=O)[O-])cc5F)c5ccc([nH]5)c(-c5c(F)cc(S(=O)(=O)[O-])cc5F)c5nc(c(-c6c(F)cc(S(=O)(=O)[O-])cc6F)c6ccc3[nH]6)C=C5)C=C4)cc2)cc(-c2ccc(S(C)(=O)=O)cc2)n1-c1cccc(F)c1
REMARK SMILES IDX 14 1 13 2 11 3 12 4 8 5 7 6 5 7 6 8 4 10 3 11 1 12 2 13
REMARK SMILES IDX 97 14 85 15 86 16 98 17 99 18 104 19 100 20 102 21 101 22
REMARK SMILES IDX 103 23 87 24 88 25 96 26 89 27 95 28 90 29 91 30 92 31 93 32
REMARK SMILES IDX 94 33 9 34 10 35 15 37 16 38 17 39 18 40 19 41 20 42 84 43
REMARK SMILES IDX 21 44 83 45 22 46 23 47 24 48 77 49 25 50 82 51 76 52 78 53
REMARK SMILES IDX 26 54 81 55 75 56 74 57 27 59 61 60 40 61 60 62 41 63 44 64
REMARK SMILES IDX 59 65 79 66 42 67 43 68 58 70 80 71 45 72 28 73 29 74 38 75
REMARK SMILES IDX 30 76 31 77 37 78 39 79 32 80 33 81 34 82 35 83 36 84 62 85
REMARK SMILES IDX 63 86 72 87 64 88 65 89 71 90 73 91 66 92 67 93 68 94 69 95
REMARK SMILES IDX 70 96 46 97 47 98 56 99 48 100 49 101 55 102 57 103 50 104
REMARK SMILES IDX 51 105 52 106 53 107 54 108
REMARK H PARENT 7 9 10 36 78 58 44 69
REMARK Flexibility Score: inf
ROOT
ATOM      1  C   UNL     1       6.070  -5.920  -1.557  1.00  0.00     0.274 C 
ENDROOT
BRANCH   1   2
ATOM      2  O   UNL     1       5.068  -4.933  -1.206  1.00  0.00    -0.460 OA
BRANCH   2   3
ATOM      3  C   UNL     1       4.147  -4.657  -2.190  1.00  0.00     0.331 C 
ATOM      4  O   UNL     1       4.107  -5.236  -3.272  1.00  0.00    -0.250 OA
BRANCH   3   5
ATOM      5  C   UNL     1       3.189  -3.515  -1.769  1.00  0.00     0.218 C 
BRANCH   5   6
ATOM      6  N   UNL     1       2.292  -3.125  -2.879  1.00  0.00    -0.341 N 
ATOM      7  C   UNL     1       0.976  -3.418  -3.080  1.00  0.00     0.225 C 
ATOM      8  O   UNL     1       0.424  -2.948  -4.080  1.00  0.00    -0.275 OA
ATOM      9  H   UNL     1       2.708  -2.570  -3.578  1.00  0.00     0.164 HD
BRANCH   7  10
ATOM     10  C   UNL     1       0.203  -4.256  -2.073  1.00  0.00     0.137 C 
BRANCH  10  11
ATOM     11  C   UNL     1       0.722  -5.660  -1.964  1.00  0.00    -0.017 A 
ATOM     12  C   UNL     1       0.424  -6.504  -4.407  1.00  0.00     0.065 C 
ATOM     13  C   UNL     1       0.875  -6.594  -2.982  1.00  0.00     0.024 A 
ATOM     14  N   UNL     1       1.474  -7.726  -2.441  1.00  0.00    -0.313 N 
ATOM     15  C   UNL     1       1.149  -6.288  -0.760  1.00  0.00     0.033 A 
ATOM     16  C   UNL     1       1.653  -7.537  -1.068  1.00  0.00     0.053 A 
BRANCH  14  17
ATOM     17  C   UNL     1       1.876  -8.886  -3.158  1.00  0.00     0.049 A 
ATOM     18  C   UNL     1       1.485 -10.153  -2.701  1.00  0.00     0.027 A 
ATOM     19  C   UNL     1       2.771  -8.760  -4.223  1.00  0.00     0.065 A 
ATOM     20  C   UNL     1       1.990 -11.299  -3.315  1.00  0.00     0.005 A 
ATOM     21  C   UNL     1       3.267  -9.913  -4.820  1.00  0.00     0.125 A 
ATOM     22  C   UNL     1       2.886 -11.177  -4.376  1.00  0.00     0.039 A 
ATOM     23  F   UNL     1       4.151  -9.809  -5.821  1.00  0.00    -0.207 F 
ENDBRANCH  14  17
BRANCH  16  24
ATOM     24  C   UNL     1       2.384  -8.470  -0.196  1.00  0.00    -0.001 A 
ATOM     25  C   UNL     1       3.684  -8.871  -0.540  1.00  0.00     0.011 A 
ATOM     26  C   UNL     1       1.794  -9.012   0.951  1.00  0.00     0.011 A 
ATOM     27  C   UNL     1       4.354  -9.854   0.183  1.00  0.00     0.021 A 
ATOM     28  C   UNL     1       2.460 -10.004   1.687  1.00  0.00     0.021 A 
ATOM     29  C   UNL     1       3.722 -10.449   1.270  1.00  0.00     0.067 A 
BRANCH  29  30
ATOM     30  S   UNL     1       4.572 -11.730   2.167  1.00  0.00     0.175 S 
ATOM     31  C   UNL     1       4.411 -13.162   1.155  1.00  0.00     0.163 C 
ATOM     32  O   UNL     1       5.997 -11.403   2.141  1.00  0.00    -0.224 OA
ATOM     33  O   UNL     1       3.858 -11.971   3.389  1.00  0.00    -0.224 OA
ENDBRANCH  29  30
ENDBRANCH  16  24
ENDBRANCH  10  11
ENDBRANCH   7  10
ENDBRANCH   5   6
BRANCH   5  34
ATOM     34  C   UNL     1       4.001  -2.287  -1.336  1.00  0.00     0.193 C 
BRANCH  34  35
ATOM     35  O   UNL     1       4.311  -2.314   0.050  1.00  0.00    -0.394 OA
ATOM     36  H   UNL     1       3.489  -2.310   0.565  1.00  0.00     0.210 HD
ENDBRANCH  34  35
ENDBRANCH   5  34
ENDBRANCH   3   5
ENDBRANCH   2   3
ENDBRANCH   1   2
BRANCH   1  37
ATOM     37  C   UNL     1       7.178  -6.061  -0.485  1.00  0.00     0.275 C 
BRANCH  37  38
ATOM     38  O   UNL     1       7.079  -7.179   0.447  1.00  0.00    -0.458 OA
BRANCH  38  39
ATOM     39  C   UNL     1       6.380  -6.931   1.589  1.00  0.00     0.338 C 
ATOM     40  O   UNL     1       5.610  -5.986   1.701  1.00  0.00    -0.246 OA
BRANCH  39  41
ATOM     41  C   UNL     1       6.541  -7.990   2.659  1.00  0.00     0.060 A 
ATOM     42  C   UNL     1       5.385  -8.330   3.328  1.00  0.00     0.016 A 
ATOM     43  C   UNL     1       7.723  -8.621   3.107  1.00  0.00     0.016 A 
ATOM     44  C   UNL     1       5.412  -9.303   4.347  1.00  0.00     0.010 A 
ATOM     45  C   UNL     1       7.746  -9.565   4.227  1.00  0.00     0.010 A 
ATOM     46  C   UNL     1       6.577  -9.948   4.896  1.00  0.00    -0.014 A 
BRANCH  46  47
ATOM     47  C   UNL     1       6.365 -10.794   6.226  1.00  0.00     0.031 A 
ATOM     48  C   UNL     1       5.118 -10.258   6.850  1.00  0.00     0.074 A 
ATOM     49  C   UNL     1       6.934 -11.782   7.017  1.00  0.00     0.049 A 
ATOM     50  N   UNL     1       4.994  -8.989   7.119  1.00  0.00    -0.248 NA
ATOM     51  C   UNL     1       3.860 -11.011   6.833  1.00  0.00     0.031 C 
ATOM     52  C   UNL     1       8.189 -12.519   6.827  1.00  0.00     0.029 A 
ATOM     53  N   UNL     1       6.481 -12.371   8.232  1.00  0.00    -0.354 N 
ATOM     54  C   UNL     1       3.701  -8.809   7.524  1.00  0.00     0.074 A 
ATOM     55  C   UNL     1       3.009 -10.041   7.178  1.00  0.00     0.031 C 
ATOM     56  C   UNL     1       8.347 -13.488   7.777  1.00  0.00     0.029 A 
ATOM     57  C   UNL     1       7.251 -13.460   8.743  1.00  0.00     0.049 A 
ATOM     58  H   UNL     1       5.676 -12.045   8.697  1.00  0.00     0.167 HD
ATOM     59  C   UNL     1       3.467  -7.941   8.543  1.00  0.00     0.037 A 
ATOM     60  C   UNL     1       7.060 -14.237   9.875  1.00  0.00     0.037 A 
ATOM     61  C   UNL     1       3.063  -8.642   9.727  1.00  0.00     0.049 A 
ATOM     62  C   UNL     1       6.139 -13.505  10.763  1.00  0.00     0.074 A 
ATOM     63  C   UNL     1       2.107  -9.599  10.000  1.00  0.00     0.029 A 
ATOM     64  N   UNL     1       4.035  -8.765  10.698  1.00  0.00    -0.354 N 
ATOM     65  N   UNL     1       6.516 -12.484  11.465  1.00  0.00    -0.248 NA
ATOM     66  C   UNL     1       4.764 -13.947  10.987  1.00  0.00     0.031 C 
ATOM     67  C   UNL     1       2.770 -10.560  10.811  1.00  0.00     0.029 A 
ATOM     68  C   UNL     1       4.003 -10.049  11.201  1.00  0.00     0.049 A 
ATOM     69  H   UNL     1       4.651  -8.053  10.984  1.00  0.00     0.167 HD
ATOM     70  C   UNL     1       5.353 -11.906  11.861  1.00  0.00     0.074 A 
ATOM     71  C   UNL     1       4.350 -12.946  11.765  1.00  0.00     0.031 C 
ATOM     72  C   UNL     1       5.236 -10.563  11.757  1.00  0.00     0.037 A 
BRANCH  59  73
ATOM     73  C   UNL     1       4.324  -6.705   8.537  1.00  0.00     0.058 A 
ATOM     74  C   UNL     1       3.735  -5.474   8.231  1.00  0.00     0.135 A 
ATOM     75  C   UNL     1       5.726  -6.728   8.700  1.00  0.00     0.135 A 
ATOM     76  F   UNL     1       2.401  -5.379   8.101  1.00  0.00    -0.206 F 
ATOM     77  C   UNL     1       4.503  -4.328   8.035  1.00  0.00     0.059 A 
ATOM     78  C   UNL     1       6.518  -5.609   8.459  1.00  0.00     0.059 A 
ATOM     79  F   UNL     1       6.342  -7.855   9.094  1.00  0.00    -0.206 F 
ATOM     80  C   UNL     1       5.896  -4.412   8.120  1.00  0.00     0.060 A 
BRANCH  80  81
ATOM     81  S   UNL     1       6.877  -2.953   7.704  1.00  0.00     0.124 S 
ATOM     82  O   UNL     1       6.140  -2.388   6.575  1.00  0.00    -0.237 OA
ATOM     83  O   UNL     1       6.805  -2.183   8.940  1.00  0.00    -0.237 OA
ATOM     84  O   UNL     1       8.185  -3.502   7.363  1.00  0.00    -0.744 OA
ENDBRANCH  80  81
ENDBRANCH  59  73
BRANCH  60  85
ATOM     85  C   UNL     1       7.547 -15.524  10.568  1.00  0.00     0.058 A 
ATOM     86  C   UNL     1       7.472 -15.653  11.995  1.00  0.00     0.135 A 
ATOM     87  C   UNL     1       7.700 -16.745   9.898  1.00  0.00     0.135 A 
ATOM     88  F   UNL     1       7.377 -14.574  12.785  1.00  0.00    -0.206 F 
ATOM     89  C   UNL     1       7.395 -16.876  12.676  1.00  0.00     0.059 A 
ATOM     90  C   UNL     1       7.663 -17.995  10.570  1.00  0.00     0.059 A 
ATOM     91  F   UNL     1       7.792 -16.767   8.560  1.00  0.00    -0.206 F 
ATOM     92  C   UNL     1       7.451 -18.052  11.950  1.00  0.00     0.060 A 
BRANCH  92  93
ATOM     93  S   UNL     1       7.109 -19.612  12.819  1.00  0.00     0.124 S 
ATOM     94  O   UNL     1       8.218 -19.701  13.762  1.00  0.00    -0.237 OA
ATOM     95  O   UNL     1       5.797 -19.356  13.408  1.00  0.00    -0.237 OA
ATOM     96  O   UNL     1       7.117 -20.604  11.747  1.00  0.00    -0.744 OA
ENDBRANCH  92  93
ENDBRANCH  60  85
BRANCH  72  97
ATOM     97  C   UNL     1       6.474  -9.719  12.048  1.00  0.00     0.058 A 
ATOM     98  C   UNL     1       7.792  -9.931  11.578  1.00  0.00     0.135 A 
ATOM     99  C   UNL     1       6.310  -8.632  12.926  1.00  0.00     0.135 A 
ATOM    100  F   UNL     1       8.073 -10.833  10.625  1.00  0.00    -0.206 F 
ATOM    101  C   UNL     1       8.883  -9.195  12.053  1.00  0.00     0.059 A 
ATOM    102  C   UNL     1       7.374  -7.844  13.360  1.00  0.00     0.059 A 
ATOM    103  F   UNL     1       5.085  -8.318  13.379  1.00  0.00    -0.206 F 
ATOM    104  C   UNL     1       8.666  -8.165  12.961  1.00  0.00     0.060 A 
BRANCH 104 105
ATOM    105  S   UNL     1      10.074  -7.241  13.613  1.00  0.00     0.124 S 
ATOM    106  O   UNL     1      10.607  -8.170  14.605  1.00  0.00    -0.237 OA
ATOM    107  O   UNL     1      10.907  -7.037  12.433  1.00  0.00    -0.237 OA
ATOM    108  O   UNL     1       9.459  -6.036  14.163  1.00  0.00    -0.744 OA
ENDBRANCH 104 105
ENDBRANCH  72  97
ENDBRANCH  46  47
ENDBRANCH  39  41
ENDBRANCH  38  39
ENDBRANCH  37  38
ENDBRANCH   1  37
TORSDOF 22
