REMARK SMILES COc1ccc(C)cc1[C@@H](C)[C@@](O)(C(=O)OCCOC(=O)c1ccc(-c2c3nc(c(-c4c(F)cc(S(=O)(=O)[O-])cc4F)c4ccc([nH]4)c(-c4c(F)cc(S(=O)(=O)[O-])cc4F)c4nc(c(-c5c(F)cc(S(=O)(=O)[O-])cc5F)c5ccc2[nH]5)C=C4)C=C3)cc1)C(C)C
REMARK SMILES IDX 17 1 16 2 14 3 15 4 12 5 10 6 11 7 9 8 3 9 4 10 5 11 8 12
REMARK SMILES IDX 6 13 7 14 2 15 1 16 13 17 88 19 89 20 90 21 18 22 19 23
REMARK SMILES IDX 20 24 21 25 22 26 23 27 87 28 24 29 86 30 25 31 26 32 27 33
REMARK SMILES IDX 80 34 28 35 85 36 79 37 81 38 29 39 84 40 78 41 77 42 30 44
REMARK SMILES IDX 64 45 43 46 63 47 44 48 47 49 62 50 82 51 45 52 46 53 61 55
REMARK SMILES IDX 83 56 48 57 31 58 32 59 41 60 33 61 34 62 40 63 42 64 35 65
REMARK SMILES IDX 36 66 37 67 38 68 39 69 65 70 66 71 75 72 67 73 68 74 74 75
REMARK SMILES IDX 76 76 69 77 70 78 71 79 72 80 73 81 49 82 50 83 59 84 51 85
REMARK SMILES IDX 52 86 58 87 60 88 53 89 54 90 55 91 56 92 57 93
REMARK H PARENT 13 18 81 43 47 54
REMARK Flexibility Score: inf
ROOT
ATOM      1  C   UNL     1      -4.067   0.205   1.387  1.00  0.00     0.274 C 
ENDROOT
BRANCH   1   2
ATOM      2  O   UNL     1      -3.207  -0.835   1.892  1.00  0.00    -0.460 OA
BRANCH   2   3
ATOM      3  C   UNL     1      -2.210  -0.419   2.708  1.00  0.00     0.339 C 
ATOM      4  O   UNL     1      -2.131   0.733   3.125  1.00  0.00    -0.249 OA
BRANCH   3   5
ATOM      5  C   UNL     1      -1.103  -1.474   2.984  1.00  0.00     0.170 C 
BRANCH   5   6
ATOM      6  C   UNL     1      -0.686  -2.116   1.609  1.00  0.00     0.063 C 
ATOM      7  C   UNL     1      -1.653  -3.129   0.962  1.00  0.00     0.016 C 
BRANCH   6   8
ATOM      8  C   UNL     1       0.747  -2.645   1.633  1.00  0.00     0.001 A 
ATOM      9  C   UNL     1       1.837  -1.792   1.386  1.00  0.00     0.122 A 
ATOM     10  C   UNL     1       3.139  -2.202   1.669  1.00  0.00     0.047 A 
ATOM     11  C   UNL     1       3.375  -3.474   2.193  1.00  0.00     0.007 A 
ATOM     12  C   UNL     1       1.013  -3.948   2.084  1.00  0.00     0.011 A 
ATOM     13  C   UNL     1       2.313  -4.357   2.403  1.00  0.00    -0.051 A 
ATOM     14  C   UNL     1       2.509  -5.648   3.140  1.00  0.00     0.044 C 
BRANCH   9  15
ATOM     15  O   UNL     1       1.654  -0.472   1.062  1.00  0.00    -0.496 OA
ATOM     16  C   UNL     1       1.532  -0.276  -0.340  1.00  0.00     0.278 C 
ENDBRANCH   9  15
ENDBRANCH   6   8
ENDBRANCH   5   6
BRANCH   5  17
ATOM     17  O   UNL     1      -0.010  -0.573   3.393  1.00  0.00    -0.377 OA
ATOM     18  H   UNL     1       0.213   0.018   2.657  1.00  0.00     0.212 HD
ENDBRANCH   5  17
BRANCH   5  19
ATOM     19  C   UNL     1      -1.354  -2.356   4.250  1.00  0.00     0.027 C 
ATOM     20  C   UNL     1      -2.145  -3.644   4.054  1.00  0.00     0.011 C 
ATOM     21  C   UNL     1      -0.093  -2.658   5.091  1.00  0.00     0.011 C 
ENDBRANCH   5  19
ENDBRANCH   3   5
ENDBRANCH   2   3
ENDBRANCH   1   2
BRANCH   1  22
ATOM     22  C   UNL     1      -5.382  -0.385   0.846  1.00  0.00     0.275 C 
BRANCH  22  23
ATOM     23  O   UNL     1      -6.334  -0.823   1.837  1.00  0.00    -0.458 OA
BRANCH  23  24
ATOM     24  C   UNL     1      -5.831  -1.617   2.818  1.00  0.00     0.338 C 
ATOM     25  O   UNL     1      -5.375  -2.740   2.612  1.00  0.00    -0.246 OA
BRANCH  24  26
ATOM     26  C   UNL     1      -5.587  -0.754   4.007  1.00  0.00     0.060 A 
ATOM     27  C   UNL     1      -4.607  -1.119   4.936  1.00  0.00     0.016 A 
ATOM     28  C   UNL     1      -6.081   0.556   3.993  1.00  0.00     0.016 A 
ATOM     29  C   UNL     1      -4.010  -0.145   5.744  1.00  0.00     0.010 A 
ATOM     30  C   UNL     1      -5.444   1.528   4.732  1.00  0.00     0.010 A 
ATOM     31  C   UNL     1      -4.398   1.188   5.600  1.00  0.00    -0.014 A 
BRANCH  31  32
ATOM     32  C   UNL     1      -4.030   2.250   6.531  1.00  0.00     0.031 A 
ATOM     33  C   UNL     1      -2.796   3.067   6.450  1.00  0.00     0.074 A 
ATOM     34  C   UNL     1      -5.003   2.490   7.437  1.00  0.00     0.049 A 
ATOM     35  N   UNL     1      -2.351   3.812   7.408  1.00  0.00    -0.248 NA
ATOM     36  C   UNL     1      -1.917   3.093   5.289  1.00  0.00     0.031 C 
ATOM     37  C   UNL     1      -5.140   3.593   8.366  1.00  0.00     0.029 A 
ATOM     38  N   UNL     1      -6.002   1.586   7.834  1.00  0.00    -0.354 N 
ATOM     39  C   UNL     1      -1.324   4.601   6.916  1.00  0.00     0.074 A 
ATOM     40  C   UNL     1      -1.020   4.024   5.633  1.00  0.00     0.031 C 
ATOM     41  C   UNL     1      -5.891   3.169   9.399  1.00  0.00     0.029 A 
ATOM     42  C   UNL     1      -6.095   1.734   9.214  1.00  0.00     0.049 A 
ATOM     43  H   UNL     1      -6.523   0.980   7.261  1.00  0.00     0.167 HD
ATOM     44  C   UNL     1      -0.968   5.732   7.601  1.00  0.00     0.037 A 
ATOM     45  C   UNL     1      -5.676   0.759  10.075  1.00  0.00     0.037 A 
ATOM     46  C   UNL     1      -1.639   5.740   8.902  1.00  0.00     0.049 A 
ATOM     47  C   UNL     1      -4.613   1.291  11.007  1.00  0.00     0.074 A 
ATOM     48  C   UNL     1      -2.812   6.335   9.335  1.00  0.00     0.029 A 
ATOM     49  N   UNL     1      -1.302   4.782   9.854  1.00  0.00    -0.354 N 
ATOM     50  N   UNL     1      -3.762   2.230  10.689  1.00  0.00    -0.248 NA
ATOM     51  C   UNL     1      -4.487   0.853  12.391  1.00  0.00     0.031 C 
ATOM     52  C   UNL     1      -3.256   5.625  10.480  1.00  0.00     0.029 A 
ATOM     53  C   UNL     1      -2.326   4.639  10.772  1.00  0.00     0.049 A 
ATOM     54  H   UNL     1      -0.457   4.277   9.871  1.00  0.00     0.167 HD
ATOM     55  C   UNL     1      -3.078   2.608  11.815  1.00  0.00     0.074 A 
ATOM     56  C   UNL     1      -3.540   1.690  12.844  1.00  0.00     0.031 C 
ATOM     57  C   UNL     1      -2.231   3.679  11.860  1.00  0.00     0.037 A 
BRANCH  44  58
ATOM     58  C   UNL     1      -0.285   6.973   7.011  1.00  0.00     0.058 A 
ATOM     59  C   UNL     1      -0.418   8.233   7.650  1.00  0.00     0.135 A 
ATOM     60  C   UNL     1       0.419   7.034   5.791  1.00  0.00     0.135 A 
ATOM     61  F   UNL     1      -0.978   8.345   8.863  1.00  0.00    -0.206 F 
ATOM     62  C   UNL     1       0.001   9.443   7.078  1.00  0.00     0.059 A 
ATOM     63  C   UNL     1       0.828   8.232   5.187  1.00  0.00     0.059 A 
ATOM     64  F   UNL     1       0.784   5.934   5.129  1.00  0.00    -0.206 F 
ATOM     65  C   UNL     1       0.593   9.439   5.824  1.00  0.00     0.060 A 
BRANCH  65  66
ATOM     66  S   UNL     1       1.058  11.004   5.056  1.00  0.00     0.124 S 
ATOM     67  O   UNL     1      -0.238  11.648   4.867  1.00  0.00    -0.237 OA
ATOM     68  O   UNL     1       1.924  11.603   6.065  1.00  0.00    -0.237 OA
ATOM     69  O   UNL     1       1.730  10.595   3.825  1.00  0.00    -0.744 OA
ENDBRANCH  65  66
ENDBRANCH  44  58
BRANCH  45  70
ATOM     70  C   UNL     1      -5.771  -0.650   9.581  1.00  0.00     0.058 A 
ATOM     71  C   UNL     1      -7.041  -1.149   9.222  1.00  0.00     0.135 A 
ATOM     72  C   UNL     1      -4.659  -1.404   9.177  1.00  0.00     0.135 A 
ATOM     73  F   UNL     1      -8.149  -0.488   9.593  1.00  0.00    -0.206 F 
ATOM     74  C   UNL     1      -7.198  -2.259   8.396  1.00  0.00     0.059 A 
ATOM     75  C   UNL     1      -4.793  -2.536   8.361  1.00  0.00     0.059 A 
ATOM     76  F   UNL     1      -3.418  -0.997   9.478  1.00  0.00    -0.206 F 
ATOM     77  C   UNL     1      -6.065  -2.924   7.936  1.00  0.00     0.060 A 
BRANCH  77  78
ATOM     78  S   UNL     1      -6.286  -4.171   6.641  1.00  0.00     0.124 S 
ATOM     79  O   UNL     1      -6.976  -5.236   7.359  1.00  0.00    -0.237 OA
ATOM     80  O   UNL     1      -7.088  -3.436   5.666  1.00  0.00    -0.237 OA
ATOM     81  O   UNL     1      -4.917  -4.465   6.230  1.00  0.00    -0.744 OA
ENDBRANCH  77  78
ENDBRANCH  45  70
BRANCH  57  82
ATOM     82  C   UNL     1      -1.326   3.998  13.020  1.00  0.00     0.058 A 
ATOM     83  C   UNL     1      -0.705   3.008  13.798  1.00  0.00     0.135 A 
ATOM     84  C   UNL     1      -0.938   5.331  13.289  1.00  0.00     0.135 A 
ATOM     85  F   UNL     1      -0.911   1.704  13.557  1.00  0.00    -0.206 F 
ATOM     86  C   UNL     1       0.181   3.319  14.828  1.00  0.00     0.059 A 
ATOM     87  C   UNL     1      -0.014   5.660  14.274  1.00  0.00     0.059 A 
ATOM     88  F   UNL     1      -1.441   6.363  12.594  1.00  0.00    -0.206 F 
ATOM     89  C   UNL     1       0.519   4.649  15.060  1.00  0.00     0.060 A 
BRANCH  89  90
ATOM     90  S   UNL     1       1.699   5.064  16.354  1.00  0.00     0.124 S 
ATOM     91  O   UNL     1       0.810   5.343  17.477  1.00  0.00    -0.237 OA
ATOM     92  O   UNL     1       2.498   3.847  16.472  1.00  0.00    -0.237 OA
ATOM     93  O   UNL     1       2.404   6.215  15.801  1.00  0.00    -0.744 OA
ENDBRANCH  89  90
ENDBRANCH  57  82
ENDBRANCH  31  32
ENDBRANCH  24  26
ENDBRANCH  23  24
ENDBRANCH  22  23
ENDBRANCH   1  22
TORSDOF 19
