REMARK SMILES CCCC[C@H](C(=O)OCCOC(=O)c1ccc(-c2c3nc(c(-c4c(F)cc(S(=O)(=O)[O-])cc4F)c4ccc([nH]4)c(-c4c(F)cc(S(=O)(=O)[O-])cc4F)c4nc(c(-c5c(F)cc(S(=O)(=O)[O-])cc5F)c5ccc2[nH]5)C=C4)C=C3)cc1)[C@]1(O)CCc2ccc(OC)cc21
REMARK SMILES IDX 9 1 8 2 6 3 7 4 5 5 4 6 3 7 2 8 1 9 80 10 82 11 91 12 83 13
REMARK SMILES IDX 84 14 90 15 85 16 87 17 86 18 81 19 88 21 89 22 10 23 11 24
REMARK SMILES IDX 12 25 13 26 14 27 15 28 79 29 16 30 78 31 17 32 18 33 19 34
REMARK SMILES IDX 72 35 20 36 77 37 71 38 73 39 21 40 76 41 70 42 69 43 22 45
REMARK SMILES IDX 56 46 35 47 55 48 36 49 39 50 54 51 74 52 37 53 38 54 53 56
REMARK SMILES IDX 75 57 40 58 23 59 24 60 33 61 25 62 26 63 32 64 34 65 27 66
REMARK SMILES IDX 28 67 29 68 30 69 31 70 57 71 58 72 67 73 59 74 60 75 66 76
REMARK SMILES IDX 68 77 61 78 62 79 63 80 64 81 65 82 41 83 42 84 51 85 43 86
REMARK SMILES IDX 44 87 50 88 52 89 45 90 46 91 47 92 48 93 49 94
REMARK H PARENT 81 20 73 44 39 55
REMARK Flexibility Score: inf
ROOT
ATOM      1  C   UNL     1       2.475  -2.237  -1.491  1.00  0.00     0.274 C 
ENDROOT
BRANCH   1   2
ATOM      2  O   UNL     1       1.175  -2.478  -2.116  1.00  0.00    -0.462 OA
BRANCH   2   3
ATOM      3  C   UNL     1       0.078  -1.759  -1.752  1.00  0.00     0.312 C 
ATOM      4  O   UNL     1       0.114  -0.921  -0.855  1.00  0.00    -0.252 OA
BRANCH   3   5
ATOM      5  C   UNL     1      -1.257  -2.213  -2.428  1.00  0.00     0.135 C 
BRANCH   5   6
ATOM      6  C   UNL     1      -2.382  -1.102  -2.241  1.00  0.00     0.019 C 
BRANCH   6   7
ATOM      7  C   UNL     1      -3.497  -0.876  -3.307  1.00  0.00     0.001 C 
BRANCH   7   8
ATOM      8  C   UNL     1      -4.716  -1.798  -3.226  1.00  0.00    -0.003 C 
ATOM      9  C   UNL     1      -6.011  -1.000  -3.167  1.00  0.00     0.004 C 
ENDBRANCH   7   8
ENDBRANCH   6   7
ENDBRANCH   5   6
BRANCH   5  10
ATOM     10  C   UNL     1      -1.172  -2.771  -3.871  1.00  0.00     0.104 C 
ATOM     11  C   UNL     1      -0.204  -3.945  -4.160  1.00  0.00     0.046 C 
ATOM     12  C   UNL     1      -0.732  -1.804  -4.950  1.00  0.00    -0.009 A 
ATOM     13  C   UNL     1      -0.066  -3.952  -5.700  1.00  0.00     0.039 C 
ATOM     14  C   UNL     1      -0.055  -2.475  -5.966  1.00  0.00    -0.042 A 
ATOM     15  C   UNL     1      -0.705  -0.415  -4.895  1.00  0.00     0.053 A 
ATOM     16  C   UNL     1       0.648  -1.757  -6.924  1.00  0.00     0.008 A 
ATOM     17  C   UNL     1       0.189   0.318  -5.682  1.00  0.00     0.119 A 
ATOM     18  C   UNL     1       0.782  -0.353  -6.771  1.00  0.00     0.047 A 
BRANCH  10  19
ATOM     19  O   UNL     1      -2.454  -3.328  -4.216  1.00  0.00    -0.384 OA
ATOM     20  H   UNL     1      -2.735  -3.947  -3.524  1.00  0.00     0.211 HD
ENDBRANCH  10  19
BRANCH  17  21
ATOM     21  O   UNL     1       0.548   1.554  -5.021  1.00  0.00    -0.497 OA
ATOM     22  C   UNL     1       1.675   3.042  -4.305  1.00  0.00     0.278 C 
ENDBRANCH  17  21
ENDBRANCH   5  10
ENDBRANCH   3   5
ENDBRANCH   2   3
ENDBRANCH   1   2
BRANCH   1  23
ATOM     23  C   UNL     1       3.591  -1.975  -2.522  1.00  0.00     0.275 C 
BRANCH  23  24
ATOM     24  O   UNL     1       3.559  -0.581  -2.913  1.00  0.00    -0.458 OA
BRANCH  24  25
ATOM     25  C   UNL     1       2.733  -0.428  -3.968  1.00  0.00     0.338 C 
ATOM     26  O   UNL     1       2.272  -1.370  -4.582  1.00  0.00    -0.246 OA
BRANCH  25  27
ATOM     27  C   UNL     1       2.236   0.940  -4.178  1.00  0.00     0.060 A 
ATOM     28  C   UNL     1       0.876   1.357  -3.088  1.00  0.00     0.016 A 
ATOM     29  C   UNL     1       2.343   1.709  -5.825  1.00  0.00     0.016 A 
ATOM     30  C   UNL     1      -0.409   2.489  -3.621  1.00  0.00     0.010 A 
ATOM     31  C   UNL     1       1.052   2.877  -6.357  1.00  0.00     0.010 A 
ATOM     32  C   UNL     1      -0.322   3.289  -5.228  1.00  0.00    -0.014 A 
BRANCH  32  33
ATOM     33  C   UNL     1      -1.088   4.570  -5.406  1.00  0.00     0.031 A 
ATOM     34  C   UNL     1      -1.624   4.932  -6.757  1.00  0.00     0.074 A 
ATOM     35  C   UNL     1      -1.105   5.485  -4.402  1.00  0.00     0.049 A 
ATOM     36  N   UNL     1      -1.984   6.104  -7.213  1.00  0.00    -0.248 NA
ATOM     37  C   UNL     1      -1.724   3.844  -7.740  1.00  0.00     0.031 C 
ATOM     38  C   UNL     1      -0.588   5.308  -3.040  1.00  0.00     0.029 A 
ATOM     39  N   UNL     1      -1.522   6.800  -4.383  1.00  0.00    -0.354 N 
ATOM     40  C   UNL     1      -2.307   5.908  -8.549  1.00  0.00     0.074 A 
ATOM     41  C   UNL     1      -2.055   4.510  -8.838  1.00  0.00     0.031 C 
ATOM     42  C   UNL     1      -0.689   6.437  -2.339  1.00  0.00     0.029 A 
ATOM     43  C   UNL     1      -1.213   7.461  -3.208  1.00  0.00     0.049 A 
ATOM     44  H   UNL     1      -1.993   7.228  -5.134  1.00  0.00     0.167 HD
ATOM     45  C   UNL     1      -2.785   6.811  -9.441  1.00  0.00     0.037 A 
ATOM     46  C   UNL     1      -1.278   8.754  -2.846  1.00  0.00     0.037 A 
ATOM     47  C   UNL     1      -3.061   8.189  -9.112  1.00  0.00     0.049 A 
ATOM     48  C   UNL     1      -1.805   9.729  -3.842  1.00  0.00     0.074 A 
ATOM     49  C   UNL     1      -3.616   9.173  -9.912  1.00  0.00     0.029 A 
ATOM     50  N   UNL     1      -2.809   8.777  -7.878  1.00  0.00    -0.354 N 
ATOM     51  N   UNL     1      -2.146   9.512  -5.088  1.00  0.00    -0.248 NA
ATOM     52  C   UNL     1      -1.975  11.111  -3.388  1.00  0.00     0.031 C 
ATOM     53  C   UNL     1      -3.663  10.362  -9.176  1.00  0.00     0.029 A 
ATOM     54  C   UNL     1      -3.189  10.110  -7.899  1.00  0.00     0.049 A 
ATOM     55  H   UNL     1      -2.418   8.314  -7.102  1.00  0.00     0.167 HD
ATOM     56  C   UNL     1      -2.619  10.725  -5.558  1.00  0.00     0.074 A 
ATOM     57  C   UNL     1      -2.520  11.667  -4.460  1.00  0.00     0.031 C 
ATOM     58  C   UNL     1      -3.097  11.026  -6.788  1.00  0.00     0.037 A 
BRANCH  45  59
ATOM     59  C   UNL     1      -3.046   6.333 -10.846  1.00  0.00     0.058 A 
ATOM     60  C   UNL     1      -4.048   5.389 -11.129  1.00  0.00     0.135 A 
ATOM     61  C   UNL     1      -2.297   6.827 -11.927  1.00  0.00     0.135 A 
ATOM     62  F   UNL     1      -4.795   4.878 -10.137  1.00  0.00    -0.206 F 
ATOM     63  C   UNL     1      -4.259   4.912 -12.418  1.00  0.00     0.059 A 
ATOM     64  C   UNL     1      -2.517   6.391 -13.232  1.00  0.00     0.059 A 
ATOM     65  F   UNL     1      -1.332   7.738 -11.724  1.00  0.00    -0.206 F 
ATOM     66  C   UNL     1      -3.486   5.416 -13.464  1.00  0.00     0.060 A 
BRANCH  66  67
ATOM     67  S   UNL     1      -3.773   4.779 -15.128  1.00  0.00     0.124 S 
ATOM     68  O   UNL     1      -3.209   3.436 -15.027  1.00  0.00    -0.237 OA
ATOM     69  O   UNL     1      -5.226   4.848 -15.242  1.00  0.00    -0.237 OA
ATOM     70  O   UNL     1      -3.035   5.705 -15.980  1.00  0.00    -0.744 OA
ENDBRANCH  66  67
ENDBRANCH  45  59
BRANCH  46  71
ATOM     71  C   UNL     1      -0.861   9.179  -1.480  1.00  0.00     0.058 A 
ATOM     72  C   UNL     1      -1.821   9.563  -0.533  1.00  0.00     0.135 A 
ATOM     73  C   UNL     1       0.486   9.177  -1.077  1.00  0.00     0.135 A 
ATOM     74  F   UNL     1      -3.121   9.565  -0.863  1.00  0.00    -0.206 F 
ATOM     75  C   UNL     1      -1.464   9.966   0.749  1.00  0.00     0.059 A 
ATOM     76  C   UNL     1       0.867   9.550   0.210  1.00  0.00     0.059 A 
ATOM     77  F   UNL     1       1.443   8.776  -1.928  1.00  0.00    -0.206 F 
ATOM     78  C   UNL     1      -0.116   9.960   1.111  1.00  0.00     0.060 A 
BRANCH  78  79
ATOM     79  S   UNL     1       0.327  10.480   2.783  1.00  0.00     0.124 S 
ATOM     80  O   UNL     1       0.043  11.910   2.730  1.00  0.00    -0.237 OA
ATOM     81  O   UNL     1      -0.579   9.680   3.601  1.00  0.00    -0.237 OA
ATOM     82  O   UNL     1       1.738  10.120   2.887  1.00  0.00    -0.744 OA
ENDBRANCH  78  79
ENDBRANCH  46  71
BRANCH  58  83
ATOM     83  C   UNL     1      -3.607  12.421  -6.985  1.00  0.00     0.058 A 
ATOM     84  C   UNL     1      -2.742  13.523  -7.056  1.00  0.00     0.135 A 
ATOM     85  C   UNL     1      -4.984  12.648  -7.139  1.00  0.00     0.135 A 
ATOM     86  F   UNL     1      -1.420  13.358  -6.888  1.00  0.00    -0.206 F 
ATOM     87  C   UNL     1      -3.227  14.808  -7.260  1.00  0.00     0.059 A 
ATOM     88  C   UNL     1      -5.487  13.919  -7.378  1.00  0.00     0.059 A 
ATOM     89  F   UNL     1      -5.850  11.624  -7.073  1.00  0.00    -0.206 F 
ATOM     90  C   UNL     1      -4.601  14.994  -7.430  1.00  0.00     0.060 A 
BRANCH  90  91
ATOM     91  S   UNL     1      -5.208  16.659  -7.761  1.00  0.00     0.124 S 
ATOM     92  O   UNL     1      -5.043  17.297  -6.459  1.00  0.00    -0.237 OA
ATOM     93  O   UNL     1      -4.302  17.115  -8.811  1.00  0.00    -0.237 OA
ATOM     94  O   UNL     1      -6.588  16.440  -8.184  1.00  0.00    -0.744 OA
ENDBRANCH  90  91
ENDBRANCH  58  83
ENDBRANCH  32  33
ENDBRANCH  25  27
ENDBRANCH  24  25
ENDBRANCH  23  24
ENDBRANCH   1  23
TORSDOF 20
