REMARK SMILES CC[C@@H](C(=O)OCCOC(=O)c1ccc(-c2c3nc(c(-c4c(F)cc(S(=O)(=O)[O-])cc4F)c4ccc([nH]4)c(-c4c(F)cc(S(=O)(=O)[O-])cc4F)c4nc(c(-c5c(F)cc(S(=O)(=O)[O-])cc5F)c5ccc2[nH]5)C=C4)C=C3)cc1)N1C(=O)/C(=C\c2ccc(C(=O)OC)cc2)SC1=S
REMARK SMILES IDX 7 1 6 2 4 3 5 4 3 5 2 6 1 7 78 8 79 9 94 10 80 11 81 12
REMARK SMILES IDX 93 13 95 14 82 15 83 16 84 17 92 18 85 19 91 20 86 21 87 22
REMARK SMILES IDX 88 23 89 24 90 25 8 26 9 27 10 28 11 29 12 30 13 31 77 32
REMARK SMILES IDX 14 33 76 34 15 35 16 36 17 37 70 38 18 39 75 40 69 41 71 42
REMARK SMILES IDX 19 43 74 44 68 45 67 46 20 48 54 49 33 50 53 51 34 52 37 53
REMARK SMILES IDX 52 54 72 55 35 56 36 57 51 59 73 60 38 61 21 62 22 63 31 64
REMARK SMILES IDX 23 65 24 66 30 67 32 68 25 69 26 70 27 71 28 72 29 73 55 74
REMARK SMILES IDX 56 75 65 76 57 77 58 78 64 79 66 80 59 81 60 82 61 83 62 84
REMARK SMILES IDX 63 85 39 86 40 87 49 88 41 89 42 90 48 91 50 92 43 93 44 94
REMARK SMILES IDX 45 95 46 96 47 97
REMARK H PARENT 71 47 37 58
REMARK Flexibility Score: inf
ROOT
ATOM      1  C   UNL     1       0.389  -0.415   3.666  1.00  0.00     0.274 C 
ENDROOT
BRANCH   1   2
ATOM      2  O   UNL     1       0.567  -0.679   2.258  1.00  0.00    -0.461 OA
BRANCH   2   3
ATOM      3  C   UNL     1       0.999  -1.923   1.921  1.00  0.00     0.329 C 
ATOM      4  O   UNL     1       1.195  -2.815   2.741  1.00  0.00    -0.250 OA
BRANCH   3   5
ATOM      5  C   UNL     1       1.317  -2.075   0.418  1.00  0.00     0.201 C 
BRANCH   5   6
ATOM      6  C   UNL     1       0.819  -0.935  -0.487  1.00  0.00     0.034 C 
ATOM      7  C   UNL     1       1.642   0.345  -0.374  1.00  0.00     0.007 C 
ENDBRANCH   5   6
BRANCH   5   8
ATOM      8  N   UNL     1       0.932  -3.458  -0.008  1.00  0.00    -0.278 N 
ATOM      9  C   UNL     1       1.837  -4.471   0.318  1.00  0.00     0.266 C 
ATOM     10  C   UNL     1      -0.238  -3.885  -0.606  1.00  0.00     0.149 C 
ATOM     11  O   UNL     1       2.974  -4.291   0.730  1.00  0.00    -0.268 OA
ATOM     12  C   UNL     1       1.234  -5.813   0.075  1.00  0.00     0.081 C 
ATOM     13  S   UNL     1      -0.165  -5.623  -0.904  1.00  0.00    -0.054 SA
ATOM     14  S   UNL     1      -1.602  -3.034  -1.043  1.00  0.00    -0.052 S 
ATOM     15  C   UNL     1       1.617  -7.003   0.563  1.00  0.00     0.029 C 
BRANCH  15  16
ATOM     16  C   UNL     1       2.735  -7.224   1.482  1.00  0.00    -0.024 A 
ATOM     17  C   UNL     1       3.835  -7.973   1.054  1.00  0.00     0.009 A 
ATOM     18  C   UNL     1       2.717  -6.710   2.784  1.00  0.00     0.009 A 
ATOM     19  C   UNL     1       4.939  -8.143   1.893  1.00  0.00     0.016 A 
ATOM     20  C   UNL     1       3.821  -6.881   3.626  1.00  0.00     0.016 A 
ATOM     21  C   UNL     1       4.951  -7.575   3.174  1.00  0.00     0.060 A 
BRANCH  21  22
ATOM     22  C   UNL     1       6.197  -7.689   3.980  1.00  0.00     0.337 C 
ATOM     23  O   UNL     1       7.200  -8.271   3.595  1.00  0.00    -0.246 OA
BRANCH  22  24
ATOM     24  O   UNL     1       6.081  -6.999   5.143  1.00  0.00    -0.465 OA
ATOM     25  C   UNL     1       7.276  -6.981   5.923  1.00  0.00     0.282 C 
ENDBRANCH  22  24
ENDBRANCH  21  22
ENDBRANCH  15  16
ENDBRANCH   5   8
ENDBRANCH   3   5
ENDBRANCH   2   3
ENDBRANCH   1   2
BRANCH   1  26
ATOM     26  C   UNL     1      -1.086  -0.457   4.048  1.00  0.00     0.275 C 
BRANCH  26  27
ATOM     27  O   UNL     1      -1.577  -1.799   3.905  1.00  0.00    -0.458 OA
BRANCH  27  28
ATOM     28  C   UNL     1      -2.482  -1.990   2.917  1.00  0.00     0.338 C 
ATOM     29  O   UNL     1      -2.974  -1.143   2.194  1.00  0.00    -0.246 OA
BRANCH  28  30
ATOM     30  C   UNL     1      -2.787  -3.427   2.815  1.00  0.00     0.060 A 
ATOM     31  C   UNL     1      -1.763  -4.330   2.539  1.00  0.00     0.016 A 
ATOM     32  C   UNL     1      -4.108  -3.864   2.875  1.00  0.00     0.016 A 
ATOM     33  C   UNL     1      -2.066  -5.651   2.228  1.00  0.00     0.010 A 
ATOM     34  C   UNL     1      -4.398  -5.215   2.652  1.00  0.00     0.010 A 
ATOM     35  C   UNL     1      -3.385  -6.118   2.282  1.00  0.00    -0.014 A 
BRANCH  35  36
ATOM     36  C   UNL     1      -3.703  -7.519   1.886  1.00  0.00     0.031 A 
ATOM     37  C   UNL     1      -4.706  -7.781   0.790  1.00  0.00     0.074 A 
ATOM     38  C   UNL     1      -3.074  -8.564   2.465  1.00  0.00     0.049 A 
ATOM     39  N   UNL     1      -5.294  -8.902   0.460  1.00  0.00    -0.248 NA
ATOM     40  C   UNL     1      -5.112  -6.628  -0.030  1.00  0.00     0.031 C 
ATOM     41  C   UNL     1      -2.028  -8.471   3.487  1.00  0.00     0.029 A 
ATOM     42  N   UNL     1      -3.214  -9.915   2.264  1.00  0.00    -0.354 N 
ATOM     43  C   UNL     1      -6.194  -8.576  -0.549  1.00  0.00     0.074 A 
ATOM     44  C   UNL     1      -6.062  -7.155  -0.789  1.00  0.00     0.031 C 
ATOM     45  C   UNL     1      -1.587  -9.703   3.783  1.00  0.00     0.029 A 
ATOM     46  C   UNL     1      -2.389 -10.680   3.056  1.00  0.00     0.049 A 
ATOM     47  H   UNL     1      -3.846 -10.301   1.615  1.00  0.00     0.167 HD
ATOM     48  C   UNL     1      -7.056  -9.388  -1.206  1.00  0.00     0.037 A 
ATOM     49  C   UNL     1      -2.318 -12.014   3.223  1.00  0.00     0.037 A 
ATOM     50  C   UNL     1      -7.124 -10.815  -1.019  1.00  0.00     0.049 A 
ATOM     51  C   UNL     1      -3.285 -12.898   2.487  1.00  0.00     0.074 A 
ATOM     52  C   UNL     1      -7.976 -11.725  -1.621  1.00  0.00     0.029 A 
ATOM     53  N   UNL     1      -6.283 -11.543  -0.192  1.00  0.00    -0.354 N 
ATOM     54  N   UNL     1      -4.220 -12.561   1.632  1.00  0.00    -0.248 NA
ATOM     55  C   UNL     1      -3.210 -14.339   2.764  1.00  0.00     0.031 C 
ATOM     56  C   UNL     1      -7.658 -13.003  -1.147  1.00  0.00     0.029 A 
ATOM     57  C   UNL     1      -6.589 -12.891  -0.272  1.00  0.00     0.049 A 
ATOM     58  H   UNL     1      -5.572 -11.158   0.371  1.00  0.00     0.167 HD
ATOM     59  C   UNL     1      -4.846 -13.747   1.270  1.00  0.00     0.074 A 
ATOM     60  C   UNL     1      -4.168 -14.813   1.979  1.00  0.00     0.031 C 
ATOM     61  C   UNL     1      -5.897 -13.936   0.436  1.00  0.00     0.037 A 
BRANCH  48  62
ATOM     62  C   UNL     1      -8.025  -8.753  -2.163  1.00  0.00     0.058 A 
ATOM     63  C   UNL     1      -7.636  -8.306  -3.434  1.00  0.00     0.135 A 
ATOM     64  C   UNL     1      -9.380  -8.630  -1.811  1.00  0.00     0.135 A 
ATOM     65  F   UNL     1      -6.351  -8.384  -3.813  1.00  0.00    -0.206 F 
ATOM     66  C   UNL     1      -8.553  -7.743  -4.318  1.00  0.00     0.059 A 
ATOM     67  C   UNL     1     -10.318  -8.090  -2.686  1.00  0.00     0.059 A 
ATOM     68  F   UNL     1      -9.805  -9.041  -0.605  1.00  0.00    -0.206 F 
ATOM     69  C   UNL     1      -9.892  -7.638  -3.934  1.00  0.00     0.060 A 
BRANCH  69  70
ATOM     70  S   UNL     1     -11.077  -6.921  -5.092  1.00  0.00     0.124 S 
ATOM     71  O   UNL     1     -10.786  -5.497  -4.962  1.00  0.00    -0.237 OA
ATOM     72  O   UNL     1     -10.690  -7.532  -6.360  1.00  0.00    -0.237 OA
ATOM     73  O   UNL     1     -12.368  -7.349  -4.564  1.00  0.00    -0.744 OA
ENDBRANCH  69  70
ENDBRANCH  48  62
BRANCH  49  74
ATOM     74  C   UNL     1      -1.334 -12.591   4.176  1.00  0.00     0.058 A 
ATOM     75  C   UNL     1      -0.229 -13.324   3.719  1.00  0.00     0.135 A 
ATOM     76  C   UNL     1      -1.471 -12.408   5.561  1.00  0.00     0.135 A 
ATOM     77  F   UNL     1      -0.063 -13.535   2.405  1.00  0.00    -0.206 F 
ATOM     78  C   UNL     1       0.703 -13.861   4.601  1.00  0.00     0.059 A 
ATOM     79  C   UNL     1      -0.539 -12.912   6.461  1.00  0.00     0.059 A 
ATOM     80  F   UNL     1      -2.505 -11.704   6.048  1.00  0.00    -0.206 F 
ATOM     81  C   UNL     1       0.540 -13.647   5.971  1.00  0.00     0.060 A 
BRANCH  81  82
ATOM     82  S   UNL     1       1.781 -14.291   7.115  1.00  0.00     0.124 S 
ATOM     83  O   UNL     1       1.362 -15.681   7.246  1.00  0.00    -0.237 OA
ATOM     84  O   UNL     1       3.026 -14.065   6.387  1.00  0.00    -0.237 OA
ATOM     85  O   UNL     1       1.600 -13.459   8.301  1.00  0.00    -0.744 OA
ENDBRANCH  81  82
ENDBRANCH  49  74
BRANCH  61  86
ATOM     86  C   UNL     1      -6.359 -15.348   0.227  1.00  0.00     0.058 A 
ATOM     87  C   UNL     1      -7.134 -16.013   1.190  1.00  0.00     0.135 A 
ATOM     88  C   UNL     1      -6.057 -16.028  -0.963  1.00  0.00     0.135 A 
ATOM     89  F   UNL     1      -7.442 -15.406   2.346  1.00  0.00    -0.206 F 
ATOM     90  C   UNL     1      -7.578 -17.316   0.987  1.00  0.00     0.059 A 
ATOM     91  C   UNL     1      -6.506 -17.324  -1.194  1.00  0.00     0.059 A 
ATOM     92  F   UNL     1      -5.324 -15.430  -1.915  1.00  0.00    -0.206 F 
ATOM     93  C   UNL     1      -7.257 -17.963  -0.207  1.00  0.00     0.060 A 
BRANCH  93  94
ATOM     94  S   UNL     1      -7.860 -19.644  -0.474  1.00  0.00     0.124 S 
ATOM     95  O   UNL     1      -6.926 -20.422   0.333  1.00  0.00    -0.237 OA
ATOM     96  O   UNL     1      -9.228 -19.573   0.031  1.00  0.00    -0.237 OA
ATOM     97  O   UNL     1      -7.741 -19.820  -1.919  1.00  0.00    -0.744 OA
ENDBRANCH  93  94
ENDBRANCH  61  86
ENDBRANCH  35  36
ENDBRANCH  28  30
ENDBRANCH  27  28
ENDBRANCH  26  27
ENDBRANCH   1  26
TORSDOF 19
