REMARK SMILES COc1c(C)cc([C@H](C(=O)OCCOC(=O)c2ccc(-c3c4nc(c(-c5c(F)cc(S(=O)(=O)[O-])cc5F)c5ccc([nH]5)c(-c5c(F)cc(S(=O)(=O)[O-])cc5F)c5nc(c(-c6c(F)cc(S(=O)(=O)[O-])cc6F)c6ccc3[nH]6)C=C5)C=C4)cc2)[N@@H+](C)CCN2CCCCC2=O)cc1C
REMARK SMILES IDX 12 1 11 2 9 3 10 4 8 5 7 6 3 7 4 8 95 9 5 10 6 11 94 12
REMARK SMILES IDX 96 13 2 14 1 15 83 16 84 17 85 19 86 20 87 21 88 22 92 23
REMARK SMILES IDX 89 24 91 25 93 26 90 27 13 28 14 29 15 30 16 31 17 32 18 33
REMARK SMILES IDX 82 34 19 35 81 36 20 37 21 38 22 39 75 40 23 41 80 42 74 43
REMARK SMILES IDX 76 44 24 45 79 46 73 47 72 48 25 50 59 51 38 52 58 53 39 54
REMARK SMILES IDX 42 55 57 56 77 57 40 58 41 59 56 61 78 62 43 63 26 64 27 65
REMARK SMILES IDX 36 66 28 67 29 68 35 69 37 70 30 71 31 72 32 73 33 74 34 75
REMARK SMILES IDX 60 76 61 77 70 78 62 79 63 80 69 81 71 82 64 83 65 84 66 85
REMARK SMILES IDX 67 86 68 87 44 88 45 89 54 90 46 91 47 92 53 93 55 94 48 95
REMARK SMILES IDX 49 96 50 97 51 98 52 99
REMARK H PARENT 83 18 76 49 42 60
REMARK Flexibility Score: inf
ROOT
ATOM      1  C   UNL     1       0.705  -1.791  -3.907  1.00  0.00     0.274 C 
ENDROOT
BRANCH   1   2
ATOM      2  O   UNL     1       1.650  -1.588  -4.994  1.00  0.00    -0.457 OA
BRANCH   2   3
ATOM      3  C   UNL     1       1.290  -0.875  -6.109  1.00  0.00     0.370 C 
ATOM      4  O   UNL     1       0.267  -0.197  -6.156  1.00  0.00    -0.245 OA
BRANCH   3   5
ATOM      5  C   UNL     1       2.229  -1.101  -7.349  1.00  0.00     0.326 C 
BRANCH   5   6
ATOM      6  C   UNL     1       2.963   0.095  -7.977  1.00  0.00     0.022 A 
ATOM      7  C   UNL     1       4.676   2.212  -8.759  1.00  0.00     0.124 A 
ATOM      8  C   UNL     1       5.036   0.895  -9.049  1.00  0.00    -0.008 A 
ATOM      9  C   UNL     1       3.400   2.488  -8.236  1.00  0.00    -0.008 A 
ATOM     10  C   UNL     1       6.386   0.496  -9.574  1.00  0.00     0.048 C 
ATOM     11  C   UNL     1       4.131  -0.127  -8.731  1.00  0.00     0.017 A 
ATOM     12  C   UNL     1       2.545   1.424  -7.865  1.00  0.00     0.017 A 
ATOM     13  C   UNL     1       2.943   3.902  -8.007  1.00  0.00     0.048 C 
BRANCH   7  14
ATOM     14  O   UNL     1       5.619   3.204  -8.683  1.00  0.00    -0.496 OA
ATOM     15  C   UNL     1       6.096   3.681  -9.932  1.00  0.00     0.278 C 
ENDBRANCH   7  14
ENDBRANCH   5   6
BRANCH   5  16
ATOM     16  N   UNL     1       3.077  -2.304  -7.175  1.00  0.00    -0.320 N 
ATOM     17  C   UNL     1       2.903  -3.324  -8.193  1.00  0.00     0.333 C 
ATOM     18  H   UNL     1       2.662  -2.466  -6.258  1.00  0.00     0.348 HD
BRANCH  16  19
ATOM     19  C   UNL     1       4.226  -2.412  -6.270  1.00  0.00     0.284 C 
BRANCH  19  20
ATOM     20  C   UNL     1       5.362  -1.350  -6.074  1.00  0.00     0.180 C 
BRANCH  20  21
ATOM     21  N   UNL     1       5.070  -0.059  -5.454  1.00  0.00    -0.337 N 
ATOM     22  C   UNL     1       4.259   0.011  -4.274  1.00  0.00     0.119 C 
ATOM     23  C   UNL     1       5.901   1.033  -5.703  1.00  0.00     0.222 C 
ATOM     24  C   UNL     1       3.356   1.204  -4.391  1.00  0.00     0.022 C 
ATOM     25  C   UNL     1       5.470   2.392  -5.138  1.00  0.00     0.100 C 
ATOM     26  O   UNL     1       6.960   0.920  -6.322  1.00  0.00    -0.275 OA
ATOM     27  C   UNL     1       4.149   2.486  -4.383  1.00  0.00     0.012 C 
ENDBRANCH  20  21
ENDBRANCH  19  20
ENDBRANCH  16  19
ENDBRANCH   5  16
ENDBRANCH   3   5
ENDBRANCH   2   3
ENDBRANCH   1   2
BRANCH   1  28
ATOM     28  C   UNL     1       0.977  -0.926  -2.662  1.00  0.00     0.275 C 
BRANCH  28  29
ATOM     29  O   UNL     1       0.342   0.344  -2.857  1.00  0.00    -0.458 OA
BRANCH  29  30
ATOM     30  C   UNL     1       0.773   1.404  -2.128  1.00  0.00     0.338 C 
ATOM     31  O   UNL     1       1.377   1.346  -1.064  1.00  0.00    -0.246 OA
BRANCH  30  32
ATOM     32  C   UNL     1       0.626   2.631  -2.971  1.00  0.00     0.060 A 
ATOM     33  C   UNL     1       0.212   2.495  -4.298  1.00  0.00     0.016 A 
ATOM     34  C   UNL     1       1.080   3.880  -2.533  1.00  0.00     0.016 A 
ATOM     35  C   UNL     1       0.310   3.552  -5.190  1.00  0.00     0.010 A 
ATOM     36  C   UNL     1       1.054   4.987  -3.406  1.00  0.00     0.010 A 
ATOM     37  C   UNL     1       0.649   4.835  -4.743  1.00  0.00    -0.014 A 
BRANCH  37  38
ATOM     38  C   UNL     1       0.399   5.993  -5.649  1.00  0.00     0.031 A 
ATOM     39  C   UNL     1       1.479   6.954  -6.069  1.00  0.00     0.074 A 
ATOM     40  C   UNL     1      -0.856   6.162  -6.123  1.00  0.00     0.049 A 
ATOM     41  N   UNL     1       1.363   8.064  -6.755  1.00  0.00    -0.248 NA
ATOM     42  C   UNL     1       2.864   6.622  -5.705  1.00  0.00     0.031 C 
ATOM     43  C   UNL     1      -1.990   5.267  -5.857  1.00  0.00     0.029 A 
ATOM     44  N   UNL     1      -1.398   7.140  -6.920  1.00  0.00    -0.354 N 
ATOM     45  C   UNL     1       2.651   8.560  -6.915  1.00  0.00     0.074 A 
ATOM     46  C   UNL     1       3.540   7.629  -6.250  1.00  0.00     0.031 C 
ATOM     47  C   UNL     1      -3.076   5.723  -6.488  1.00  0.00     0.029 A 
ATOM     48  C   UNL     1      -2.759   7.013  -7.077  1.00  0.00     0.049 A 
ATOM     49  H   UNL     1      -0.868   7.858  -7.335  1.00  0.00     0.167 HD
ATOM     50  C   UNL     1       3.047   9.693  -7.550  1.00  0.00     0.037 A 
ATOM     51  C   UNL     1      -3.686   7.872  -7.537  1.00  0.00     0.037 A 
ATOM     52  C   UNL     1       2.144  10.640  -8.162  1.00  0.00     0.049 A 
ATOM     53  C   UNL     1      -3.252   9.214  -8.027  1.00  0.00     0.074 A 
ATOM     54  C   UNL     1       2.450  11.826  -8.811  1.00  0.00     0.029 A 
ATOM     55  N   UNL     1       0.761  10.532  -8.174  1.00  0.00    -0.354 N 
ATOM     56  N   UNL     1      -2.037   9.688  -8.139  1.00  0.00    -0.248 NA
ATOM     57  C   UNL     1      -4.311  10.145  -8.427  1.00  0.00     0.031 C 
ATOM     58  C   UNL     1       1.251  12.469  -9.145  1.00  0.00     0.029 A 
ATOM     59  C   UNL     1       0.198  11.655  -8.763  1.00  0.00     0.049 A 
ATOM     60  H   UNL     1       0.252   9.768  -7.816  1.00  0.00     0.167 HD
ATOM     61  C   UNL     1      -2.181  10.978  -8.629  1.00  0.00     0.074 A 
ATOM     62  C   UNL     1      -3.603  11.200  -8.806  1.00  0.00     0.031 C 
ATOM     63  C   UNL     1      -1.218  11.889  -8.908  1.00  0.00     0.037 A 
BRANCH  50  64
ATOM     64  C   UNL     1       4.516  10.023  -7.569  1.00  0.00     0.058 A 
ATOM     65  C   UNL     1       5.415   9.373  -8.429  1.00  0.00     0.135 A 
ATOM     66  C   UNL     1       5.012  11.076  -6.782  1.00  0.00     0.135 A 
ATOM     67  F   UNL     1       4.999   8.356  -9.200  1.00  0.00    -0.206 F 
ATOM     68  C   UNL     1       6.755   9.753  -8.503  1.00  0.00     0.059 A 
ATOM     69  C   UNL     1       6.341  11.485  -6.853  1.00  0.00     0.059 A 
ATOM     70  F   UNL     1       4.194  11.733  -5.944  1.00  0.00    -0.206 F 
ATOM     71  C   UNL     1       7.207  10.813  -7.713  1.00  0.00     0.060 A 
BRANCH  71  72
ATOM     72  S   UNL     1       8.940  11.310  -7.836  1.00  0.00     0.124 S 
ATOM     73  O   UNL     1       9.614  10.182  -7.202  1.00  0.00    -0.237 OA
ATOM     74  O   UNL     1       9.129  11.431  -9.278  1.00  0.00    -0.237 OA
ATOM     75  O   UNL     1       8.989  12.566  -7.093  1.00  0.00    -0.744 OA
ENDBRANCH  71  72
ENDBRANCH  50  64
BRANCH  51  76
ATOM     76  C   UNL     1      -5.121   7.505  -7.415  1.00  0.00     0.058 A 
ATOM     77  C   UNL     1      -5.894   7.190  -8.538  1.00  0.00     0.135 A 
ATOM     78  C   UNL     1      -5.715   7.369  -6.146  1.00  0.00     0.135 A 
ATOM     79  F   UNL     1      -5.375   7.320  -9.768  1.00  0.00    -0.206 F 
ATOM     80  C   UNL     1      -7.200   6.728  -8.409  1.00  0.00     0.059 A 
ATOM     81  C   UNL     1      -7.004   6.878  -5.992  1.00  0.00     0.059 A 
ATOM     82  F   UNL     1      -5.009   7.648  -5.039  1.00  0.00    -0.206 F 
ATOM     83  C   UNL     1      -7.739   6.559  -7.131  1.00  0.00     0.060 A 
BRANCH  83  84
ATOM     84  S   UNL     1      -9.390   5.846  -6.968  1.00  0.00     0.124 S 
ATOM     85  O   UNL     1     -10.234   6.976  -7.337  1.00  0.00    -0.237 OA
ATOM     86  O   UNL     1      -9.345   4.743  -7.923  1.00  0.00    -0.237 OA
ATOM     87  O   UNL     1      -9.445   5.447  -5.565  1.00  0.00    -0.744 OA
ENDBRANCH  83  84
ENDBRANCH  51  76
BRANCH  63  88
ATOM     88  C   UNL     1      -1.679  13.211  -9.451  1.00  0.00     0.058 A 
ATOM     89  C   UNL     1      -2.318  14.157  -8.633  1.00  0.00     0.135 A 
ATOM     90  C   UNL     1      -1.493  13.531 -10.805  1.00  0.00     0.135 A 
ATOM     91  F   UNL     1      -2.535  13.892  -7.335  1.00  0.00    -0.206 F 
ATOM     92  C   UNL     1      -2.787  15.361  -9.148  1.00  0.00     0.059 A 
ATOM     93  C   UNL     1      -1.930  14.741 -11.334  1.00  0.00     0.059 A 
ATOM     94  F   UNL     1      -0.885  12.662 -11.628  1.00  0.00    -0.206 F 
ATOM     95  C   UNL     1      -2.591  15.642 -10.502  1.00  0.00     0.060 A 
BRANCH  95  96
ATOM     96  S   UNL     1      -3.207  17.206 -11.159  1.00  0.00     0.124 S 
ATOM     97  O   UNL     1      -4.643  16.956 -11.217  1.00  0.00    -0.237 OA
ATOM     98  O   UNL     1      -2.771  18.165 -10.148  1.00  0.00    -0.237 OA
ATOM     99  O   UNL     1      -2.536  17.319 -12.451  1.00  0.00    -0.744 OA
ENDBRANCH  95  96
ENDBRANCH  63  88
ENDBRANCH  37  38
ENDBRANCH  30  32
ENDBRANCH  29  30
ENDBRANCH  28  29
ENDBRANCH   1  28
TORSDOF 20
