REMARK SMILES COc1ncccc1C[C@H](C(=O)OCCOC(=O)c1ccc(-c2c3nc(c(-c4c(F)cc(S(=O)(=O)[O-])cc4F)c4ccc([nH]4)c(-c4c(F)cc(S(=O)(=O)[O-])cc4F)c4nc(c(-c5c(F)cc(S(=O)(=O)[O-])cc5F)c5ccc2[nH]5)C=C4)C=C3)cc1)c1ccc(F)cc1
REMARK SMILES IDX 14 1 13 2 11 3 12 4 10 5 9 6 8 7 3 8 4 9 5 10 7 11 6 12 2 13
REMARK SMILES IDX 1 14 85 15 86 16 91 17 87 18 90 19 88 20 89 21 15 22 16 23
REMARK SMILES IDX 17 24 18 25 19 26 20 27 84 28 21 29 83 30 22 31 23 32 24 33
REMARK SMILES IDX 77 34 25 35 82 36 76 37 78 38 26 39 81 40 75 41 74 42 27 44
REMARK SMILES IDX 61 45 40 46 60 47 41 48 44 49 59 50 79 51 42 52 43 53 58 55
REMARK SMILES IDX 80 56 45 57 28 58 29 59 38 60 30 61 31 62 37 63 39 64 32 65
REMARK SMILES IDX 33 66 34 67 35 68 36 69 62 70 63 71 72 72 64 73 65 74 71 75
REMARK SMILES IDX 73 76 66 77 67 78 68 79 69 80 70 81 46 82 47 83 56 84 48 85
REMARK SMILES IDX 49 86 55 87 57 88 50 89 51 90 52 91 53 92 54 93
REMARK H PARENT 78 43 44 54
REMARK Flexibility Score: inf
ROOT
ATOM      1  C   UNL     1       3.768   0.369  -3.367  1.00  0.00     0.274 C 
ENDROOT
BRANCH   1   2
ATOM      2  O   UNL     1       3.073   0.304  -2.107  1.00  0.00    -0.462 OA
BRANCH   2   3
ATOM      3  C   UNL     1       3.841   0.334  -0.991  1.00  0.00     0.313 C 
ATOM      4  O   UNL     1       5.066   0.389  -1.025  1.00  0.00    -0.252 OA
BRANCH   3   5
ATOM      5  C   UNL     1       3.027   0.408   0.318  1.00  0.00     0.134 C 
BRANCH   5   6
ATOM      6  C   UNL     1       1.618  -0.237   0.351  1.00  0.00     0.061 C 
BRANCH   6   7
ATOM      7  C   UNL     1       0.609   0.262  -0.652  1.00  0.00     0.015 A 
ATOM      8  C   UNL     1      -0.070   1.467  -0.501  1.00  0.00     0.216 A 
ATOM      9  N   UNL     1      -0.939   1.970  -1.403  1.00  0.00    -0.222 NA
ATOM     10  C   UNL     1      -1.127   1.244  -2.528  1.00  0.00     0.115 A 
ATOM     11  C   UNL     1       0.342  -0.481  -1.808  1.00  0.00     0.011 A 
ATOM     12  C   UNL     1      -0.526   0.020  -2.769  1.00  0.00     0.021 A 
BRANCH   8  13
ATOM     13  O   UNL     1       0.048   2.126   0.700  1.00  0.00    -0.481 OA
ATOM     14  C   UNL     1       0.700   3.377   0.520  1.00  0.00     0.280 C 
ENDBRANCH   8  13
ENDBRANCH   6   7
ENDBRANCH   5   6
BRANCH   5  15
ATOM     15  C   UNL     1       3.896  -0.167   1.447  1.00  0.00    -0.033 A 
ATOM     16  C   UNL     1       4.061  -1.558   1.588  1.00  0.00     0.007 A 
ATOM     17  C   UNL     1       4.647   0.689   2.271  1.00  0.00     0.007 A 
ATOM     18  C   UNL     1       4.938  -2.078   2.538  1.00  0.00     0.039 A 
ATOM     19  C   UNL     1       5.536   0.164   3.213  1.00  0.00     0.039 A 
ATOM     20  C   UNL     1       5.671  -1.213   3.338  1.00  0.00     0.123 A 
ATOM     21  F   UNL     1       6.531  -1.719   4.232  1.00  0.00    -0.207 F 
ENDBRANCH   5  15
ENDBRANCH   3   5
ENDBRANCH   2   3
ENDBRANCH   1   2
BRANCH   1  22
ATOM     22  C   UNL     1       3.628   1.759  -3.978  1.00  0.00     0.275 C 
BRANCH  22  23
ATOM     23  O   UNL     1       4.138   2.748  -3.066  1.00  0.00    -0.458 OA
BRANCH  23  24
ATOM     24  C   UNL     1       3.244   3.685  -2.675  1.00  0.00     0.338 C 
ATOM     25  O   UNL     1       2.088   3.804  -3.039  1.00  0.00    -0.246 OA
BRANCH  24  26
ATOM     26  C   UNL     1       3.871   4.614  -1.722  1.00  0.00     0.060 A 
ATOM     27  C   UNL     1       4.286   4.169  -0.467  1.00  0.00     0.016 A 
ATOM     28  C   UNL     1       3.928   5.970  -2.047  1.00  0.00     0.016 A 
ATOM     29  C   UNL     1       4.705   5.095   0.490  1.00  0.00     0.010 A 
ATOM     30  C   UNL     1       4.423   6.885  -1.114  1.00  0.00     0.010 A 
ATOM     31  C   UNL     1       4.796   6.462   0.173  1.00  0.00    -0.014 A 
BRANCH  31  32
ATOM     32  C   UNL     1       5.303   7.444   1.170  1.00  0.00     0.031 A 
ATOM     33  C   UNL     1       4.429   8.569   1.661  1.00  0.00     0.074 A 
ATOM     34  C   UNL     1       6.567   7.335   1.626  1.00  0.00     0.049 A 
ATOM     35  N   UNL     1       4.747   9.594   2.411  1.00  0.00    -0.248 NA
ATOM     36  C   UNL     1       3.016   8.546   1.250  1.00  0.00     0.031 C 
ATOM     37  C   UNL     1       7.520   6.290   1.240  1.00  0.00     0.029 A 
ATOM     38  N   UNL     1       7.272   8.112   2.511  1.00  0.00    -0.354 N 
ATOM     39  C   UNL     1       3.589  10.354   2.537  1.00  0.00     0.074 A 
ATOM     40  C   UNL     1       2.558   9.674   1.781  1.00  0.00     0.031 C 
ATOM     41  C   UNL     1       8.670   6.475   1.905  1.00  0.00     0.029 A 
ATOM     42  C   UNL     1       8.564   7.685   2.711  1.00  0.00     0.049 A 
ATOM     43  H   UNL     1       6.888   8.899   2.961  1.00  0.00     0.167 HD
ATOM     44  C   UNL     1       3.404  11.510   3.219  1.00  0.00     0.037 A 
ATOM     45  C   UNL     1       9.565   8.223   3.432  1.00  0.00     0.037 A 
ATOM     46  C   UNL     1       4.422  12.170   3.998  1.00  0.00     0.049 A 
ATOM     47  C   UNL     1       9.335   9.509   4.171  1.00  0.00     0.074 A 
ATOM     48  C   UNL     1       4.325  13.348   4.721  1.00  0.00     0.029 A 
ATOM     49  N   UNL     1       5.716  11.705   4.169  1.00  0.00    -0.354 N 
ATOM     50  N   UNL     1       8.247  10.237   4.236  1.00  0.00    -0.248 NA
ATOM     51  C   UNL     1      10.475  10.056   4.920  1.00  0.00     0.031 C 
ATOM     52  C   UNL     1       5.567  13.604   5.314  1.00  0.00     0.029 A 
ATOM     53  C   UNL     1       6.428  12.572   4.984  1.00  0.00     0.049 A 
ATOM     54  H   UNL     1       6.077  10.880   3.771  1.00  0.00     0.167 HD
ATOM     55  C   UNL     1       8.570  11.328   5.033  1.00  0.00     0.074 A 
ATOM     56  C   UNL     1       9.947  11.153   5.447  1.00  0.00     0.031 C 
ATOM     57  C   UNL     1       7.798  12.386   5.382  1.00  0.00     0.037 A 
BRANCH  44  58
ATOM     58  C   UNL     1       2.049  12.156   3.154  1.00  0.00     0.058 A 
ATOM     59  C   UNL     1       0.969  11.677   3.911  1.00  0.00     0.135 A 
ATOM     60  C   UNL     1       1.850  13.315   2.386  1.00  0.00     0.135 A 
ATOM     61  F   UNL     1       1.103  10.564   4.649  1.00  0.00    -0.206 F 
ATOM     62  C   UNL     1      -0.264  12.323   3.906  1.00  0.00     0.059 A 
ATOM     63  C   UNL     1       0.631  13.986   2.379  1.00  0.00     0.059 A 
ATOM     64  F   UNL     1       2.851  13.812   1.643  1.00  0.00    -0.206 F 
ATOM     65  C   UNL     1      -0.423  13.479   3.138  1.00  0.00     0.060 A 
BRANCH  65  66
ATOM     66  S   UNL     1      -2.016  14.330   3.169  1.00  0.00     0.124 S 
ATOM     67  O   UNL     1      -2.821  13.472   2.306  1.00  0.00    -0.237 OA
ATOM     68  O   UNL     1      -2.360  14.305   4.587  1.00  0.00    -0.237 OA
ATOM     69  O   UNL     1      -1.705  15.650   2.628  1.00  0.00    -0.744 OA
ENDBRANCH  65  66
ENDBRANCH  44  58
BRANCH  45  70
ATOM     70  C   UNL     1      10.894   7.561   3.459  1.00  0.00     0.058 A 
ATOM     71  C   UNL     1      11.346   6.898   4.608  1.00  0.00     0.135 A 
ATOM     72  C   UNL     1      11.730   7.570   2.332  1.00  0.00     0.135 A 
ATOM     73  F   UNL     1      10.582   6.871   5.711  1.00  0.00    -0.206 F 
ATOM     74  C   UNL     1      12.589   6.274   4.645  1.00  0.00     0.059 A 
ATOM     75  C   UNL     1      12.966   6.935   2.337  1.00  0.00     0.059 A 
ATOM     76  F   UNL     1      11.333   8.180   1.204  1.00  0.00    -0.206 F 
ATOM     77  C   UNL     1      13.392   6.299   3.503  1.00  0.00     0.060 A 
BRANCH  77  78
ATOM     78  S   UNL     1      14.983   5.446   3.529  1.00  0.00     0.124 S 
ATOM     79  O   UNL     1      15.841   6.448   4.149  1.00  0.00    -0.237 OA
ATOM     80  O   UNL     1      14.694   4.264   4.337  1.00  0.00    -0.237 OA
ATOM     81  O   UNL     1      15.237   5.180   2.116  1.00  0.00    -0.744 OA
ENDBRANCH  77  78
ENDBRANCH  45  70
BRANCH  57  82
ATOM     82  C   UNL     1       8.429  13.422   6.264  1.00  0.00     0.058 A 
ATOM     83  C   UNL     1       9.338  14.361   5.752  1.00  0.00     0.135 A 
ATOM     84  C   UNL     1       8.120  13.481   7.631  1.00  0.00     0.135 A 
ATOM     85  F   UNL     1       9.671  14.339   4.451  1.00  0.00    -0.206 F 
ATOM     86  C   UNL     1       9.943  15.306   6.572  1.00  0.00     0.059 A 
ATOM     87  C   UNL     1       8.700  14.430   8.467  1.00  0.00     0.059 A 
ATOM     88  F   UNL     1       7.252  12.609   8.166  1.00  0.00    -0.206 F 
ATOM     89  C   UNL     1       9.623  15.328   7.931  1.00  0.00     0.060 A 
BRANCH  89  90
ATOM     90  S   UNL     1      10.411  16.558   8.993  1.00  0.00     0.124 S 
ATOM     91  O   UNL     1      11.713  15.945   9.234  1.00  0.00    -0.237 OA
ATOM     92  O   UNL     1      10.418  17.749   8.150  1.00  0.00    -0.237 OA
ATOM     93  O   UNL     1       9.522  16.623  10.149  1.00  0.00    -0.744 OA
ENDBRANCH  89  90
ENDBRANCH  57  82
ENDBRANCH  31  32
ENDBRANCH  24  26
ENDBRANCH  23  24
ENDBRANCH  22  23
ENDBRANCH   1  22
TORSDOF 18
