REMARK SMILES Cc1oc2c(c1C(=O)NCCCC(=O)OCCOC(=O)c1ccc(-c3c4nc(c(-c5c(F)cc(S(=O)(=O)[O-])cc5F)c5ccc([nH]5)c(-c5c(F)cc(S(=O)(=O)[O-])cc5F)c5nc(c(-c6c(F)cc(S(=O)(=O)[O-])cc6F)c6ccc3[nH]6)C=C5)C=C4)cc1)CCCC2
REMARK SMILES IDX 16 1 15 2 13 3 14 4 12 5 11 6 10 7 9 8 7 9 8 10 6 12 1 13
REMARK SMILES IDX 2 14 3 15 4 16 5 17 90 18 87 19 89 20 88 21 17 22 18 23
REMARK SMILES IDX 19 24 20 25 21 26 22 27 86 28 23 29 85 30 24 31 25 32 26 33
REMARK SMILES IDX 79 34 27 35 84 36 78 37 80 38 28 39 83 40 77 41 76 42 29 44
REMARK SMILES IDX 63 45 42 46 62 47 43 48 46 49 61 50 81 51 44 52 45 53 60 55
REMARK SMILES IDX 82 56 47 57 30 58 31 59 40 60 32 61 33 62 39 63 41 64 34 65
REMARK SMILES IDX 35 66 36 67 37 68 38 69 64 70 65 71 74 72 66 73 67 74 73 75
REMARK SMILES IDX 75 76 68 77 69 78 70 79 71 80 72 81 48 82 49 83 58 84 50 85
REMARK SMILES IDX 51 86 57 87 59 88 52 89 53 90 54 91 55 92 56 93
REMARK H PARENT 9 11 80 43 46 54
REMARK Flexibility Score: inf
ROOT
ATOM      1  C   UNL     1       6.732  -0.475   1.186  1.00  0.00     0.274 C 
ENDROOT
BRANCH   1   2
ATOM      2  O   UNL     1       6.048   0.191   0.107  1.00  0.00    -0.462 OA
BRANCH   2   3
ATOM      3  C   UNL     1       6.450  -0.141  -1.149  1.00  0.00     0.305 C 
ATOM      4  O   UNL     1       7.370  -0.905  -1.412  1.00  0.00    -0.252 OA
BRANCH   3   5
ATOM      5  C   UNL     1       5.701   0.643  -2.200  1.00  0.00     0.124 C 
BRANCH   5   6
ATOM      6  C   UNL     1       4.198   0.403  -2.313  1.00  0.00     0.033 C 
BRANCH   6   7
ATOM      7  C   UNL     1       3.315   0.821  -1.137  1.00  0.00     0.117 C 
BRANCH   7   8
ATOM      8  N   UNL     1       3.448   2.205  -0.755  1.00  0.00    -0.352 N 
ATOM      9  C   UNL     1       2.557   3.108  -0.240  1.00  0.00     0.255 C 
ATOM     10  O   UNL     1       3.027   4.231  -0.028  1.00  0.00    -0.269 OA
ATOM     11  H   UNL     1       4.353   2.570  -0.889  1.00  0.00     0.163 HD
BRANCH   9  12
ATOM     12  C   UNL     1       1.137   2.839   0.007  1.00  0.00     0.084 A 
ATOM     13  C   UNL     1       0.727   0.237   0.526  1.00  0.00     0.088 C 
ATOM     14  C   UNL     1       0.426   1.669   0.296  1.00  0.00     0.114 A 
ATOM     15  O   UNL     1      -0.909   1.939   0.453  1.00  0.00    -0.465 OA
ATOM     16  C   UNL     1      -1.062   3.265   0.329  1.00  0.00     0.108 A 
ATOM     17  C   UNL     1       0.140   3.882   0.095  1.00  0.00     0.007 A 
ATOM     18  C   UNL     1      -2.394   3.878   0.514  1.00  0.00     0.076 C 
ATOM     19  C   UNL     1       0.233   5.366  -0.036  1.00  0.00     0.040 C 
ATOM     20  C   UNL     1      -2.338   5.343   0.042  1.00  0.00     0.008 C 
ATOM     21  C   UNL     1      -1.046   6.053   0.498  1.00  0.00     0.005 C 
ENDBRANCH   9  12
ENDBRANCH   7   8
ENDBRANCH   6   7
ENDBRANCH   5   6
ENDBRANCH   3   5
ENDBRANCH   2   3
ENDBRANCH   1   2
BRANCH   1  22
ATOM     22  C   UNL     1       6.025  -1.752   1.622  1.00  0.00     0.275 C 
BRANCH  22  23
ATOM     23  O   UNL     1       6.133  -2.792   0.650  1.00  0.00    -0.458 OA
BRANCH  23  24
ATOM     24  C   UNL     1       5.098  -2.860  -0.216  1.00  0.00     0.338 C 
ATOM     25  O   UNL     1       4.254  -2.005  -0.415  1.00  0.00    -0.246 OA
BRANCH  24  26
ATOM     26  C   UNL     1       4.999  -4.206  -0.786  1.00  0.00     0.060 A 
ATOM     27  C   UNL     1       4.154  -4.388  -1.887  1.00  0.00     0.016 A 
ATOM     28  C   UNL     1       5.554  -5.291  -0.097  1.00  0.00     0.016 A 
ATOM     29  C   UNL     1       3.785  -5.673  -2.237  1.00  0.00     0.010 A 
ATOM     30  C   UNL     1       5.176  -6.570  -0.441  1.00  0.00     0.010 A 
ATOM     31  C   UNL     1       4.258  -6.747  -1.476  1.00  0.00    -0.014 A 
BRANCH  31  32
ATOM     32  C   UNL     1       3.854  -8.089  -1.858  1.00  0.00     0.031 A 
ATOM     33  C   UNL     1       4.517  -8.579  -3.088  1.00  0.00     0.074 A 
ATOM     34  C   UNL     1       3.093  -8.876  -1.073  1.00  0.00     0.049 A 
ATOM     35  N   UNL     1       3.979  -8.873  -4.224  1.00  0.00    -0.248 NA
ATOM     36  C   UNL     1       5.990  -8.625  -3.092  1.00  0.00     0.031 C 
ATOM     37  C   UNL     1       2.703  -8.605   0.315  1.00  0.00     0.029 A 
ATOM     38  N   UNL     1       2.610 -10.134  -1.294  1.00  0.00    -0.354 N 
ATOM     39  C   UNL     1       5.016  -9.392  -4.993  1.00  0.00     0.074 A 
ATOM     40  C   UNL     1       6.242  -9.020  -4.340  1.00  0.00     0.031 C 
ATOM     41  C   UNL     1       2.249  -9.745   0.878  1.00  0.00     0.029 A 
ATOM     42  C   UNL     1       2.175 -10.778  -0.143  1.00  0.00     0.049 A 
ATOM     43  H   UNL     1       2.574 -10.547  -2.187  1.00  0.00     0.167 HD
ATOM     44  C   UNL     1       4.778 -10.361  -5.917  1.00  0.00     0.037 A 
ATOM     45  C   UNL     1       1.822 -12.080  -0.015  1.00  0.00     0.037 A 
ATOM     46  C   UNL     1       3.375 -10.472  -6.216  1.00  0.00     0.049 A 
ATOM     47  C   UNL     1       1.472 -12.605  -1.356  1.00  0.00     0.074 A 
ATOM     48  C   UNL     1       2.455  -9.815  -7.000  1.00  0.00     0.029 A 
ATOM     49  N   UNL     1       2.680 -11.255  -5.336  1.00  0.00    -0.354 N 
ATOM     50  N   UNL     1       0.451 -12.189  -2.054  1.00  0.00    -0.248 NA
ATOM     51  C   UNL     1       2.447 -13.405  -2.092  1.00  0.00     0.031 C 
ATOM     52  C   UNL     1       1.168 -10.147  -6.479  1.00  0.00     0.029 A 
ATOM     53  C   UNL     1       1.334 -11.008  -5.399  1.00  0.00     0.049 A 
ATOM     54  H   UNL     1       3.095 -11.913  -4.733  1.00  0.00     0.167 HD
ATOM     55  C   UNL     1       0.858 -12.318  -3.365  1.00  0.00     0.074 A 
ATOM     56  C   UNL     1       1.999 -13.220  -3.337  1.00  0.00     0.031 C 
ATOM     57  C   UNL     1       0.470 -11.421  -4.314  1.00  0.00     0.037 A 
BRANCH  44  58
ATOM     58  C   UNL     1       5.712 -11.523  -6.184  1.00  0.00     0.058 A 
ATOM     59  C   UNL     1       5.461 -12.365  -7.287  1.00  0.00     0.135 A 
ATOM     60  C   UNL     1       6.642 -12.017  -5.241  1.00  0.00     0.135 A 
ATOM     61  F   UNL     1       4.581 -12.004  -8.235  1.00  0.00    -0.206 F 
ATOM     62  C   UNL     1       6.049 -13.625  -7.414  1.00  0.00     0.059 A 
ATOM     63  C   UNL     1       7.282 -13.243  -5.378  1.00  0.00     0.059 A 
ATOM     64  F   UNL     1       6.898 -11.384  -4.090  1.00  0.00    -0.206 F 
ATOM     65  C   UNL     1       6.949 -14.059  -6.445  1.00  0.00     0.060 A 
BRANCH  65  66
ATOM     66  S   UNL     1       7.642 -15.718  -6.551  1.00  0.00     0.124 S 
ATOM     67  O   UNL     1       6.484 -16.539  -6.216  1.00  0.00    -0.237 OA
ATOM     68  O   UNL     1       8.088 -15.774  -7.940  1.00  0.00    -0.237 OA
ATOM     69  O   UNL     1       8.712 -15.698  -5.558  1.00  0.00    -0.744 OA
ENDBRANCH  65  66
ENDBRANCH  44  58
BRANCH  45  70
ATOM     70  C   UNL     1       1.985 -12.966   1.163  1.00  0.00     0.058 A 
ATOM     71  C   UNL     1       1.253 -14.159   1.284  1.00  0.00     0.135 A 
ATOM     72  C   UNL     1       3.063 -12.798   2.055  1.00  0.00     0.135 A 
ATOM     73  F   UNL     1       0.224 -14.406   0.460  1.00  0.00    -0.206 F 
ATOM     74  C   UNL     1       1.600 -15.153   2.202  1.00  0.00     0.059 A 
ATOM     75  C   UNL     1       3.421 -13.770   2.987  1.00  0.00     0.059 A 
ATOM     76  F   UNL     1       3.857 -11.719   1.982  1.00  0.00    -0.206 F 
ATOM     77  C   UNL     1       2.701 -14.958   3.036  1.00  0.00     0.060 A 
BRANCH  77  78
ATOM     78  S   UNL     1       3.257 -16.313   4.096  1.00  0.00     0.124 S 
ATOM     79  O   UNL     1       2.184 -16.383   5.081  1.00  0.00    -0.237 OA
ATOM     80  O   UNL     1       3.335 -17.426   3.156  1.00  0.00    -0.237 OA
ATOM     81  O   UNL     1       4.542 -15.839   4.604  1.00  0.00    -0.744 OA
ENDBRANCH  77  78
ENDBRANCH  45  70
BRANCH  57  82
ATOM     82  C   UNL     1      -0.841 -10.724  -4.126  1.00  0.00     0.058 A 
ATOM     83  C   UNL     1      -1.113  -9.775  -3.129  1.00  0.00     0.135 A 
ATOM     84  C   UNL     1      -1.857 -10.997  -5.055  1.00  0.00     0.135 A 
ATOM     85  F   UNL     1      -0.168  -9.409  -2.250  1.00  0.00    -0.206 F 
ATOM     86  C   UNL     1      -2.357  -9.146  -3.043  1.00  0.00     0.059 A 
ATOM     87  C   UNL     1      -3.092 -10.363  -5.006  1.00  0.00     0.059 A 
ATOM     88  F   UNL     1      -1.639 -11.869  -6.054  1.00  0.00    -0.206 F 
ATOM     89  C   UNL     1      -3.340  -9.446  -3.988  1.00  0.00     0.060 A 
BRANCH  89  90
ATOM     90  S   UNL     1      -4.924  -8.581  -3.922  1.00  0.00     0.124 S 
ATOM     91  O   UNL     1      -5.554  -9.182  -2.752  1.00  0.00    -0.237 OA
ATOM     92  O   UNL     1      -4.517  -7.186  -3.779  1.00  0.00    -0.237 OA
ATOM     93  O   UNL     1      -5.545  -8.909  -5.203  1.00  0.00    -0.744 OA
ENDBRANCH  89  90
ENDBRANCH  57  82
ENDBRANCH  31  32
ENDBRANCH  24  26
ENDBRANCH  23  24
ENDBRANCH  22  23
ENDBRANCH   1  22
TORSDOF 18
