REMARK SMILES O=C(Cn1cccc1C(=O)OCCOC(=O)c1ccc(-c2c3nc(c(-c4c(F)cc(S(=O)(=O)[O-])cc4F)c4ccc([nH]4)c(-c4c(F)cc(S(=O)(=O)[O-])cc4F)c4nc(c(-c5c(F)cc(S(=O)(=O)[O-])cc5F)c5ccc2[nH]5)C=C4)C=C3)cc1)Nc1cccc(Br)c1
REMARK SMILES IDX 12 1 11 2 9 3 10 4 8 5 4 6 5 7 6 8 7 9 3 10 2 11 1 12 83 13
REMARK SMILES IDX 84 15 85 16 90 17 86 18 88 19 87 20 89 21 13 22 14 23 15 24
REMARK SMILES IDX 16 25 17 26 18 27 82 28 19 29 81 30 20 31 21 32 22 33 75 34
REMARK SMILES IDX 23 35 80 36 74 37 76 38 24 39 79 40 73 41 72 42 25 44 59 45
REMARK SMILES IDX 38 46 58 47 39 48 42 49 57 50 77 51 40 52 41 53 56 55 78 56
REMARK SMILES IDX 43 57 26 58 27 59 36 60 28 61 29 62 35 63 37 64 30 65 31 66
REMARK SMILES IDX 32 67 33 68 34 69 60 70 61 71 70 72 62 73 63 74 69 75 71 76
REMARK SMILES IDX 64 77 65 78 66 79 67 80 68 81 44 82 45 83 54 84 46 85 47 86
REMARK SMILES IDX 53 87 55 88 48 89 49 90 50 91 51 92 52 93
REMARK H PARENT 83 14 76 43 42 54
REMARK Flexibility Score: inf
ROOT
ATOM      1  C   UNL     1       5.294  -3.957  -2.156  1.00  0.00     0.275 C 
ENDROOT
BRANCH   1   2
ATOM      2  O   UNL     1       4.861  -2.616  -1.861  1.00  0.00    -0.457 OA
BRANCH   2   3
ATOM      3  C   UNL     1       5.716  -1.615  -2.215  1.00  0.00     0.355 C 
ATOM      4  O   UNL     1       6.885  -1.796  -2.545  1.00  0.00    -0.244 OA
BRANCH   3   5
ATOM      5  C   UNL     1       5.049  -0.321  -2.242  1.00  0.00     0.128 A 
ATOM      6  N   UNL     1       3.822   0.048  -1.705  1.00  0.00    -0.333 N 
ATOM      7  C   UNL     1       3.507   1.325  -2.115  1.00  0.00     0.087 A 
ATOM      8  C   UNL     1       4.554   1.818  -2.855  1.00  0.00     0.020 A 
ATOM      9  C   UNL     1       5.519   0.794  -2.931  1.00  0.00     0.035 A 
BRANCH   6  10
ATOM     10  C   UNL     1       2.963  -0.798  -0.878  1.00  0.00     0.222 C 
BRANCH  10  11
ATOM     11  C   UNL     1       2.072  -0.085   0.126  1.00  0.00     0.244 C 
ATOM     12  O   UNL     1       0.915  -0.463   0.301  1.00  0.00    -0.273 OA
ATOM     13  N   UNL     1       2.703   0.913   0.856  1.00  0.00    -0.325 N 
ATOM     14  H   UNL     1       3.627   1.131   0.597  1.00  0.00     0.169 HD
BRANCH  13  15
ATOM     15  C   UNL     1       2.157   1.646   1.929  1.00  0.00     0.042 A 
ATOM     16  C   UNL     1       2.812   2.829   2.295  1.00  0.00     0.026 A 
ATOM     17  C   UNL     1       1.021   1.250   2.639  1.00  0.00     0.041 A 
ATOM     18  C   UNL     1       2.318   3.625   3.331  1.00  0.00     0.003 A 
ATOM     19  C   UNL     1       0.544   2.039   3.688  1.00  0.00     0.020 A 
ATOM     20  C   UNL     1       1.181   3.229   4.031  1.00  0.00     0.016 A 
ATOM     21  Br  UNL     1      -0.978   1.481   4.665  1.00  0.00    -0.051 Br
ENDBRANCH  13  15
ENDBRANCH  10  11
ENDBRANCH   6  10
ENDBRANCH   3   5
ENDBRANCH   2   3
ENDBRANCH   1   2
BRANCH   1  22
ATOM     22  C   UNL     1       4.791  -4.442  -3.514  1.00  0.00     0.275 C 
BRANCH  22  23
ATOM     23  O   UNL     1       5.310  -3.691  -4.615  1.00  0.00    -0.458 OA
BRANCH  23  24
ATOM     24  C   UNL     1       4.527  -2.637  -4.939  1.00  0.00     0.338 C 
ATOM     25  O   UNL     1       3.695  -2.091  -4.232  1.00  0.00    -0.246 OA
BRANCH  24  26
ATOM     26  C   UNL     1       4.584  -2.360  -6.368  1.00  0.00     0.060 A 
ATOM     27  C   UNL     1       4.318  -1.050  -6.777  1.00  0.00     0.016 A 
ATOM     28  C   UNL     1       4.527  -3.448  -7.247  1.00  0.00     0.016 A 
ATOM     29  C   UNL     1       3.891  -0.840  -8.072  1.00  0.00     0.010 A 
ATOM     30  C   UNL     1       4.057  -3.242  -8.528  1.00  0.00     0.010 A 
ATOM     31  C   UNL     1       3.725  -1.942  -8.923  1.00  0.00    -0.014 A 
BRANCH  31  32
ATOM     32  C   UNL     1       3.390  -1.672 -10.327  1.00  0.00     0.031 A 
ATOM     33  C   UNL     1       4.700  -1.351 -11.099  1.00  0.00     0.074 A 
ATOM     34  C   UNL     1       2.049  -1.687 -10.630  1.00  0.00     0.049 A 
ATOM     35  N   UNL     1       4.903  -0.559 -12.103  1.00  0.00    -0.248 NA
ATOM     36  C   UNL     1       6.005  -1.902 -10.612  1.00  0.00     0.031 C 
ATOM     37  C   UNL     1       0.954  -2.063  -9.694  1.00  0.00     0.029 A 
ATOM     38  N   UNL     1       1.315  -1.393 -11.761  1.00  0.00    -0.354 N 
ATOM     39  C   UNL     1       6.255  -0.698 -12.504  1.00  0.00     0.074 A 
ATOM     40  C   UNL     1       6.912  -1.423 -11.467  1.00  0.00     0.031 C 
ATOM     41  C   UNL     1      -0.265  -1.879 -10.257  1.00  0.00     0.029 A 
ATOM     42  C   UNL     1      -0.107  -1.389 -11.612  1.00  0.00     0.049 A 
ATOM     43  H   UNL     1       1.747  -1.198 -12.624  1.00  0.00     0.167 HD
ATOM     44  C   UNL     1       6.704  -0.325 -13.741  1.00  0.00     0.037 A 
ATOM     45  C   UNL     1      -1.063  -0.963 -12.507  1.00  0.00     0.037 A 
ATOM     46  C   UNL     1       5.615   0.221 -14.478  1.00  0.00     0.049 A 
ATOM     47  C   UNL     1      -0.288  -0.652 -13.714  1.00  0.00     0.074 A 
ATOM     48  C   UNL     1       4.944   1.408 -14.351  1.00  0.00     0.029 A 
ATOM     49  N   UNL     1       4.842  -0.677 -15.175  1.00  0.00    -0.354 N 
ATOM     50  N   UNL     1       0.257  -1.534 -14.495  1.00  0.00    -0.248 NA
ATOM     51  C   UNL     1       0.012   0.757 -13.997  1.00  0.00     0.031 C 
ATOM     52  C   UNL     1       3.602   1.014 -14.498  1.00  0.00     0.029 A 
ATOM     53  C   UNL     1       3.537  -0.288 -15.012  1.00  0.00     0.049 A 
ATOM     54  H   UNL     1       5.163  -1.451 -15.692  1.00  0.00     0.167 HD
ATOM     55  C   UNL     1       1.223  -0.798 -15.131  1.00  0.00     0.074 A 
ATOM     56  C   UNL     1       0.819   0.591 -15.039  1.00  0.00     0.031 C 
ATOM     57  C   UNL     1       2.494  -1.269 -15.197  1.00  0.00     0.037 A 
BRANCH  44  58
ATOM     58  C   UNL     1       7.965  -0.592 -14.516  1.00  0.00     0.058 A 
ATOM     59  C   UNL     1       8.223   0.230 -15.645  1.00  0.00     0.135 A 
ATOM     60  C   UNL     1       8.695  -1.785 -14.442  1.00  0.00     0.135 A 
ATOM     61  F   UNL     1       7.638   1.434 -15.768  1.00  0.00    -0.206 F 
ATOM     62  C   UNL     1       9.012  -0.184 -16.710  1.00  0.00     0.059 A 
ATOM     63  C   UNL     1       9.535  -2.199 -15.483  1.00  0.00     0.059 A 
ATOM     64  F   UNL     1       8.554  -2.617 -13.401  1.00  0.00    -0.206 F 
ATOM     65  C   UNL     1       9.636  -1.421 -16.637  1.00  0.00     0.060 A 
BRANCH  65  66
ATOM     66  S   UNL     1      10.544  -1.996 -18.087  1.00  0.00     0.124 S 
ATOM     67  O   UNL     1       9.462  -2.288 -19.021  1.00  0.00    -0.237 OA
ATOM     68  O   UNL     1      11.364  -0.833 -18.416  1.00  0.00    -0.237 OA
ATOM     69  O   UNL     1      11.281  -3.151 -17.586  1.00  0.00    -0.744 OA
ENDBRANCH  65  66
ENDBRANCH  44  58
BRANCH  45  70
ATOM     70  C   UNL     1      -2.545  -0.598 -12.578  1.00  0.00     0.058 A 
ATOM     71  C   UNL     1      -3.508  -0.779 -11.579  1.00  0.00     0.135 A 
ATOM     72  C   UNL     1      -3.030   0.134 -13.708  1.00  0.00     0.135 A 
ATOM     73  F   UNL     1      -3.265  -1.579 -10.532  1.00  0.00    -0.206 F 
ATOM     74  C   UNL     1      -4.768  -0.132 -11.615  1.00  0.00     0.059 A 
ATOM     75  C   UNL     1      -4.235   0.833 -13.741  1.00  0.00     0.059 A 
ATOM     76  F   UNL     1      -2.324   0.237 -14.842  1.00  0.00    -0.206 F 
ATOM     77  C   UNL     1      -5.090   0.729 -12.666  1.00  0.00     0.060 A 
BRANCH  77  78
ATOM     78  S   UNL     1      -6.534   1.819 -12.587  1.00  0.00     0.124 S 
ATOM     79  O   UNL     1      -7.614   0.934 -13.005  1.00  0.00    -0.237 OA
ATOM     80  O   UNL     1      -6.544   2.221 -11.184  1.00  0.00    -0.237 OA
ATOM     81  O   UNL     1      -6.199   2.889 -13.525  1.00  0.00    -0.744 OA
ENDBRANCH  77  78
ENDBRANCH  45  70
BRANCH  57  82
ATOM     82  C   UNL     1       2.635  -2.782 -15.120  1.00  0.00     0.058 A 
ATOM     83  C   UNL     1       2.042  -3.579 -16.113  1.00  0.00     0.135 A 
ATOM     84  C   UNL     1       3.261  -3.484 -14.074  1.00  0.00     0.135 A 
ATOM     85  F   UNL     1       1.425  -2.997 -17.154  1.00  0.00    -0.206 F 
ATOM     86  C   UNL     1       2.073  -4.976 -16.075  1.00  0.00     0.059 A 
ATOM     87  C   UNL     1       3.312  -4.883 -14.011  1.00  0.00     0.059 A 
ATOM     88  F   UNL     1       3.847  -2.829 -13.073  1.00  0.00    -0.206 F 
ATOM     89  C   UNL     1       2.716  -5.624 -15.023  1.00  0.00     0.060 A 
BRANCH  89  90
ATOM     90  S   UNL     1       2.794  -7.431 -15.026  1.00  0.00     0.124 S 
ATOM     91  O   UNL     1       1.384  -7.807 -14.990  1.00  0.00    -0.237 OA
ATOM     92  O   UNL     1       3.487  -7.704 -16.281  1.00  0.00    -0.237 OA
ATOM     93  O   UNL     1       3.550  -7.749 -13.816  1.00  0.00    -0.744 OA
ENDBRANCH  89  90
ENDBRANCH  57  82
ENDBRANCH  31  32
ENDBRANCH  24  26
ENDBRANCH  23  24
ENDBRANCH  22  23
ENDBRANCH   1  22
TORSDOF 17
