REMARK SMILES C[C@H](Oc1ccnc2c(F)cc(F)cc12)C(=O)OCCOC(=O)c1ccc(-c2c3nc(c(-c4c(F)cc(S(=O)(=O)[O-])cc4F)c4ccc([nH]4)c(-c4c(F)cc(S(=O)(=O)[O-])cc4F)c4nc(c(-c5c(F)cc(S(=O)(=O)[O-])cc5F)c5ccc2[nH]5)C=C4)C=C3)cc1
REMARK SMILES IDX 20 1 19 2 18 3 16 4 17 5 2 6 1 7 3 8 4 9 5 10 15 11 6 12
REMARK SMILES IDX 8 13 14 14 7 15 9 16 12 17 10 18 11 19 13 20 21 21 22 22
REMARK SMILES IDX 23 23 24 24 25 25 89 26 26 27 88 28 27 29 28 30 29 31 82 32
REMARK SMILES IDX 30 33 87 34 81 35 83 36 31 37 86 38 80 39 79 40 32 42 66 43
REMARK SMILES IDX 45 44 65 45 46 46 49 47 64 48 84 49 47 50 48 51 63 53 85 54
REMARK SMILES IDX 50 55 33 56 34 57 43 58 35 59 36 60 42 61 44 62 37 63 38 64
REMARK SMILES IDX 39 65 40 66 41 67 67 68 68 69 77 70 69 71 70 72 76 73 78 74
REMARK SMILES IDX 71 75 72 76 73 77 74 78 75 79 51 80 52 81 61 82 53 83 54 84
REMARK SMILES IDX 60 85 62 86 55 87 56 88 57 89 58 90 59 91
REMARK H PARENT 83 41 49 52
REMARK Flexibility Score: inf
ROOT
ATOM      1  C   UNL     1      -3.894   0.736   0.354  1.00  0.00     0.275 C 
ENDROOT
BRANCH   1   2
ATOM      2  C   UNL     1      -3.472   1.630  -0.821  1.00  0.00     0.274 C 
BRANCH   2   3
ATOM      3  O   UNL     1      -2.126   1.323  -1.242  1.00  0.00    -0.459 OA
BRANCH   3   4
ATOM      4  C   UNL     1      -1.124   1.866  -0.526  1.00  0.00     0.347 C 
ATOM      5  O   UNL     1      -1.264   2.898   0.124  1.00  0.00    -0.248 OA
BRANCH   4   6
ATOM      6  C   UNL     1       0.238   1.099  -0.616  1.00  0.00     0.279 C 
ATOM      7  C   UNL     1       1.123   2.001  -1.492  1.00  0.00     0.066 C 
BRANCH   6   8
ATOM      8  O   UNL     1       0.684  -0.214  -0.915  1.00  0.00    -0.478 OA
BRANCH   8   9
ATOM      9  C   UNL     1      -0.019  -1.372  -1.032  1.00  0.00     0.131 A 
ATOM     10  C   UNL     1      -1.344  -1.459  -1.404  1.00  0.00     0.067 A 
ATOM     11  C   UNL     1       0.705  -2.587  -0.898  1.00  0.00     0.048 A 
ATOM     12  C   UNL     1      -1.929  -2.690  -1.610  1.00  0.00     0.115 A 
ATOM     13  C   UNL     1       0.027  -3.803  -1.184  1.00  0.00     0.110 A 
ATOM     14  C   UNL     1       2.064  -2.655  -0.511  1.00  0.00     0.053 A 
ATOM     15  N   UNL     1      -1.268  -3.848  -1.530  1.00  0.00    -0.253 NA
ATOM     16  C   UNL     1       0.736  -4.999  -1.119  1.00  0.00     0.152 A 
ATOM     17  C   UNL     1       2.723  -3.880  -0.437  1.00  0.00     0.127 A 
ATOM     18  F   UNL     1       0.123  -6.154  -1.434  1.00  0.00    -0.204 F 
ATOM     19  C   UNL     1       2.072  -5.058  -0.750  1.00  0.00     0.080 A 
ATOM     20  F   UNL     1       4.009  -3.923  -0.069  1.00  0.00    -0.207 F 
ENDBRANCH   8   9
ENDBRANCH   6   8
ENDBRANCH   4   6
ENDBRANCH   3   4
ENDBRANCH   2   3
ENDBRANCH   1   2
BRANCH   1  21
ATOM     21  O   UNL     1      -3.335   1.208   1.591  1.00  0.00    -0.458 OA
BRANCH  21  22
ATOM     22  C   UNL     1      -2.290   0.507   2.095  1.00  0.00     0.338 C 
ATOM     23  O   UNL     1      -1.766  -0.484   1.632  1.00  0.00    -0.246 OA
BRANCH  22  24
ATOM     24  C   UNL     1      -1.812   1.213   3.289  1.00  0.00     0.060 A 
ATOM     25  C   UNL     1      -0.791   2.156   3.156  1.00  0.00     0.016 A 
ATOM     26  C   UNL     1      -2.376   0.934   4.534  1.00  0.00     0.016 A 
ATOM     27  C   UNL     1      -0.343   2.851   4.270  1.00  0.00     0.010 A 
ATOM     28  C   UNL     1      -1.936   1.644   5.650  1.00  0.00     0.010 A 
ATOM     29  C   UNL     1      -0.919   2.605   5.520  1.00  0.00    -0.014 A 
BRANCH  29  30
ATOM     30  C   UNL     1      -0.405   3.336   6.694  1.00  0.00     0.031 A 
ATOM     31  C   UNL     1       0.498   2.628   7.656  1.00  0.00     0.074 A 
ATOM     32  C   UNL     1      -0.714   4.637   6.848  1.00  0.00     0.049 A 
ATOM     33  N   UNL     1       1.074   3.091   8.733  1.00  0.00    -0.248 NA
ATOM     34  C   UNL     1       0.795   1.214   7.371  1.00  0.00     0.031 C 
ATOM     35  C   UNL     1      -1.562   5.413   5.939  1.00  0.00     0.029 A 
ATOM     36  N   UNL     1      -0.348   5.538   7.813  1.00  0.00    -0.354 N 
ATOM     37  C   UNL     1       1.800   2.029   9.254  1.00  0.00     0.074 A 
ATOM     38  C   UNL     1       1.564   0.887   8.400  1.00  0.00     0.031 C 
ATOM     39  C   UNL     1      -1.644   6.676   6.389  1.00  0.00     0.029 A 
ATOM     40  C   UNL     1      -0.887   6.790   7.632  1.00  0.00     0.049 A 
ATOM     41  H   UNL     1       0.245   5.311   8.566  1.00  0.00     0.167 HD
ATOM     42  C   UNL     1       2.605   2.022  10.340  1.00  0.00     0.037 A 
ATOM     43  C   UNL     1      -0.790   7.896   8.395  1.00  0.00     0.037 A 
ATOM     44  C   UNL     1       2.833   3.176  11.168  1.00  0.00     0.049 A 
ATOM     45  C   UNL     1       0.056   7.839   9.640  1.00  0.00     0.074 A 
ATOM     46  C   UNL     1       3.653   3.287  12.275  1.00  0.00     0.029 A 
ATOM     47  N   UNL     1       2.233   4.414  10.983  1.00  0.00    -0.354 N 
ATOM     48  N   UNL     1       0.778   6.842  10.096  1.00  0.00    -0.248 NA
ATOM     49  C   UNL     1       0.102   9.046  10.475  1.00  0.00     0.031 C 
ATOM     50  C   UNL     1       3.502   4.574  12.797  1.00  0.00     0.029 A 
ATOM     51  C   UNL     1       2.632   5.284  11.982  1.00  0.00     0.049 A 
ATOM     52  H   UNL     1       1.615   4.640  10.251  1.00  0.00     0.167 HD
ATOM     53  C   UNL     1       1.371   7.304  11.265  1.00  0.00     0.074 A 
ATOM     54  C   UNL     1       0.941   8.678  11.435  1.00  0.00     0.031 C 
ATOM     55  C   UNL     1       2.190   6.650  12.125  1.00  0.00     0.037 A 
BRANCH  42  56
ATOM     56  C   UNL     1       3.288   0.736  10.706  1.00  0.00     0.058 A 
ATOM     57  C   UNL     1       4.351   0.224   9.945  1.00  0.00     0.135 A 
ATOM     58  C   UNL     1       2.920   0.042  11.870  1.00  0.00     0.135 A 
ATOM     59  F   UNL     1       4.728   0.835   8.811  1.00  0.00    -0.206 F 
ATOM     60  C   UNL     1       5.021  -0.935  10.323  1.00  0.00     0.059 A 
ATOM     61  C   UNL     1       3.594  -1.104  12.281  1.00  0.00     0.059 A 
ATOM     62  F   UNL     1       1.904   0.484  12.627  1.00  0.00    -0.206 F 
ATOM     63  C   UNL     1       4.642  -1.586  11.498  1.00  0.00     0.060 A 
BRANCH  63  64
ATOM     64  S   UNL     1       5.552  -3.065  11.991  1.00  0.00     0.124 S 
ATOM     65  O   UNL     1       5.167  -4.008  10.945  1.00  0.00    -0.237 OA
ATOM     66  O   UNL     1       6.935  -2.603  11.949  1.00  0.00    -0.237 OA
ATOM     67  O   UNL     1       5.031  -3.359  13.322  1.00  0.00    -0.744 OA
ENDBRANCH  63  64
ENDBRANCH  42  56
BRANCH  43  68
ATOM     68  C   UNL     1      -1.520   9.133   8.008  1.00  0.00     0.058 A 
ATOM     69  C   UNL     1      -0.835  10.286   7.598  1.00  0.00     0.135 A 
ATOM     70  C   UNL     1      -2.924   9.182   8.021  1.00  0.00     0.135 A 
ATOM     71  F   UNL     1       0.507  10.296   7.576  1.00  0.00    -0.206 F 
ATOM     72  C   UNL     1      -1.511  11.443   7.223  1.00  0.00     0.059 A 
ATOM     73  C   UNL     1      -3.624  10.317   7.625  1.00  0.00     0.059 A 
ATOM     74  F   UNL     1      -3.632   8.104   8.394  1.00  0.00    -0.206 F 
ATOM     75  C   UNL     1      -2.908  11.447   7.234  1.00  0.00     0.060 A 
BRANCH  75  76
ATOM     76  S   UNL     1      -3.773  12.941   6.703  1.00  0.00     0.124 S 
ATOM     77  O   UNL     1      -3.445  13.870   7.779  1.00  0.00    -0.237 OA
ATOM     78  O   UNL     1      -3.147  13.211   5.413  1.00  0.00    -0.237 OA
ATOM     79  O   UNL     1      -5.169  12.518   6.639  1.00  0.00    -0.744 OA
ENDBRANCH  75  76
ENDBRANCH  43  68
BRANCH  55  80
ATOM     80  C   UNL     1       2.677   7.396  13.336  1.00  0.00     0.058 A 
ATOM     81  C   UNL     1       1.828   7.641  14.425  1.00  0.00     0.135 A 
ATOM     82  C   UNL     1       4.031   7.746  13.463  1.00  0.00     0.135 A 
ATOM     83  F   UNL     1       0.524   7.332  14.349  1.00  0.00    -0.206 F 
ATOM     84  C   UNL     1       2.307   8.202  15.604  1.00  0.00     0.059 A 
ATOM     85  C   UNL     1       4.537   8.281  14.643  1.00  0.00     0.059 A 
ATOM     86  F   UNL     1       4.885   7.522  12.451  1.00  0.00    -0.206 F 
ATOM     87  C   UNL     1       3.666   8.503  15.709  1.00  0.00     0.060 A 
BRANCH  87  88
ATOM     88  S   UNL     1       4.283   9.145  17.278  1.00  0.00     0.124 S 
ATOM     89  O   UNL     1       3.662  10.464  17.323  1.00  0.00    -0.237 OA
ATOM     90  O   UNL     1       3.768   8.169  18.234  1.00  0.00    -0.237 OA
ATOM     91  O   UNL     1       5.733   9.140  17.104  1.00  0.00    -0.744 OA
ENDBRANCH  87  88
ENDBRANCH  55  80
ENDBRANCH  29  30
ENDBRANCH  22  24
ENDBRANCH  21  22
ENDBRANCH   1  21
TORSDOF 16
