REMARK SMILES CCC1C[NH+]([C@H]2COC[C@@]2(C)C(=O)OCCOC(=O)c2ccc(-c3c4nc(c(-c5c(F)cc(S(=O)(=O)[O-])cc5F)c5ccc([nH]5)c(-c5c(F)cc(S(=O)(=O)[O-])cc5F)c5nc(c(-c6c(F)cc(S(=O)(=O)[O-])cc6F)c6ccc3[nH]6)C=C5)C=C4)cc2)C1
REMARK SMILES IDX 16 1 15 2 14 3 12 4 13 5 10 6 6 7 7 8 8 9 9 10 11 11 5 12
REMARK SMILES IDX 3 13 4 14 86 15 2 17 1 18 17 19 18 20 19 21 20 22 21 23
REMARK SMILES IDX 85 24 22 25 84 26 23 27 24 28 25 29 78 30 26 31 83 32 77 33
REMARK SMILES IDX 79 34 27 35 82 36 76 37 75 38 28 40 62 41 41 42 61 43 42 44
REMARK SMILES IDX 45 45 60 46 80 47 43 48 44 49 59 51 81 52 46 53 29 54 30 55
REMARK SMILES IDX 39 56 31 57 32 58 38 59 40 60 33 61 34 62 35 63 36 64 37 65
REMARK SMILES IDX 63 66 64 67 73 68 65 69 66 70 72 71 74 72 67 73 68 74 69 75
REMARK SMILES IDX 70 76 71 77 47 78 48 79 57 80 49 81 50 82 56 83 58 84 51 85
REMARK SMILES IDX 52 86 53 87 54 88 55 89
REMARK H PARENT 5 16 79 39 45 50
REMARK Flexibility Score: inf
ROOT
ATOM      1  C   UNL     1       0.100  -9.122  -0.159  1.00  0.00     0.275 C 
ENDROOT
BRANCH   1   2
ATOM      2  C   UNL     1       1.145  -9.013  -1.278  1.00  0.00     0.274 C 
BRANCH   2   3
ATOM      3  O   UNL     1       2.311  -8.258  -0.881  1.00  0.00    -0.461 OA
BRANCH   3   4
ATOM      4  C   UNL     1       2.162  -6.919  -1.040  1.00  0.00     0.320 C 
ATOM      5  O   UNL     1       1.137  -6.405  -1.487  1.00  0.00    -0.251 OA
BRANCH   4   6
ATOM      6  C   UNL     1       3.372  -6.076  -0.683  1.00  0.00     0.142 C 
ATOM      7  C   UNL     1       3.366  -5.572   0.782  1.00  0.00     0.229 C 
ATOM      8  C   UNL     1       4.738  -4.895   0.789  1.00  0.00     0.226 C 
ATOM      9  O   UNL     1       5.606  -5.777   0.038  1.00  0.00    -0.374 OA
ATOM     10  C   UNL     1       4.759  -6.693  -0.720  1.00  0.00     0.185 C 
ATOM     11  C   UNL     1       3.344  -4.936  -1.749  1.00  0.00     0.033 C 
BRANCH   7  12
ATOM     12  N   UNL     1       3.206  -6.720   1.726  1.00  0.00    -0.329 N 
ATOM     13  C   UNL     1       3.254  -7.407   3.708  1.00  0.00     0.099 C 
ATOM     14  C   UNL     1       2.469  -6.327   2.951  1.00  0.00     0.271 C 
ATOM     15  C   UNL     1       4.351  -7.020   2.673  1.00  0.00     0.271 C 
ATOM     16  H   UNL     1       2.902  -7.415   1.044  1.00  0.00     0.348 HD
BRANCH  13  17
ATOM     17  C   UNL     1       3.361  -7.164   5.208  1.00  0.00     0.012 C 
ATOM     18  C   UNL     1       1.983  -7.293   5.862  1.00  0.00     0.004 C 
ENDBRANCH  13  17
ENDBRANCH   7  12
ENDBRANCH   4   6
ENDBRANCH   3   4
ENDBRANCH   2   3
ENDBRANCH   1   2
BRANCH   1  19
ATOM     19  O   UNL     1      -0.309  -7.829   0.331  1.00  0.00    -0.458 OA
BRANCH  19  20
ATOM     20  C   UNL     1      -0.801  -7.831   1.598  1.00  0.00     0.338 C 
ATOM     21  O   UNL     1      -1.050  -8.836   2.246  1.00  0.00    -0.246 OA
BRANCH  20  22
ATOM     22  C   UNL     1      -0.862  -6.457   2.198  1.00  0.00     0.060 A 
ATOM     23  C   UNL     1      -0.246  -5.353   1.603  1.00  0.00     0.016 A 
ATOM     24  C   UNL     1      -1.296  -6.344   3.530  1.00  0.00     0.016 A 
ATOM     25  C   UNL     1       0.087  -4.236   2.392  1.00  0.00     0.010 A 
ATOM     26  C   UNL     1      -1.030  -5.189   4.290  1.00  0.00     0.010 A 
ATOM     27  C   UNL     1      -0.289  -4.132   3.750  1.00  0.00    -0.014 A 
BRANCH  27  28
ATOM     28  C   UNL     1      -0.009  -2.898   4.554  1.00  0.00     0.031 A 
ATOM     29  C   UNL     1       0.758  -2.888   5.859  1.00  0.00     0.074 A 
ATOM     30  C   UNL     1      -0.434  -1.713   4.086  1.00  0.00     0.049 A 
ATOM     31  N   UNL     1       0.686  -2.077   6.886  1.00  0.00    -0.248 NA
ATOM     32  C   UNL     1       1.776  -3.921   6.016  1.00  0.00     0.031 C 
ATOM     33  C   UNL     1      -1.078  -1.500   2.792  1.00  0.00     0.029 A 
ATOM     34  N   UNL     1      -0.368  -0.464   4.642  1.00  0.00    -0.354 N 
ATOM     35  C   UNL     1       1.549  -2.594   7.861  1.00  0.00     0.074 A 
ATOM     36  C   UNL     1       2.176  -3.756   7.271  1.00  0.00     0.031 C 
ATOM     37  C   UNL     1      -1.283  -0.192   2.618  1.00  0.00     0.029 A 
ATOM     38  C   UNL     1      -0.959   0.494   3.861  1.00  0.00     0.049 A 
ATOM     39  H   UNL     1       0.058  -0.275   5.510  1.00  0.00     0.167 HD
ATOM     40  C   UNL     1       1.795  -2.121   9.113  1.00  0.00     0.037 A 
ATOM     41  C   UNL     1      -1.307   1.761   4.142  1.00  0.00     0.037 A 
ATOM     42  C   UNL     1       1.355  -0.813   9.550  1.00  0.00     0.049 A 
ATOM     43  C   UNL     1      -1.055   2.292   5.514  1.00  0.00     0.074 A 
ATOM     44  C   UNL     1       1.562  -0.182  10.766  1.00  0.00     0.029 A 
ATOM     45  N   UNL     1       0.692   0.100   8.740  1.00  0.00    -0.354 N 
ATOM     46  N   UNL     1      -0.499   1.692   6.539  1.00  0.00    -0.248 NA
ATOM     47  C   UNL     1      -1.510   3.659   5.778  1.00  0.00     0.031 C 
ATOM     48  C   UNL     1       1.028   1.111  10.687  1.00  0.00     0.029 A 
ATOM     49  C   UNL     1       0.511   1.296   9.415  1.00  0.00     0.049 A 
ATOM     50  H   UNL     1       0.394  -0.077   7.819  1.00  0.00     0.167 HD
ATOM     51  C   UNL     1      -0.534   2.611   7.578  1.00  0.00     0.074 A 
ATOM     52  C   UNL     1      -1.150   3.813   7.045  1.00  0.00     0.031 C 
ATOM     53  C   UNL     1      -0.103   2.474   8.857  1.00  0.00     0.037 A 
BRANCH  40  54
ATOM     54  C   UNL     1       2.527  -2.994  10.117  1.00  0.00     0.058 A 
ATOM     55  C   UNL     1       3.889  -3.318  10.030  1.00  0.00     0.135 A 
ATOM     56  C   UNL     1       1.836  -3.469  11.252  1.00  0.00     0.135 A 
ATOM     57  F   UNL     1       4.621  -2.885   8.992  1.00  0.00    -0.206 F 
ATOM     58  C   UNL     1       4.521  -4.119  10.987  1.00  0.00     0.059 A 
ATOM     59  C   UNL     1       2.453  -4.242  12.237  1.00  0.00     0.059 A 
ATOM     60  F   UNL     1       0.537  -3.172  11.424  1.00  0.00    -0.206 F 
ATOM     61  C   UNL     1       3.791  -4.587  12.082  1.00  0.00     0.060 A 
BRANCH  61  62
ATOM     62  S   UNL     1       4.604  -5.659  13.293  1.00  0.00     0.124 S 
ATOM     63  O   UNL     1       4.648  -6.928  12.573  1.00  0.00    -0.237 OA
ATOM     64  O   UNL     1       5.891  -4.999  13.489  1.00  0.00    -0.237 OA
ATOM     65  O   UNL     1       3.704  -5.620  14.441  1.00  0.00    -0.744 OA
ENDBRANCH  61  62
ENDBRANCH  40  54
BRANCH  41  66
ATOM     66  C   UNL     1      -2.003   2.537   3.088  1.00  0.00     0.058 A 
ATOM     67  C   UNL     1      -1.325   3.529   2.371  1.00  0.00     0.135 A 
ATOM     68  C   UNL     1      -3.289   2.166   2.656  1.00  0.00     0.135 A 
ATOM     69  F   UNL     1      -0.098   3.913   2.753  1.00  0.00    -0.206 F 
ATOM     70  C   UNL     1      -1.881   4.101   1.234  1.00  0.00     0.059 A 
ATOM     71  C   UNL     1      -3.848   2.697   1.502  1.00  0.00     0.059 A 
ATOM     72  F   UNL     1      -3.961   1.196   3.297  1.00  0.00    -0.206 F 
ATOM     73  C   UNL     1      -3.132   3.659   0.793  1.00  0.00     0.060 A 
BRANCH  73  74
ATOM     74  S   UNL     1      -3.771   4.290  -0.773  1.00  0.00     0.124 S 
ATOM     75  O   UNL     1      -4.212   5.625  -0.390  1.00  0.00    -0.237 OA
ATOM     76  O   UNL     1      -2.594   4.226  -1.633  1.00  0.00    -0.237 OA
ATOM     77  O   UNL     1      -4.831   3.343  -1.106  1.00  0.00    -0.744 OA
ENDBRANCH  73  74
ENDBRANCH  41  66
BRANCH  53  78
ATOM     78  C   UNL     1      -0.256   3.675   9.741  1.00  0.00     0.058 A 
ATOM     79  C   UNL     1      -1.503   4.038  10.270  1.00  0.00     0.135 A 
ATOM     80  C   UNL     1       0.855   4.474  10.054  1.00  0.00     0.135 A 
ATOM     81  F   UNL     1      -2.596   3.312   9.983  1.00  0.00    -0.206 F 
ATOM     82  C   UNL     1      -1.651   5.173  11.057  1.00  0.00     0.059 A 
ATOM     83  C   UNL     1       0.734   5.601  10.858  1.00  0.00     0.059 A 
ATOM     84  F   UNL     1       2.069   4.163   9.573  1.00  0.00    -0.206 F 
ATOM     85  C   UNL     1      -0.527   5.951  11.342  1.00  0.00     0.060 A 
BRANCH  85  86
ATOM     86  S   UNL     1      -0.733   7.420  12.369  1.00  0.00     0.124 S 
ATOM     87  O   UNL     1      -1.374   8.341  11.436  1.00  0.00    -0.237 OA
ATOM     88  O   UNL     1      -1.575   6.928  13.454  1.00  0.00    -0.237 OA
ATOM     89  O   UNL     1       0.634   7.761  12.750  1.00  0.00    -0.744 OA
ENDBRANCH  85  86
ENDBRANCH  53  78
ENDBRANCH  27  28
ENDBRANCH  20  22
ENDBRANCH  19  20
ENDBRANCH   1  19
TORSDOF 16
