REMARK SMILES Cc1noc(C)c1[C@H](C)NC(=O)NC[C@@](C)(O)C(=O)OCCOC(=O)c1ccc(-c2c3nc(c(-c4c(F)cc(S(=O)(=O)[O-])cc4F)c4ccc([nH]4)c(-c4c(F)cc(S(=O)(=O)[O-])cc4F)c4nc(c(-c5c(F)cc(S(=O)(=O)[O-])cc5F)c5ccc2[nH]5)C=C4)C=C3)cc1
REMARK SMILES IDX 21 1 20 2 18 3 19 4 15 5 16 6 14 7 13 8 10 9 11 10 12 12
REMARK SMILES IDX 8 14 9 15 7 16 1 17 2 18 3 19 4 20 5 21 6 22 17 23 22 25
REMARK SMILES IDX 23 26 24 27 25 28 26 29 27 30 91 31 28 32 90 33 29 34 30 35
REMARK SMILES IDX 31 36 84 37 32 38 89 39 83 40 85 41 33 42 88 43 82 44 81 45
REMARK SMILES IDX 34 47 68 48 47 49 67 50 48 51 51 52 66 53 86 54 49 55 50 56
REMARK SMILES IDX 65 58 87 59 52 60 35 61 36 62 45 63 37 64 38 65 44 66 46 67
REMARK SMILES IDX 39 68 40 69 41 70 42 71 43 72 69 73 70 74 79 75 71 76 72 77
REMARK SMILES IDX 78 78 80 79 73 80 74 81 75 82 76 83 77 84 53 85 54 86 63 87
REMARK SMILES IDX 55 88 56 89 62 90 64 91 57 92 58 93 59 94 60 95 61 96
REMARK H PARENT 10 11 13 13 17 24 85 46 51 57
REMARK Flexibility Score: inf
ROOT
ATOM      1  C   UNL     1       1.400   8.099  -1.415  1.00  0.00     0.274 C 
ENDROOT
BRANCH   1   2
ATOM      2  O   UNL     1       2.452   7.308  -0.816  1.00  0.00    -0.460 OA
BRANCH   2   3
ATOM      3  C   UNL     1       2.215   6.785   0.432  1.00  0.00     0.339 C 
ATOM      4  O   UNL     1       1.293   7.136   1.155  1.00  0.00    -0.249 OA
BRANCH   3   5
ATOM      5  C   UNL     1       3.288   5.713   0.779  1.00  0.00     0.176 C 
ATOM      6  C   UNL     1       4.419   6.509   1.438  1.00  0.00     0.057 C 
BRANCH   5   7
ATOM      7  C   UNL     1       2.817   4.561   1.726  1.00  0.00     0.164 C 
BRANCH   7   8
ATOM      8  N   UNL     1       1.418   4.525   2.162  1.00  0.00    -0.335 N 
ATOM      9  N   UNL     1      -0.241   3.017   1.061  1.00  0.00    -0.331 N 
ATOM     10  C   UNL     1       0.308   3.805   2.064  1.00  0.00     0.315 C 
ATOM     11  H   UNL     1      -0.893   2.486   1.572  1.00  0.00     0.165 HD
ATOM     12  O   UNL     1      -0.437   3.943   3.050  1.00  0.00    -0.249 OA
ATOM     13  H   UNL     1       1.239   5.312   2.725  1.00  0.00     0.165 HD
BRANCH   9  14
ATOM     14  C   UNL     1      -0.533   2.265  -0.871  1.00  0.00     0.116 C 
ATOM     15  C   UNL     1       0.205   0.826  -1.517  1.00  0.00     0.036 C 
BRANCH  14  16
ATOM     16  C   UNL     1      -1.802   2.725  -2.149  1.00  0.00     0.040 A 
ATOM     17  C   UNL     1      -2.809   5.399  -2.091  1.00  0.00     0.071 C 
ATOM     18  C   UNL     1      -2.476   4.022  -2.594  1.00  0.00     0.086 A 
ATOM     19  N   UNL     1      -3.020   3.888  -3.806  1.00  0.00    -0.085 NA
ATOM     20  O   UNL     1      -2.867   2.616  -4.170  1.00  0.00    -0.361 OA
ATOM     21  C   UNL     1      -2.218   1.897  -3.228  1.00  0.00     0.139 A 
ATOM     22  C   UNL     1      -2.165   0.496  -3.709  1.00  0.00     0.091 C 
ENDBRANCH  14  16
ENDBRANCH   9  14
ENDBRANCH   7   8
ENDBRANCH   5   7
BRANCH   5  23
ATOM     23  O   UNL     1       3.906   5.107  -0.370  1.00  0.00    -0.377 OA
ATOM     24  H   UNL     1       4.559   4.453  -0.078  1.00  0.00     0.212 HD
ENDBRANCH   5  23
ENDBRANCH   3   5
ENDBRANCH   2   3
ENDBRANCH   1   2
BRANCH   1  25
ATOM     25  C   UNL     1       0.615   7.247  -2.411  1.00  0.00     0.275 C 
BRANCH  25  26
ATOM     26  O   UNL     1      -0.033   6.208  -1.666  1.00  0.00    -0.458 OA
BRANCH  26  27
ATOM     27  C   UNL     1       0.734   5.129  -1.473  1.00  0.00     0.338 C 
ATOM     28  O   UNL     1       1.809   4.892  -2.008  1.00  0.00    -0.246 OA
BRANCH  27  29
ATOM     29  C   UNL     1       0.220   4.221  -0.446  1.00  0.00     0.060 A 
ATOM     30  C   UNL     1       1.382   2.845  -0.093  1.00  0.00     0.016 A 
ATOM     31  C   UNL     1      -1.543   3.989  -0.028  1.00  0.00     0.016 A 
ATOM     32  C   UNL     1       0.783   1.334   0.699  1.00  0.00     0.010 A 
ATOM     33  C   UNL     1      -2.152   2.382   0.560  1.00  0.00     0.010 A 
ATOM     34  C   UNL     1      -0.982   1.073   0.951  1.00  0.00    -0.014 A 
BRANCH  34  35
ATOM     35  C   UNL     1      -1.428  -0.174   1.647  1.00  0.00     0.031 A 
ATOM     36  C   UNL     1      -1.718  -1.416   0.859  1.00  0.00     0.074 A 
ATOM     37  C   UNL     1      -1.560  -0.230   2.984  1.00  0.00     0.049 A 
ATOM     38  N   UNL     1      -1.675  -2.674   1.204  1.00  0.00    -0.248 NA
ATOM     39  C   UNL     1      -2.075  -1.205  -0.541  1.00  0.00     0.031 C 
ATOM     40  C   UNL     1      -1.405   0.884   3.908  1.00  0.00     0.029 A 
ATOM     41  N   UNL     1      -1.883  -1.287   3.799  1.00  0.00    -0.354 N 
ATOM     42  C   UNL     1      -1.839  -3.392   0.022  1.00  0.00     0.074 A 
ATOM     43  C   UNL     1      -2.017  -2.431  -1.041  1.00  0.00     0.031 C 
ATOM     44  C   UNL     1      -1.668   0.472   5.157  1.00  0.00     0.029 A 
ATOM     45  C   UNL     1      -1.986  -0.948   5.127  1.00  0.00     0.049 A 
ATOM     46  H   UNL     1      -2.029  -2.201   3.463  1.00  0.00     0.167 HD
ATOM     47  C   UNL     1      -1.875  -4.734  -0.152  1.00  0.00     0.037 A 
ATOM     48  C   UNL     1      -2.292  -1.702   6.199  1.00  0.00     0.037 A 
ATOM     49  C   UNL     1      -2.012  -5.653   0.947  1.00  0.00     0.049 A 
ATOM     50  C   UNL     1      -2.459  -3.183   6.005  1.00  0.00     0.074 A 
ATOM     51  C   UNL     1      -2.141  -7.029   0.919  1.00  0.00     0.029 A 
ATOM     52  N   UNL     1      -2.140  -5.264   2.274  1.00  0.00    -0.354 N 
ATOM     53  N   UNL     1      -2.391  -3.883   4.895  1.00  0.00    -0.248 NA
ATOM     54  C   UNL     1      -2.702  -3.984   7.210  1.00  0.00     0.031 C 
ATOM     55  C   UNL     1      -2.434  -7.461   2.219  1.00  0.00     0.029 A 
ATOM     56  C   UNL     1      -2.402  -6.365   3.069  1.00  0.00     0.049 A 
ATOM     57  H   UNL     1      -2.058  -4.340   2.602  1.00  0.00     0.167 HD
ATOM     58  C   UNL     1      -2.559  -5.211   5.270  1.00  0.00     0.074 A 
ATOM     59  C   UNL     1      -2.708  -5.213   6.713  1.00  0.00     0.031 C 
ATOM     60  C   UNL     1      -2.582  -6.329   4.500  1.00  0.00     0.037 A 
BRANCH  47  61
ATOM     61  C   UNL     1      -1.834  -5.269  -1.560  1.00  0.00     0.058 A 
ATOM     62  C   UNL     1      -0.652  -5.206  -2.320  1.00  0.00     0.135 A 
ATOM     63  C   UNL     1      -2.943  -5.903  -2.140  1.00  0.00     0.135 A 
ATOM     64  F   UNL     1       0.437  -4.594  -1.827  1.00  0.00    -0.206 F 
ATOM     65  C   UNL     1      -0.572  -5.755  -3.598  1.00  0.00     0.059 A 
ATOM     66  C   UNL     1      -2.882  -6.473  -3.411  1.00  0.00     0.059 A 
ATOM     67  F   UNL     1      -4.104  -5.978  -1.471  1.00  0.00    -0.206 F 
ATOM     68  C   UNL     1      -1.692  -6.392  -4.133  1.00  0.00     0.060 A 
BRANCH  68  69
ATOM     69  S   UNL     1      -1.562  -7.116  -5.784  1.00  0.00     0.124 S 
ATOM     70  O   UNL     1      -1.421  -5.924  -6.615  1.00  0.00    -0.237 OA
ATOM     71  O   UNL     1      -0.370  -7.949  -5.664  1.00  0.00    -0.237 OA
ATOM     72  O   UNL     1      -2.819  -7.841  -5.939  1.00  0.00    -0.744 OA
ENDBRANCH  68  69
ENDBRANCH  47  61
BRANCH  48  73
ATOM     73  C   UNL     1      -2.423  -1.059   7.535  1.00  0.00     0.058 A 
ATOM     74  C   UNL     1      -1.485  -1.276   8.554  1.00  0.00     0.135 A 
ATOM     75  C   UNL     1      -3.478  -0.168   7.801  1.00  0.00     0.135 A 
ATOM     76  F   UNL     1      -0.459  -2.116   8.352  1.00  0.00    -0.206 F 
ATOM     77  C   UNL     1      -1.592  -0.647   9.791  1.00  0.00     0.059 A 
ATOM     78  C   UNL     1      -3.591   0.494   9.020  1.00  0.00     0.059 A 
ATOM     79  F   UNL     1      -4.395   0.089   6.856  1.00  0.00    -0.206 F 
ATOM     80  C   UNL     1      -2.647   0.241  10.013  1.00  0.00     0.060 A 
BRANCH  80  81
ATOM     81  S   UNL     1      -2.746   1.090  11.605  1.00  0.00     0.124 S 
ATOM     82  O   UNL     1      -3.127  -0.000  12.496  1.00  0.00    -0.237 OA
ATOM     83  O   UNL     1      -1.388   1.600  11.765  1.00  0.00    -0.237 OA
ATOM     84  O   UNL     1      -3.768   2.108  11.382  1.00  0.00    -0.744 OA
ENDBRANCH  80  81
ENDBRANCH  48  73
BRANCH  60  85
ATOM     85  C   UNL     1      -2.769  -7.639   5.212  1.00  0.00     0.058 A 
ATOM     86  C   UNL     1      -3.983  -7.979   5.829  1.00  0.00     0.135 A 
ATOM     87  C   UNL     1      -1.719  -8.570   5.266  1.00  0.00     0.135 A 
ATOM     88  F   UNL     1      -5.018  -7.125   5.804  1.00  0.00    -0.206 F 
ATOM     89  C   UNL     1      -4.131  -9.173   6.524  1.00  0.00     0.059 A 
ATOM     90  C   UNL     1      -1.858  -9.786   5.923  1.00  0.00     0.059 A 
ATOM     91  F   UNL     1      -0.544  -8.302   4.675  1.00  0.00    -0.206 F 
ATOM     92  C   UNL     1      -3.060 -10.068   6.570  1.00  0.00     0.060 A 
BRANCH  92  93
ATOM     93  S   UNL     1      -3.259 -11.607   7.489  1.00  0.00     0.124 S 
ATOM     94  O   UNL     1      -3.212 -11.132   8.867  1.00  0.00    -0.237 OA
ATOM     95  O   UNL     1      -4.560 -12.081   7.025  1.00  0.00    -0.237 OA
ATOM     96  O   UNL     1      -2.117 -12.408   7.060  1.00  0.00    -0.744 OA
ENDBRANCH  92  93
ENDBRANCH  60  85
ENDBRANCH  34  35
ENDBRANCH  27  29
ENDBRANCH  26  27
ENDBRANCH  25  26
ENDBRANCH   1  25
TORSDOF 19
