REMARK SMILES CCOc1cccc(OCC)c1-c1ccc([C@@H](C)C(=O)OCCOC(=O)c2ccc(-c3c4nc(c(-c5c(F)cc(S(=O)(=O)[O-])cc5F)c5ccc([nH]5)c(-c5c(F)cc(S(=O)(=O)[O-])cc5F)c5nc(c(-c6c(F)cc(S(=O)(=O)[O-])cc6F)c6ccc3[nH]6)C=C5)C=C4)cc2)cc1F
REMARK SMILES IDX 22 1 21 2 19 3 20 4 17 5 18 6 16 7 13 8 14 9 94 10 15 11
REMARK SMILES IDX 93 12 95 13 12 14 4 15 5 16 6 17 8 18 7 19 3 20 2 21 1 22
REMARK SMILES IDX 9 23 10 24 11 25 23 26 24 27 25 28 26 29 27 30 28 31 92 32
REMARK SMILES IDX 29 33 91 34 30 35 31 36 32 37 85 38 33 39 90 40 84 41 86 42
REMARK SMILES IDX 34 43 89 44 83 45 82 46 35 48 69 49 48 50 68 51 49 52 52 53
REMARK SMILES IDX 67 54 87 55 50 56 51 57 66 59 88 60 53 61 36 62 37 63 46 64
REMARK SMILES IDX 38 65 39 66 45 67 47 68 40 69 41 70 42 71 43 72 44 73 70 74
REMARK SMILES IDX 71 75 80 76 72 77 73 78 79 79 81 80 74 81 75 82 76 83 77 84
REMARK SMILES IDX 78 85 54 86 55 87 64 88 56 89 57 90 63 91 65 92 58 93 59 94
REMARK SMILES IDX 60 95 61 96 62 97
REMARK H PARENT 86 47 52 58
REMARK Flexibility Score: inf
ROOT
ATOM      1  C   UNL     1       0.847  -2.969  -4.743  1.00  0.00     0.274 C 
ENDROOT
BRANCH   1   2
ATOM      2  O   UNL     1       1.500  -1.768  -4.283  1.00  0.00    -0.462 OA
BRANCH   2   3
ATOM      3  C   UNL     1       1.064  -0.588  -4.793  1.00  0.00     0.313 C 
ATOM      4  O   UNL     1       0.242  -0.502  -5.701  1.00  0.00    -0.252 OA
BRANCH   3   5
ATOM      5  C   UNL     1       1.733   0.646  -4.191  1.00  0.00     0.126 C 
ATOM      6  C   UNL     1       2.954   1.036  -5.020  1.00  0.00     0.025 C 
BRANCH   5   7
ATOM      7  C   UNL     1       2.062   0.635  -2.703  1.00  0.00    -0.031 A 
ATOM      8  C   UNL     1       2.804   0.770   0.046  1.00  0.00     0.025 A 
ATOM      9  C   UNL     1       3.097  -0.357  -0.733  1.00  0.00     0.012 A 
ATOM     10  C   UNL     1       2.071   1.798  -0.557  1.00  0.00     0.131 A 
ATOM     11  C   UNL     1       2.779  -0.402  -2.094  1.00  0.00     0.005 A 
ATOM     12  C   UNL     1       1.698   1.733  -1.903  1.00  0.00     0.044 A 
ATOM     13  F   UNL     1       1.752   2.900   0.138  1.00  0.00    -0.206 F 
BRANCH   8  14
ATOM     14  C   UNL     1       3.264   0.834   1.444  1.00  0.00     0.069 A 
ATOM     15  C   UNL     1       2.306   0.617   2.469  1.00  0.00     0.130 A 
ATOM     16  C   UNL     1       2.654   0.541   3.821  1.00  0.00     0.047 A 
ATOM     17  C   UNL     1       3.982   0.672   4.190  1.00  0.00     0.008 A 
ATOM     18  C   UNL     1       4.609   1.012   1.841  1.00  0.00     0.130 A 
ATOM     19  C   UNL     1       4.940   0.918   3.209  1.00  0.00     0.047 A 
BRANCH  15  20
ATOM     20  O   UNL     1       0.973   0.583   2.140  1.00  0.00    -0.493 OA
BRANCH  20  21
ATOM     21  C   UNL     1       0.379  -0.706   2.304  1.00  0.00     0.226 C 
ATOM     22  C   UNL     1      -0.288  -1.070   0.994  1.00  0.00     0.049 C 
ENDBRANCH  20  21
ENDBRANCH  15  20
BRANCH  18  23
ATOM     23  O   UNL     1       5.739   1.277   1.116  1.00  0.00    -0.493 OA
BRANCH  23  24
ATOM     24  C   UNL     1       5.761   1.496  -0.286  1.00  0.00     0.226 C 
ATOM     25  C   UNL     1       6.280   0.246  -0.976  1.00  0.00     0.049 C 
ENDBRANCH  23  24
ENDBRANCH  18  23
ENDBRANCH   8  14
ENDBRANCH   5   7
ENDBRANCH   3   5
ENDBRANCH   2   3
ENDBRANCH   1   2
BRANCH   1  26
ATOM     26  C   UNL     1      -0.197  -3.467  -3.737  1.00  0.00     0.275 C 
BRANCH  26  27
ATOM     27  O   UNL     1      -1.362  -2.621  -3.711  1.00  0.00    -0.458 OA
BRANCH  27  28
ATOM     28  C   UNL     1      -1.290  -1.603  -2.825  1.00  0.00     0.338 C 
ATOM     29  O   UNL     1      -0.374  -1.387  -2.043  1.00  0.00    -0.246 OA
BRANCH  28  30
ATOM     30  C   UNL     1      -2.402  -0.666  -3.007  1.00  0.00     0.060 A 
ATOM     31  C   UNL     1      -2.090   0.653  -3.347  1.00  0.00     0.016 A 
ATOM     32  C   UNL     1      -3.723  -1.047  -2.768  1.00  0.00     0.016 A 
ATOM     33  C   UNL     1      -3.098   1.601  -3.465  1.00  0.00     0.010 A 
ATOM     34  C   UNL     1      -4.737  -0.092  -2.887  1.00  0.00     0.010 A 
ATOM     35  C   UNL     1      -4.429   1.235  -3.235  1.00  0.00    -0.014 A 
BRANCH  35  36
ATOM     36  C   UNL     1      -5.492   2.257  -3.354  1.00  0.00     0.031 A 
ATOM     37  C   UNL     1      -6.129   2.826  -2.121  1.00  0.00     0.074 A 
ATOM     38  C   UNL     1      -5.859   2.684  -4.577  1.00  0.00     0.049 A 
ATOM     39  N   UNL     1      -7.124   3.668  -2.021  1.00  0.00    -0.248 NA
ATOM     40  C   UNL     1      -5.574   2.389  -0.831  1.00  0.00     0.031 C 
ATOM     41  C   UNL     1      -5.270   2.230  -5.838  1.00  0.00     0.029 A 
ATOM     42  N   UNL     1      -6.812   3.592  -4.960  1.00  0.00    -0.354 N 
ATOM     43  C   UNL     1      -7.330   3.849  -0.659  1.00  0.00     0.074 A 
ATOM     44  C   UNL     1      -6.364   3.019   0.029  1.00  0.00     0.031 C 
ATOM     45  C   UNL     1      -5.875   2.862  -6.856  1.00  0.00     0.029 A 
ATOM     46  C   UNL     1      -6.923   3.728  -6.323  1.00  0.00     0.049 A 
ATOM     47  H   UNL     1      -7.363   4.098  -4.320  1.00  0.00     0.167 HD
ATOM     48  C   UNL     1      -8.245   4.637  -0.045  1.00  0.00     0.037 A 
ATOM     49  C   UNL     1      -7.792   4.448  -7.058  1.00  0.00     0.037 A 
ATOM     50  C   UNL     1      -9.192   5.467  -0.745  1.00  0.00     0.049 A 
ATOM     51  C   UNL     1      -8.827   5.279  -6.353  1.00  0.00     0.074 A 
ATOM     52  C   UNL     1     -10.158   6.307  -0.218  1.00  0.00     0.029 A 
ATOM     53  N   UNL     1      -9.291   5.563  -2.127  1.00  0.00    -0.354 N 
ATOM     54  N   UNL     1      -9.023   5.429  -5.064  1.00  0.00    -0.248 NA
ATOM     55  C   UNL     1      -9.763   6.032  -7.198  1.00  0.00     0.031 C 
ATOM     56  C   UNL     1     -10.864   6.882  -1.281  1.00  0.00     0.029 A 
ATOM     57  C   UNL     1     -10.312   6.433  -2.470  1.00  0.00     0.049 A 
ATOM     58  H   UNL     1      -8.719   5.082  -2.768  1.00  0.00     0.167 HD
ATOM     59  C   UNL     1     -10.094   6.307  -4.942  1.00  0.00     0.074 A 
ATOM     60  C   UNL     1     -10.495   6.663  -6.289  1.00  0.00     0.031 C 
ATOM     61  C   UNL     1     -10.693   6.774  -3.819  1.00  0.00     0.037 A 
BRANCH  48  62
ATOM     62  C   UNL     1      -8.288   4.610   1.457  1.00  0.00     0.058 A 
ATOM     63  C   UNL     1      -7.300   5.229   2.239  1.00  0.00     0.135 A 
ATOM     64  C   UNL     1      -9.346   3.972   2.124  1.00  0.00     0.135 A 
ATOM     65  F   UNL     1      -6.258   5.839   1.653  1.00  0.00    -0.206 F 
ATOM     66  C   UNL     1      -7.346   5.193   3.630  1.00  0.00     0.059 A 
ATOM     67  C   UNL     1      -9.424   3.943   3.514  1.00  0.00     0.059 A 
ATOM     68  F   UNL     1     -10.316   3.362   1.425  1.00  0.00    -0.206 F 
ATOM     69  C   UNL     1      -8.410   4.543   4.258  1.00  0.00     0.060 A 
BRANCH  69  70
ATOM     70  S   UNL     1      -8.456   4.497   6.063  1.00  0.00     0.124 S 
ATOM     71  O   UNL     1      -7.438   3.492   6.354  1.00  0.00    -0.237 OA
ATOM     72  O   UNL     1      -8.113   5.869   6.423  1.00  0.00    -0.237 OA
ATOM     73  O   UNL     1      -9.829   4.101   6.358  1.00  0.00    -0.744 OA
ENDBRANCH  69  70
ENDBRANCH  48  62
BRANCH  49  74
ATOM     74  C   UNL     1      -7.728   4.391  -8.541  1.00  0.00     0.058 A 
ATOM     75  C   UNL     1      -7.282   5.489  -9.290  1.00  0.00     0.135 A 
ATOM     76  C   UNL     1      -8.086   3.225  -9.237  1.00  0.00     0.135 A 
ATOM     77  F   UNL     1      -6.937   6.627  -8.671  1.00  0.00    -0.206 F 
ATOM     78  C   UNL     1      -7.200   5.437 -10.678  1.00  0.00     0.059 A 
ATOM     79  C   UNL     1      -7.990   3.141 -10.622  1.00  0.00     0.059 A 
ATOM     80  F   UNL     1      -8.507   2.143  -8.564  1.00  0.00    -0.206 F 
ATOM     81  C   UNL     1      -7.553   4.256 -11.335  1.00  0.00     0.060 A 
BRANCH  81  82
ATOM     82  S   UNL     1      -7.388   4.177 -13.132  1.00  0.00     0.124 S 
ATOM     83  O   UNL     1      -8.547   4.947 -13.567  1.00  0.00    -0.237 OA
ATOM     84  O   UNL     1      -6.087   4.801 -13.351  1.00  0.00    -0.237 OA
ATOM     85  O   UNL     1      -7.441   2.744 -13.409  1.00  0.00    -0.744 OA
ENDBRANCH  81  82
ENDBRANCH  49  74
BRANCH  61  86
ATOM     86  C   UNL     1     -11.827   7.742  -4.000  1.00  0.00     0.058 A 
ATOM     87  C   UNL     1     -13.096   7.315  -4.420  1.00  0.00     0.135 A 
ATOM     88  C   UNL     1     -11.654   9.104  -3.708  1.00  0.00     0.135 A 
ATOM     89  F   UNL     1     -13.310   6.024  -4.720  1.00  0.00    -0.206 F 
ATOM     90  C   UNL     1     -14.151   8.210  -4.563  1.00  0.00     0.059 A 
ATOM     91  C   UNL     1     -12.700  10.012  -3.822  1.00  0.00     0.059 A 
ATOM     92  F   UNL     1     -10.460   9.560  -3.294  1.00  0.00    -0.206 F 
ATOM     93  C   UNL     1     -13.943   9.558  -4.261  1.00  0.00     0.060 A 
BRANCH  93  94
ATOM     94  S   UNL     1     -15.327  10.706  -4.419  1.00  0.00     0.124 S 
ATOM     95  O   UNL     1     -15.394  10.889  -5.865  1.00  0.00    -0.237 OA
ATOM     96  O   UNL     1     -16.429   9.955  -3.824  1.00  0.00    -0.237 OA
ATOM     97  O   UNL     1     -14.889  11.872  -3.657  1.00  0.00    -0.744 OA
ENDBRANCH  93  94
ENDBRANCH  61  86
ENDBRANCH  35  36
ENDBRANCH  28  30
ENDBRANCH  27  28
ENDBRANCH  26  27
ENDBRANCH   1  26
TORSDOF 20
