REMARK SMILES O=C(OCCOC(=O)c1ccc(-c2c3nc(c(-c4c(F)cc(S(=O)(=O)[O-])cc4F)c4ccc([nH]4)c(-c4c(F)cc(S(=O)(=O)[O-])cc4F)c4nc(c(-c5c(F)cc(S(=O)(=O)[O-])cc5F)c5ccc2[nH]5)C=C4)C=C3)cc1)C1=Cc2cc(Cl)cc(-c3ccc(O)cc3)c2O[C@@H]1C(F)(F)F
REMARK SMILES IDX 5 1 4 2 3 3 2 4 1 5 75 6 76 7 92 8 77 9 91 10 78 11 90 12
REMARK SMILES IDX 79 13 82 14 80 15 81 16 93 17 94 18 95 19 96 20 83 21 84 22
REMARK SMILES IDX 89 23 85 24 88 25 86 26 87 27 6 29 7 30 8 31 9 32 10 33
REMARK SMILES IDX 74 34 11 35 73 36 12 37 13 38 14 39 67 40 15 41 72 42 66 43
REMARK SMILES IDX 68 44 16 45 71 46 65 47 64 48 17 50 51 51 30 52 50 53 31 54
REMARK SMILES IDX 34 55 49 56 69 57 32 58 33 59 48 61 70 62 35 63 18 64 19 65
REMARK SMILES IDX 28 66 20 67 21 68 27 69 29 70 22 71 23 72 24 73 25 74 26 75
REMARK SMILES IDX 52 76 53 77 62 78 54 79 55 80 61 81 63 82 56 83 57 84 58 85
REMARK SMILES IDX 59 86 60 87 36 88 37 89 46 90 38 91 39 92 45 93 47 94 40 95
REMARK SMILES IDX 41 96 42 97 43 98 44 99
REMARK H PARENT 87 28 68 49 34 60
REMARK Flexibility Score: inf
ROOT
ATOM      1  C   UNL     1       2.550   1.563  -1.892  1.00  0.00     0.275 C 
ENDROOT
BRANCH   1   2
ATOM      2  C   UNL     1       2.306   0.116  -1.403  1.00  0.00     0.275 C 
BRANCH   2   3
ATOM      3  O   UNL     1       1.863   0.029  -0.024  1.00  0.00    -0.459 OA
BRANCH   3   4
ATOM      4  C   UNL     1       2.455  -0.918   0.757  1.00  0.00     0.338 C 
ATOM      5  O   UNL     1       1.929  -1.983   1.037  1.00  0.00    -0.246 OA
BRANCH   4   6
ATOM      6  C   UNL     1       3.826  -0.544   1.172  1.00  0.00     0.087 C 
ATOM      7  C   UNL     1       4.753  -1.516   1.208  1.00  0.00     0.027 C 
ATOM      8  C   UNL     1       4.278   0.872   1.048  1.00  0.00     0.316 C 
ATOM      9  C   UNL     1       6.024  -1.140   0.545  1.00  0.00     0.019 A 
ATOM     10  O   UNL     1       5.080   0.987  -0.157  1.00  0.00    -0.475 OA
ATOM     11  C   UNL     1       7.076  -2.049   0.463  1.00  0.00     0.032 A 
ATOM     12  C   UNL     1       5.958  -0.056  -0.357  1.00  0.00     0.135 A 
ATOM     13  C   UNL     1       7.980  -1.938  -0.590  1.00  0.00     0.042 A 
ATOM     14  C   UNL     1       6.681  -0.119  -1.558  1.00  0.00     0.026 A 
ATOM     15  Cl  UNL     1       9.262  -3.075  -0.739  1.00  0.00    -0.084 Cl
ATOM     16  C   UNL     1       7.754  -1.024  -1.621  1.00  0.00     0.033 A 
BRANCH   8  17
ATOM     17  C   UNL     1       4.890   1.459   2.333  1.00  0.00     0.430 C 
ATOM     18  F   UNL     1       3.942   1.564   3.299  1.00  0.00    -0.167 F 
ATOM     19  F   UNL     1       5.899   0.721   2.842  1.00  0.00    -0.167 F 
ATOM     20  F   UNL     1       5.368   2.708   2.119  1.00  0.00    -0.167 F 
ENDBRANCH   8  17
BRANCH  14  21
ATOM     21  C   UNL     1       6.110   0.365  -2.835  1.00  0.00    -0.014 A 
ATOM     22  C   UNL     1       5.449  -0.583  -3.655  1.00  0.00     0.012 A 
ATOM     23  C   UNL     1       6.175   1.686  -3.289  1.00  0.00     0.012 A 
ATOM     24  C   UNL     1       4.896  -0.234  -4.886  1.00  0.00     0.047 A 
ATOM     25  C   UNL     1       5.615   2.042  -4.530  1.00  0.00     0.047 A 
ATOM     26  C   UNL     1       4.988   1.078  -5.319  1.00  0.00     0.115 A 
BRANCH  26  27
ATOM     27  O   UNL     1       4.443   1.375  -6.533  1.00  0.00    -0.508 OA
ATOM     28  H   UNL     1       4.029   0.703  -7.037  1.00  0.00     0.293 HD
ENDBRANCH  26  27
ENDBRANCH  14  21
ENDBRANCH   4   6
ENDBRANCH   3   4
ENDBRANCH   2   3
ENDBRANCH   1   2
BRANCH   1  29
ATOM     29  O   UNL     1       2.475   2.531  -0.840  1.00  0.00    -0.458 OA
BRANCH  29  30
ATOM     30  C   UNL     1       1.205   2.899  -0.534  1.00  0.00     0.338 C 
ATOM     31  O   UNL     1       0.231   2.747  -1.233  1.00  0.00    -0.246 OA
BRANCH  30  32
ATOM     32  C   UNL     1       1.160   3.289   0.898  1.00  0.00     0.060 A 
ATOM     33  C   UNL     1       0.025   2.891   1.606  1.00  0.00     0.016 A 
ATOM     34  C   UNL     1       2.193   3.975   1.552  1.00  0.00     0.016 A 
ATOM     35  C   UNL     1      -0.115   3.237   2.946  1.00  0.00     0.010 A 
ATOM     36  C   UNL     1       2.063   4.295   2.911  1.00  0.00     0.010 A 
ATOM     37  C   UNL     1       0.883   3.974   3.600  1.00  0.00    -0.014 A 
BRANCH  37  38
ATOM     38  C   UNL     1       0.550   4.544   4.932  1.00  0.00     0.031 A 
ATOM     39  C   UNL     1       0.135   5.989   5.013  1.00  0.00     0.074 A 
ATOM     40  C   UNL     1       0.453   3.751   6.017  1.00  0.00     0.049 A 
ATOM     41  N   UNL     1      -0.472   6.622   5.983  1.00  0.00    -0.248 NA
ATOM     42  C   UNL     1       0.432   6.830   3.842  1.00  0.00     0.031 C 
ATOM     43  C   UNL     1       0.845   2.343   6.076  1.00  0.00     0.029 A 
ATOM     44  N   UNL     1      -0.039   4.016   7.271  1.00  0.00    -0.354 N 
ATOM     45  C   UNL     1      -0.677   7.915   5.517  1.00  0.00     0.074 A 
ATOM     46  C   UNL     1      -0.051   8.003   4.217  1.00  0.00     0.031 C 
ATOM     47  C   UNL     1       0.557   1.861   7.299  1.00  0.00     0.029 A 
ATOM     48  C   UNL     1      -0.049   2.920   8.103  1.00  0.00     0.049 A 
ATOM     49  H   UNL     1      -0.356   4.905   7.549  1.00  0.00     0.167 HD
ATOM     50  C   UNL     1      -1.363   8.929   6.096  1.00  0.00     0.037 A 
ATOM     51  C   UNL     1      -0.519   2.784   9.360  1.00  0.00     0.037 A 
ATOM     52  C   UNL     1      -1.957   8.856   7.402  1.00  0.00     0.049 A 
ATOM     53  C   UNL     1      -1.234   3.945  10.009  1.00  0.00     0.074 A 
ATOM     54  C   UNL     1      -2.654   9.832   8.089  1.00  0.00     0.029 A 
ATOM     55  N   UNL     1      -1.915   7.739   8.223  1.00  0.00    -0.354 N 
ATOM     56  N   UNL     1      -1.492   5.136   9.521  1.00  0.00    -0.248 NA
ATOM     57  C   UNL     1      -1.750   3.731  11.369  1.00  0.00     0.031 C 
ATOM     58  C   UNL     1      -3.003   9.317   9.343  1.00  0.00     0.029 A 
ATOM     59  C   UNL     1      -2.561   8.005   9.417  1.00  0.00     0.049 A 
ATOM     60  H   UNL     1      -1.488   6.883   7.990  1.00  0.00     0.167 HD
ATOM     61  C   UNL     1      -2.224   5.800  10.502  1.00  0.00     0.074 A 
ATOM     62  C   UNL     1      -2.383   4.872  11.602  1.00  0.00     0.031 C 
ATOM     63  C   UNL     1      -2.720   7.063  10.496  1.00  0.00     0.037 A 
BRANCH  50  64
ATOM     64  C   UNL     1      -1.508  10.193   5.298  1.00  0.00     0.058 A 
ATOM     65  C   UNL     1      -2.343  10.245   4.168  1.00  0.00     0.135 A 
ATOM     66  C   UNL     1      -0.805  11.355   5.647  1.00  0.00     0.135 A 
ATOM     67  F   UNL     1      -3.021   9.154   3.778  1.00  0.00    -0.206 F 
ATOM     68  C   UNL     1      -2.449  11.395   3.394  1.00  0.00     0.059 A 
ATOM     69  C   UNL     1      -0.914  12.525   4.900  1.00  0.00     0.059 A 
ATOM     70  F   UNL     1       0.011  11.358   6.713  1.00  0.00    -0.206 F 
ATOM     71  C   UNL     1      -1.725  12.528   3.764  1.00  0.00     0.060 A 
BRANCH  71  72
ATOM     72  S   UNL     1      -1.853  14.005   2.734  1.00  0.00     0.124 S 
ATOM     73  O   UNL     1      -1.076  13.610   1.563  1.00  0.00    -0.237 OA
ATOM     74  O   UNL     1      -3.293  14.120   2.529  1.00  0.00    -0.237 OA
ATOM     75  O   UNL     1      -1.255  15.049   3.560  1.00  0.00    -0.744 OA
ENDBRANCH  71  72
ENDBRANCH  50  64
BRANCH  51  76
ATOM     76  C   UNL     1      -0.352   1.498  10.091  1.00  0.00     0.058 A 
ATOM     77  C   UNL     1      -1.449   0.684  10.410  1.00  0.00     0.135 A 
ATOM     78  C   UNL     1       0.916   1.083  10.529  1.00  0.00     0.135 A 
ATOM     79  F   UNL     1      -2.683   1.039  10.021  1.00  0.00    -0.206 F 
ATOM     80  C   UNL     1      -1.303  -0.475  11.168  1.00  0.00     0.059 A 
ATOM     81  C   UNL     1       1.091  -0.084  11.266  1.00  0.00     0.059 A 
ATOM     82  F   UNL     1       2.001   1.817  10.239  1.00  0.00    -0.206 F 
ATOM     83  C   UNL     1      -0.028  -0.847  11.598  1.00  0.00     0.060 A 
BRANCH  83  84
ATOM     84  S   UNL     1       0.156  -2.350  12.582  1.00  0.00     0.124 S 
ATOM     85  O   UNL     1      -0.373  -1.923  13.872  1.00  0.00    -0.237 OA
ATOM     86  O   UNL     1      -0.662  -3.306  11.842  1.00  0.00    -0.237 OA
ATOM     87  O   UNL     1       1.593  -2.604  12.542  1.00  0.00    -0.744 OA
ENDBRANCH  83  84
ENDBRANCH  51  76
BRANCH  63  88
ATOM     88  C   UNL     1      -3.506   7.506  11.700  1.00  0.00     0.058 A 
ATOM     89  C   UNL     1      -2.886   7.773  12.930  1.00  0.00     0.135 A 
ATOM     90  C   UNL     1      -4.893   7.713  11.607  1.00  0.00     0.135 A 
ATOM     91  F   UNL     1      -1.563   7.592  13.073  1.00  0.00    -0.206 F 
ATOM     92  C   UNL     1      -3.616   8.198  14.035  1.00  0.00     0.059 A 
ATOM     93  C   UNL     1      -5.638   8.165  12.691  1.00  0.00     0.059 A 
ATOM     94  F   UNL     1      -5.534   7.487  10.449  1.00  0.00    -0.206 F 
ATOM     95  C   UNL     1      -4.993   8.390  13.906  1.00  0.00     0.060 A 
BRANCH  95  96
ATOM     96  S   UNL     1      -5.927   8.966  15.340  1.00  0.00     0.124 S 
ATOM     97  O   UNL     1      -6.012   7.750  16.142  1.00  0.00    -0.237 OA
ATOM     98  O   UNL     1      -5.068  10.018  15.873  1.00  0.00    -0.237 OA
ATOM     99  O   UNL     1      -7.186   9.427  14.762  1.00  0.00    -0.744 OA
ENDBRANCH  95  96
ENDBRANCH  63  88
ENDBRANCH  37  38
ENDBRANCH  30  32
ENDBRANCH  29  30
ENDBRANCH   1  29
TORSDOF 17
