REMARK SMILES Cc1cc(F)cc(N[C@H](C(=O)OCCOC(=O)c2ccc(-c3c4nc(c(-c5c(F)cc(S(=O)(=O)[O-])cc5F)c5ccc([nH]5)c(-c5c(F)cc(S(=O)(=O)[O-])cc5F)c5nc(c(-c6c(F)cc(S(=O)(=O)[O-])cc6F)c6ccc3[nH]6)C=C5)C=C4)cc2)c2cc(C)cc(C)c2)c1
REMARK SMILES IDX 14 1 13 2 12 3 10 4 11 5 9 6 8 7 7 9 1 10 2 11 3 12 92 13
REMARK SMILES IDX 4 14 5 15 6 16 84 17 85 18 91 19 86 20 89 21 87 22 88 23
REMARK SMILES IDX 90 24 15 25 16 26 17 27 18 28 19 29 83 30 20 31 82 32 21 33
REMARK SMILES IDX 22 34 23 35 76 36 24 37 81 38 75 39 77 40 25 41 80 42 74 43
REMARK SMILES IDX 73 44 26 46 60 47 39 48 59 49 40 50 43 51 58 52 78 53 41 54
REMARK SMILES IDX 42 55 57 57 79 58 44 59 27 60 28 61 37 62 29 63 30 64 36 65
REMARK SMILES IDX 38 66 31 67 32 68 33 69 34 70 35 71 61 72 62 73 71 74 63 75
REMARK SMILES IDX 64 76 70 77 72 78 65 79 66 80 67 81 68 82 69 83 45 84 46 85
REMARK SMILES IDX 55 86 47 87 48 88 54 89 56 90 49 91 50 92 51 93 52 94 53 95
REMARK H PARENT 8 8 77 45 43 56
REMARK Flexibility Score: inf
ROOT
ATOM      1  C   UNL     1       2.264  -1.268  -1.227  1.00  0.00     0.275 C 
ENDROOT
BRANCH   1   2
ATOM      2  C   UNL     1       2.505  -2.785  -1.217  1.00  0.00     0.274 C 
BRANCH   2   3
ATOM      3  O   UNL     1       1.290  -3.547  -1.101  1.00  0.00    -0.460 OA
BRANCH   3   4
ATOM      4  C   UNL     1       0.936  -3.867   0.183  1.00  0.00     0.333 C 
ATOM      5  O   UNL     1       1.590  -3.512   1.159  1.00  0.00    -0.249 OA
BRANCH   4   6
ATOM      6  C   UNL     1      -0.425  -4.600   0.250  1.00  0.00     0.221 C 
BRANCH   6   7
ATOM      7  N   UNL     1      -0.661  -5.529  -0.885  1.00  0.00    -0.369 N 
ATOM      8  H   UNL     1      -1.361  -5.240  -1.514  1.00  0.00     0.161 HD
BRANCH   7   9
ATOM      9  C   UNL     1      -0.060  -6.729  -1.202  1.00  0.00     0.038 A 
ATOM     10  C   UNL     1      -0.258  -9.308  -4.044  1.00  0.00     0.044 C 
ATOM     11  C   UNL     1       0.115  -8.639  -2.757  1.00  0.00    -0.046 A 
ATOM     12  C   UNL     1       0.992  -9.284  -1.887  1.00  0.00     0.042 A 
ATOM     13  C   UNL     1      -0.423  -7.386  -2.392  1.00  0.00     0.029 A 
ATOM     14  C   UNL     1       1.357  -8.652  -0.716  1.00  0.00     0.125 A 
ATOM     15  F   UNL     1       2.205  -9.256   0.127  1.00  0.00    -0.207 F 
ATOM     16  C   UNL     1       0.864  -7.391  -0.400  1.00  0.00     0.065 A 
ENDBRANCH   7   9
ENDBRANCH   6   7
BRANCH   6  17
ATOM     17  C   UNL     1      -0.749  -5.217   1.613  1.00  0.00    -0.014 A 
ATOM     18  C   UNL     1       0.250  -5.855   2.364  1.00  0.00     0.010 A 
ATOM     19  C   UNL     1      -2.051  -5.217   2.140  1.00  0.00     0.010 A 
ATOM     20  C   UNL     1      -0.047  -6.665   3.457  1.00  0.00    -0.051 A 
ATOM     21  C   UNL     1      -2.337  -5.881   3.347  1.00  0.00    -0.051 A 
ATOM     22  C   UNL     1       0.994  -7.625   3.949  1.00  0.00     0.044 C 
ATOM     23  C   UNL     1      -1.345  -6.661   3.958  1.00  0.00     0.006 A 
ATOM     24  C   UNL     1      -3.698  -5.819   3.977  1.00  0.00     0.044 C 
ENDBRANCH   6  17
ENDBRANCH   4   6
ENDBRANCH   3   4
ENDBRANCH   2   3
ENDBRANCH   1   2
BRANCH   1  25
ATOM     25  O   UNL     1       1.696  -0.764  -0.002  1.00  0.00    -0.458 OA
BRANCH  25  26
ATOM     26  C   UNL     1       0.345  -0.802   0.062  1.00  0.00     0.338 C 
ATOM     27  O   UNL     1      -0.410  -1.209  -0.818  1.00  0.00    -0.246 OA
BRANCH  26  28
ATOM     28  C   UNL     1      -0.146  -0.430   1.403  1.00  0.00     0.060 A 
ATOM     29  C   UNL     1      -1.159  -1.219   1.960  1.00  0.00     0.016 A 
ATOM     30  C   UNL     1       0.305   0.705   2.080  1.00  0.00     0.016 A 
ATOM     31  C   UNL     1      -1.732  -0.881   3.181  1.00  0.00     0.010 A 
ATOM     32  C   UNL     1      -0.278   1.051   3.309  1.00  0.00     0.010 A 
ATOM     33  C   UNL     1      -1.310   0.268   3.858  1.00  0.00    -0.014 A 
BRANCH  33  34
ATOM     34  C   UNL     1      -2.011   0.671   5.103  1.00  0.00     0.031 A 
ATOM     35  C   UNL     1      -2.983   1.818   5.074  1.00  0.00     0.074 A 
ATOM     36  C   UNL     1      -1.821  -0.025   6.239  1.00  0.00     0.049 A 
ATOM     37  N   UNL     1      -3.685   2.333   6.050  1.00  0.00    -0.248 NA
ATOM     38  C   UNL     1      -3.195   2.470   3.772  1.00  0.00     0.031 C 
ATOM     39  C   UNL     1      -0.943  -1.188   6.378  1.00  0.00     0.029 A 
ATOM     40  N   UNL     1      -2.356   0.142   7.492  1.00  0.00    -0.354 N 
ATOM     41  C   UNL     1      -4.414   3.374   5.487  1.00  0.00     0.074 A 
ATOM     42  C   UNL     1      -4.048   3.435   4.088  1.00  0.00     0.031 C 
ATOM     43  C   UNL     1      -0.997  -1.627   7.646  1.00  0.00     0.029 A 
ATOM     44  C   UNL     1      -1.881  -0.757   8.418  1.00  0.00     0.049 A 
ATOM     45  H   UNL     1      -3.016   0.839   7.707  1.00  0.00     0.167 HD
ATOM     46  C   UNL     1      -5.311   4.198   6.081  1.00  0.00     0.037 A 
ATOM     47  C   UNL     1      -2.115  -0.853   9.742  1.00  0.00     0.037 A 
ATOM     48  C   UNL     1      -5.673   4.128   7.475  1.00  0.00     0.049 A 
ATOM     49  C   UNL     1      -3.067   0.116  10.393  1.00  0.00     0.074 A 
ATOM     50  C   UNL     1      -6.577   4.912   8.169  1.00  0.00     0.029 A 
ATOM     51  N   UNL     1      -5.146   3.225   8.388  1.00  0.00    -0.354 N 
ATOM     52  N   UNL     1      -3.755   1.090   9.847  1.00  0.00    -0.248 NA
ATOM     53  C   UNL     1      -3.279  -0.031  11.840  1.00  0.00     0.031 C 
ATOM     54  C   UNL     1      -6.560   4.519   9.511  1.00  0.00     0.029 A 
ATOM     55  C   UNL     1      -5.690   3.449   9.643  1.00  0.00     0.049 A 
ATOM     56  H   UNL     1      -4.483   2.529   8.176  1.00  0.00     0.167 HD
ATOM     57  C   UNL     1      -4.506   1.650  10.875  1.00  0.00     0.074 A 
ATOM     58  C   UNL     1      -4.193   0.901  12.075  1.00  0.00     0.031 C 
ATOM     59  C   UNL     1      -5.380   2.687  10.829  1.00  0.00     0.037 A 
BRANCH  46  60
ATOM     60  C   UNL     1      -5.942   5.270   5.235  1.00  0.00     0.058 A 
ATOM     61  C   UNL     1      -6.888   4.971   4.241  1.00  0.00     0.135 A 
ATOM     62  C   UNL     1      -5.623   6.622   5.446  1.00  0.00     0.135 A 
ATOM     63  F   UNL     1      -7.220   3.695   3.985  1.00  0.00    -0.206 F 
ATOM     64  C   UNL     1      -7.473   5.970   3.469  1.00  0.00     0.059 A 
ATOM     65  C   UNL     1      -6.216   7.639   4.705  1.00  0.00     0.059 A 
ATOM     66  F   UNL     1      -4.725   6.966   6.383  1.00  0.00    -0.206 F 
ATOM     67  C   UNL     1      -7.130   7.302   3.707  1.00  0.00     0.060 A 
BRANCH  67  68
ATOM     68  S   UNL     1      -7.897   8.586   2.696  1.00  0.00     0.124 S 
ATOM     69  O   UNL     1      -7.232   8.381   1.413  1.00  0.00    -0.237 OA
ATOM     70  O   UNL     1      -9.308   8.219   2.743  1.00  0.00    -0.237 OA
ATOM     71  O   UNL     1      -7.550   9.821   3.392  1.00  0.00    -0.744 OA
ENDBRANCH  67  68
ENDBRANCH  46  60
BRANCH  47  72
ATOM     72  C   UNL     1      -1.427  -1.901  10.543  1.00  0.00     0.058 A 
ATOM     73  C   UNL     1      -2.137  -2.972  11.104  1.00  0.00     0.135 A 
ATOM     74  C   UNL     1      -0.040  -1.851  10.762  1.00  0.00     0.135 A 
ATOM     75  F   UNL     1      -3.465  -3.060  10.934  1.00  0.00    -0.206 F 
ATOM     76  C   UNL     1      -1.502  -3.947  11.868  1.00  0.00     0.059 A 
ATOM     77  C   UNL     1       0.621  -2.829  11.497  1.00  0.00     0.059 A 
ATOM     78  F   UNL     1       0.688  -0.852  10.239  1.00  0.00    -0.206 F 
ATOM     79  C   UNL     1      -0.121  -3.868  12.057  1.00  0.00     0.060 A 
BRANCH  79  80
ATOM     80  S   UNL     1       0.698  -5.161  13.015  1.00  0.00     0.124 S 
ATOM     81  O   UNL     1       0.260  -4.845  14.369  1.00  0.00    -0.237 OA
ATOM     82  O   UNL     1       0.140  -6.376  12.430  1.00  0.00    -0.237 OA
ATOM     83  O   UNL     1       2.115  -4.936  12.741  1.00  0.00    -0.744 OA
ENDBRANCH  79  80
ENDBRANCH  47  72
BRANCH  59  84
ATOM     84  C   UNL     1      -6.103   3.046  12.100  1.00  0.00     0.058 A 
ATOM     85  C   UNL     1      -5.453   3.670  13.175  1.00  0.00     0.135 A 
ATOM     86  C   UNL     1      -7.482   2.805  12.220  1.00  0.00     0.135 A 
ATOM     87  F   UNL     1      -4.135   3.920  13.117  1.00  0.00    -0.206 F 
ATOM     88  C   UNL     1      -6.139   4.019  14.335  1.00  0.00     0.059 A 
ATOM     89  C   UNL     1      -8.193   3.172  13.358  1.00  0.00     0.059 A 
ATOM     90  F   UNL     1      -8.156   2.220  11.216  1.00  0.00    -0.206 F 
ATOM     91  C   UNL     1      -7.510   3.768  14.416  1.00  0.00     0.060 A 
BRANCH  91  92
ATOM     92  S   UNL     1      -8.394   4.253  15.914  1.00  0.00     0.124 S 
ATOM     93  O   UNL     1      -7.936   3.247  16.866  1.00  0.00    -0.237 OA
ATOM     94  O   UNL     1      -7.903   5.609  16.140  1.00  0.00    -0.237 OA
ATOM     95  O   UNL     1      -9.798   4.158  15.526  1.00  0.00    -0.744 OA
ENDBRANCH  91  92
ENDBRANCH  59  84
ENDBRANCH  33  34
ENDBRANCH  26  28
ENDBRANCH  25  26
ENDBRANCH   1  25
TORSDOF 17
