REMARK SMILES O=C(OCCOC(=O)[C@@H]1[NH2+]CC[C@H]1c1ccc2c(c1)OCCCO2)c1ccc(-c2c3nc(c(-c4c(F)cc(S(=O)(=O)[O-])cc4F)c4ccc([nH]4)c(-c4c(F)cc(S(=O)(=O)[O-])cc4F)c4nc(c(-c5c(F)cc(S(=O)(=O)[O-])cc5F)c5ccc2[nH]5)C=C4)C=C3)cc1
REMARK SMILES IDX 5 1 4 2 3 3 2 4 1 5 25 6 26 7 90 8 27 9 89 10 28 11 29 12
REMARK SMILES IDX 30 13 83 14 31 15 88 16 82 17 84 18 32 19 87 20 81 21 80 22
REMARK SMILES IDX 33 24 67 25 46 26 66 27 47 28 50 29 65 30 85 31 48 32 49 33
REMARK SMILES IDX 64 35 86 36 51 37 34 38 35 39 44 40 36 41 37 42 43 43 45 44
REMARK SMILES IDX 38 45 39 46 40 47 41 48 42 49 68 50 69 51 78 52 70 53 71 54
REMARK SMILES IDX 77 55 79 56 72 57 73 58 74 59 75 60 76 61 52 62 53 63 62 64
REMARK SMILES IDX 54 65 55 66 61 67 63 68 56 69 57 70 58 71 59 72 60 73 6 74
REMARK SMILES IDX 7 75 8 76 9 77 10 78 13 79 11 80 12 83 14 84 15 85 19 86
REMARK SMILES IDX 16 87 18 88 17 89 20 90 21 91 24 93 23 94 22 95
REMARK H PARENT 84 23 50 34 10 81 10 82
REMARK Flexibility Score: 90.00
ROOT
ATOM      1  C   UNL     1       2.444   0.881  -5.847  1.00  0.00     0.274 C 
ENDROOT
BRANCH   1   2
ATOM      2  C   UNL     1       3.781   1.647  -6.305  1.00  0.00     0.275 C 
BRANCH   2   3
ATOM      3  O   UNL     1       4.940   1.717  -5.383  1.00  0.00    -0.458 OA
BRANCH   3   4
ATOM      4  C   UNL     1       5.501   2.818  -4.730  1.00  0.00     0.338 C 
ATOM      5  O   UNL     1       6.709   2.909  -4.553  1.00  0.00    -0.246 OA
BRANCH   4   6
ATOM      6  C   UNL     1       4.572   3.713  -3.953  1.00  0.00     0.060 A 
ATOM      7  C   UNL     1       4.961   4.422  -2.479  1.00  0.00     0.016 A 
ATOM      8  C   UNL     1       3.179   3.305  -4.293  1.00  0.00     0.016 A 
ATOM      9  C   UNL     1       3.868   4.673  -1.175  1.00  0.00     0.010 A 
ATOM     10  C   UNL     1       1.999   3.304  -3.206  1.00  0.00     0.010 A 
ATOM     11  C   UNL     1       2.146   4.050  -1.340  1.00  0.00    -0.014 A 
BRANCH  11  12
ATOM     12  C   UNL     1       1.214   4.756  -0.189  1.00  0.00     0.031 A 
ATOM     13  C   UNL     1       0.185   3.988   0.639  1.00  0.00     0.074 A 
ATOM     14  C   UNL     1       1.416   6.057   0.180  1.00  0.00     0.049 A 
ATOM     15  N   UNL     1      -0.907   4.426   1.217  1.00  0.00    -0.248 NA
ATOM     16  C   UNL     1       0.344   2.536   0.759  1.00  0.00     0.031 C 
ATOM     17  C   UNL     1       2.462   6.974  -0.286  1.00  0.00     0.029 A 
ATOM     18  N   UNL     1       0.739   6.849   1.084  1.00  0.00    -0.354 N 
ATOM     19  C   UNL     1      -1.625   3.283   1.574  1.00  0.00     0.074 A 
ATOM     20  C   UNL     1      -0.889   2.158   1.054  1.00  0.00     0.031 C 
ATOM     21  C   UNL     1       2.382   8.153   0.321  1.00  0.00     0.029 A 
ATOM     22  C   UNL     1       1.227   8.138   1.173  1.00  0.00     0.049 A 
ATOM     23  H   UNL     1      -0.022   6.525   1.618  1.00  0.00     0.167 HD
ATOM     24  C   UNL     1      -2.747   3.164   2.329  1.00  0.00     0.037 A 
ATOM     25  C   UNL     1       0.819   9.232   1.833  1.00  0.00     0.037 A 
ATOM     26  C   UNL     1      -3.293   4.266   3.076  1.00  0.00     0.049 A 
ATOM     27  C   UNL     1      -0.376   9.095   2.700  1.00  0.00     0.074 A 
ATOM     28  C   UNL     1      -4.370   4.279   3.943  1.00  0.00     0.029 A 
ATOM     29  N   UNL     1      -2.735   5.539   3.113  1.00  0.00    -0.354 N 
ATOM     30  N   UNL     1      -1.124   8.037   2.891  1.00  0.00    -0.248 NA
ATOM     31  C   UNL     1      -0.772  10.283   3.454  1.00  0.00     0.031 C 
ATOM     32  C   UNL     1      -4.476   5.564   4.486  1.00  0.00     0.029 A 
ATOM     33  C   UNL     1      -3.441   6.343   3.990  1.00  0.00     0.049 A 
ATOM     34  H   UNL     1      -1.952   5.826   2.591  1.00  0.00     0.167 HD
ATOM     35  C   UNL     1      -2.083   8.425   3.808  1.00  0.00     0.074 A 
ATOM     36  C   UNL     1      -1.787   9.805   4.158  1.00  0.00     0.031 C 
ATOM     37  C   UNL     1      -3.123   7.713   4.305  1.00  0.00     0.037 A 
BRANCH  24  38
ATOM     38  C   UNL     1      -3.420   1.807   2.397  1.00  0.00     0.058 A 
ATOM     39  C   UNL     1      -2.787   0.665   2.920  1.00  0.00     0.135 A 
ATOM     40  C   UNL     1      -4.715   1.632   1.874  1.00  0.00     0.135 A 
ATOM     41  F   UNL     1      -1.560   0.757   3.457  1.00  0.00    -0.206 F 
ATOM     42  C   UNL     1      -3.352  -0.603   2.815  1.00  0.00     0.059 A 
ATOM     43  C   UNL     1      -5.327   0.380   1.816  1.00  0.00     0.059 A 
ATOM     44  F   UNL     1      -5.399   2.682   1.392  1.00  0.00    -0.206 F 
ATOM     45  C   UNL     1      -4.620  -0.738   2.251  1.00  0.00     0.060 A 
BRANCH  45  46
ATOM     46  S   UNL     1      -5.316  -2.396   2.086  1.00  0.00     0.124 S 
ATOM     47  O   UNL     1      -4.484  -2.959   1.027  1.00  0.00    -0.237 OA
ATOM     48  O   UNL     1      -5.107  -2.954   3.418  1.00  0.00    -0.237 OA
ATOM     49  O   UNL     1      -6.708  -2.148   1.725  1.00  0.00    -0.744 OA
ENDBRANCH  45  46
ENDBRANCH  24  38
BRANCH  25  50
ATOM     50  C   UNL     1       1.617  10.489   1.736  1.00  0.00     0.058 A 
ATOM     51  C   UNL     1       2.432  10.884   2.805  1.00  0.00     0.135 A 
ATOM     52  C   UNL     1       1.704  11.228   0.541  1.00  0.00     0.135 A 
ATOM     53  F   UNL     1       2.403  10.197   3.957  1.00  0.00    -0.206 F 
ATOM     54  C   UNL     1       3.300  11.966   2.701  1.00  0.00     0.059 A 
ATOM     55  C   UNL     1       2.587  12.298   0.404  1.00  0.00     0.059 A 
ATOM     56  F   UNL     1       0.987  10.860  -0.532  1.00  0.00    -0.206 F 
ATOM     57  C   UNL     1       3.380  12.659   1.492  1.00  0.00     0.060 A 
BRANCH  57  58
ATOM     58  S   UNL     1       4.577  14.005   1.356  1.00  0.00     0.124 S 
ATOM     59  O   UNL     1       4.045  14.971   2.309  1.00  0.00    -0.237 OA
ATOM     60  O   UNL     1       5.819  13.342   1.743  1.00  0.00    -0.237 OA
ATOM     61  O   UNL     1       4.493  14.392  -0.049  1.00  0.00    -0.744 OA
ENDBRANCH  57  58
ENDBRANCH  25  50
BRANCH  37  62
ATOM     62  C   UNL     1      -4.007   8.433   5.272  1.00  0.00     0.058 A 
ATOM     63  C   UNL     1      -4.841   9.480   4.848  1.00  0.00     0.135 A 
ATOM     64  C   UNL     1      -4.026   8.072   6.627  1.00  0.00     0.135 A 
ATOM     65  F   UNL     1      -4.842   9.867   3.562  1.00  0.00    -0.206 F 
ATOM     66  C   UNL     1      -5.633  10.176   5.747  1.00  0.00     0.059 A 
ATOM     67  C   UNL     1      -4.843   8.729   7.537  1.00  0.00     0.059 A 
ATOM     68  F   UNL     1      -3.250   7.072   7.075  1.00  0.00    -0.206 F 
ATOM     69  C   UNL     1      -5.627   9.792   7.089  1.00  0.00     0.060 A 
BRANCH  69  70
ATOM     70  S   UNL     1      -6.663  10.711   8.240  1.00  0.00     0.124 S 
ATOM     71  O   UNL     1      -5.976  11.997   8.289  1.00  0.00    -0.237 OA
ATOM     72  O   UNL     1      -7.955  10.706   7.561  1.00  0.00    -0.237 OA
ATOM     73  O   UNL     1      -6.599   9.917   9.464  1.00  0.00    -0.744 OA
ENDBRANCH  69  70
ENDBRANCH  37  62
ENDBRANCH  11  12
ENDBRANCH   4   6
ENDBRANCH   3   4
ENDBRANCH   2   3
ENDBRANCH   1   2
BRANCH   1  74
ATOM     74  O   UNL     1       1.740   1.185  -4.585  1.00  0.00    -0.458 OA
BRANCH  74  75
ATOM     75  C   UNL     1       2.133   0.725  -3.343  1.00  0.00     0.365 C 
ATOM     76  O   UNL     1       2.939  -0.198  -3.241  1.00  0.00    -0.245 OA
BRANCH  75  77
ATOM     77  C   UNL     1       1.746   1.752  -2.021  1.00  0.00     0.301 C 
ATOM     78  N   UNL     1       0.222   2.834  -2.235  1.00  0.00    -0.334 N 
ATOM     79  C   UNL     1       3.361   2.874  -2.006  1.00  0.00     0.095 C 
ATOM     80  C   UNL     1       0.647   4.639  -2.708  1.00  0.00     0.262 C 
ATOM     81  H   UNL     1      -0.298   2.842  -1.357  1.00  0.00     0.347 HD
ATOM     82  H   UNL     1      -0.328   2.440  -2.999  1.00  0.00     0.347 HD
ATOM     83  C   UNL     1       2.690   4.872  -2.833  1.00  0.00     0.076 C 
BRANCH  79  84
ATOM     84  C   UNL     1       3.882   2.414  -0.262  1.00  0.00    -0.034 A 
ATOM     85  C   UNL     1       3.434   3.121   0.915  1.00  0.00     0.008 A 
ATOM     86  C   UNL     1       4.853   1.441   0.071  1.00  0.00     0.054 A 
ATOM     87  C   UNL     1       3.777   2.922   2.245  1.00  0.00     0.051 A 
ATOM     88  C   UNL     1       5.305   1.288   1.455  1.00  0.00     0.161 A 
ATOM     89  C   UNL     1       4.727   1.999   2.517  1.00  0.00     0.161 A 
BRANCH  88  90
ATOM     90  O   UNL     1       6.326   0.411   1.762  1.00  0.00    -0.490 OA
BRANCH  90  91
ATOM     91  C   UNL     1       7.462   1.074   2.363  1.00  0.00     0.233 CG0
ATOM     92  G   UNL     1       7.369   1.471   3.847  1.00  0.00     0.000 G0
ENDBRANCH  90  91
ENDBRANCH  88  90
BRANCH  89  93
ATOM     93  O   UNL     1       5.048   1.875   3.836  1.00  0.00    -0.490 OA
BRANCH  93  94
ATOM     94  C   UNL     1       6.296   2.510   4.087  1.00  0.00     0.233 C 
BRANCH  94  95
ATOM     95  C   UNL     1       7.369   1.471   3.847  1.00  0.00     0.083 CG0
ATOM     96  G   UNL     1       7.462   1.074   2.363  1.00  0.00     0.000 G0
ENDBRANCH  94  95
ENDBRANCH  93  94
ENDBRANCH  89  93
ENDBRANCH  79  84
ENDBRANCH  75  77
ENDBRANCH  74  75
ENDBRANCH   1  74
TORSDOF 15
