REMARK SMILES COc1cccc(O[C@@H](C)c2nnc(SCC(=O)OCCOC(=O)c3ccc(-c4c5nc(c(-c6c(F)cc(S(=O)(=O)[O-])cc6F)c6ccc([nH]6)c(-c6c(F)cc(S(=O)(=O)[O-])cc6F)c6nc(c(-c7c(F)cc(S(=O)(=O)[O-])cc7F)c7ccc4[nH]7)C=C6)C=C5)cc3)n2C)c1
REMARK SMILES IDX 19 1 17 2 18 3 16 4 15 5 14 6 11 7 12 8 91 9 13 10 92 11
REMARK SMILES IDX 9 12 10 13 8 14 7 15 3 16 4 17 93 18 5 19 6 20 2 21 1 22
REMARK SMILES IDX 20 23 21 24 22 25 23 26 24 27 25 28 26 29 90 30 27 31 89 32
REMARK SMILES IDX 28 33 29 34 30 35 83 36 31 37 88 38 82 39 84 40 32 41 87 42
REMARK SMILES IDX 81 43 80 44 33 46 67 47 46 48 66 49 47 50 50 51 65 52 85 53
REMARK SMILES IDX 48 54 49 55 64 57 86 58 51 59 34 60 35 61 44 62 36 63 37 64
REMARK SMILES IDX 43 65 45 66 38 67 39 68 40 69 41 70 42 71 68 72 69 73 78 74
REMARK SMILES IDX 70 75 71 76 77 77 79 78 72 79 73 80 74 81 75 82 76 83 52 84
REMARK SMILES IDX 53 85 62 86 54 87 55 88 61 89 63 90 56 91 57 92 58 93 59 94
REMARK SMILES IDX 60 95
REMARK H PARENT 84 45 50 56
REMARK Flexibility Score: inf
ROOT
ATOM      1  O   UNL     1       6.560  -3.062   0.495  1.00  0.00    -0.461 OA
ENDROOT
BRANCH   1   2
ATOM      2  C   UNL     1       5.232  -3.342   0.509  1.00  0.00     0.316 C 
ATOM      3  O   UNL     1       4.558  -3.403   1.533  1.00  0.00    -0.251 OA
BRANCH   2   4
ATOM      4  C   UNL     1       4.627  -3.659  -0.843  1.00  0.00     0.200 C 
BRANCH   4   5
ATOM      5  S   UNL     1       5.639  -3.328  -2.274  1.00  0.00    -0.074 SA
BRANCH   5   6
ATOM      6  C   UNL     1       5.500  -1.707  -2.863  1.00  0.00     0.191 A 
ATOM      7  C   UNL     1       5.141   0.430  -3.295  1.00  0.00     0.174 A 
ATOM      8  N   UNL     1       5.952  -0.063  -4.213  1.00  0.00    -0.130 NA
ATOM      9  N   UNL     1       4.795  -0.605  -2.432  1.00  0.00    -0.306 N 
ATOM     10  N   UNL     1       6.171  -1.378  -3.945  1.00  0.00    -0.123 NA
ATOM     11  C   UNL     1       3.862  -0.520  -1.353  1.00  0.00     0.154 C 
BRANCH   7  12
ATOM     12  C   UNL     1       4.767   1.894  -3.276  1.00  0.00     0.238 C 
ATOM     13  C   UNL     1       4.459   2.579  -1.952  1.00  0.00     0.062 C 
BRANCH  12  14
ATOM     14  O   UNL     1       3.864   2.199  -4.358  1.00  0.00    -0.483 OA
BRANCH  14  15
ATOM     15  C   UNL     1       2.524   2.156  -4.118  1.00  0.00     0.124 A 
ATOM     16  C   UNL     1       0.486   1.013  -3.524  1.00  0.00     0.122 A 
ATOM     17  C   UNL     1      -0.255   2.158  -3.793  1.00  0.00     0.046 A 
ATOM     18  C   UNL     1       1.861   0.990  -3.753  1.00  0.00     0.092 A 
ATOM     19  C   UNL     1       0.401   3.300  -4.250  1.00  0.00     0.008 A 
ATOM     20  C   UNL     1       1.789   3.308  -4.390  1.00  0.00     0.047 A 
BRANCH  16  21
ATOM     21  O   UNL     1      -0.131  -0.140  -3.121  1.00  0.00    -0.497 OA
ATOM     22  C   UNL     1      -0.421  -0.080  -1.722  1.00  0.00     0.278 C 
ENDBRANCH  16  21
ENDBRANCH  14  15
ENDBRANCH  12  14
ENDBRANCH   7  12
ENDBRANCH   5   6
ENDBRANCH   4   5
ENDBRANCH   2   4
ENDBRANCH   1   2
BRANCH   1  23
ATOM     23  C   UNL     1       7.207  -2.947   1.779  1.00  0.00     0.274 C 
BRANCH  23  24
ATOM     24  C   UNL     1       7.343  -1.495   2.236  1.00  0.00     0.275 C 
BRANCH  24  25
ATOM     25  O   UNL     1       6.056  -0.908   2.519  1.00  0.00    -0.458 OA
BRANCH  25  26
ATOM     26  C   UNL     1       5.630  -0.019   1.598  1.00  0.00     0.338 C 
ATOM     27  O   UNL     1       6.200   0.304   0.568  1.00  0.00    -0.246 OA
BRANCH  26  28
ATOM     28  C   UNL     1       4.305   0.538   1.925  1.00  0.00     0.060 A 
ATOM     29  C   UNL     1       3.167  -0.265   1.824  1.00  0.00     0.016 A 
ATOM     30  C   UNL     1       4.175   1.925   2.042  1.00  0.00     0.016 A 
ATOM     31  C   UNL     1       1.906   0.334   1.743  1.00  0.00     0.010 A 
ATOM     32  C   UNL     1       2.904   2.511   2.051  1.00  0.00     0.010 A 
ATOM     33  C   UNL     1       1.754   1.729   1.867  1.00  0.00    -0.014 A 
BRANCH  33  34
ATOM     34  C   UNL     1       0.394   2.343   1.894  1.00  0.00     0.031 A 
ATOM     35  C   UNL     1      -0.066   3.352   0.868  1.00  0.00     0.074 A 
ATOM     36  C   UNL     1      -0.449   1.999   2.889  1.00  0.00     0.049 A 
ATOM     37  N   UNL     1      -1.210   3.988   0.798  1.00  0.00    -0.248 NA
ATOM     38  C   UNL     1       0.862   3.687  -0.220  1.00  0.00     0.031 C 
ATOM     39  C   UNL     1      -0.147   1.049   3.962  1.00  0.00     0.029 A 
ATOM     40  N   UNL     1      -1.724   2.422   3.170  1.00  0.00    -0.354 N 
ATOM     41  C   UNL     1      -1.147   4.783  -0.342  1.00  0.00     0.074 A 
ATOM     42  C   UNL     1       0.164   4.576  -0.918  1.00  0.00     0.031 C 
ATOM     43  C   UNL     1      -1.204   0.958   4.779  1.00  0.00     0.029 A 
ATOM     44  C   UNL     1      -2.232   1.891   4.330  1.00  0.00     0.049 A 
ATOM     45  H   UNL     1      -2.226   3.045   2.595  1.00  0.00     0.167 HD
ATOM     46  C   UNL     1      -2.096   5.595  -0.868  1.00  0.00     0.037 A 
ATOM     47  C   UNL     1      -3.370   2.154   5.000  1.00  0.00     0.037 A 
ATOM     48  C   UNL     1      -3.397   5.825  -0.299  1.00  0.00     0.049 A 
ATOM     49  C   UNL     1      -4.340   3.164   4.470  1.00  0.00     0.074 A 
ATOM     50  C   UNL     1      -4.437   6.584  -0.814  1.00  0.00     0.029 A 
ATOM     51  N   UNL     1      -3.829   5.333   0.919  1.00  0.00    -0.354 N 
ATOM     52  N   UNL     1      -4.282   3.849   3.356  1.00  0.00    -0.248 NA
ATOM     53  C   UNL     1      -5.521   3.447   5.297  1.00  0.00     0.031 C 
ATOM     54  C   UNL     1      -5.484   6.582   0.114  1.00  0.00     0.029 A 
ATOM     55  C   UNL     1      -5.101   5.807   1.194  1.00  0.00     0.049 A 
ATOM     56  H   UNL     1      -3.309   4.736   1.504  1.00  0.00     0.167 HD
ATOM     57  C   UNL     1      -5.424   4.641   3.344  1.00  0.00     0.074 A 
ATOM     58  C   UNL     1      -6.159   4.343   4.555  1.00  0.00     0.031 C 
ATOM     59  C   UNL     1      -5.824   5.532   2.406  1.00  0.00     0.037 A 
BRANCH  46  60
ATOM     60  C   UNL     1      -1.800   6.306  -2.156  1.00  0.00     0.058 A 
ATOM     61  C   UNL     1      -2.185   5.740  -3.380  1.00  0.00     0.135 A 
ATOM     62  C   UNL     1      -1.283   7.609  -2.164  1.00  0.00     0.135 A 
ATOM     63  F   UNL     1      -2.693   4.499  -3.420  1.00  0.00    -0.206 F 
ATOM     64  C   UNL     1      -2.054   6.438  -4.576  1.00  0.00     0.059 A 
ATOM     65  C   UNL     1      -1.149   8.328  -3.348  1.00  0.00     0.059 A 
ATOM     66  F   UNL     1      -0.922   8.198  -1.013  1.00  0.00    -0.206 F 
ATOM     67  C   UNL     1      -1.530   7.731  -4.551  1.00  0.00     0.060 A 
BRANCH  67  68
ATOM     68  S   UNL     1      -1.386   8.647  -6.101  1.00  0.00     0.124 S 
ATOM     69  O   UNL     1      -0.101   8.165  -6.596  1.00  0.00    -0.237 OA
ATOM     70  O   UNL     1      -2.559   8.204  -6.847  1.00  0.00    -0.237 OA
ATOM     71  O   UNL     1      -1.414  10.040  -5.667  1.00  0.00    -0.744 OA
ENDBRANCH  67  68
ENDBRANCH  46  60
BRANCH  47  72
ATOM     72  C   UNL     1      -3.612   1.478   6.297  1.00  0.00     0.058 A 
ATOM     73  C   UNL     1      -4.561   0.456   6.415  1.00  0.00     0.135 A 
ATOM     74  C   UNL     1      -2.856   1.817   7.430  1.00  0.00     0.135 A 
ATOM     75  F   UNL     1      -5.309   0.108   5.356  1.00  0.00    -0.206 F 
ATOM     76  C   UNL     1      -4.753  -0.215   7.617  1.00  0.00     0.059 A 
ATOM     77  C   UNL     1      -3.014   1.146   8.635  1.00  0.00     0.059 A 
ATOM     78  F   UNL     1      -1.925   2.781   7.354  1.00  0.00    -0.206 F 
ATOM     79  C   UNL     1      -3.970   0.134   8.719  1.00  0.00     0.060 A 
BRANCH  79  80
ATOM     80  S   UNL     1      -4.150  -0.794  10.257  1.00  0.00     0.124 S 
ATOM     81  O   UNL     1      -5.272  -0.105  10.882  1.00  0.00    -0.237 OA
ATOM     82  O   UNL     1      -4.415  -2.147   9.778  1.00  0.00    -0.237 OA
ATOM     83  O   UNL     1      -2.853  -0.612  10.902  1.00  0.00    -0.744 OA
ENDBRANCH  79  80
ENDBRANCH  47  72
BRANCH  59  84
ATOM     84  C   UNL     1      -7.114   6.255   2.650  1.00  0.00     0.058 A 
ATOM     85  C   UNL     1      -7.191   7.313   3.568  1.00  0.00     0.135 A 
ATOM     86  C   UNL     1      -8.280   5.900   1.953  1.00  0.00     0.135 A 
ATOM     87  F   UNL     1      -6.104   7.684   4.263  1.00  0.00    -0.206 F 
ATOM     88  C   UNL     1      -8.388   7.979   3.808  1.00  0.00     0.059 A 
ATOM     89  C   UNL     1      -9.483   6.564   2.164  1.00  0.00     0.059 A 
ATOM     90  F   UNL     1      -8.254   4.900   1.058  1.00  0.00    -0.206 F 
ATOM     91  C   UNL     1      -9.531   7.592   3.106  1.00  0.00     0.060 A 
BRANCH  91  92
ATOM     92  S   UNL     1     -11.083   8.460   3.422  1.00  0.00     0.124 S 
ATOM     93  O   UNL     1     -11.529   7.819   4.655  1.00  0.00    -0.237 OA
ATOM     94  O   UNL     1     -10.651   9.848   3.549  1.00  0.00    -0.237 OA
ATOM     95  O   UNL     1     -11.880   8.165   2.235  1.00  0.00    -0.744 OA
ENDBRANCH  91  92
ENDBRANCH  59  84
ENDBRANCH  33  34
ENDBRANCH  26  28
ENDBRANCH  25  26
ENDBRANCH  24  25
ENDBRANCH  23  24
ENDBRANCH   1  23
TORSDOF 20
