REMARK SMILES Cc1ccc(OCCn2ccnc2)c(/C=C/C(=O)OCCOC(=O)c2ccc(-c3c4nc(c(-c5c(F)cc(S(=O)(=O)[O-])cc5F)c5ccc([nH]5)c(-c5c(F)cc(S(=O)(=O)[O-])cc5F)c5nc(c(-c6c(F)cc(S(=O)(=O)[O-])cc6F)c6ccc3[nH]6)C=C5)C=C4)cc2)n1
REMARK SMILES IDX 20 1 19 2 17 3 18 4 16 5 15 6 14 7 1 8 2 9 3 10 91 11 4 12
REMARK SMILES IDX 5 13 6 14 7 15 8 16 9 17 10 18 13 19 11 20 12 21 21 22 22 23
REMARK SMILES IDX 23 24 24 25 25 26 26 27 90 28 27 29 89 30 28 31 29 32 30 33
REMARK SMILES IDX 83 34 31 35 88 36 82 37 84 38 32 39 87 40 81 41 80 42 33 44
REMARK SMILES IDX 67 45 46 46 66 47 47 48 50 49 65 50 85 51 48 52 49 53 64 55
REMARK SMILES IDX 86 56 51 57 34 58 35 59 44 60 36 61 37 62 43 63 45 64 38 65
REMARK SMILES IDX 39 66 40 67 41 68 42 69 68 70 69 71 78 72 70 73 71 74 77 75
REMARK SMILES IDX 79 76 72 77 73 78 74 79 75 80 76 81 52 82 53 83 62 84 54 85
REMARK SMILES IDX 55 86 61 87 63 88 56 89 57 90 58 91 59 92 60 93
REMARK H PARENT 84 43 50 54
REMARK Flexibility Score: inf
ROOT
ATOM      1  C   UNL     1      -3.442   6.282  -0.281  1.00  0.00     0.275 C 
ENDROOT
BRANCH   1   2
ATOM      2  O   UNL     1      -2.906   4.956  -0.405  1.00  0.00    -0.459 OA
BRANCH   2   3
ATOM      3  C   UNL     1      -1.641   4.882  -0.901  1.00  0.00     0.330 C 
ATOM      4  O   UNL     1      -1.018   5.790  -1.413  1.00  0.00    -0.247 OA
BRANCH   3   5
ATOM      5  C   UNL     1      -1.046   3.546  -0.680  1.00  0.00     0.096 C 
ATOM      6  C   UNL     1      -1.723   2.459  -0.278  1.00  0.00     0.040 C 
BRANCH   6   7
ATOM      7  C   UNL     1      -1.067   1.186   0.072  1.00  0.00     0.105 A 
ATOM      8  C   UNL     1       2.445   0.080   0.238  1.00  0.00     0.067 C 
ATOM      9  C   UNL     1       0.955   0.072   0.388  1.00  0.00     0.038 A 
ATOM     10  C   UNL     1       0.305  -1.025   0.932  1.00  0.00     0.027 A 
ATOM     11  N   UNL     1       0.291   1.181  -0.007  1.00  0.00    -0.250 NA
ATOM     12  C   UNL     1      -1.086  -1.026   0.981  1.00  0.00     0.050 A 
ATOM     13  C   UNL     1      -1.800   0.062   0.479  1.00  0.00     0.145 A 
BRANCH  13  14
ATOM     14  O   UNL     1      -3.163   0.080   0.341  1.00  0.00    -0.489 OA
BRANCH  14  15
ATOM     15  C   UNL     1      -3.817  -1.164   0.055  1.00  0.00     0.251 C 
BRANCH  15  16
ATOM     16  C   UNL     1      -3.671  -1.628  -1.402  1.00  0.00     0.164 C 
BRANCH  16  17
ATOM     17  N   UNL     1      -2.393  -2.236  -1.717  1.00  0.00    -0.334 N 
ATOM     18  C   UNL     1      -1.343  -1.632  -2.350  1.00  0.00     0.107 A 
ATOM     19  C   UNL     1      -2.022  -3.522  -1.441  1.00  0.00     0.199 A 
ATOM     20  C   UNL     1      -0.337  -2.570  -2.343  1.00  0.00     0.130 A 
ATOM     21  N   UNL     1      -0.776  -3.747  -1.792  1.00  0.00    -0.245 NA
ENDBRANCH  16  17
ENDBRANCH  15  16
ENDBRANCH  14  15
ENDBRANCH  13  14
ENDBRANCH   6   7
ENDBRANCH   3   5
ENDBRANCH   2   3
ENDBRANCH   1   2
BRANCH   1  22
ATOM     22  C   UNL     1      -3.204   6.840   1.115  1.00  0.00     0.275 C 
BRANCH  22  23
ATOM     23  O   UNL     1      -1.834   7.168   1.350  1.00  0.00    -0.458 OA
BRANCH  23  24
ATOM     24  C   UNL     1      -1.143   6.225   2.031  1.00  0.00     0.338 C 
ATOM     25  O   UNL     1      -1.359   5.023   2.041  1.00  0.00    -0.246 OA
BRANCH  24  26
ATOM     26  C   UNL     1      -0.225   6.877   2.974  1.00  0.00     0.060 A 
ATOM     27  C   UNL     1       0.748   6.091   3.601  1.00  0.00     0.016 A 
ATOM     28  C   UNL     1      -0.464   8.198   3.377  1.00  0.00     0.016 A 
ATOM     29  C   UNL     1       1.445   6.614   4.676  1.00  0.00     0.010 A 
ATOM     30  C   UNL     1       0.216   8.712   4.460  1.00  0.00     0.010 A 
ATOM     31  C   UNL     1       1.150   7.909   5.118  1.00  0.00    -0.014 A 
BRANCH  31  32
ATOM     32  C   UNL     1       1.993   8.502   6.150  1.00  0.00     0.031 A 
ATOM     33  C   UNL     1       3.356   8.843   5.655  1.00  0.00     0.074 A 
ATOM     34  C   UNL     1       1.503   8.890   7.345  1.00  0.00     0.049 A 
ATOM     35  N   UNL     1       4.500   8.474   6.128  1.00  0.00    -0.248 NA
ATOM     36  C   UNL     1       3.454   9.584   4.381  1.00  0.00     0.031 C 
ATOM     37  C   UNL     1       0.095   8.858   7.754  1.00  0.00     0.029 A 
ATOM     38  N   UNL     1       2.114   9.523   8.390  1.00  0.00    -0.354 N 
ATOM     39  C   UNL     1       5.452   9.138   5.354  1.00  0.00     0.074 A 
ATOM     40  C   UNL     1       4.771   9.627   4.191  1.00  0.00     0.031 C 
ATOM     41  C   UNL     1      -0.071   9.646   8.837  1.00  0.00     0.029 A 
ATOM     42  C   UNL     1       1.224  10.153   9.260  1.00  0.00     0.049 A 
ATOM     43  H   UNL     1       3.090   9.534   8.518  1.00  0.00     0.167 HD
ATOM     44  C   UNL     1       6.649   9.502   5.886  1.00  0.00     0.037 A 
ATOM     45  C   UNL     1       1.517  11.088  10.200  1.00  0.00     0.037 A 
ATOM     46  C   UNL     1       6.942   8.729   7.062  1.00  0.00     0.049 A 
ATOM     47  C   UNL     1       2.969  10.990  10.489  1.00  0.00     0.074 A 
ATOM     48  C   UNL     1       7.202   7.404   7.336  1.00  0.00     0.029 A 
ATOM     49  N   UNL     1       6.623   9.336   8.248  1.00  0.00    -0.354 N 
ATOM     50  N   UNL     1       3.538   9.970  11.070  1.00  0.00    -0.248 NA
ATOM     51  C   UNL     1       3.882  11.919   9.833  1.00  0.00     0.031 C 
ATOM     52  C   UNL     1       6.754   7.189   8.671  1.00  0.00     0.029 A 
ATOM     53  C   UNL     1       6.273   8.397   9.179  1.00  0.00     0.049 A 
ATOM     54  H   UNL     1       6.642  10.307   8.407  1.00  0.00     0.167 HD
ATOM     55  C   UNL     1       4.794   9.899  10.498  1.00  0.00     0.074 A 
ATOM     56  C   UNL     1       5.008  11.204   9.889  1.00  0.00     0.031 C 
ATOM     57  C   UNL     1       5.403   8.696  10.299  1.00  0.00     0.037 A 
BRANCH  44  58
ATOM     58  C   UNL     1       7.295  10.858   5.650  1.00  0.00     0.058 A 
ATOM     59  C   UNL     1       8.557  11.119   6.227  1.00  0.00     0.135 A 
ATOM     60  C   UNL     1       6.607  11.997   5.170  1.00  0.00     0.135 A 
ATOM     61  F   UNL     1       9.302  10.118   6.722  1.00  0.00    -0.206 F 
ATOM     62  C   UNL     1       9.053  12.414   6.395  1.00  0.00     0.059 A 
ATOM     63  C   UNL     1       7.106  13.290   5.280  1.00  0.00     0.059 A 
ATOM     64  F   UNL     1       5.372  11.935   4.660  1.00  0.00    -0.206 F 
ATOM     65  C   UNL     1       8.309  13.494   5.932  1.00  0.00     0.060 A 
BRANCH  65  66
ATOM     66  S   UNL     1       8.892  15.172   6.228  1.00  0.00     0.124 S 
ATOM     67  O   UNL     1       8.700  15.295   7.668  1.00  0.00    -0.237 OA
ATOM     68  O   UNL     1      10.274  15.096   5.768  1.00  0.00    -0.237 OA
ATOM     69  O   UNL     1       8.006  15.984   5.399  1.00  0.00    -0.744 OA
ENDBRANCH  65  66
ENDBRANCH  44  58
BRANCH  45  70
ATOM     70  C   UNL     1       0.692  12.236  10.677  1.00  0.00     0.058 A 
ATOM     71  C   UNL     1       1.075  12.985  11.807  1.00  0.00     0.135 A 
ATOM     72  C   UNL     1      -0.332  12.798   9.888  1.00  0.00     0.135 A 
ATOM     73  F   UNL     1       2.050  12.539  12.614  1.00  0.00    -0.206 F 
ATOM     74  C   UNL     1       0.526  14.239  12.098  1.00  0.00     0.059 A 
ATOM     75  C   UNL     1      -0.909  14.036  10.170  1.00  0.00     0.059 A 
ATOM     76  F   UNL     1      -0.745  12.207   8.758  1.00  0.00    -0.206 F 
ATOM     77  C   UNL     1      -0.452  14.767  11.258  1.00  0.00     0.060 A 
BRANCH  77  78
ATOM     78  S   UNL     1      -1.029  16.462  11.514  1.00  0.00     0.124 S 
ATOM     79  O   UNL     1      -1.798  16.337  12.747  1.00  0.00    -0.237 OA
ATOM     80  O   UNL     1       0.224  17.203  11.615  1.00  0.00    -0.237 OA
ATOM     81  O   UNL     1      -1.816  16.737  10.314  1.00  0.00    -0.744 OA
ENDBRANCH  77  78
ENDBRANCH  45  70
BRANCH  57  82
ATOM     82  C   UNL     1       5.024   7.554  11.195  1.00  0.00     0.058 A 
ATOM     83  C   UNL     1       3.762   6.941  11.247  1.00  0.00     0.135 A 
ATOM     84  C   UNL     1       6.053   6.982  11.963  1.00  0.00     0.135 A 
ATOM     85  F   UNL     1       2.750   7.372  10.479  1.00  0.00    -0.206 F 
ATOM     86  C   UNL     1       3.529   5.825  12.053  1.00  0.00     0.059 A 
ATOM     87  C   UNL     1       5.852   5.851  12.743  1.00  0.00     0.059 A 
ATOM     88  F   UNL     1       7.293   7.498  11.918  1.00  0.00    -0.206 F 
ATOM     89  C   UNL     1       4.582   5.284  12.793  1.00  0.00     0.060 A 
BRANCH  89  90
ATOM     90  S   UNL     1       4.306   3.789  13.767  1.00  0.00     0.124 S 
ATOM     91  O   UNL     1       3.500   4.290  14.875  1.00  0.00    -0.237 OA
ATOM     92  O   UNL     1       3.613   2.918  12.821  1.00  0.00    -0.237 OA
ATOM     93  O   UNL     1       5.656   3.357  14.122  1.00  0.00    -0.744 OA
ENDBRANCH  89  90
ENDBRANCH  57  82
ENDBRANCH  31  32
ENDBRANCH  24  26
ENDBRANCH  23  24
ENDBRANCH  22  23
ENDBRANCH   1  22
TORSDOF 19
