REMARK SMILES COCCCN1C(=O)CC[C@@H](C(=O)OCCOC(=O)c2ccc(-c3c4nc(c(-c5c(F)cc(S(=O)(=O)[O-])cc5F)c5ccc([nH]5)c(-c5c(F)cc(S(=O)(=O)[O-])cc5F)c5nc(c(-c6c(F)cc(S(=O)(=O)[O-])cc6F)c6ccc3[nH]6)C=C5)C=C4)cc2)[C@@H]1c1ccc(F)cc1
REMARK SMILES IDX 15 1 14 2 12 3 13 4 11 5 6 6 7 7 86 8 8 9 9 10 10 11 5 12
REMARK SMILES IDX 4 13 3 14 2 15 1 16 87 17 88 18 93 19 89 20 92 21 90 22
REMARK SMILES IDX 91 23 16 24 17 25 18 26 19 27 20 28 21 29 85 30 22 31 84 32
REMARK SMILES IDX 23 33 24 34 25 35 78 36 26 37 83 38 77 39 79 40 27 41 82 42
REMARK SMILES IDX 76 43 75 44 28 46 62 47 41 48 61 49 42 50 45 51 60 52 80 53
REMARK SMILES IDX 43 54 44 55 59 57 81 58 46 59 29 60 30 61 39 62 31 63 32 64
REMARK SMILES IDX 38 65 40 66 33 67 34 68 35 69 36 70 37 71 63 72 64 73 73 74
REMARK SMILES IDX 65 75 66 76 72 77 74 78 67 79 68 80 69 81 70 82 71 83 47 84
REMARK SMILES IDX 48 85 57 86 49 87 50 88 56 89 58 90 51 91 52 92 53 93 54 94
REMARK SMILES IDX 55 95
REMARK H PARENT 79 45 45 56
REMARK Flexibility Score: inf
ROOT
ATOM      1  C   UNL     1       4.411  -0.726  -4.330  1.00  0.00     0.274 C 
ENDROOT
BRANCH   1   2
ATOM      2  O   UNL     1       4.485  -0.547  -2.894  1.00  0.00    -0.462 OA
BRANCH   2   3
ATOM      3  C   UNL     1       4.035  -1.590  -2.136  1.00  0.00     0.311 C 
ATOM      4  O   UNL     1       3.569  -2.623  -2.593  1.00  0.00    -0.252 OA
BRANCH   3   5
ATOM      5  C   UNL     1       4.176  -1.291  -0.650  1.00  0.00     0.127 C 
ATOM      6  N   UNL     1       1.998  -2.307  -0.039  1.00  0.00    -0.335 N 
ATOM      7  C   UNL     1       2.552  -3.550   0.239  1.00  0.00     0.223 C 
ATOM      8  C   UNL     1       2.790  -1.070  -0.034  1.00  0.00     0.129 C 
ATOM      9  O   UNL     1       1.858  -4.551   0.416  1.00  0.00    -0.275 OA
ATOM     10  C   UNL     1       4.065  -3.675   0.240  1.00  0.00     0.101 C 
ATOM     11  C   UNL     1       4.886  -2.398   0.127  1.00  0.00     0.028 C 
BRANCH   6  12
ATOM     12  C   UNL     1       0.592  -2.271  -0.455  1.00  0.00     0.122 C 
BRANCH  12  13
ATOM     13  C   UNL     1      -0.424  -2.323   0.684  1.00  0.00     0.050 C 
BRANCH  13  14
ATOM     14  C   UNL     1      -0.660  -1.007   1.412  1.00  0.00     0.161 C 
BRANCH  14  15
ATOM     15  O   UNL     1      -1.308  -0.043   0.581  1.00  0.00    -0.385 OA
ATOM     16  C   UNL     1      -0.458   1.010   0.153  1.00  0.00     0.194 C 
ENDBRANCH  14  15
ENDBRANCH  13  14
ENDBRANCH  12  13
ENDBRANCH   6  12
BRANCH   8  17
ATOM     17  C   UNL     1       2.933  -0.449   1.364  1.00  0.00    -0.024 A 
ATOM     18  C   UNL     1       2.788  -1.196   2.550  1.00  0.00     0.009 A 
ATOM     19  C   UNL     1       3.298   0.906   1.475  1.00  0.00     0.009 A 
ATOM     20  C   UNL     1       2.996  -0.611   3.800  1.00  0.00     0.039 A 
ATOM     21  C   UNL     1       3.508   1.489   2.727  1.00  0.00     0.039 A 
ATOM     22  C   UNL     1       3.355   0.726   3.877  1.00  0.00     0.123 A 
ATOM     23  F   UNL     1       3.560   1.288   5.075  1.00  0.00    -0.207 F 
ENDBRANCH   8  17
ENDBRANCH   3   5
ENDBRANCH   2   3
ENDBRANCH   1   2
BRANCH   1  24
ATOM     24  C   UNL     1       5.778  -1.103  -4.902  1.00  0.00     0.275 C 
BRANCH  24  25
ATOM     25  O   UNL     1       6.133  -2.397  -4.398  1.00  0.00    -0.458 OA
BRANCH  25  26
ATOM     26  C   UNL     1       7.457  -2.661  -4.276  1.00  0.00     0.338 C 
ATOM     27  O   UNL     1       8.379  -1.978  -4.679  1.00  0.00    -0.246 OA
BRANCH  26  28
ATOM     28  C   UNL     1       7.606  -3.916  -3.502  1.00  0.00     0.060 A 
ATOM     29  C   UNL     1       6.745  -4.156  -2.433  1.00  0.00     0.016 A 
ATOM     30  C   UNL     1       8.631  -4.820  -3.771  1.00  0.00     0.016 A 
ATOM     31  C   UNL     1       6.931  -5.247  -1.594  1.00  0.00     0.010 A 
ATOM     32  C   UNL     1       8.764  -5.971  -2.978  1.00  0.00     0.010 A 
ATOM     33  C   UNL     1       7.925  -6.184  -1.867  1.00  0.00    -0.014 A 
BRANCH  33  34
ATOM     34  C   UNL     1       8.123  -7.327  -0.936  1.00  0.00     0.031 A 
ATOM     35  C   UNL     1       9.414  -7.439  -0.175  1.00  0.00     0.074 A 
ATOM     36  C   UNL     1       7.135  -8.214  -0.699  1.00  0.00     0.049 A 
ATOM     37  N   UNL     1       9.874  -8.438   0.531  1.00  0.00    -0.248 NA
ATOM     38  C   UNL     1      10.301  -6.265  -0.210  1.00  0.00     0.031 C 
ATOM     39  C   UNL     1       5.782  -8.156  -1.260  1.00  0.00     0.029 A 
ATOM     40  N   UNL     1       7.112  -9.335   0.095  1.00  0.00    -0.354 N 
ATOM     41  C   UNL     1      11.127  -8.038   0.976  1.00  0.00     0.074 A 
ATOM     42  C   UNL     1      11.350  -6.699   0.475  1.00  0.00     0.031 C 
ATOM     43  C   UNL     1       5.058  -9.177  -0.773  1.00  0.00     0.029 A 
ATOM     44  C   UNL     1       5.916 -10.015   0.056  1.00  0.00     0.049 A 
ATOM     45  H   UNL     1       7.878  -9.624   0.641  1.00  0.00     0.167 HD
ATOM     46  C   UNL     1      12.017  -8.734   1.722  1.00  0.00     0.037 A 
ATOM     47  C   UNL     1       5.568 -11.207   0.580  1.00  0.00     0.037 A 
ATOM     48  C   UNL     1      11.773 -10.050   2.248  1.00  0.00     0.049 A 
ATOM     49  C   UNL     1       6.599 -12.004   1.332  1.00  0.00     0.074 A 
ATOM     50  C   UNL     1      12.628 -10.864   2.969  1.00  0.00     0.029 A 
ATOM     51  N   UNL     1      10.574 -10.737   2.125  1.00  0.00    -0.354 N 
ATOM     52  N   UNL     1       7.832 -11.675   1.638  1.00  0.00    -0.248 NA
ATOM     53  C   UNL     1       6.207 -13.349   1.777  1.00  0.00     0.031 C 
ATOM     54  C   UNL     1      11.954 -12.056   3.260  1.00  0.00     0.029 A 
ATOM     55  C   UNL     1      10.669 -11.969   2.749  1.00  0.00     0.049 A 
ATOM     56  H   UNL     1       9.774 -10.398   1.663  1.00  0.00     0.167 HD
ATOM     57  C   UNL     1       8.360 -12.769   2.314  1.00  0.00     0.074 A 
ATOM     58  C   UNL     1       7.308 -13.762   2.390  1.00  0.00     0.031 C 
ATOM     59  C   UNL     1       9.607 -12.940   2.818  1.00  0.00     0.037 A 
BRANCH  46  60
ATOM     60  C   UNL     1      13.359  -8.104   1.949  1.00  0.00     0.058 A 
ATOM     61  C   UNL     1      13.550  -7.070   2.877  1.00  0.00     0.135 A 
ATOM     62  C   UNL     1      14.471  -8.543   1.213  1.00  0.00     0.135 A 
ATOM     63  F   UNL     1      12.513  -6.597   3.586  1.00  0.00    -0.206 F 
ATOM     64  C   UNL     1      14.796  -6.473   3.049  1.00  0.00     0.059 A 
ATOM     65  C   UNL     1      15.729  -7.975   1.382  1.00  0.00     0.059 A 
ATOM     66  F   UNL     1      14.337  -9.525   0.307  1.00  0.00    -0.206 F 
ATOM     67  C   UNL     1      15.877  -6.928   2.291  1.00  0.00     0.060 A 
BRANCH  67  68
ATOM     68  S   UNL     1      17.484  -6.133   2.503  1.00  0.00     0.124 S 
ATOM     69  O   UNL     1      17.290  -4.888   1.765  1.00  0.00    -0.237 OA
ATOM     70  O   UNL     1      17.582  -6.000   3.953  1.00  0.00    -0.237 OA
ATOM     71  O   UNL     1      18.414  -7.082   1.899  1.00  0.00    -0.744 OA
ENDBRANCH  67  68
ENDBRANCH  46  60
BRANCH  47  72
ATOM     72  C   UNL     1       4.208 -11.762   0.340  1.00  0.00     0.058 A 
ATOM     73  C   UNL     1       3.287 -11.911   1.386  1.00  0.00     0.135 A 
ATOM     74  C   UNL     1       3.809 -12.169  -0.944  1.00  0.00     0.135 A 
ATOM     75  F   UNL     1       3.627 -11.555   2.634  1.00  0.00    -0.206 F 
ATOM     76  C   UNL     1       2.022 -12.453   1.172  1.00  0.00     0.059 A 
ATOM     77  C   UNL     1       2.542 -12.689  -1.187  1.00  0.00     0.059 A 
ATOM     78  F   UNL     1       4.651 -12.046  -1.981  1.00  0.00    -0.206 F 
ATOM     79  C   UNL     1       1.659 -12.841  -0.119  1.00  0.00     0.060 A 
BRANCH  79  80
ATOM     80  S   UNL     1       0.008 -13.516  -0.403  1.00  0.00     0.124 S 
ATOM     81  O   UNL     1       0.171 -14.889   0.060  1.00  0.00    -0.237 OA
ATOM     82  O   UNL     1      -0.830 -12.658   0.429  1.00  0.00    -0.237 OA
ATOM     83  O   UNL     1      -0.176 -13.352  -1.842  1.00  0.00    -0.744 OA
ENDBRANCH  79  80
ENDBRANCH  47  72
BRANCH  59  84
ATOM     84  C   UNL     1       9.895 -14.238   3.515  1.00  0.00     0.058 A 
ATOM     85  C   UNL     1      10.135 -15.417   2.794  1.00  0.00     0.135 A 
ATOM     86  C   UNL     1       9.990 -14.289   4.914  1.00  0.00     0.135 A 
ATOM     87  F   UNL     1      10.049 -15.420   1.454  1.00  0.00    -0.206 F 
ATOM     88  C   UNL     1      10.447 -16.610   3.438  1.00  0.00     0.059 A 
ATOM     89  C   UNL     1      10.320 -15.466   5.578  1.00  0.00     0.059 A 
ATOM     90  F   UNL     1       9.777 -13.185   5.647  1.00  0.00    -0.206 F 
ATOM     91  C   UNL     1      10.538 -16.624   4.832  1.00  0.00     0.060 A 
BRANCH  91  92
ATOM     92  S   UNL     1      10.991 -18.164   5.658  1.00  0.00     0.124 S 
ATOM     93  O   UNL     1       9.729 -18.897   5.624  1.00  0.00    -0.237 OA
ATOM     94  O   UNL     1      12.050 -18.685   4.799  1.00  0.00    -0.237 OA
ATOM     95  O   UNL     1      11.426 -17.723   6.980  1.00  0.00    -0.744 OA
ENDBRANCH  91  92
ENDBRANCH  59  84
ENDBRANCH  33  34
ENDBRANCH  26  28
ENDBRANCH  25  26
ENDBRANCH  24  25
ENDBRANCH   1  24
TORSDOF 19
