REMARK SMILES Cc1cc(F)ccc1OC1(C(=O)OCCOC(=O)c2ccc(-c3c4nc(c(-c5c(F)cc(S(=O)(=O)[O-])cc5F)c5ccc([nH]5)c(-c5c(F)cc(S(=O)(=O)[O-])cc5F)c5nc(c(-c6c(F)cc(S(=O)(=O)[O-])cc6F)c6ccc3[nH]6)C=C5)C=C4)cc2)CCN(C(=O)[C@H]2CCOC2)CC1
REMARK SMILES IDX 15 1 14 2 13 3 11 4 12 5 10 6 85 7 96 8 86 9 95 10 87 11
REMARK SMILES IDX 88 12 89 13 9 14 8 15 1 16 2 17 3 18 4 19 7 20 5 21 6 22
REMARK SMILES IDX 90 23 91 24 94 25 92 26 93 27 16 28 17 29 18 30 19 31 20 32
REMARK SMILES IDX 84 33 21 34 83 35 22 36 23 37 24 38 77 39 25 40 82 41 76 42
REMARK SMILES IDX 78 43 26 44 81 45 75 46 74 47 27 49 61 50 40 51 60 52 41 53
REMARK SMILES IDX 44 54 59 55 79 56 42 57 43 58 58 60 80 61 45 62 28 63 29 64
REMARK SMILES IDX 38 65 30 66 31 67 37 68 39 69 32 70 33 71 34 72 35 73 36 74
REMARK SMILES IDX 62 75 63 76 72 77 64 78 65 79 71 80 73 81 66 82 67 83 68 84
REMARK SMILES IDX 69 85 70 86 46 87 47 88 56 89 48 90 49 91 55 92 57 93 50 94
REMARK SMILES IDX 51 95 52 96 53 97 54 98
REMARK H PARENT 78 48 44 59
REMARK Flexibility Score: inf
ROOT
ATOM      1  C   UNL     1      11.487   9.029   0.855  1.00  0.00     0.275 C 
ENDROOT
BRANCH   1   2
ATOM      2  C   UNL     1      10.738   7.811   1.393  1.00  0.00     0.274 C 
BRANCH   2   3
ATOM      3  O   UNL     1       9.685   7.427   0.483  1.00  0.00    -0.459 OA
BRANCH   3   4
ATOM      4  C   UNL     1       8.430   7.886   0.771  1.00  0.00     0.350 C 
ATOM      5  O   UNL     1       8.147   8.466   1.813  1.00  0.00    -0.247 OA
BRANCH   4   6
ATOM      6  C   UNL     1       7.392   7.491  -0.324  1.00  0.00     0.209 C 
ATOM      7  C   UNL     1       8.067   7.442  -1.695  1.00  0.00     0.082 C 
ATOM      8  C   UNL     1       6.875   6.146   0.198  1.00  0.00     0.082 C 
ATOM      9  C   UNL     1       8.262   6.010  -2.199  1.00  0.00     0.124 C 
ATOM     10  C   UNL     1       6.213   5.344  -0.889  1.00  0.00     0.124 C 
ATOM     11  N   UNL     1       7.119   5.103  -2.012  1.00  0.00    -0.342 N 
ATOM     12  C   UNL     1       7.043   3.978  -2.833  1.00  0.00     0.228 C 
ATOM     13  O   UNL     1       7.918   3.733  -3.665  1.00  0.00    -0.274 OA
BRANCH   6  14
ATOM     14  O   UNL     1       6.344   8.454  -0.164  1.00  0.00    -0.475 OA
BRANCH  14  15
ATOM     15  C   UNL     1       5.401   9.081  -0.898  1.00  0.00     0.124 A 
ATOM     16  C   UNL     1       5.308   7.969  -3.267  1.00  0.00     0.048 C 
ATOM     17  C   UNL     1       4.947   8.977  -2.220  1.00  0.00    -0.006 A 
ATOM     18  C   UNL     1       4.010   9.936  -2.693  1.00  0.00     0.046 A 
ATOM     19  C   UNL     1       3.480  10.917  -1.870  1.00  0.00     0.123 A 
ATOM     20  C   UNL     1       4.783  10.054  -0.075  1.00  0.00     0.050 A 
ATOM     21  F   UNL     1       2.595  11.791  -2.365  1.00  0.00    -0.207 F 
ATOM     22  C   UNL     1       3.842  10.972  -0.546  1.00  0.00     0.043 A 
ENDBRANCH  14  15
ENDBRANCH   6  14
BRANCH  12  23
ATOM     23  C   UNL     1       5.837   3.062  -2.678  1.00  0.00     0.107 C 
ATOM     24  C   UNL     1       4.591   3.611  -3.338  1.00  0.00     0.044 C 
ATOM     25  C   UNL     1       6.006   1.740  -3.402  1.00  0.00     0.173 C 
ATOM     26  C   UNL     1       3.776   2.364  -3.618  1.00  0.00     0.161 C 
ATOM     27  O   UNL     1       4.682   1.255  -3.673  1.00  0.00    -0.381 OA
ENDBRANCH  12  23
ENDBRANCH   4   6
ENDBRANCH   3   4
ENDBRANCH   2   3
ENDBRANCH   1   2
BRANCH   1  28
ATOM     28  O   UNL     1      10.630  10.182   0.922  1.00  0.00    -0.458 OA
BRANCH  28  29
ATOM     29  C   UNL     1      10.401  10.838  -0.236  1.00  0.00     0.338 C 
ATOM     30  O   UNL     1      10.889  10.602  -1.333  1.00  0.00    -0.246 OA
BRANCH  29  31
ATOM     31  C   UNL     1       9.418  11.903   0.011  1.00  0.00     0.060 A 
ATOM     32  C   UNL     1       8.137  11.553   0.426  1.00  0.00     0.016 A 
ATOM     33  C   UNL     1       9.732  13.240  -0.238  1.00  0.00     0.016 A 
ATOM     34  C   UNL     1       7.157  12.530   0.553  1.00  0.00     0.010 A 
ATOM     35  C   UNL     1       8.753  14.227  -0.053  1.00  0.00     0.010 A 
ATOM     36  C   UNL     1       7.443  13.878   0.319  1.00  0.00    -0.014 A 
BRANCH  36  37
ATOM     37  C   UNL     1       6.335  14.872   0.380  1.00  0.00     0.031 A 
ATOM     38  C   UNL     1       5.949  15.639  -0.857  1.00  0.00     0.074 A 
ATOM     39  C   UNL     1       5.603  15.023   1.503  1.00  0.00     0.049 A 
ATOM     40  N   UNL     1       5.108  16.633  -0.985  1.00  0.00    -0.248 NA
ATOM     41  C   UNL     1       6.599  15.237  -2.114  1.00  0.00     0.031 C 
ATOM     42  C   UNL     1       5.795  14.278   2.748  1.00  0.00     0.029 A 
ATOM     43  N   UNL     1       4.520  15.827   1.766  1.00  0.00    -0.354 N 
ATOM     44  C   UNL     1       5.184  17.025  -2.316  1.00  0.00     0.074 A 
ATOM     45  C   UNL     1       6.140  16.148  -2.959  1.00  0.00     0.031 C 
ATOM     46  C   UNL     1       4.822  14.605   3.613  1.00  0.00     0.029 A 
ATOM     47  C   UNL     1       3.994  15.652   3.024  1.00  0.00     0.049 A 
ATOM     48  H   UNL     1       4.156  16.468   1.114  1.00  0.00     0.167 HD
ATOM     49  C   UNL     1       4.527  18.032  -2.941  1.00  0.00     0.037 A 
ATOM     50  C   UNL     1       2.981  16.284   3.649  1.00  0.00     0.037 A 
ATOM     51  C   UNL     1       3.525  18.855  -2.317  1.00  0.00     0.049 A 
ATOM     52  C   UNL     1       2.279  17.414   2.949  1.00  0.00     0.074 A 
ATOM     53  C   UNL     1       2.813  19.910  -2.859  1.00  0.00     0.029 A 
ATOM     54  N   UNL     1       3.072  18.696  -1.015  1.00  0.00    -0.354 N 
ATOM     55  N   UNL     1       2.450  17.858   1.727  1.00  0.00    -0.248 NA
ATOM     56  C   UNL     1       1.277  18.155   3.727  1.00  0.00     0.031 C 
ATOM     57  C   UNL     1       1.947  20.407  -1.876  1.00  0.00     0.029 A 
ATOM     58  C   UNL     1       2.099  19.640  -0.732  1.00  0.00     0.049 A 
ATOM     59  H   UNL     1       3.396  18.013  -0.384  1.00  0.00     0.167 HD
ATOM     60  C   UNL     1       1.585  18.937   1.592  1.00  0.00     0.074 A 
ATOM     61  C   UNL     1       0.872  19.062   2.847  1.00  0.00     0.031 C 
ATOM     62  C   UNL     1       1.407  19.758   0.527  1.00  0.00     0.037 A 
BRANCH  49  63
ATOM     63  C   UNL     1       4.933  18.337  -4.354  1.00  0.00     0.058 A 
ATOM     64  C   UNL     1       4.560  17.526  -5.436  1.00  0.00     0.135 A 
ATOM     65  C   UNL     1       5.736  19.459  -4.621  1.00  0.00     0.135 A 
ATOM     66  F   UNL     1       3.811  16.431  -5.233  1.00  0.00    -0.206 F 
ATOM     67  C   UNL     1       5.004  17.792  -6.729  1.00  0.00     0.059 A 
ATOM     68  C   UNL     1       6.172  19.757  -5.907  1.00  0.00     0.059 A 
ATOM     69  F   UNL     1       6.121  20.267  -3.621  1.00  0.00    -0.206 F 
ATOM     70  C   UNL     1       5.820  18.903  -6.952  1.00  0.00     0.060 A 
BRANCH  70  71
ATOM     71  S   UNL     1       6.430  19.220  -8.621  1.00  0.00     0.124 S 
ATOM     72  O   UNL     1       7.529  18.265  -8.714  1.00  0.00    -0.237 OA
ATOM     73  O   UNL     1       5.263  18.924  -9.447  1.00  0.00    -0.237 OA
ATOM     74  O   UNL     1       6.820  20.626  -8.578  1.00  0.00    -0.744 OA
ENDBRANCH  70  71
ENDBRANCH  49  63
BRANCH  50  75
ATOM     75  C   UNL     1       2.599  15.883   5.028  1.00  0.00     0.058 A 
ATOM     76  C   UNL     1       1.394  15.207   5.273  1.00  0.00     0.135 A 
ATOM     77  C   UNL     1       3.447  16.124   6.120  1.00  0.00     0.135 A 
ATOM     78  F   UNL     1       0.542  14.969   4.264  1.00  0.00    -0.206 F 
ATOM     79  C   UNL     1       1.050  14.770   6.548  1.00  0.00     0.059 A 
ATOM     80  C   UNL     1       3.136  15.676   7.400  1.00  0.00     0.059 A 
ATOM     81  F   UNL     1       4.613  16.763   5.937  1.00  0.00    -0.206 F 
ATOM     82  C   UNL     1       1.934  15.000   7.604  1.00  0.00     0.060 A 
BRANCH  82  83
ATOM     83  S   UNL     1       1.535  14.341   9.238  1.00  0.00     0.124 S 
ATOM     84  O   UNL     1       0.578  15.326   9.727  1.00  0.00    -0.237 OA
ATOM     85  O   UNL     1       0.991  13.025   8.919  1.00  0.00    -0.237 OA
ATOM     86  O   UNL     1       2.829  14.326   9.915  1.00  0.00    -0.744 OA
ENDBRANCH  82  83
ENDBRANCH  50  75
BRANCH  62  87
ATOM     87  C   UNL     1       0.405  20.865   0.677  1.00  0.00     0.058 A 
ATOM     88  C   UNL     1       0.706  22.026   1.406  1.00  0.00     0.135 A 
ATOM     89  C   UNL     1      -0.850  20.784   0.055  1.00  0.00     0.135 A 
ATOM     90  F   UNL     1       1.891  22.147   2.025  1.00  0.00    -0.206 F 
ATOM     91  C   UNL     1      -0.212  23.064   1.528  1.00  0.00     0.059 A 
ATOM     92  C   UNL     1      -1.777  21.817   0.149  1.00  0.00     0.059 A 
ATOM     93  F   UNL     1      -1.182  19.697  -0.659  1.00  0.00    -0.206 F 
ATOM     94  C   UNL     1      -1.453  22.949   0.897  1.00  0.00     0.060 A 
BRANCH  94  95
ATOM     95  S   UNL     1      -2.629  24.312   1.038  1.00  0.00     0.124 S 
ATOM     96  O   UNL     1      -3.160  24.105   2.381  1.00  0.00    -0.237 OA
ATOM     97  O   UNL     1      -1.776  25.485   0.868  1.00  0.00    -0.237 OA
ATOM     98  O   UNL     1      -3.565  24.064  -0.054  1.00  0.00    -0.744 OA
ENDBRANCH  94  95
ENDBRANCH  62  87
ENDBRANCH  36  37
ENDBRANCH  29  31
ENDBRANCH  28  29
ENDBRANCH   1  28
TORSDOF 17
