REMARK SMILES Cc1c(C(=O)Nc2ccc(C(=O)Nc3ccccc3C(=O)OCCOC(=O)c3ccc(-c4c5nc(c(-c6c(F)cc(S(=O)(=O)[O-])cc6F)c6ccc([nH]6)c(-c6c(F)cc(S(=O)(=O)[O-])cc6F)c6nc(c(-c7c(F)cc(S(=O)(=O)[O-])cc7F)c7ccc4[nH]7)C=C6)C=C5)cc3)cc2)cccc1[N+](=O)[O-]
REMARK SMILES IDX 23 1 22 2 20 3 21 4 19 5 14 6 15 7 16 8 18 9 17 10 13 11
REMARK SMILES IDX 11 12 12 13 10 15 7 16 8 17 95 18 9 19 94 20 6 21 4 22 5 23
REMARK SMILES IDX 3 25 1 26 2 27 99 28 96 29 98 30 97 31 100 32 101 33 102 34
REMARK SMILES IDX 24 35 25 36 26 37 27 38 28 39 29 40 93 41 30 42 92 43 31 44
REMARK SMILES IDX 32 45 33 46 86 47 34 48 91 49 85 50 87 51 35 52 90 53 84 54
REMARK SMILES IDX 83 55 36 57 70 58 49 59 69 60 50 61 53 62 68 63 88 64 51 65
REMARK SMILES IDX 52 66 67 68 89 69 54 70 37 71 38 72 47 73 39 74 40 75 46 76
REMARK SMILES IDX 48 77 41 78 42 79 43 80 44 81 45 82 71 83 72 84 81 85 73 86
REMARK SMILES IDX 74 87 80 88 82 89 75 90 76 91 77 92 78 93 79 94 55 95 56 96
REMARK SMILES IDX 65 97 57 98 58 99 64 100 66 101 59 102 60 103 61 104 62 105
REMARK SMILES IDX 63 106
REMARK H PARENT 13 14 6 24 87 56 53 67
REMARK Flexibility Score: inf
ROOT
ATOM      1  C   UNL     1       4.430  -1.363   2.766  1.00  0.00     0.275 C 
ENDROOT
BRANCH   1   2
ATOM      2  O   UNL     1       4.148  -0.004   2.376  1.00  0.00    -0.458 OA
BRANCH   2   3
ATOM      3  C   UNL     1       3.391   0.647   3.299  1.00  0.00     0.340 C 
ATOM      4  O   UNL     1       3.091   0.104   4.364  1.00  0.00    -0.246 OA
BRANCH   3   5
ATOM      5  C   UNL     1       2.788   2.004   2.973  1.00  0.00     0.083 A 
ATOM      6  C   UNL     1       3.046   2.967   1.962  1.00  0.00     0.056 A 
ATOM      7  C   UNL     1       2.349   4.204   2.030  1.00  0.00     0.027 A 
ATOM      8  C   UNL     1       1.341   4.460   2.961  1.00  0.00     0.002 A 
ATOM      9  C   UNL     1       1.744   2.304   3.901  1.00  0.00     0.018 A 
ATOM     10  C   UNL     1       1.018   3.493   3.887  1.00  0.00     0.001 A 
BRANCH   6  11
ATOM     11  N   UNL     1       3.845   2.919   0.786  1.00  0.00    -0.321 N 
ATOM     12  C   UNL     1       3.764   2.114  -0.331  1.00  0.00     0.255 C 
ATOM     13  O   UNL     1       3.996   2.557  -1.455  1.00  0.00    -0.269 OA
ATOM     14  H   UNL     1       4.583   3.571   0.766  1.00  0.00     0.170 HD
BRANCH  12  15
ATOM     15  C   UNL     1       3.360   0.719  -0.280  1.00  0.00     0.040 A 
ATOM     16  C   UNL     1       2.446  -1.863  -0.380  1.00  0.00     0.041 A 
ATOM     17  C   UNL     1       1.936  -0.997   0.572  1.00  0.00     0.027 A 
ATOM     18  C   UNL     1       3.581  -1.533  -1.125  1.00  0.00     0.027 A 
ATOM     19  C   UNL     1       2.278   0.331   0.488  1.00  0.00     0.016 A 
ATOM     20  C   UNL     1       4.038  -0.216  -1.074  1.00  0.00     0.016 A 
BRANCH  16  21
ATOM     21  N   UNL     1       1.630  -2.910  -0.815  1.00  0.00    -0.322 N 
ATOM     22  C   UNL     1       0.242  -2.849  -0.944  1.00  0.00     0.256 C 
ATOM     23  O   UNL     1      -0.384  -3.880  -1.190  1.00  0.00    -0.269 OA
ATOM     24  H   UNL     1       2.070  -3.759  -1.049  1.00  0.00     0.170 HD
BRANCH  22  25
ATOM     25  C   UNL     1      -0.539  -1.556  -0.751  1.00  0.00     0.049 A 
ATOM     26  C   UNL     1       0.660  -0.213  -2.539  1.00  0.00     0.053 C 
ATOM     27  C   UNL     1      -0.222  -0.276  -1.315  1.00  0.00     0.039 A 
ATOM     28  C   UNL     1      -0.864   0.866  -0.750  1.00  0.00     0.273 A 
ATOM     29  C   UNL     1      -1.615  -1.675   0.147  1.00  0.00     0.014 A 
ATOM     30  C   UNL     1      -1.945   0.704   0.139  1.00  0.00     0.086 A 
ATOM     31  C   UNL     1      -2.348  -0.562   0.546  1.00  0.00     0.008 A 
BRANCH  28  32
ATOM     32  N   UNL     1      -0.393   2.272  -0.911  1.00  0.00     0.063 N 
ATOM     33  O   UNL     1      -0.846   3.111  -0.114  1.00  0.00    -0.258 OA
ATOM     34  O   UNL     1       0.415   2.548  -1.796  1.00  0.00    -0.258 OA
ENDBRANCH  28  32
ENDBRANCH  22  25
ENDBRANCH  16  21
ENDBRANCH  12  15
ENDBRANCH   6  11
ENDBRANCH   3   5
ENDBRANCH   2   3
ENDBRANCH   1   2
BRANCH   1  35
ATOM     35  C   UNL     1       5.242  -2.253   1.796  1.00  0.00     0.275 C 
BRANCH  35  36
ATOM     36  O   UNL     1       5.945  -1.742   0.633  1.00  0.00    -0.458 OA
BRANCH  36  37
ATOM     37  C   UNL     1       6.798  -0.689   0.492  1.00  0.00     0.338 C 
ATOM     38  O   UNL     1       7.397  -0.455  -0.522  1.00  0.00    -0.246 OA
BRANCH  37  39
ATOM     39  C   UNL     1       6.949   0.115   1.696  1.00  0.00     0.060 A 
ATOM     40  C   UNL     1       6.552   1.461   1.709  1.00  0.00     0.016 A 
ATOM     41  C   UNL     1       7.327  -0.581   2.837  1.00  0.00     0.016 A 
ATOM     42  C   UNL     1       6.452   2.118   2.923  1.00  0.00     0.010 A 
ATOM     43  C   UNL     1       7.083   0.004   4.042  1.00  0.00     0.010 A 
ATOM     44  C   UNL     1       6.747   1.376   4.063  1.00  0.00    -0.014 A 
BRANCH  44  45
ATOM     45  C   UNL     1       7.331   1.995   5.236  1.00  0.00     0.031 A 
ATOM     46  C   UNL     1       6.560   2.025   6.483  1.00  0.00     0.074 A 
ATOM     47  C   UNL     1       8.671   1.917   5.039  1.00  0.00     0.049 A 
ATOM     48  N   UNL     1       6.950   2.571   7.575  1.00  0.00    -0.248 NA
ATOM     49  C   UNL     1       5.206   1.481   6.602  1.00  0.00     0.031 C 
ATOM     50  C   UNL     1       9.769   1.523   5.901  1.00  0.00     0.029 A 
ATOM     51  N   UNL     1       9.307   2.098   3.805  1.00  0.00    -0.354 N 
ATOM     52  C   UNL     1       6.187   1.997   8.577  1.00  0.00     0.074 A 
ATOM     53  C   UNL     1       4.989   1.554   7.920  1.00  0.00     0.031 C 
ATOM     54  C   UNL     1      10.933   1.801   5.269  1.00  0.00     0.029 A 
ATOM     55  C   UNL     1      10.615   2.493   4.020  1.00  0.00     0.049 A 
ATOM     56  H   UNL     1       8.889   1.966   2.923  1.00  0.00     0.167 HD
ATOM     57  C   UNL     1       6.800   1.704   9.763  1.00  0.00     0.037 A 
ATOM     58  C   UNL     1      10.857   3.812   3.752  1.00  0.00     0.037 A 
ATOM     59  C   UNL     1       8.210   2.110   9.666  1.00  0.00     0.049 A 
ATOM     60  C   UNL     1      10.907   4.587   5.052  1.00  0.00     0.074 A 
ATOM     61  C   UNL     1       9.364   1.385   9.415  1.00  0.00     0.029 A 
ATOM     62  N   UNL     1       8.522   3.441   9.413  1.00  0.00    -0.354 N 
ATOM     63  N   UNL     1      10.277   4.250   6.146  1.00  0.00    -0.248 NA
ATOM     64  C   UNL     1      11.790   5.728   5.238  1.00  0.00     0.031 C 
ATOM     65  C   UNL     1      10.351   2.292   8.939  1.00  0.00     0.029 A 
ATOM     66  C   UNL     1       9.784   3.553   8.856  1.00  0.00     0.049 A 
ATOM     67  H   UNL     1       7.926   4.201   9.605  1.00  0.00     0.167 HD
ATOM     68  C   UNL     1      10.707   5.030   7.181  1.00  0.00     0.074 A 
ATOM     69  C   UNL     1      11.649   5.946   6.556  1.00  0.00     0.031 C 
ATOM     70  C   UNL     1      10.300   4.862   8.476  1.00  0.00     0.037 A 
BRANCH  57  71
ATOM     71  C   UNL     1       6.290   0.783  10.864  1.00  0.00     0.058 A 
ATOM     72  C   UNL     1       7.195   0.268  11.825  1.00  0.00     0.135 A 
ATOM     73  C   UNL     1       4.954   0.369  11.057  1.00  0.00     0.135 A 
ATOM     74  F   UNL     1       8.491   0.605  11.823  1.00  0.00    -0.206 F 
ATOM     75  C   UNL     1       6.824  -0.608  12.846  1.00  0.00     0.059 A 
ATOM     76  C   UNL     1       4.560  -0.525  12.066  1.00  0.00     0.059 A 
ATOM     77  F   UNL     1       3.952   0.845  10.311  1.00  0.00    -0.206 F 
ATOM     78  C   UNL     1       5.503  -1.006  12.960  1.00  0.00     0.060 A 
BRANCH  78  79
ATOM     79  S   UNL     1       5.049  -2.097  14.320  1.00  0.00     0.124 S 
ATOM     80  O   UNL     1       5.852  -3.284  14.041  1.00  0.00    -0.237 OA
ATOM     81  O   UNL     1       5.453  -1.317  15.485  1.00  0.00    -0.237 OA
ATOM     82  O   UNL     1       3.608  -2.268  14.154  1.00  0.00    -0.744 OA
ENDBRANCH  78  79
ENDBRANCH  57  71
BRANCH  58  83
ATOM     83  C   UNL     1      10.190   4.264   2.476  1.00  0.00     0.058 A 
ATOM     84  C   UNL     1      10.604   3.670   1.258  1.00  0.00     0.135 A 
ATOM     85  C   UNL     1       8.959   4.936   2.457  1.00  0.00     0.135 A 
ATOM     86  F   UNL     1      11.764   2.992   1.210  1.00  0.00    -0.206 F 
ATOM     87  C   UNL     1       9.805   3.664   0.111  1.00  0.00     0.059 A 
ATOM     88  C   UNL     1       8.151   4.957   1.315  1.00  0.00     0.059 A 
ATOM     89  F   UNL     1       8.464   5.486   3.575  1.00  0.00    -0.206 F 
ATOM     90  C   UNL     1       8.569   4.302   0.155  1.00  0.00     0.060 A 
BRANCH  90  91
ATOM     91  S   UNL     1       7.420   4.149  -1.238  1.00  0.00     0.124 S 
ATOM     92  O   UNL     1       7.880   5.221  -2.115  1.00  0.00    -0.237 OA
ATOM     93  O   UNL     1       7.674   2.792  -1.705  1.00  0.00    -0.237 OA
ATOM     94  O   UNL     1       6.130   4.367  -0.584  1.00  0.00    -0.744 OA
ENDBRANCH  90  91
ENDBRANCH  58  83
BRANCH  70  95
ATOM     95  C   UNL     1      10.451   5.908   9.550  1.00  0.00     0.058 A 
ATOM     96  C   UNL     1      10.592   7.277   9.278  1.00  0.00     0.135 A 
ATOM     97  C   UNL     1      10.315   5.569  10.920  1.00  0.00     0.135 A 
ATOM     98  F   UNL     1      10.543   7.759   8.028  1.00  0.00    -0.206 F 
ATOM     99  C   UNL     1      10.746   8.221  10.285  1.00  0.00     0.059 A 
ATOM    100  C   UNL     1      10.365   6.509  11.938  1.00  0.00     0.059 A 
ATOM    101  F   UNL     1      10.113   4.307  11.328  1.00  0.00    -0.206 F 
ATOM    102  C   UNL     1      10.643   7.825  11.612  1.00  0.00     0.060 A 
BRANCH 102 103
ATOM    103  S   UNL     1      10.864   9.043  12.909  1.00  0.00     0.124 S 
ATOM    104  O   UNL     1      12.318   9.072  13.024  1.00  0.00    -0.237 OA
ATOM    105  O   UNL     1      10.250  10.236  12.334  1.00  0.00    -0.237 OA
ATOM    106  O   UNL     1      10.150   8.463  14.042  1.00  0.00    -0.744 OA
ENDBRANCH 102 103
ENDBRANCH  70  95
ENDBRANCH  44  45
ENDBRANCH  37  39
ENDBRANCH  36  37
ENDBRANCH  35  36
ENDBRANCH   1  35
TORSDOF 19
