REMARK SMILES Cc1ccc(Nc2c(F)cccc2I)c(CC(=O)OCCOC(=O)c2ccc(-c3c4nc(c(-c5c(F)cc(S(=O)(=O)[O-])cc5F)c5ccc([nH]5)c(-c5c(F)cc(S(=O)(=O)[O-])cc5F)c5nc(c(-c6c(F)cc(S(=O)(=O)[O-])cc6F)c6ccc3[nH]6)C=C5)C=C4)cc2)c1
REMARK SMILES IDX 20 1 19 2 17 3 18 4 16 5 15 6 1 7 2 8 3 9 91 10 4 11 5 12
REMARK SMILES IDX 6 13 7 15 8 16 13 17 9 18 10 19 12 20 14 21 11 22 21 23
REMARK SMILES IDX 22 24 23 25 24 26 25 27 26 28 90 29 27 30 89 31 28 32 29 33
REMARK SMILES IDX 30 34 83 35 31 36 88 37 82 38 84 39 32 40 87 41 81 42 80 43
REMARK SMILES IDX 33 45 67 46 46 47 66 48 47 49 50 50 65 51 85 52 48 53 49 54
REMARK SMILES IDX 64 56 86 57 51 58 34 59 35 60 44 61 36 62 37 63 43 64 45 65
REMARK SMILES IDX 38 66 39 67 40 68 41 69 42 70 68 71 69 72 78 73 70 74 71 75
REMARK SMILES IDX 77 76 79 77 72 78 73 79 74 80 75 81 76 82 52 83 53 84 62 85
REMARK SMILES IDX 54 86 55 87 61 88 63 89 56 90 57 91 58 92 59 93 60 94
REMARK H PARENT 6 14 84 44 50 55
REMARK Flexibility Score: inf
ROOT
ATOM      1  C   UNL     1      -2.820   0.854  -3.965  1.00  0.00     0.274 C 
ENDROOT
BRANCH   1   2
ATOM      2  O   UNL     1      -1.935   1.422  -3.000  1.00  0.00    -0.462 OA
BRANCH   2   3
ATOM      3  C   UNL     1      -0.972   0.589  -2.526  1.00  0.00     0.310 C 
ATOM      4  O   UNL     1      -0.476  -0.318  -3.155  1.00  0.00    -0.252 OA
BRANCH   3   5
ATOM      5  C   UNL     1      -0.655   0.999  -1.099  1.00  0.00     0.160 C 
BRANCH   5   6
ATOM      6  C   UNL     1      -0.045  -0.143  -0.328  1.00  0.00    -0.013 A 
ATOM      7  C   UNL     1       3.514  -1.068   0.575  1.00  0.00     0.044 C 
ATOM      8  C   UNL     1       2.024  -1.143   0.453  1.00  0.00    -0.051 A 
ATOM      9  C   UNL     1       1.323  -2.317   0.733  1.00  0.00     0.005 A 
ATOM     10  C   UNL     1       1.331  -0.057  -0.070  1.00  0.00     0.009 A 
ATOM     11  C   UNL     1      -0.061  -2.393   0.526  1.00  0.00     0.026 A 
ATOM     12  C   UNL     1      -0.776  -1.309   0.013  1.00  0.00     0.042 A 
BRANCH  12  13
ATOM     13  N   UNL     1      -2.137  -1.432  -0.321  1.00  0.00    -0.352 N 
ATOM     14  H   UNL     1      -2.475  -0.705  -0.893  1.00  0.00     0.167 HD
BRANCH  13  15
ATOM     15  C   UNL     1      -3.118  -2.405   0.011  1.00  0.00     0.088 A 
ATOM     16  C   UNL     1      -3.619  -2.482   1.320  1.00  0.00     0.147 A 
ATOM     17  C   UNL     1      -3.863  -3.047  -0.998  1.00  0.00     0.040 A 
ATOM     18  F   UNL     1      -2.956  -1.899   2.332  1.00  0.00    -0.205 F 
ATOM     19  C   UNL     1      -4.821  -3.131   1.612  1.00  0.00     0.041 A 
ATOM     20  C   UNL     1      -5.099  -3.650  -0.721  1.00  0.00     0.017 A 
ATOM     21  I   UNL     1      -3.098  -3.298  -2.941  1.00  0.00    -0.042 I 
ATOM     22  C   UNL     1      -5.582  -3.682   0.585  1.00  0.00     0.004 A 
ENDBRANCH  13  15
ENDBRANCH  12  13
ENDBRANCH   5   6
ENDBRANCH   3   5
ENDBRANCH   2   3
ENDBRANCH   1   2
BRANCH   1  23
ATOM     23  C   UNL     1      -4.119   0.351  -3.298  1.00  0.00     0.275 C 
BRANCH  23  24
ATOM     24  O   UNL     1      -4.117   0.255  -1.837  1.00  0.00    -0.458 OA
BRANCH  24  25
ATOM     25  C   UNL     1      -4.264   1.187  -0.834  1.00  0.00     0.338 C 
ATOM     26  O   UNL     1      -4.229   0.828   0.325  1.00  0.00    -0.246 OA
BRANCH  25  27
ATOM     27  C   UNL     1      -4.032   2.620  -1.152  1.00  0.00     0.060 A 
ATOM     28  C   UNL     1      -3.342   3.461  -0.257  1.00  0.00     0.016 A 
ATOM     29  C   UNL     1      -4.241   3.049  -2.434  1.00  0.00     0.016 A 
ATOM     30  C   UNL     1      -2.748   4.641  -0.734  1.00  0.00     0.010 A 
ATOM     31  C   UNL     1      -3.357   3.946  -2.958  1.00  0.00     0.010 A 
ATOM     32  C   UNL     1      -2.718   4.849  -2.116  1.00  0.00    -0.014 A 
BRANCH  32  33
ATOM     33  C   UNL     1      -2.342   6.071  -2.823  1.00  0.00     0.031 A 
ATOM     34  C   UNL     1      -1.007   6.678  -2.753  1.00  0.00     0.074 A 
ATOM     35  C   UNL     1      -3.314   6.627  -3.594  1.00  0.00     0.049 A 
ATOM     36  N   UNL     1      -0.795   7.918  -2.467  1.00  0.00    -0.248 NA
ATOM     37  C   UNL     1       0.206   5.935  -3.097  1.00  0.00     0.031 C 
ATOM     38  C   UNL     1      -3.259   7.812  -4.424  1.00  0.00     0.029 A 
ATOM     39  N   UNL     1      -4.665   6.250  -3.676  1.00  0.00    -0.354 N 
ATOM     40  C   UNL     1       0.481   8.202  -2.908  1.00  0.00     0.074 A 
ATOM     41  C   UNL     1       1.113   6.921  -3.148  1.00  0.00     0.031 C 
ATOM     42  C   UNL     1      -4.523   8.247  -4.607  1.00  0.00     0.029 A 
ATOM     43  C   UNL     1      -5.423   7.396  -3.832  1.00  0.00     0.049 A 
ATOM     44  H   UNL     1      -5.012   5.330  -3.631  1.00  0.00     0.167 HD
ATOM     45  C   UNL     1       0.824   9.463  -3.303  1.00  0.00     0.037 A 
ATOM     46  C   UNL     1      -6.306   7.760  -2.855  1.00  0.00     0.037 A 
ATOM     47  C   UNL     1      -0.360  10.318  -3.389  1.00  0.00     0.049 A 
ATOM     48  C   UNL     1      -5.840   9.012  -2.155  1.00  0.00     0.074 A 
ATOM     49  C   UNL     1      -1.144  10.664  -4.479  1.00  0.00     0.029 A 
ATOM     50  N   UNL     1      -1.115  10.621  -2.258  1.00  0.00    -0.354 N 
ATOM     51  N   UNL     1      -4.641   9.503  -2.301  1.00  0.00    -0.248 NA
ATOM     52  C   UNL     1      -6.658   9.814  -1.252  1.00  0.00     0.031 C 
ATOM     53  C   UNL     1      -2.404  11.093  -4.005  1.00  0.00     0.029 A 
ATOM     54  C   UNL     1      -2.387  11.033  -2.624  1.00  0.00     0.049 A 
ATOM     55  H   UNL     1      -0.791  10.552  -1.331  1.00  0.00     0.167 HD
ATOM     56  C   UNL     1      -4.522  10.664  -1.595  1.00  0.00     0.074 A 
ATOM     57  C   UNL     1      -5.814  10.819  -0.950  1.00  0.00     0.031 C 
ATOM     58  C   UNL     1      -3.379  11.410  -1.628  1.00  0.00     0.037 A 
BRANCH  45  59
ATOM     59  C   UNL     1       2.152   9.761  -3.966  1.00  0.00     0.058 A 
ATOM     60  C   UNL     1       2.264  10.572  -5.113  1.00  0.00     0.135 A 
ATOM     61  C   UNL     1       3.372   9.245  -3.478  1.00  0.00     0.135 A 
ATOM     62  F   UNL     1       1.198  11.166  -5.663  1.00  0.00    -0.206 F 
ATOM     63  C   UNL     1       3.474  10.796  -5.772  1.00  0.00     0.059 A 
ATOM     64  C   UNL     1       4.597   9.439  -4.132  1.00  0.00     0.059 A 
ATOM     65  F   UNL     1       3.399   8.519  -2.348  1.00  0.00    -0.206 F 
ATOM     66  C   UNL     1       4.636  10.213  -5.286  1.00  0.00     0.060 A 
BRANCH  66  67
ATOM     67  S   UNL     1       6.169  10.462  -6.207  1.00  0.00     0.124 S 
ATOM     68  O   UNL     1       5.776  10.101  -7.566  1.00  0.00    -0.237 OA
ATOM     69  O   UNL     1       6.433  11.879  -5.980  1.00  0.00    -0.237 OA
ATOM     70  O   UNL     1       7.102   9.539  -5.568  1.00  0.00    -0.744 OA
ENDBRANCH  66  67
ENDBRANCH  45  59
BRANCH  46  71
ATOM     71  C   UNL     1      -7.075   6.626  -2.243  1.00  0.00     0.058 A 
ATOM     72  C   UNL     1      -8.010   5.967  -3.067  1.00  0.00     0.135 A 
ATOM     73  C   UNL     1      -6.669   5.948  -1.080  1.00  0.00     0.135 A 
ATOM     74  F   UNL     1      -8.456   6.568  -4.182  1.00  0.00    -0.206 F 
ATOM     75  C   UNL     1      -8.407   4.652  -2.840  1.00  0.00     0.059 A 
ATOM     76  C   UNL     1      -7.061   4.624  -0.827  1.00  0.00     0.059 A 
ATOM     77  F   UNL     1      -5.777   6.507  -0.250  1.00  0.00    -0.206 F 
ATOM     78  C   UNL     1      -7.879   3.967  -1.750  1.00  0.00     0.060 A 
BRANCH  78  79
ATOM     79  S   UNL     1      -8.097   2.168  -1.709  1.00  0.00     0.124 S 
ATOM     80  O   UNL     1      -9.537   2.033  -1.529  1.00  0.00    -0.237 OA
ATOM     81  O   UNL     1      -7.573   1.784  -3.019  1.00  0.00    -0.237 OA
ATOM     82  O   UNL     1      -7.270   1.759  -0.583  1.00  0.00    -0.744 OA
ENDBRANCH  78  79
ENDBRANCH  46  71
BRANCH  58  83
ATOM     83  C   UNL     1      -3.137  12.658  -0.835  1.00  0.00     0.058 A 
ATOM     84  C   UNL     1      -3.583  12.843   0.480  1.00  0.00     0.135 A 
ATOM     85  C   UNL     1      -2.305  13.673  -1.365  1.00  0.00     0.135 A 
ATOM     86  F   UNL     1      -4.302  11.901   1.108  1.00  0.00    -0.206 F 
ATOM     87  C   UNL     1      -3.270  13.990   1.208  1.00  0.00     0.059 A 
ATOM     88  C   UNL     1      -1.935  14.794  -0.638  1.00  0.00     0.059 A 
ATOM     89  F   UNL     1      -1.819  13.603  -2.614  1.00  0.00    -0.206 F 
ATOM     90  C   UNL     1      -2.443  14.957   0.641  1.00  0.00     0.060 A 
BRANCH  90  91
ATOM     91  S   UNL     1      -1.976  16.419   1.581  1.00  0.00     0.124 S 
ATOM     92  O   UNL     1      -2.948  17.395   1.099  1.00  0.00    -0.237 OA
ATOM     93  O   UNL     1      -2.148  15.988   2.965  1.00  0.00    -0.237 OA
ATOM     94  O   UNL     1      -0.594  16.643   1.169  1.00  0.00    -0.744 OA
ENDBRANCH  90  91
ENDBRANCH  58  83
ENDBRANCH  32  33
ENDBRANCH  25  27
ENDBRANCH  24  25
ENDBRANCH  23  24
ENDBRANCH   1  23
TORSDOF 17
