REMARK SMILES O=C(CCCN1C(=O)/C(=C/c2ccccc2Cl)SC1=S)Nc1cccc(C(=O)OCCOC(=O)c2ccc(-c3c4nc(c(-c5c(F)cc(S(=O)(=O)[O-])cc5F)c5ccc([nH]5)c(-c5c(F)cc(S(=O)(=O)[O-])cc5F)c5nc(c(-c6c(F)cc(S(=O)(=O)[O-])cc6F)c6ccc3[nH]6)C=C5)C=C4)cc2)c1
REMARK SMILES IDX 29 1 27 2 28 3 26 4 22 5 23 6 101 7 24 8 25 9 21 10 1 11
REMARK SMILES IDX 2 12 3 14 4 15 5 16 6 17 7 18 19 19 8 20 9 21 18 22 20 23
REMARK SMILES IDX 10 24 11 25 12 26 16 27 13 28 15 29 17 30 14 31 30 32 31 33
REMARK SMILES IDX 32 34 33 35 34 36 35 37 36 38 100 39 37 40 99 41 38 42 39 43
REMARK SMILES IDX 40 44 93 45 41 46 98 47 92 48 94 49 42 50 97 51 91 52 90 53
REMARK SMILES IDX 43 55 77 56 56 57 76 58 57 59 60 60 75 61 95 62 58 63 59 64
REMARK SMILES IDX 74 66 96 67 61 68 44 69 45 70 54 71 46 72 47 73 53 74 55 75
REMARK SMILES IDX 48 76 49 77 50 78 51 79 52 80 78 81 79 82 88 83 80 84 81 85
REMARK SMILES IDX 87 86 89 87 82 88 83 89 84 90 85 91 86 92 62 93 63 94 72 95
REMARK SMILES IDX 64 96 65 97 71 98 73 99 66 100 67 101 68 102 69 103 70 104
REMARK H PARENT 21 13 94 54 60 65
REMARK Flexibility Score: inf
ROOT
ATOM      1  O   UNL     1      -1.094  -3.715  -0.919  1.00  0.00    -0.458 OA
ENDROOT
BRANCH   1   2
ATOM      2  C   UNL     1      -1.227  -3.785   0.429  1.00  0.00     0.338 C 
ATOM      3  O   UNL     1      -2.127  -4.335   1.043  1.00  0.00    -0.246 OA
BRANCH   2   4
ATOM      4  C   UNL     1      -0.030  -3.204   1.085  1.00  0.00     0.062 A 
ATOM      5  C   UNL     1       1.912  -1.768   1.075  1.00  0.00     0.042 A 
ATOM      6  C   UNL     1       2.380  -2.409   2.229  1.00  0.00     0.026 A 
ATOM      7  C   UNL     1       0.717  -2.184   0.488  1.00  0.00     0.041 A 
ATOM      8  C   UNL     1       1.603  -3.376   2.863  1.00  0.00     0.003 A 
ATOM      9  C   UNL     1       0.381  -3.747   2.310  1.00  0.00     0.016 A 
BRANCH   5  10
ATOM     10  N   UNL     1       2.701  -0.726   0.554  1.00  0.00    -0.326 N 
ATOM     11  O   UNL     1       1.074   0.521  -0.534  1.00  0.00    -0.275 OA
ATOM     12  C   UNL     1       2.243   0.325  -0.211  1.00  0.00     0.224 C 
ATOM     13  H   UNL     1       3.665  -0.750   0.753  1.00  0.00     0.169 HD
BRANCH  12  14
ATOM     14  C   UNL     1       3.326   1.286  -0.662  1.00  0.00     0.102 C 
BRANCH  14  15
ATOM     15  C   UNL     1       4.092   1.986   0.464  1.00  0.00     0.032 C 
BRANCH  15  16
ATOM     16  C   UNL     1       5.351   1.274   0.993  1.00  0.00     0.128 C 
BRANCH  16  17
ATOM     17  N   UNL     1       6.181   0.657  -0.044  1.00  0.00    -0.293 N 
ATOM     18  C   UNL     1       6.739   1.466  -1.022  1.00  0.00     0.266 C 
ATOM     19  C   UNL     1       6.517  -0.682  -0.100  1.00  0.00     0.148 C 
ATOM     20  O   UNL     1       6.660   2.685  -1.083  1.00  0.00    -0.268 OA
ATOM     21  C   UNL     1       7.462   0.641  -2.022  1.00  0.00     0.081 C 
ATOM     22  S   UNL     1       7.477  -1.004  -1.533  1.00  0.00    -0.054 SA
ATOM     23  S   UNL     1       6.117  -1.889   0.975  1.00  0.00    -0.052 S 
ATOM     24  C   UNL     1       7.977   1.163  -3.142  1.00  0.00     0.031 C 
BRANCH  24  25
ATOM     25  C   UNL     1       8.650   0.363  -4.173  1.00  0.00    -0.006 A 
ATOM     26  C   UNL     1      10.043   0.229  -4.102  1.00  0.00     0.010 A 
ATOM     27  C   UNL     1       7.948  -0.321  -5.181  1.00  0.00     0.048 A 
ATOM     28  C   UNL     1      10.723  -0.584  -5.011  1.00  0.00     0.001 A 
ATOM     29  C   UNL     1       8.632  -1.135  -6.087  1.00  0.00     0.021 A 
ATOM     30  Cl  UNL     1       6.230  -0.193  -5.342  1.00  0.00    -0.084 Cl
ATOM     31  C   UNL     1      10.018  -1.269  -5.998  1.00  0.00     0.002 A 
ENDBRANCH  24  25
ENDBRANCH  16  17
ENDBRANCH  15  16
ENDBRANCH  14  15
ENDBRANCH  12  14
ENDBRANCH   5  10
ENDBRANCH   2   4
ENDBRANCH   1   2
BRANCH   1  32
ATOM     32  C   UNL     1      -2.118  -4.362  -1.699  1.00  0.00     0.275 C 
BRANCH  32  33
ATOM     33  C   UNL     1      -1.588  -5.649  -2.335  1.00  0.00     0.275 C 
BRANCH  33  34
ATOM     34  O   UNL     1      -1.323  -6.636  -1.320  1.00  0.00    -0.458 OA
BRANCH  34  35
ATOM     35  C   UNL     1      -0.025  -6.986  -1.169  1.00  0.00     0.338 C 
ATOM     36  O   UNL     1       0.927  -6.627  -1.841  1.00  0.00    -0.246 OA
BRANCH  35  37
ATOM     37  C   UNL     1       0.119  -7.793   0.052  1.00  0.00     0.060 A 
ATOM     38  C   UNL     1       0.518  -7.128   1.209  1.00  0.00     0.016 A 
ATOM     39  C   UNL     1      -0.017  -9.180   0.049  1.00  0.00     0.016 A 
ATOM     40  C   UNL     1       0.790  -7.839   2.374  1.00  0.00     0.010 A 
ATOM     41  C   UNL     1       0.245  -9.898   1.227  1.00  0.00     0.010 A 
ATOM     42  C   UNL     1       0.670  -9.236   2.396  1.00  0.00    -0.014 A 
BRANCH  42  43
ATOM     43  C   UNL     1       1.087  -9.979   3.618  1.00  0.00     0.031 A 
ATOM     44  C   UNL     1       2.327 -10.836   3.592  1.00  0.00     0.074 A 
ATOM     45  C   UNL     1       0.411  -9.824   4.774  1.00  0.00     0.049 A 
ATOM     46  N   UNL     1       2.837 -11.585   4.538  1.00  0.00    -0.248 NA
ATOM     47  C   UNL     1       3.092 -10.855   2.336  1.00  0.00     0.031 C 
ATOM     48  C   UNL     1      -0.779  -8.990   4.952  1.00  0.00     0.029 A 
ATOM     49  N   UNL     1       0.640 -10.344   6.025  1.00  0.00    -0.354 N 
ATOM     50  C   UNL     1       3.962 -12.188   3.983  1.00  0.00     0.074 A 
ATOM     51  C   UNL     1       4.050 -11.729   2.613  1.00  0.00     0.031 C 
ATOM     52  C   UNL     1      -1.153  -9.026   6.242  1.00  0.00     0.029 A 
ATOM     53  C   UNL     1      -0.264  -9.926   6.973  1.00  0.00     0.049 A 
ATOM     54  H   UNL     1       1.383 -10.959   6.224  1.00  0.00     0.167 HD
ATOM     55  C   UNL     1       4.844 -13.039   4.562  1.00  0.00     0.037 A 
ATOM     56  C   UNL     1      -0.376 -10.241   8.279  1.00  0.00     0.037 A 
ATOM     57  C   UNL     1       4.781 -13.464   5.938  1.00  0.00     0.049 A 
ATOM     58  C   UNL     1       0.609 -11.200   8.895  1.00  0.00     0.074 A 
ATOM     59  C   UNL     1       5.624 -14.333   6.611  1.00  0.00     0.029 A 
ATOM     60  N   UNL     1       3.833 -13.040   6.857  1.00  0.00    -0.354 N 
ATOM     61  N   UNL     1       1.636 -11.798   8.340  1.00  0.00    -0.248 NA
ATOM     62  C   UNL     1       0.414 -11.530  10.314  1.00  0.00     0.031 C 
ATOM     63  C   UNL     1       5.171 -14.453   7.931  1.00  0.00     0.029 A 
ATOM     64  C   UNL     1       4.070 -13.628   8.090  1.00  0.00     0.049 A 
ATOM     65  H   UNL     1       3.100 -12.413   6.662  1.00  0.00     0.167 HD
ATOM     66  C   UNL     1       2.218 -12.563   9.345  1.00  0.00     0.074 A 
ATOM     67  C   UNL     1       1.443 -12.333  10.547  1.00  0.00     0.031 C 
ATOM     68  C   UNL     1       3.292 -13.389   9.279  1.00  0.00     0.037 A 
BRANCH  55  69
ATOM     69  C   UNL     1       5.947 -13.589   3.700  1.00  0.00     0.058 A 
ATOM     70  C   UNL     1       7.038 -12.802   3.299  1.00  0.00     0.135 A 
ATOM     71  C   UNL     1       5.926 -14.934   3.295  1.00  0.00     0.135 A 
ATOM     72  F   UNL     1       7.099 -11.506   3.643  1.00  0.00    -0.206 F 
ATOM     73  C   UNL     1       8.057 -13.322   2.506  1.00  0.00     0.059 A 
ATOM     74  C   UNL     1       6.947 -15.481   2.523  1.00  0.00     0.059 A 
ATOM     75  F   UNL     1       4.906 -15.731   3.650  1.00  0.00    -0.206 F 
ATOM     76  C   UNL     1       8.002 -14.663   2.122  1.00  0.00     0.060 A 
BRANCH  76  77
ATOM     77  S   UNL     1       9.333 -15.327   1.098  1.00  0.00     0.124 S 
ATOM     78  O   UNL     1       9.018 -14.744  -0.202  1.00  0.00    -0.237 OA
ATOM     79  O   UNL     1      10.526 -14.802   1.755  1.00  0.00    -0.237 OA
ATOM     80  O   UNL     1       9.151 -16.772   1.199  1.00  0.00    -0.744 OA
ENDBRANCH  76  77
ENDBRANCH  55  69
BRANCH  56  81
ATOM     81  C   UNL     1      -1.474  -9.660   9.099  1.00  0.00     0.058 A 
ATOM     82  C   UNL     1      -1.207  -8.739  10.123  1.00  0.00     0.135 A 
ATOM     83  C   UNL     1      -2.811 -10.029   8.885  1.00  0.00     0.135 A 
ATOM     84  F   UNL     1       0.057  -8.365  10.375  1.00  0.00    -0.206 F 
ATOM     85  C   UNL     1      -2.223  -8.219  10.919  1.00  0.00     0.059 A 
ATOM     86  C   UNL     1      -3.847  -9.501   9.649  1.00  0.00     0.059 A 
ATOM     87  F   UNL     1      -3.122 -10.901   7.913  1.00  0.00    -0.206 F 
ATOM     88  C   UNL     1      -3.541  -8.607  10.674  1.00  0.00     0.060 A 
BRANCH  88  89
ATOM     89  S   UNL     1      -4.861  -7.900  11.684  1.00  0.00     0.124 S 
ATOM     90  O   UNL     1      -4.727  -8.666  12.918  1.00  0.00    -0.237 OA
ATOM     91  O   UNL     1      -4.474  -6.495  11.761  1.00  0.00    -0.237 OA
ATOM     92  O   UNL     1      -6.062  -8.169  10.899  1.00  0.00    -0.744 OA
ENDBRANCH  88  89
ENDBRANCH  56  81
BRANCH  68  93
ATOM     93  C   UNL     1       3.708 -14.072  10.552  1.00  0.00     0.058 A 
ATOM     94  C   UNL     1       2.958 -15.123  11.104  1.00  0.00     0.135 A 
ATOM     95  C   UNL     1       4.869 -13.669  11.230  1.00  0.00     0.135 A 
ATOM     96  F   UNL     1       1.838 -15.545  10.497  1.00  0.00    -0.206 F 
ATOM     97  C   UNL     1       3.321 -15.720  12.308  1.00  0.00     0.059 A 
ATOM     98  C   UNL     1       5.264 -14.269  12.422  1.00  0.00     0.059 A 
ATOM     99  F   UNL     1       5.630 -12.678  10.739  1.00  0.00    -0.206 F 
ATOM    100  C   UNL     1       4.471 -15.279  12.964  1.00  0.00     0.060 A 
BRANCH 100 101
ATOM    101  S   UNL     1       4.927 -16.047  14.534  1.00  0.00     0.124 S 
ATOM    102  O   UNL     1       4.003 -15.397  15.457  1.00  0.00    -0.237 OA
ATOM    103  O   UNL     1       4.676 -17.463  14.278  1.00  0.00    -0.237 OA
ATOM    104  O   UNL     1       6.332 -15.686  14.691  1.00  0.00    -0.744 OA
ENDBRANCH 100 101
ENDBRANCH  68  93
ENDBRANCH  42  43
ENDBRANCH  35  37
ENDBRANCH  34  35
ENDBRANCH  33  34
ENDBRANCH  32  33
ENDBRANCH   1  32
TORSDOF 20
