REMARK SMILES CN1C(=O)N(CC(=O)OCCOC(=O)c2ccc(-c3c4nc(c(-c5c(F)cc(S(=O)(=O)[O-])cc5F)c5ccc([nH]5)c(-c5c(F)cc(S(=O)(=O)[O-])cc5F)c5nc(c(-c6c(F)cc(S(=O)(=O)[O-])cc6F)c6ccc3[nH]6)C=C5)C=C4)cc2)C(=O)C12CCCCC2
REMARK SMILES IDX 11 1 10 2 9 3 7 4 8 5 6 6 5 7 1 8 2 9 3 10 83 11 4 12 81 13
REMARK SMILES IDX 84 14 88 15 82 16 85 17 87 18 86 19 12 20 13 21 14 22 15 23
REMARK SMILES IDX 16 24 80 25 17 26 79 27 18 28 19 29 20 30 73 31 21 32 78 33
REMARK SMILES IDX 72 34 74 35 22 36 77 37 71 38 70 39 23 41 57 42 36 43 56 44
REMARK SMILES IDX 37 45 40 46 55 47 75 48 38 49 39 50 54 52 76 53 41 54 24 55
REMARK SMILES IDX 25 56 34 57 26 58 27 59 33 60 35 61 28 62 29 63 30 64 31 65
REMARK SMILES IDX 32 66 58 67 59 68 68 69 60 70 61 71 67 72 69 73 62 74 63 75
REMARK SMILES IDX 64 76 65 77 66 78 42 79 43 80 52 81 44 82 45 83 51 84 53 85
REMARK SMILES IDX 46 86 47 87 48 88 49 89 50 90
REMARK H PARENT 74 40 40 51
REMARK Flexibility Score: inf
ROOT
ATOM      1  C   UNL     1       1.946   5.113   2.553  1.00  0.00     0.275 C 
ENDROOT
BRANCH   1   2
ATOM      2  C   UNL     1       0.503   4.890   2.998  1.00  0.00     0.274 C 
BRANCH   2   3
ATOM      3  O   UNL     1      -0.235   4.222   1.956  1.00  0.00    -0.461 OA
BRANCH   3   4
ATOM      4  C   UNL     1      -1.003   5.019   1.154  1.00  0.00     0.326 C 
ATOM      5  O   UNL     1      -1.220   6.208   1.361  1.00  0.00    -0.250 OA
BRANCH   4   6
ATOM      6  C   UNL     1      -1.546   4.293  -0.076  1.00  0.00     0.253 C 
BRANCH   6   7
ATOM      7  N   UNL     1      -1.164   2.903  -0.084  1.00  0.00    -0.251 N 
ATOM      8  C   UNL     1       1.271   0.273  -0.512  1.00  0.00     0.150 C 
ATOM      9  N   UNL     1       0.122   1.095  -0.195  1.00  0.00    -0.313 N 
ATOM     10  C   UNL     1       0.045   2.443  -0.505  1.00  0.00     0.327 C 
ATOM     11  C   UNL     1      -1.090   0.602   0.464  1.00  0.00     0.124 C 
ATOM     12  O   UNL     1       0.903   3.111  -1.057  1.00  0.00    -0.248 OA
ATOM     13  C   UNL     1      -1.933   1.895   0.405  1.00  0.00     0.257 C 
ATOM     14  C   UNL     1      -1.746  -0.548  -0.304  1.00  0.00     0.039 C 
ATOM     15  C   UNL     1      -0.843   0.261   1.942  1.00  0.00     0.039 C 
ATOM     16  O   UNL     1      -3.088   2.021   0.790  1.00  0.00    -0.272 OA
ATOM     17  C   UNL     1      -2.977  -1.115   0.402  1.00  0.00     0.003 C 
ATOM     18  C   UNL     1      -2.093  -0.287   2.634  1.00  0.00     0.003 C 
ATOM     19  C   UNL     1      -2.704  -1.453   1.865  1.00  0.00     0.000 C 
ENDBRANCH   6   7
ENDBRANCH   4   6
ENDBRANCH   3   4
ENDBRANCH   2   3
ENDBRANCH   1   2
BRANCH   1  20
ATOM     20  O   UNL     1       1.941   5.848   1.319  1.00  0.00    -0.458 OA
BRANCH  20  21
ATOM     21  C   UNL     1       2.755   5.368   0.348  1.00  0.00     0.338 C 
ATOM     22  O   UNL     1       3.556   4.456   0.451  1.00  0.00    -0.246 OA
BRANCH  21  23
ATOM     23  C   UNL     1       2.601   6.206  -0.860  1.00  0.00     0.060 A 
ATOM     24  C   UNL     1       1.343   6.595  -1.331  1.00  0.00     0.016 A 
ATOM     25  C   UNL     1       3.751   6.590  -1.547  1.00  0.00     0.016 A 
ATOM     26  C   UNL     1       1.228   7.325  -2.514  1.00  0.00     0.010 A 
ATOM     27  C   UNL     1       3.640   7.385  -2.687  1.00  0.00     0.010 A 
ATOM     28  C   UNL     1       2.378   7.745  -3.194  1.00  0.00    -0.014 A 
BRANCH  28  29
ATOM     29  C   UNL     1       2.301   8.543  -4.444  1.00  0.00     0.031 A 
ATOM     30  C   UNL     1       2.874   7.977  -5.715  1.00  0.00     0.074 A 
ATOM     31  C   UNL     1       1.781   9.786  -4.431  1.00  0.00     0.049 A 
ATOM     32  N   UNL     1       3.163   8.584  -6.836  1.00  0.00    -0.248 NA
ATOM     33  C   UNL     1       3.175   6.535  -5.716  1.00  0.00     0.031 C 
ATOM     34  C   UNL     1       1.143  10.430  -3.280  1.00  0.00     0.029 A 
ATOM     35  N   UNL     1       1.729  10.743  -5.415  1.00  0.00    -0.354 N 
ATOM     36  C   UNL     1       3.709   7.610  -7.664  1.00  0.00     0.074 A 
ATOM     37  C   UNL     1       3.726   6.374  -6.912  1.00  0.00     0.031 C 
ATOM     38  C   UNL     1       0.770  11.674  -3.622  1.00  0.00     0.029 A 
ATOM     39  C   UNL     1       1.210  11.942  -4.986  1.00  0.00     0.049 A 
ATOM     40  H   UNL     1       2.035  10.585  -6.337  1.00  0.00     0.167 HD
ATOM     41  C   UNL     1       4.153   7.740  -8.937  1.00  0.00     0.037 A 
ATOM     42  C   UNL     1       1.144  13.138  -5.604  1.00  0.00     0.037 A 
ATOM     43  C   UNL     1       4.111   8.973  -9.680  1.00  0.00     0.049 A 
ATOM     44  C   UNL     1       1.715  13.278  -6.990  1.00  0.00     0.074 A 
ATOM     45  C   UNL     1       4.559   9.220 -10.966  1.00  0.00     0.029 A 
ATOM     46  N   UNL     1       3.575  10.162  -9.207  1.00  0.00    -0.354 N 
ATOM     47  N   UNL     1       2.281  12.366  -7.743  1.00  0.00    -0.248 NA
ATOM     48  C   UNL     1       1.653  14.612  -7.605  1.00  0.00     0.031 C 
ATOM     49  C   UNL     1       4.316  10.565 -11.262  1.00  0.00     0.029 A 
ATOM     50  C   UNL     1       3.680  11.145 -10.176  1.00  0.00     0.049 A 
ATOM     51  H   UNL     1       3.179  10.287  -8.315  1.00  0.00     0.167 HD
ATOM     52  C   UNL     1       2.609  13.006  -8.933  1.00  0.00     0.074 A 
ATOM     53  C   UNL     1       2.180  14.383  -8.800  1.00  0.00     0.031 C 
ATOM     54  C   UNL     1       3.210  12.499 -10.036  1.00  0.00     0.037 A 
BRANCH  41  55
ATOM     55  C   UNL     1       4.733   6.526  -9.607  1.00  0.00     0.058 A 
ATOM     56  C   UNL     1       3.920   5.472 -10.050  1.00  0.00     0.135 A 
ATOM     57  C   UNL     1       6.112   6.440  -9.859  1.00  0.00     0.135 A 
ATOM     58  F   UNL     1       2.598   5.496  -9.818  1.00  0.00    -0.206 F 
ATOM     59  C   UNL     1       4.454   4.368 -10.707  1.00  0.00     0.059 A 
ATOM     60  C   UNL     1       6.666   5.356 -10.536  1.00  0.00     0.059 A 
ATOM     61  F   UNL     1       6.936   7.420  -9.456  1.00  0.00    -0.206 F 
ATOM     62  C   UNL     1       5.829   4.320 -10.947  1.00  0.00     0.060 A 
BRANCH  62  63
ATOM     63  S   UNL     1       6.503   2.891 -11.820  1.00  0.00     0.124 S 
ATOM     64  O   UNL     1       6.427   1.858 -10.792  1.00  0.00    -0.237 OA
ATOM     65  O   UNL     1       5.576   2.740 -12.938  1.00  0.00    -0.237 OA
ATOM     66  O   UNL     1       7.851   3.317 -12.182  1.00  0.00    -0.744 OA
ENDBRANCH  62  63
ENDBRANCH  41  55
BRANCH  42  67
ATOM     67  C   UNL     1       0.554  14.313  -4.906  1.00  0.00     0.058 A 
ATOM     68  C   UNL     1      -0.654  14.875  -5.341  1.00  0.00     0.135 A 
ATOM     69  C   UNL     1       1.193  14.907  -3.806  1.00  0.00     0.135 A 
ATOM     70  F   UNL     1      -1.299  14.348  -6.394  1.00  0.00    -0.206 F 
ATOM     71  C   UNL     1      -1.197  16.001  -4.730  1.00  0.00     0.059 A 
ATOM     72  C   UNL     1       0.656  16.017  -3.161  1.00  0.00     0.059 A 
ATOM     73  F   UNL     1       2.345  14.400  -3.341  1.00  0.00    -0.206 F 
ATOM     74  C   UNL     1      -0.530  16.568  -3.642  1.00  0.00     0.060 A 
BRANCH  74  75
ATOM     75  S   UNL     1      -1.246  18.022  -2.845  1.00  0.00     0.124 S 
ATOM     76  O   UNL     1      -0.903  19.073  -3.796  1.00  0.00    -0.237 OA
ATOM     77  O   UNL     1      -2.660  17.668  -2.766  1.00  0.00    -0.237 OA
ATOM     78  O   UNL     1      -0.549  18.077  -1.563  1.00  0.00    -0.744 OA
ENDBRANCH  74  75
ENDBRANCH  42  67
BRANCH  54  79
ATOM     79  C   UNL     1       3.378  13.411 -11.218  1.00  0.00     0.058 A 
ATOM     80  C   UNL     1       4.379  14.391 -11.258  1.00  0.00     0.135 A 
ATOM     81  C   UNL     1       2.577  13.237 -12.358  1.00  0.00     0.135 A 
ATOM     82  F   UNL     1       5.164  14.601 -10.190  1.00  0.00    -0.206 F 
ATOM     83  C   UNL     1       4.580  15.173 -12.391  1.00  0.00     0.059 A 
ATOM     84  C   UNL     1       2.775  13.992 -13.509  1.00  0.00     0.059 A 
ATOM     85  F   UNL     1       1.609  12.307 -12.369  1.00  0.00    -0.206 F 
ATOM     86  C   UNL     1       3.778  14.960 -13.514  1.00  0.00     0.060 A 
BRANCH  86  87
ATOM     87  S   UNL     1       4.096  15.931 -15.003  1.00  0.00     0.124 S 
ATOM     88  O   UNL     1       3.541  17.229 -14.634  1.00  0.00    -0.237 OA
ATOM     89  O   UNL     1       5.551  15.872 -15.111  1.00  0.00    -0.237 OA
ATOM     90  O   UNL     1       3.368  15.209 -16.042  1.00  0.00    -0.744 OA
ENDBRANCH  86  87
ENDBRANCH  54  79
ENDBRANCH  28  29
ENDBRANCH  21  23
ENDBRANCH  20  21
ENDBRANCH   1  20
TORSDOF 15
