REMARK SMILES COC[C@@H](C)N(C)c1nc(C(C)C)c(C(=O)OCCOC(=O)c2ccc(-c3c4nc(c(-c5c(F)cc(S(=O)(=O)[O-])cc5F)c5ccc([nH]5)c(-c5c(F)cc(S(=O)(=O)[O-])cc5F)c5nc(c(-c6c(F)cc(S(=O)(=O)[O-])cc6F)c6ccc3[nH]6)C=C5)C=C4)cc2)s1
REMARK SMILES IDX 18 1 17 2 15 3 16 4 14 5 8 6 9 7 89 8 10 9 6 10 7 11 4 12
REMARK SMILES IDX 5 13 3 14 2 15 1 16 11 17 12 18 13 19 19 20 20 21 21 22
REMARK SMILES IDX 22 23 23 24 24 25 88 26 25 27 87 28 26 29 27 30 28 31 81 32
REMARK SMILES IDX 29 33 86 34 80 35 82 36 30 37 85 38 79 39 78 40 31 42 65 43
REMARK SMILES IDX 44 44 64 45 45 46 48 47 63 48 83 49 46 50 47 51 62 53 84 54
REMARK SMILES IDX 49 55 32 56 33 57 42 58 34 59 35 60 41 61 43 62 36 63 37 64
REMARK SMILES IDX 38 65 39 66 40 67 66 68 67 69 76 70 68 71 69 72 75 73 77 74
REMARK SMILES IDX 70 75 71 76 72 77 73 78 74 79 50 80 51 81 60 82 52 83 53 84
REMARK SMILES IDX 59 85 61 86 54 87 55 88 56 89 57 90 58 91
REMARK H PARENT 82 41 48 52
REMARK Flexibility Score: inf
ROOT
ATOM      1  C   UNL     1       8.301  -2.851   5.426  1.00  0.00     0.275 C 
ENDROOT
BRANCH   1   2
ATOM      2  O   UNL     1       7.119  -2.139   5.008  1.00  0.00    -0.458 OA
BRANCH   2   3
ATOM      3  C   UNL     1       6.151  -2.838   4.358  1.00  0.00     0.350 C 
ATOM      4  O   UNL     1       6.250  -4.030   4.074  1.00  0.00    -0.245 OA
BRANCH   3   5
ATOM      5  C   UNL     1       4.986  -2.011   4.126  1.00  0.00     0.137 A 
ATOM      6  C   UNL     1       2.657  -1.264   3.934  1.00  0.00     0.186 A 
ATOM      7  N   UNL     1       3.481  -0.250   3.804  1.00  0.00    -0.224 NA
ATOM      8  S   UNL     1       3.453  -2.780   4.020  1.00  0.00    -0.089 S 
ATOM      9  C   UNL     1       4.814  -0.650   3.919  1.00  0.00     0.071 A 
BRANCH   6  10
ATOM     10  N   UNL     1       1.300  -1.167   3.855  1.00  0.00    -0.346 N 
ATOM     11  C   UNL     1       0.479  -1.781   4.890  1.00  0.00     0.146 C 
BRANCH  10  12
ATOM     12  C   UNL     1       0.681  -0.910   2.542  1.00  0.00     0.107 C 
ATOM     13  C   UNL     1       0.982  -2.068   1.584  1.00  0.00     0.033 C 
BRANCH  12  14
ATOM     14  C   UNL     1       1.090   0.478   1.997  1.00  0.00     0.184 C 
BRANCH  14  15
ATOM     15  O   UNL     1       0.382   0.872   0.816  1.00  0.00    -0.383 OA
ATOM     16  C   UNL     1       1.007   0.454  -0.390  1.00  0.00     0.194 C 
ENDBRANCH  14  15
ENDBRANCH  12  14
ENDBRANCH  10  12
ENDBRANCH   6  10
BRANCH   9  17
ATOM     17  C   UNL     1       5.846   0.432   3.733  1.00  0.00     0.034 C 
ATOM     18  C   UNL     1       6.443   0.923   5.050  1.00  0.00     0.014 C 
ATOM     19  C   UNL     1       6.914   0.058   2.701  1.00  0.00     0.014 C 
ENDBRANCH   9  17
ENDBRANCH   3   5
ENDBRANCH   2   3
ENDBRANCH   1   2
BRANCH   1  20
ATOM     20  C   UNL     1       8.345  -2.989   6.950  1.00  0.00     0.275 C 
BRANCH  20  21
ATOM     21  O   UNL     1       7.375  -3.948   7.407  1.00  0.00    -0.458 OA
BRANCH  21  22
ATOM     22  C   UNL     1       6.184  -3.418   7.764  1.00  0.00     0.338 C 
ATOM     23  O   UNL     1       5.880  -2.237   7.793  1.00  0.00    -0.246 OA
BRANCH  22  24
ATOM     24  C   UNL     1       5.202  -4.495   7.939  1.00  0.00     0.060 A 
ATOM     25  C   UNL     1       4.299  -4.685   6.901  1.00  0.00     0.016 A 
ATOM     26  C   UNL     1       5.076  -5.220   9.117  1.00  0.00     0.016 A 
ATOM     27  C   UNL     1       3.206  -5.522   7.045  1.00  0.00     0.010 A 
ATOM     28  C   UNL     1       4.017  -6.130   9.239  1.00  0.00     0.010 A 
ATOM     29  C   UNL     1       3.055  -6.264   8.217  1.00  0.00    -0.014 A 
BRANCH  29  30
ATOM     30  C   UNL     1       1.860  -7.129   8.382  1.00  0.00     0.031 A 
ATOM     31  C   UNL     1       0.876  -6.836   9.480  1.00  0.00     0.074 A 
ATOM     32  C   UNL     1       1.638  -8.147   7.527  1.00  0.00     0.049 A 
ATOM     33  N   UNL     1      -0.155  -7.535   9.878  1.00  0.00    -0.248 NA
ATOM     34  C   UNL     1       1.089  -5.594  10.238  1.00  0.00     0.031 C 
ATOM     35  C   UNL     1       2.475  -8.481   6.372  1.00  0.00     0.029 A 
ATOM     36  N   UNL     1       0.637  -9.083   7.489  1.00  0.00    -0.354 N 
ATOM     37  C   UNL     1      -0.681  -6.847  10.965  1.00  0.00     0.074 A 
ATOM     38  C   UNL     1       0.156  -5.685  11.174  1.00  0.00     0.031 C 
ATOM     39  C   UNL     1       1.937  -9.524   5.724  1.00  0.00     0.029 A 
ATOM     40  C   UNL     1       0.769  -9.988   6.463  1.00  0.00     0.049 A 
ATOM     41  H   UNL     1      -0.106  -9.105   8.135  1.00  0.00     0.167 HD
ATOM     42  C   UNL     1      -1.763  -7.161  11.719  1.00  0.00     0.037 A 
ATOM     43  C   UNL     1       0.054 -11.091   6.171  1.00  0.00     0.037 A 
ATOM     44  C   UNL     1      -2.597  -8.311  11.478  1.00  0.00     0.049 A 
ATOM     45  C   UNL     1      -1.094 -11.465   7.066  1.00  0.00     0.074 A 
ATOM     46  C   UNL     1      -3.721  -8.722  12.172  1.00  0.00     0.029 A 
ATOM     47  N   UNL     1      -2.394  -9.238  10.463  1.00  0.00    -0.354 N 
ATOM     48  N   UNL     1      -1.560 -10.832   8.116  1.00  0.00    -0.248 NA
ATOM     49  C   UNL     1      -1.804 -12.709   6.746  1.00  0.00     0.031 C 
ATOM     50  C   UNL     1      -4.163  -9.927  11.613  1.00  0.00     0.029 A 
ATOM     51  C   UNL     1      -3.355 -10.235  10.529  1.00  0.00     0.049 A 
ATOM     52  H   UNL     1      -1.673  -9.194   9.795  1.00  0.00     0.167 HD
ATOM     53  C   UNL     1      -2.638 -11.585   8.567  1.00  0.00     0.074 A 
ATOM     54  C   UNL     1      -2.756 -12.717   7.670  1.00  0.00     0.031 C 
ATOM     55  C   UNL     1      -3.457 -11.356   9.624  1.00  0.00     0.037 A 
BRANCH  42  56
ATOM     56  C   UNL     1      -2.056  -6.279  12.906  1.00  0.00     0.058 A 
ATOM     57  C   UNL     1      -2.477  -4.946  12.768  1.00  0.00     0.135 A 
ATOM     58  C   UNL     1      -1.878  -6.773  14.210  1.00  0.00     0.135 A 
ATOM     59  F   UNL     1      -2.651  -4.414  11.548  1.00  0.00    -0.206 F 
ATOM     60  C   UNL     1      -2.649  -4.118  13.875  1.00  0.00     0.059 A 
ATOM     61  C   UNL     1      -2.080  -5.974  15.331  1.00  0.00     0.059 A 
ATOM     62  F   UNL     1      -1.482  -8.040  14.405  1.00  0.00    -0.206 F 
ATOM     63  C   UNL     1      -2.437  -4.639  15.152  1.00  0.00     0.060 A 
BRANCH  63  64
ATOM     64  S   UNL     1      -2.608  -3.541  16.575  1.00  0.00     0.124 S 
ATOM     65  O   UNL     1      -1.408  -2.718  16.451  1.00  0.00    -0.237 OA
ATOM     66  O   UNL     1      -3.870  -2.864  16.298  1.00  0.00    -0.237 OA
ATOM     67  O   UNL     1      -2.626  -4.456  17.712  1.00  0.00    -0.744 OA
ENDBRANCH  63  64
ENDBRANCH  42  56
BRANCH  43  68
ATOM     68  C   UNL     1       0.416 -11.914   4.986  1.00  0.00     0.058 A 
ATOM     69  C   UNL     1      -0.417 -11.954   3.860  1.00  0.00     0.135 A 
ATOM     70  C   UNL     1       1.623 -12.630   4.931  1.00  0.00     0.135 A 
ATOM     71  F   UNL     1      -1.587 -11.296   3.867  1.00  0.00    -0.206 F 
ATOM     72  C   UNL     1      -0.067 -12.667   2.718  1.00  0.00     0.059 A 
ATOM     73  C   UNL     1       2.010 -13.327   3.790  1.00  0.00     0.059 A 
ATOM     74  F   UNL     1       2.462 -12.617   5.979  1.00  0.00    -0.206 F 
ATOM     75  C   UNL     1       1.156 -13.341   2.689  1.00  0.00     0.060 A 
BRANCH  75  76
ATOM     76  S   UNL     1       1.637 -14.192   1.170  1.00  0.00     0.124 S 
ATOM     77  O   UNL     1       0.704 -15.312   1.151  1.00  0.00    -0.237 OA
ATOM     78  O   UNL     1       1.416 -13.160   0.161  1.00  0.00    -0.237 OA
ATOM     79  O   UNL     1       3.035 -14.539   1.406  1.00  0.00    -0.744 OA
ENDBRANCH  75  76
ENDBRANCH  43  68
BRANCH  55  80
ATOM     80  C   UNL     1      -4.585 -12.328   9.844  1.00  0.00     0.058 A 
ATOM     81  C   UNL     1      -4.362 -13.631  10.315  1.00  0.00     0.135 A 
ATOM     82  C   UNL     1      -5.913 -11.928   9.622  1.00  0.00     0.135 A 
ATOM     83  F   UNL     1      -3.111 -14.067  10.533  1.00  0.00    -0.206 F 
ATOM     84  C   UNL     1      -5.416 -14.512  10.536  1.00  0.00     0.059 A 
ATOM     85  C   UNL     1      -6.983 -12.782   9.867  1.00  0.00     0.059 A 
ATOM     86  F   UNL     1      -6.182 -10.690   9.179  1.00  0.00    -0.206 F 
ATOM     87  C   UNL     1      -6.724 -14.076  10.313  1.00  0.00     0.060 A 
BRANCH  87  88
ATOM     88  S   UNL     1      -8.083 -15.218  10.639  1.00  0.00     0.124 S 
ATOM     89  O   UNL     1      -7.954 -16.155   9.528  1.00  0.00    -0.237 OA
ATOM     90  O   UNL     1      -7.738 -15.744  11.957  1.00  0.00    -0.237 OA
ATOM     91  O   UNL     1      -9.264 -14.360  10.604  1.00  0.00    -0.744 OA
ENDBRANCH  87  88
ENDBRANCH  55  80
ENDBRANCH  29  30
ENDBRANCH  22  24
ENDBRANCH  21  22
ENDBRANCH  20  21
ENDBRANCH   1  20
TORSDOF 19
