REMARK SMILES CCc1nn(-c2ccc(Cl)nn2)c(CC)c1CC(=O)OCCOC(=O)c1ccc(-c2c3nc(c(-c4c(F)cc(S(=O)(=O)[O-])cc4F)c4ccc([nH]4)c(-c4c(F)cc(S(=O)(=O)[O-])cc4F)c4nc(c(-c5c(F)cc(S(=O)(=O)[O-])cc5F)c5ccc2[nH]5)C=C4)C=C3)cc1
REMARK SMILES IDX 22 1 21 2 20 3 18 4 19 5 17 6 16 7 3 8 4 9 5 10 13 11 2 12
REMARK SMILES IDX 1 13 6 14 7 15 12 16 8 17 11 18 9 19 10 20 14 21 15 22 23 23
REMARK SMILES IDX 24 24 25 25 26 26 27 27 91 28 28 29 90 30 29 31 30 32 31 33
REMARK SMILES IDX 84 34 32 35 89 36 83 37 85 38 33 39 88 40 82 41 81 42 34 44
REMARK SMILES IDX 68 45 47 46 67 47 48 48 51 49 66 50 86 51 49 52 50 53 65 55
REMARK SMILES IDX 87 56 52 57 35 58 36 59 45 60 37 61 38 62 44 63 46 64 39 65
REMARK SMILES IDX 40 66 41 67 42 68 43 69 69 70 70 71 79 72 71 73 72 74 78 75
REMARK SMILES IDX 80 76 73 77 74 78 75 79 76 80 77 81 53 82 54 83 63 84 55 85
REMARK SMILES IDX 56 86 62 87 64 88 57 89 58 90 59 91 60 92 61 93
REMARK H PARENT 85 43 51 54
REMARK Flexibility Score: inf
ROOT
ATOM      1  C   UNL     1       2.643   2.955  -4.867  1.00  0.00     0.275 C 
ENDROOT
BRANCH   1   2
ATOM      2  C   UNL     1       2.210   1.712  -4.097  1.00  0.00     0.274 C 
BRANCH   2   3
ATOM      3  O   UNL     1       2.179   2.064  -2.704  1.00  0.00    -0.462 OA
BRANCH   3   4
ATOM      4  C   UNL     1       2.731   1.179  -1.832  1.00  0.00     0.310 C 
ATOM      5  O   UNL     1       3.042   0.025  -2.108  1.00  0.00    -0.252 OA
BRANCH   4   6
ATOM      6  C   UNL     1       2.986   1.816  -0.479  1.00  0.00     0.162 C 
BRANCH   6   7
ATOM      7  C   UNL     1       1.941   2.808  -0.060  1.00  0.00     0.008 A 
ATOM      8  C   UNL     1       0.680   2.559   0.558  1.00  0.00     0.067 A 
ATOM      9  N   UNL     1       0.006   3.696   0.787  1.00  0.00    -0.171 NA
ATOM     10  N   UNL     1       0.847   4.683   0.410  1.00  0.00    -0.217 N 
ATOM     11  C   UNL     1       2.007   4.192  -0.158  1.00  0.00     0.050 A 
BRANCH   8  12
ATOM     12  C   UNL     1       0.073   1.268   1.022  1.00  0.00     0.055 C 
ATOM     13  C   UNL     1       0.253   0.076   0.097  1.00  0.00     0.011 C 
ENDBRANCH   8  12
BRANCH  10  14
ATOM     14  C   UNL     1       0.550   6.050   0.628  1.00  0.00     0.176 A 
ATOM     15  C   UNL     1       0.059   6.796  -0.438  1.00  0.00     0.054 A 
ATOM     16  N   UNL     1       1.102   6.632   1.719  1.00  0.00    -0.129 NA
ATOM     17  C   UNL     1       0.192   8.183  -0.386  1.00  0.00     0.047 A 
ATOM     18  N   UNL     1       1.190   7.997   1.783  1.00  0.00    -0.136 NA
ATOM     19  C   UNL     1       0.771   8.739   0.738  1.00  0.00     0.151 A 
ATOM     20  Cl  UNL     1       1.061  10.417   0.856  1.00  0.00    -0.060 Cl
ENDBRANCH  10  14
BRANCH  11  21
ATOM     21  C   UNL     1       3.081   5.086  -0.696  1.00  0.00     0.053 C 
ATOM     22  C   UNL     1       2.648   5.829  -1.955  1.00  0.00     0.011 C 
ENDBRANCH  11  21
ENDBRANCH   6   7
ENDBRANCH   4   6
ENDBRANCH   3   4
ENDBRANCH   2   3
ENDBRANCH   1   2
BRANCH   1  23
ATOM     23  O   UNL     1       4.065   3.040  -5.084  1.00  0.00    -0.458 OA
BRANCH  23  24
ATOM     24  C   UNL     1       4.826   3.234  -3.976  1.00  0.00     0.338 C 
ATOM     25  O   UNL     1       4.912   2.488  -3.028  1.00  0.00    -0.246 OA
BRANCH  24  26
ATOM     26  C   UNL     1       5.430   4.584  -4.009  1.00  0.00     0.060 A 
ATOM     27  C   UNL     1       5.899   5.105  -2.798  1.00  0.00     0.016 A 
ATOM     28  C   UNL     1       5.388   5.379  -5.159  1.00  0.00     0.016 A 
ATOM     29  C   UNL     1       6.180   6.459  -2.705  1.00  0.00     0.010 A 
ATOM     30  C   UNL     1       5.744   6.717  -5.080  1.00  0.00     0.010 A 
ATOM     31  C   UNL     1       6.090   7.272  -3.844  1.00  0.00    -0.014 A 
BRANCH  31  32
ATOM     32  C   UNL     1       6.624   8.635  -3.744  1.00  0.00     0.031 A 
ATOM     33  C   UNL     1       8.024   8.684  -3.214  1.00  0.00     0.074 A 
ATOM     34  C   UNL     1       6.045   9.726  -4.284  1.00  0.00     0.049 A 
ATOM     35  N   UNL     1       8.509   9.389  -2.243  1.00  0.00    -0.248 NA
ATOM     36  C   UNL     1       8.975   7.701  -3.771  1.00  0.00     0.031 C 
ATOM     37  C   UNL     1       4.825   9.786  -5.092  1.00  0.00     0.029 A 
ATOM     38  N   UNL     1       6.526  11.001  -4.361  1.00  0.00    -0.354 N 
ATOM     39  C   UNL     1       9.867   9.076  -2.196  1.00  0.00     0.074 A 
ATOM     40  C   UNL     1      10.055   7.917  -3.027  1.00  0.00     0.031 C 
ATOM     41  C   UNL     1       4.814  10.944  -5.786  1.00  0.00     0.029 A 
ATOM     42  C   UNL     1       5.960  11.746  -5.389  1.00  0.00     0.049 A 
ATOM     43  H   UNL     1       7.208  11.359  -3.748  1.00  0.00     0.167 HD
ATOM     44  C   UNL     1      10.799   9.915  -1.670  1.00  0.00     0.037 A 
ATOM     45  C   UNL     1       6.466  12.873  -5.951  1.00  0.00     0.037 A 
ATOM     46  C   UNL     1      10.224  10.874  -0.770  1.00  0.00     0.049 A 
ATOM     47  C   UNL     1       7.458  13.446  -5.004  1.00  0.00     0.074 A 
ATOM     48  C   UNL     1       9.475  10.786   0.388  1.00  0.00     0.029 A 
ATOM     49  N   UNL     1      10.103  12.176  -1.189  1.00  0.00    -0.354 N 
ATOM     50  N   UNL     1       7.158  13.967  -3.847  1.00  0.00    -0.248 NA
ATOM     51  C   UNL     1       8.856  13.077  -5.174  1.00  0.00     0.031 C 
ATOM     52  C   UNL     1       8.563  11.879   0.324  1.00  0.00     0.029 A 
ATOM     53  C   UNL     1       8.837  12.582  -0.849  1.00  0.00     0.049 A 
ATOM     54  H   UNL     1      10.790  12.713  -1.645  1.00  0.00     0.167 HD
ATOM     55  C   UNL     1       8.205  13.608  -3.012  1.00  0.00     0.074 A 
ATOM     56  C   UNL     1       9.267  13.159  -3.906  1.00  0.00     0.031 C 
ATOM     57  C   UNL     1       8.019  13.446  -1.669  1.00  0.00     0.037 A 
BRANCH  44  58
ATOM     58  C   UNL     1      12.181  10.059  -2.260  1.00  0.00     0.058 A 
ATOM     59  C   UNL     1      13.186  10.739  -1.548  1.00  0.00     0.135 A 
ATOM     60  C   UNL     1      12.471   9.787  -3.619  1.00  0.00     0.135 A 
ATOM     61  F   UNL     1      13.004  11.070  -0.260  1.00  0.00    -0.206 F 
ATOM     62  C   UNL     1      14.368  11.167  -2.156  1.00  0.00     0.059 A 
ATOM     63  C   UNL     1      13.665  10.147  -4.226  1.00  0.00     0.059 A 
ATOM     64  F   UNL     1      11.567   9.251  -4.449  1.00  0.00    -0.206 F 
ATOM     65  C   UNL     1      14.589  10.879  -3.501  1.00  0.00     0.060 A 
BRANCH  65  66
ATOM     66  S   UNL     1      16.045  11.538  -4.330  1.00  0.00     0.124 S 
ATOM     67  O   UNL     1      15.700  12.951  -4.434  1.00  0.00    -0.237 OA
ATOM     68  O   UNL     1      17.109  11.205  -3.389  1.00  0.00    -0.237 OA
ATOM     69  O   UNL     1      16.075  10.799  -5.589  1.00  0.00    -0.744 OA
ENDBRANCH  65  66
ENDBRANCH  44  58
BRANCH  45  70
ATOM     70  C   UNL     1       6.387  13.297  -7.376  1.00  0.00     0.058 A 
ATOM     71  C   UNL     1       6.743  14.599  -7.770  1.00  0.00     0.135 A 
ATOM     72  C   UNL     1       6.211  12.364  -8.419  1.00  0.00     0.135 A 
ATOM     73  F   UNL     1       6.963  15.547  -6.847  1.00  0.00    -0.206 F 
ATOM     74  C   UNL     1       6.950  14.945  -9.111  1.00  0.00     0.059 A 
ATOM     75  C   UNL     1       6.389  12.690  -9.762  1.00  0.00     0.059 A 
ATOM     76  F   UNL     1       5.949  11.073  -8.165  1.00  0.00    -0.206 F 
ATOM     77  C   UNL     1       6.785  13.976 -10.100  1.00  0.00     0.060 A 
BRANCH  77  78
ATOM     78  S   UNL     1       7.211  14.364 -11.814  1.00  0.00     0.124 S 
ATOM     79  O   UNL     1       6.143  15.284 -12.189  1.00  0.00    -0.237 OA
ATOM     80  O   UNL     1       8.540  14.948 -11.676  1.00  0.00    -0.237 OA
ATOM     81  O   UNL     1       7.172  13.061 -12.474  1.00  0.00    -0.744 OA
ENDBRANCH  77  78
ENDBRANCH  45  70
BRANCH  57  82
ATOM     82  C   UNL     1       6.748  13.971  -1.054  1.00  0.00     0.058 A 
ATOM     83  C   UNL     1       5.459  13.524  -1.396  1.00  0.00     0.135 A 
ATOM     84  C   UNL     1       6.849  14.869   0.019  1.00  0.00     0.135 A 
ATOM     85  F   UNL     1       5.281  12.578  -2.329  1.00  0.00    -0.206 F 
ATOM     86  C   UNL     1       4.320  13.997  -0.744  1.00  0.00     0.059 A 
ATOM     87  C   UNL     1       5.728  15.328   0.707  1.00  0.00     0.059 A 
ATOM     88  F   UNL     1       8.056  15.281   0.442  1.00  0.00    -0.206 F 
ATOM     89  C   UNL     1       4.464  14.904   0.304  1.00  0.00     0.060 A 
BRANCH  89  90
ATOM     90  S   UNL     1       2.992  15.477   1.178  1.00  0.00     0.124 S 
ATOM     91  O   UNL     1       2.403  16.398   0.212  1.00  0.00    -0.237 OA
ATOM     92  O   UNL     1       2.252  14.239   1.404  1.00  0.00    -0.237 OA
ATOM     93  O   UNL     1       3.532  16.099   2.385  1.00  0.00    -0.744 OA
ENDBRANCH  89  90
ENDBRANCH  57  82
ENDBRANCH  31  32
ENDBRANCH  24  26
ENDBRANCH  23  24
ENDBRANCH   1  23
TORSDOF 18
