REMARK SMILES C[C@@H]1[C@H](C(=O)OCCOC(=O)c2ccc(-c3c4nc(c(-c5c(F)cc(S(=O)(=O)[O-])cc5F)c5ccc([nH]5)c(-c5c(F)cc(S(=O)(=O)[O-])cc5F)c5nc(c(-c6c(F)cc(S(=O)(=O)[O-])cc6F)c6ccc3[nH]6)C=C5)C=C4)cc2)CCN1C(=O)/C=C/c1cccc(Br)c1
REMARK SMILES IDX 7 1 6 2 4 3 5 4 3 5 1 6 2 7 80 8 78 9 79 10 81 11 82 12
REMARK SMILES IDX 83 13 84 14 85 15 86 16 91 17 87 18 89 19 88 20 90 21 8 22
REMARK SMILES IDX 9 23 10 24 11 25 12 26 13 27 77 28 14 29 76 30 15 31 16 32
REMARK SMILES IDX 17 33 70 34 18 35 75 36 69 37 71 38 19 39 74 40 68 41 67 42
REMARK SMILES IDX 20 44 54 45 33 46 53 47 34 48 37 49 52 50 72 51 35 52 36 53
REMARK SMILES IDX 51 55 73 56 38 57 21 58 22 59 31 60 23 61 24 62 30 63 32 64
REMARK SMILES IDX 25 65 26 66 27 67 28 68 29 69 55 70 56 71 65 72 57 73 58 74
REMARK SMILES IDX 64 75 66 76 59 77 60 78 61 79 62 80 63 81 39 82 40 83 49 84
REMARK SMILES IDX 41 85 42 86 48 87 50 88 43 89 44 90 45 91 46 92 47 93
REMARK H PARENT 71 43 37 54
REMARK Flexibility Score: inf
ROOT
ATOM      1  C   UNL     1       1.863   3.958   1.093  1.00  0.00     0.274 C 
ENDROOT
BRANCH   1   2
ATOM      2  O   UNL     1       1.313   2.634   0.956  1.00  0.00    -0.462 OA
BRANCH   2   3
ATOM      3  C   UNL     1       0.035   2.521   0.536  1.00  0.00     0.311 C 
ATOM      4  O   UNL     1      -0.742   3.462   0.421  1.00  0.00    -0.252 OA
BRANCH   3   5
ATOM      5  C   UNL     1      -0.359   1.107   0.176  1.00  0.00     0.123 C 
ATOM      6  C   UNL     1       1.737  -0.091   1.175  1.00  0.00     0.032 C 
ATOM      7  C   UNL     1       0.705   0.005   0.048  1.00  0.00     0.096 C 
ATOM      8  N   UNL     1      -0.105  -1.222   0.029  1.00  0.00    -0.336 N 
ATOM      9  C   UNL     1      -1.390   0.476   1.097  1.00  0.00     0.039 C 
ATOM     10  C   UNL     1      -1.436  -0.956   0.572  1.00  0.00     0.121 C 
BRANCH   8  11
ATOM     11  C   UNL     1       0.189  -2.485  -0.430  1.00  0.00     0.246 C 
ATOM     12  O   UNL     1      -0.644  -3.394  -0.350  1.00  0.00    -0.270 OA
BRANCH  11  13
ATOM     13  C   UNL     1       1.523  -2.869  -0.996  1.00  0.00     0.072 C 
ATOM     14  C   UNL     1       2.567  -2.135  -1.407  1.00  0.00     0.014 C 
BRANCH  14  15
ATOM     15  C   UNL     1       3.827  -2.688  -1.923  1.00  0.00    -0.024 A 
ATOM     16  C   UNL     1       5.030  -2.130  -1.463  1.00  0.00     0.008 A 
ATOM     17  C   UNL     1       3.866  -3.667  -2.921  1.00  0.00     0.023 A 
ATOM     18  C   UNL     1       6.256  -2.549  -1.983  1.00  0.00     0.002 A 
ATOM     19  C   UNL     1       5.096  -4.079  -3.440  1.00  0.00     0.018 A 
ATOM     20  C   UNL     1       6.289  -3.525  -2.977  1.00  0.00     0.016 A 
ATOM     21  Br  UNL     1       5.146  -5.389  -4.802  1.00  0.00    -0.051 Br
ENDBRANCH  14  15
ENDBRANCH  11  13
ENDBRANCH   8  11
ENDBRANCH   3   5
ENDBRANCH   2   3
ENDBRANCH   1   2
BRANCH   1  22
ATOM     22  C   UNL     1       2.998   4.146   0.083  1.00  0.00     0.275 C 
BRANCH  22  23
ATOM     23  O   UNL     1       2.490   4.220  -1.263  1.00  0.00    -0.458 OA
BRANCH  23  24
ATOM     24  C   UNL     1       2.413   3.038  -1.921  1.00  0.00     0.338 C 
ATOM     25  O   UNL     1       2.759   1.944  -1.511  1.00  0.00    -0.246 OA
BRANCH  24  26
ATOM     26  C   UNL     1       1.704   3.232  -3.197  1.00  0.00     0.060 A 
ATOM     27  C   UNL     1       0.517   2.525  -3.406  1.00  0.00     0.016 A 
ATOM     28  C   UNL     1       2.228   4.048  -4.201  1.00  0.00     0.016 A 
ATOM     29  C   UNL     1      -0.156   2.631  -4.620  1.00  0.00     0.010 A 
ATOM     30  C   UNL     1       1.551   4.153  -5.421  1.00  0.00     0.010 A 
ATOM     31  C   UNL     1       0.359   3.441  -5.640  1.00  0.00    -0.014 A 
BRANCH  31  32
ATOM     32  C   UNL     1      -0.336   3.505  -6.949  1.00  0.00     0.031 A 
ATOM     33  C   UNL     1       0.233   2.779  -8.134  1.00  0.00     0.074 A 
ATOM     34  C   UNL     1      -1.489   4.191  -7.060  1.00  0.00     0.049 A 
ATOM     35  N   UNL     1      -0.181   2.772  -9.375  1.00  0.00    -0.248 NA
ATOM     36  C   UNL     1       1.425   1.951  -7.891  1.00  0.00     0.031 C 
ATOM     37  C   UNL     1      -2.163   4.894  -5.967  1.00  0.00     0.029 A 
ATOM     38  N   UNL     1      -2.300   4.408  -8.146  1.00  0.00    -0.354 N 
ATOM     39  C   UNL     1       0.703   1.950 -10.065  1.00  0.00     0.074 A 
ATOM     40  C   UNL     1       1.688   1.493  -9.107  1.00  0.00     0.031 C 
ATOM     41  C   UNL     1      -3.286   5.460  -6.437  1.00  0.00     0.029 A 
ATOM     42  C   UNL     1      -3.389   5.200  -7.870  1.00  0.00     0.049 A 
ATOM     43  H   UNL     1      -2.118   4.032  -9.037  1.00  0.00     0.167 HD
ATOM     44  C   UNL     1       0.689   1.607 -11.375  1.00  0.00     0.037 A 
ATOM     45  C   UNL     1      -4.346   5.681  -8.687  1.00  0.00     0.037 A 
ATOM     46  C   UNL     1      -0.300   2.061 -12.319  1.00  0.00     0.049 A 
ATOM     47  C   UNL     1      -4.303   5.337 -10.151  1.00  0.00     0.074 A 
ATOM     48  C   UNL     1      -0.394   1.778 -13.671  1.00  0.00     0.029 A 
ATOM     49  N   UNL     1      -1.369   2.888 -12.009  1.00  0.00    -0.354 N 
ATOM     50  N   UNL     1      -3.446   4.580 -10.794  1.00  0.00    -0.248 NA
ATOM     51  C   UNL     1      -5.350   5.918 -11.002  1.00  0.00     0.031 C 
ATOM     52  C   UNL     1      -1.502   2.461 -14.185  1.00  0.00     0.029 A 
ATOM     53  C   UNL     1      -2.121   3.137 -13.146  1.00  0.00     0.049 A 
ATOM     54  H   UNL     1      -1.565   3.246 -11.113  1.00  0.00     0.167 HD
ATOM     55  C   UNL     1      -3.863   4.578 -12.121  1.00  0.00     0.074 A 
ATOM     56  C   UNL     1      -5.054   5.400 -12.186  1.00  0.00     0.031 C 
ATOM     57  C   UNL     1      -3.309   3.953 -13.189  1.00  0.00     0.037 A 
BRANCH  44  58
ATOM     58  C   UNL     1       1.792   0.716 -11.871  1.00  0.00     0.058 A 
ATOM     59  C   UNL     1       1.825  -0.654 -11.569  1.00  0.00     0.135 A 
ATOM     60  C   UNL     1       2.814   1.233 -12.682  1.00  0.00     0.135 A 
ATOM     61  F   UNL     1       0.881  -1.196 -10.782  1.00  0.00    -0.206 F 
ATOM     62  C   UNL     1       2.845  -1.477 -12.037  1.00  0.00     0.059 A 
ATOM     63  C   UNL     1       3.832   0.425 -13.179  1.00  0.00     0.059 A 
ATOM     64  F   UNL     1       2.832   2.538 -12.998  1.00  0.00    -0.206 F 
ATOM     65  C   UNL     1       3.846  -0.927 -12.839  1.00  0.00     0.060 A 
BRANCH  65  66
ATOM     66  S   UNL     1       5.166  -2.004 -13.439  1.00  0.00     0.124 S 
ATOM     67  O   UNL     1       5.971  -2.175 -12.234  1.00  0.00    -0.237 OA
ATOM     68  O   UNL     1       4.431  -3.185 -13.883  1.00  0.00    -0.237 OA
ATOM     69  O   UNL     1       5.787  -1.220 -14.503  1.00  0.00    -0.744 OA
ENDBRANCH  65  66
ENDBRANCH  44  58
BRANCH  45  70
ATOM     70  C   UNL     1      -5.415   6.560  -8.144  1.00  0.00     0.058 A 
ATOM     71  C   UNL     1      -6.742   6.115  -8.052  1.00  0.00     0.135 A 
ATOM     72  C   UNL     1      -5.130   7.864  -7.708  1.00  0.00     0.135 A 
ATOM     73  F   UNL     1      -7.065   4.881  -8.466  1.00  0.00    -0.206 F 
ATOM     74  C   UNL     1      -7.753   6.936  -7.562  1.00  0.00     0.059 A 
ATOM     75  C   UNL     1      -6.119   8.695  -7.192  1.00  0.00     0.059 A 
ATOM     76  F   UNL     1      -3.874   8.333  -7.766  1.00  0.00    -0.206 F 
ATOM     77  C   UNL     1      -7.431   8.226  -7.134  1.00  0.00     0.060 A 
BRANCH  77  78
ATOM     78  S   UNL     1      -8.739   9.273  -6.461  1.00  0.00     0.124 S 
ATOM     79  O   UNL     1      -9.427   9.698  -7.674  1.00  0.00    -0.237 OA
ATOM     80  O   UNL     1      -9.470   8.343  -5.604  1.00  0.00    -0.237 OA
ATOM     81  O   UNL     1      -8.001  10.315  -5.753  1.00  0.00    -0.744 OA
ENDBRANCH  77  78
ENDBRANCH  45  70
BRANCH  57  82
ATOM     82  C   UNL     1      -4.002   4.109 -14.513  1.00  0.00     0.058 A 
ATOM     83  C   UNL     1      -3.912   5.297 -15.254  1.00  0.00     0.135 A 
ATOM     84  C   UNL     1      -4.724   3.040 -15.067  1.00  0.00     0.135 A 
ATOM     85  F   UNL     1      -3.238   6.349 -14.764  1.00  0.00    -0.206 F 
ATOM     86  C   UNL     1      -4.531   5.427 -16.492  1.00  0.00     0.059 A 
ATOM     87  C   UNL     1      -5.333   3.141 -16.314  1.00  0.00     0.059 A 
ATOM     88  F   UNL     1      -4.832   1.880 -14.401  1.00  0.00    -0.206 F 
ATOM     89  C   UNL     1      -5.240   4.343 -17.014  1.00  0.00     0.060 A 
BRANCH  89  90
ATOM     90  S   UNL     1      -6.011   4.511 -18.639  1.00  0.00     0.124 S 
ATOM     91  O   UNL     1      -7.189   5.311 -18.323  1.00  0.00    -0.237 OA
ATOM     92  O   UNL     1      -4.974   5.187 -19.411  1.00  0.00    -0.237 OA
ATOM     93  O   UNL     1      -6.275   3.130 -19.032  1.00  0.00    -0.744 OA
ENDBRANCH  89  90
ENDBRANCH  57  82
ENDBRANCH  31  32
ENDBRANCH  24  26
ENDBRANCH  23  24
ENDBRANCH  22  23
ENDBRANCH   1  22
TORSDOF 17
