REMARK SMILES CC(C)C[C@H](CNC(=O)NC[C@H]1CCC(=O)N1)C(=O)OCCOC(=O)c1ccc(-c2c3nc(c(-c4c(F)cc(S(=O)(=O)[O-])cc4F)c4ccc([nH]4)c(-c4c(F)cc(S(=O)(=O)[O-])cc4F)c4nc(c(-c5c(F)cc(S(=O)(=O)[O-])cc5F)c5ccc2[nH]5)C=C4)C=C3)cc1
REMARK SMILES IDX 21 1 20 2 18 3 19 4 5 5 4 6 2 7 1 8 3 9 6 10 7 11 8 12 9 14
REMARK SMILES IDX 10 15 11 17 12 18 13 19 17 20 14 21 15 22 16 24 22 25 23 26
REMARK SMILES IDX 24 27 25 28 26 29 27 30 91 31 28 32 90 33 29 34 30 35 31 36
REMARK SMILES IDX 84 37 32 38 89 39 83 40 85 41 33 42 88 43 82 44 81 45 34 47
REMARK SMILES IDX 68 48 47 49 67 50 48 51 51 52 66 53 86 54 49 55 50 56 65 58
REMARK SMILES IDX 87 59 52 60 35 61 36 62 45 63 37 64 38 65 44 66 46 67 39 68
REMARK SMILES IDX 40 69 41 70 42 71 43 72 69 73 70 74 79 75 71 76 72 77 78 78
REMARK SMILES IDX 80 79 73 80 74 81 75 82 76 83 77 84 53 85 54 86 63 87 55 88
REMARK SMILES IDX 56 89 62 90 64 91 57 92 58 93 59 94 60 95 61 96
REMARK H PARENT 7 13 10 16 17 23 85 46 51 57
REMARK Flexibility Score: inf
ROOT
ATOM      1  C   UNL     1       3.089   2.780   0.597  1.00  0.00     0.274 C 
ENDROOT
BRANCH   1   2
ATOM      2  O   UNL     1       2.875   4.122   0.118  1.00  0.00    -0.462 OA
BRANCH   2   3
ATOM      3  C   UNL     1       1.639   4.648   0.293  1.00  0.00     0.310 C 
ATOM      4  O   UNL     1       0.695   4.045   0.792  1.00  0.00    -0.252 OA
BRANCH   3   5
ATOM      5  C   UNL     1       1.509   6.069  -0.222  1.00  0.00     0.119 C 
BRANCH   5   6
ATOM      6  C   UNL     1       1.245   6.229  -1.730  1.00  0.00     0.020 C 
BRANCH   6   7
ATOM      7  C   UNL     1       1.369   5.022  -2.676  1.00  0.00    -0.017 C 
ATOM      8  C   UNL     1       0.302   3.948  -2.451  1.00  0.00     0.007 C 
ATOM      9  C   UNL     1       1.241   5.532  -4.120  1.00  0.00     0.007 C 
ENDBRANCH   6   7
ENDBRANCH   5   6
BRANCH   5  10
ATOM     10  C   UNL     1       2.564   7.054   0.333  1.00  0.00     0.133 C 
BRANCH  10  11
ATOM     11  N   UNL     1       3.939   6.620   0.240  1.00  0.00    -0.337 N 
ATOM     12  C   UNL     1       4.850   6.612  -0.733  1.00  0.00     0.314 C 
ATOM     13  H   UNL     1       4.280   6.245   1.084  1.00  0.00     0.165 HD
ATOM     14  O   UNL     1       5.762   5.784  -0.688  1.00  0.00    -0.249 OA
ATOM     15  N   UNL     1       4.836   7.461  -1.763  1.00  0.00    -0.336 N 
ATOM     16  H   UNL     1       5.363   7.140  -2.531  1.00  0.00     0.165 HD
BRANCH  15  17
ATOM     17  C   UNL     1       4.218   8.752  -2.002  1.00  0.00     0.142 C 
BRANCH  17  18
ATOM     18  C   UNL     1       4.927   9.958  -1.347  1.00  0.00     0.101 C 
ATOM     19  C   UNL     1       4.362  10.391   0.003  1.00  0.00     0.036 C 
ATOM     20  N   UNL     1       6.323   9.748  -1.070  1.00  0.00    -0.352 N 
ATOM     21  C   UNL     1       5.317   9.819   1.045  1.00  0.00     0.102 C 
ATOM     22  C   UNL     1       6.599   9.655   0.276  1.00  0.00     0.220 C 
ATOM     23  H   UNL     1       7.011   9.678  -1.771  1.00  0.00     0.163 HD
ATOM     24  O   UNL     1       7.710   9.460   0.746  1.00  0.00    -0.275 OA
ENDBRANCH  17  18
ENDBRANCH  15  17
ENDBRANCH  10  11
ENDBRANCH   5  10
ENDBRANCH   3   5
ENDBRANCH   2   3
ENDBRANCH   1   2
BRANCH   1  25
ATOM     25  C   UNL     1       3.612   2.749   2.039  1.00  0.00     0.275 C 
BRANCH  25  26
ATOM     26  O   UNL     1       2.596   3.129   2.988  1.00  0.00    -0.458 OA
BRANCH  26  27
ATOM     27  C   UNL     1       2.557   4.450   3.279  1.00  0.00     0.338 C 
ATOM     28  O   UNL     1       3.345   5.301   2.891  1.00  0.00    -0.246 OA
BRANCH  27  29
ATOM     29  C   UNL     1       1.299   4.790   3.974  1.00  0.00     0.060 A 
ATOM     30  C   UNL     1       0.547   5.847   3.451  1.00  0.00     0.016 A 
ATOM     31  C   UNL     1       0.878   4.141   5.134  1.00  0.00     0.016 A 
ATOM     32  C   UNL     1      -0.610   6.280   4.080  1.00  0.00     0.010 A 
ATOM     33  C   UNL     1      -0.284   4.584   5.780  1.00  0.00     0.010 A 
ATOM     34  C   UNL     1      -1.019   5.668   5.264  1.00  0.00    -0.014 A 
BRANCH  34  35
ATOM     35  C   UNL     1      -2.137   6.280   6.016  1.00  0.00     0.031 A 
ATOM     36  C   UNL     1      -1.818   7.152   7.197  1.00  0.00     0.074 A 
ATOM     37  C   UNL     1      -3.404   6.135   5.590  1.00  0.00     0.049 A 
ATOM     38  N   UNL     1      -2.630   7.770   8.013  1.00  0.00    -0.248 NA
ATOM     39  C   UNL     1      -0.391   7.361   7.491  1.00  0.00     0.031 C 
ATOM     40  C   UNL     1      -3.815   5.386   4.401  1.00  0.00     0.029 A 
ATOM     41  N   UNL     1      -4.579   6.622   6.103  1.00  0.00    -0.354 N 
ATOM     42  C   UNL     1      -1.815   8.416   8.936  1.00  0.00     0.074 A 
ATOM     43  C   UNL     1      -0.446   8.109   8.583  1.00  0.00     0.031 C 
ATOM     44  C   UNL     1      -5.151   5.466   4.275  1.00  0.00     0.029 A 
ATOM     45  C   UNL     1      -5.691   6.232   5.396  1.00  0.00     0.049 A 
ATOM     46  H   UNL     1      -4.621   7.196   6.901  1.00  0.00     0.167 HD
ATOM     47  C   UNL     1      -2.181   9.192   9.983  1.00  0.00     0.037 A 
ATOM     48  C   UNL     1      -6.997   6.451   5.643  1.00  0.00     0.037 A 
ATOM     49  C   UNL     1      -3.548   9.499  10.312  1.00  0.00     0.049 A 
ATOM     50  C   UNL     1      -7.380   7.260   6.855  1.00  0.00     0.074 A 
ATOM     51  C   UNL     1      -4.031  10.274  11.351  1.00  0.00     0.029 A 
ATOM     52  N   UNL     1      -4.652   9.042   9.607  1.00  0.00    -0.354 N 
ATOM     53  N   UNL     1      -6.604   7.848   7.736  1.00  0.00    -0.248 NA
ATOM     54  C   UNL     1      -8.817   7.432   7.111  1.00  0.00     0.031 C 
ATOM     55  C   UNL     1      -5.429  10.247  11.301  1.00  0.00     0.029 A 
ATOM     56  C   UNL     1      -5.817   9.500  10.199  1.00  0.00     0.049 A 
ATOM     57  H   UNL     1      -4.613   8.475   8.803  1.00  0.00     0.167 HD
ATOM     58  C   UNL     1      -7.456   8.484   8.631  1.00  0.00     0.074 A 
ATOM     59  C   UNL     1      -8.807   8.216   8.180  1.00  0.00     0.031 C 
ATOM     60  C   UNL     1      -7.152   9.227   9.726  1.00  0.00     0.037 A 
BRANCH  47  61
ATOM     61  C   UNL     1      -1.086   9.710  10.874  1.00  0.00     0.058 A 
ATOM     62  C   UNL     1      -0.197  10.714  10.460  1.00  0.00     0.135 A 
ATOM     63  C   UNL     1      -0.924   9.184  12.166  1.00  0.00     0.135 A 
ATOM     64  F   UNL     1      -0.291  11.235   9.227  1.00  0.00    -0.206 F 
ATOM     65  C   UNL     1       0.835  11.155  11.284  1.00  0.00     0.059 A 
ATOM     66  C   UNL     1       0.083   9.629  13.017  1.00  0.00     0.059 A 
ATOM     67  F   UNL     1      -1.743   8.218  12.611  1.00  0.00    -0.206 F 
ATOM     68  C   UNL     1       0.969  10.603  12.559  1.00  0.00     0.060 A 
BRANCH  68  69
ATOM     69  S   UNL     1       2.321  11.173  13.612  1.00  0.00     0.124 S 
ATOM     70  O   UNL     1       3.470  10.532  12.981  1.00  0.00    -0.237 OA
ATOM     71  O   UNL     1       2.243  12.622  13.464  1.00  0.00    -0.237 OA
ATOM     72  O   UNL     1       1.963  10.660  14.931  1.00  0.00    -0.744 OA
ENDBRANCH  68  69
ENDBRANCH  47  61
BRANCH  48  73
ATOM     73  C   UNL     1      -8.036   5.889   4.739  1.00  0.00     0.058 A 
ATOM     74  C   UNL     1      -8.827   6.724   3.937  1.00  0.00     0.135 A 
ATOM     75  C   UNL     1      -8.259   4.505   4.658  1.00  0.00     0.135 A 
ATOM     76  F   UNL     1      -8.662   8.055   3.986  1.00  0.00    -0.206 F 
ATOM     77  C   UNL     1      -9.811   6.211   3.097  1.00  0.00     0.059 A 
ATOM     78  C   UNL     1      -9.218   3.966   3.806  1.00  0.00     0.059 A 
ATOM     79  F   UNL     1      -7.524   3.661   5.399  1.00  0.00    -0.206 F 
ATOM     80  C   UNL     1      -9.996   4.828   3.036  1.00  0.00     0.060 A 
BRANCH  80  81
ATOM     81  S   UNL     1     -11.242   4.169   1.906  1.00  0.00     0.124 S 
ATOM     82  O   UNL     1     -12.478   4.522   2.593  1.00  0.00    -0.237 OA
ATOM     83  O   UNL     1     -10.961   4.906   0.677  1.00  0.00    -0.237 OA
ATOM     84  O   UNL     1     -10.930   2.744   1.858  1.00  0.00    -0.744 OA
ENDBRANCH  80  81
ENDBRANCH  48  73
BRANCH  60  85
ATOM     85  C   UNL     1      -8.298   9.840  10.481  1.00  0.00     0.058 A 
ATOM     86  C   UNL     1      -9.158   9.069  11.278  1.00  0.00     0.135 A 
ATOM     87  C   UNL     1      -8.514  11.227  10.433  1.00  0.00     0.135 A 
ATOM     88  F   UNL     1      -8.998   7.739  11.354  1.00  0.00    -0.206 F 
ATOM     89  C   UNL     1     -10.213   9.648  11.977  1.00  0.00     0.059 A 
ATOM     90  C   UNL     1      -9.545  11.830  11.146  1.00  0.00     0.059 A 
ATOM     91  F   UNL     1      -7.712  12.012   9.696  1.00  0.00    -0.206 F 
ATOM     92  C   UNL     1     -10.399  11.030  11.903  1.00  0.00     0.060 A 
BRANCH  92  93
ATOM     93  S   UNL     1     -11.761  11.773  12.826  1.00  0.00     0.124 S 
ATOM     94  O   UNL     1     -12.908  11.400  12.006  1.00  0.00    -0.237 OA
ATOM     95  O   UNL     1     -11.662  11.107  14.121  1.00  0.00    -0.237 OA
ATOM     96  O   UNL     1     -11.429  13.195  12.833  1.00  0.00    -0.744 OA
ENDBRANCH  92  93
ENDBRANCH  60  85
ENDBRANCH  34  35
ENDBRANCH  27  29
ENDBRANCH  26  27
ENDBRANCH  25  26
ENDBRANCH   1  25
TORSDOF 20
