REMARK SMILES O=C(OCCOC(=O)c1cn(C2CC2)c2cc(N3CC[NH2+]CC3)ccc2c1=O)c1ccc(-c2c3nc(c(-c4c(F)cc(S(=O)(=O)[O-])cc4F)c4ccc([nH]4)c(-c4c(F)cc(S(=O)(=O)[O-])cc4F)c4nc(c(-c5c(F)cc(S(=O)(=O)[O-])cc5F)c5ccc2[nH]5)C=C4)C=C3)cc1
REMARK SMILES IDX 4 1 3 2 2 3 1 4 29 5 30 6 94 7 31 8 93 9 32 10 33 11 34 12
REMARK SMILES IDX 87 13 35 14 92 15 86 16 88 17 36 18 91 19 85 20 84 21 37 23
REMARK SMILES IDX 71 24 50 25 70 26 51 27 54 28 69 29 89 30 52 31 53 32 68 34
REMARK SMILES IDX 90 35 55 36 38 37 39 38 48 39 40 40 41 41 47 42 49 43 42 44
REMARK SMILES IDX 43 45 44 46 45 47 46 48 72 49 73 50 82 51 74 52 75 53 81 54
REMARK SMILES IDX 83 55 76 56 77 57 78 58 79 59 80 60 56 61 57 62 66 63 58 64
REMARK SMILES IDX 59 65 65 66 67 67 60 68 61 69 62 70 63 71 64 72 5 73 6 74
REMARK SMILES IDX 7 75 8 76 9 77 10 78 27 79 11 80 26 81 28 82 15 83 25 84
REMARK SMILES IDX 16 85 24 86 17 87 12 88 13 89 14 90 18 91 19 92 23 93 20 94
REMARK SMILES IDX 22 95 21 96
REMARK H PARENT 88 22 54 33 21 97 21 98
REMARK Flexibility Score: inf
ROOT
ATOM      1  C   UNL     1       4.329  -1.079   0.661  1.00  0.00     0.275 C 
ENDROOT
BRANCH   1   2
ATOM      2  O   UNL     1       3.391  -0.114   1.165  1.00  0.00    -0.458 OA
BRANCH   2   3
ATOM      3  C   UNL     1       3.278   1.208   0.881  1.00  0.00     0.338 C 
ATOM      4  O   UNL     1       2.631   1.922   1.645  1.00  0.00    -0.246 OA
BRANCH   3   5
ATOM      5  C   UNL     1       3.775   1.820  -0.395  1.00  0.00     0.060 A 
ATOM      6  C   UNL     1       3.011   2.873  -0.915  1.00  0.00     0.016 A 
ATOM      7  C   UNL     1       4.926   1.458  -1.099  1.00  0.00     0.016 A 
ATOM      8  C   UNL     1       3.329   3.456  -2.151  1.00  0.00     0.010 A 
ATOM      9  C   UNL     1       5.249   2.048  -2.333  1.00  0.00     0.010 A 
ATOM     10  C   UNL     1       4.436   3.029  -2.900  1.00  0.00    -0.014 A 
BRANCH  10  11
ATOM     11  C   UNL     1       4.825   3.744  -4.144  1.00  0.00     0.031 A 
ATOM     12  C   UNL     1       4.924   3.112  -5.507  1.00  0.00     0.074 A 
ATOM     13  C   UNL     1       5.200   5.030  -4.040  1.00  0.00     0.049 A 
ATOM     14  N   UNL     1       4.856   3.699  -6.680  1.00  0.00    -0.248 NA
ATOM     15  C   UNL     1       5.146   1.663  -5.591  1.00  0.00     0.031 C 
ATOM     16  C   UNL     1       5.279   5.797  -2.797  1.00  0.00     0.029 A 
ATOM     17  N   UNL     1       5.644   5.894  -5.002  1.00  0.00    -0.354 N 
ATOM     18  C   UNL     1       4.816   2.674  -7.616  1.00  0.00     0.074 A 
ATOM     19  C   UNL     1       5.083   1.454  -6.903  1.00  0.00     0.031 C 
ATOM     20  C   UNL     1       5.785   7.007  -3.068  1.00  0.00     0.029 A 
ATOM     21  C   UNL     1       6.086   7.083  -4.494  1.00  0.00     0.049 A 
ATOM     22  H   UNL     1       5.644   5.681  -5.963  1.00  0.00     0.167 HD
ATOM     23  C   UNL     1       4.552   2.754  -8.942  1.00  0.00     0.037 A 
ATOM     24  C   UNL     1       6.704   8.107  -5.106  1.00  0.00     0.037 A 
ATOM     25  C   UNL     1       4.880   3.919  -9.712  1.00  0.00     0.049 A 
ATOM     26  C   UNL     1       6.901   8.067  -6.589  1.00  0.00     0.074 A 
ATOM     27  C   UNL     1       4.929   4.062 -11.087  1.00  0.00     0.029 A 
ATOM     28  N   UNL     1       5.412   5.074  -9.165  1.00  0.00    -0.354 N 
ATOM     29  N   UNL     1       6.475   7.177  -7.455  1.00  0.00    -0.248 NA
ATOM     30  C   UNL     1       7.655   9.176  -7.180  1.00  0.00     0.031 C 
ATOM     31  C   UNL     1       5.660   5.228 -11.362  1.00  0.00     0.029 A 
ATOM     32  C   UNL     1       5.956   5.857 -10.163  1.00  0.00     0.049 A 
ATOM     33  H   UNL     1       5.404   5.301  -8.207  1.00  0.00     0.167 HD
ATOM     34  C   UNL     1       6.892   7.631  -8.701  1.00  0.00     0.074 A 
ATOM     35  C   UNL     1       7.594   8.879  -8.471  1.00  0.00     0.031 C 
ATOM     36  C   UNL     1       6.697   7.071  -9.923  1.00  0.00     0.037 A 
BRANCH  23  37
ATOM     37  C   UNL     1       3.998   1.550  -9.649  1.00  0.00     0.058 A 
ATOM     38  C   UNL     1       2.605   1.357  -9.708  1.00  0.00     0.135 A 
ATOM     39  C   UNL     1       4.806   0.633 -10.331  1.00  0.00     0.135 A 
ATOM     40  F   UNL     1       1.776   2.217  -9.093  1.00  0.00    -0.206 F 
ATOM     41  C   UNL     1       2.039   0.271 -10.372  1.00  0.00     0.059 A 
ATOM     42  C   UNL     1       4.262  -0.459 -11.009  1.00  0.00     0.059 A 
ATOM     43  F   UNL     1       6.139   0.785 -10.333  1.00  0.00    -0.206 F 
ATOM     44  C   UNL     1       2.879  -0.645 -11.004  1.00  0.00     0.060 A 
BRANCH  44  45
ATOM     45  S   UNL     1       2.138  -2.093 -11.792  1.00  0.00     0.124 S 
ATOM     46  O   UNL     1       1.732  -2.876 -10.629  1.00  0.00    -0.237 OA
ATOM     47  O   UNL     1       1.054  -1.507 -12.572  1.00  0.00    -0.237 OA
ATOM     48  O   UNL     1       3.238  -2.654 -12.571  1.00  0.00    -0.744 OA
ENDBRANCH  44  45
ENDBRANCH  23  37
BRANCH  24  49
ATOM     49  C   UNL     1       7.151   9.242  -4.270  1.00  0.00     0.058 A 
ATOM     50  C   UNL     1       6.441  10.447  -4.279  1.00  0.00     0.135 A 
ATOM     51  C   UNL     1       8.191   9.087  -3.337  1.00  0.00     0.135 A 
ATOM     52  F   UNL     1       5.439  10.628  -5.152  1.00  0.00    -0.206 F 
ATOM     53  C   UNL     1       6.726  11.455  -3.369  1.00  0.00     0.059 A 
ATOM     54  C   UNL     1       8.478  10.072  -2.401  1.00  0.00     0.059 A 
ATOM     55  F   UNL     1       8.879   7.935  -3.280  1.00  0.00    -0.206 F 
ATOM     56  C   UNL     1       7.732  11.249  -2.421  1.00  0.00     0.060 A 
BRANCH  56  57
ATOM     57  S   UNL     1       7.996  12.519  -1.167  1.00  0.00     0.124 S 
ATOM     58  O   UNL     1       8.527  13.616  -1.968  1.00  0.00    -0.237 OA
ATOM     59  O   UNL     1       6.648  12.705  -0.640  1.00  0.00    -0.237 OA
ATOM     60  O   UNL     1       8.942  11.894  -0.247  1.00  0.00    -0.744 OA
ENDBRANCH  56  57
ENDBRANCH  24  49
BRANCH  36  61
ATOM     61  C   UNL     1       7.270   7.789 -11.109  1.00  0.00     0.058 A 
ATOM     62  C   UNL     1       8.655   7.885 -11.314  1.00  0.00     0.135 A 
ATOM     63  C   UNL     1       6.421   8.365 -12.067  1.00  0.00     0.135 A 
ATOM     64  F   UNL     1       9.510   7.345 -10.431  1.00  0.00    -0.206 F 
ATOM     65  C   UNL     1       9.179   8.575 -12.400  1.00  0.00     0.059 A 
ATOM     66  C   UNL     1       6.923   9.027 -13.180  1.00  0.00     0.059 A 
ATOM     67  F   UNL     1       5.088   8.282 -11.929  1.00  0.00    -0.206 F 
ATOM     68  C   UNL     1       8.304   9.147 -13.325  1.00  0.00     0.060 A 
BRANCH  68  69
ATOM     69  S   UNL     1       8.996  10.058 -14.718  1.00  0.00     0.124 S 
ATOM     70  O   UNL     1       9.494  11.261 -14.060  1.00  0.00    -0.237 OA
ATOM     71  O   UNL     1      10.015   9.138 -15.215  1.00  0.00    -0.237 OA
ATOM     72  O   UNL     1       7.850  10.252 -15.600  1.00  0.00    -0.744 OA
ENDBRANCH  68  69
ENDBRANCH  36  61
ENDBRANCH  10  11
ENDBRANCH   3   5
ENDBRANCH   2   3
ENDBRANCH   1   2
BRANCH   1  73
ATOM     73  C   UNL     1       3.857  -1.833  -0.583  1.00  0.00     0.275 C 
BRANCH  73  74
ATOM     74  O   UNL     1       3.265  -0.971  -1.562  1.00  0.00    -0.458 OA
BRANCH  74  75
ATOM     75  C   UNL     1       1.903  -0.862  -1.525  1.00  0.00     0.343 C 
ATOM     76  O   UNL     1       1.165  -1.506  -0.794  1.00  0.00    -0.246 OA
BRANCH  75  77
ATOM     77  C   UNL     1       1.472   0.174  -2.477  1.00  0.00     0.124 A 
ATOM     78  C   UNL     1       1.998   0.192  -3.708  1.00  0.00     0.106 A 
ATOM     79  C   UNL     1       0.473   1.219  -2.163  1.00  0.00     0.203 A 
ATOM     80  N   UNL     1       1.709   1.097  -4.710  1.00  0.00    -0.343 N 
ATOM     81  C   UNL     1       0.393   2.377  -3.097  1.00  0.00     0.047 A 
ATOM     82  O   UNL     1      -0.201   1.197  -1.140  1.00  0.00    -0.288 OA
ATOM     83  C   UNL     1       1.003   2.294  -4.365  1.00  0.00     0.054 A 
ATOM     84  C   UNL     1      -0.192   3.568  -2.647  1.00  0.00     0.016 A 
ATOM     85  C   UNL     1       0.964   3.446  -5.176  1.00  0.00     0.053 A 
ATOM     86  C   UNL     1      -0.158   4.708  -3.451  1.00  0.00     0.027 A 
ATOM     87  C   UNL     1       0.406   4.667  -4.729  1.00  0.00     0.039 A 
BRANCH  80  88
ATOM     88  C   UNL     1       1.982   0.711  -6.116  1.00  0.00     0.087 C 
ATOM     89  C   UNL     1       2.685  -0.559  -6.564  1.00  0.00     0.027 C 
ATOM     90  C   UNL     1       1.208  -0.430  -6.731  1.00  0.00     0.027 C 
ENDBRANCH  80  88
BRANCH  87  91
ATOM     91  N   UNL     1       0.421   5.780  -5.548  1.00  0.00    -0.360 N 
ATOM     92  C   UNL     1      -0.413   5.764  -6.755  1.00  0.00     0.178 C 
ATOM     93  C   UNL     1       0.851   7.110  -5.090  1.00  0.00     0.178 C 
ATOM     94  C   UNL     1      -1.593   6.754  -6.587  1.00  0.00     0.282 C 
ATOM     95  C   UNL     1      -0.334   8.108  -5.045  1.00  0.00     0.282 C 
ATOM     96  N   UNL     1      -1.166   8.137  -6.271  1.00  0.00    -0.343 N 
ATOM     97  H   UNL     1      -1.987   8.722  -6.116  1.00  0.00     0.346 HD
ATOM     98  H   UNL     1      -0.628   8.521  -7.048  1.00  0.00     0.346 HD
ENDBRANCH  87  91
ENDBRANCH  75  77
ENDBRANCH  74  75
ENDBRANCH  73  74
ENDBRANCH   1  73
TORSDOF 16
