REMARK SMILES COC(=O)c1ccc2c(c1)=N[C@H](c1cn(CCC(=O)OCCOC(=O)c3ccc(-c4c5nc(c(-c6c(F)cc(S(=O)(=O)[O-])cc6F)c6ccc([nH]6)c(-c6c(F)cc(S(=O)(=O)[O-])cc6F)c6nc(c(-c7c(F)cc(S(=O)(=O)[O-])cc7F)c7ccc4[nH]7)C=C6)C=C5)cc3)c3ccccc13)N=2
REMARK SMILES IDX 21 1 20 2 18 3 19 4 17 5 16 6 15 7 13 8 14 9 97 10 92 11
REMARK SMILES IDX 96 12 93 13 95 14 94 15 12 16 5 17 6 18 10 19 7 20 9 21 8 22
REMARK SMILES IDX 11 23 98 24 3 25 4 26 2 27 1 28 22 29 23 30 24 31 25 32
REMARK SMILES IDX 26 33 27 34 91 35 28 36 90 37 29 38 30 39 31 40 84 41 32 42
REMARK SMILES IDX 89 43 83 44 85 45 33 46 88 47 82 48 81 49 34 51 68 52 47 53
REMARK SMILES IDX 67 54 48 55 51 56 66 57 86 58 49 59 50 60 65 62 87 63 52 64
REMARK SMILES IDX 35 65 36 66 45 67 37 68 38 69 44 70 46 71 39 72 40 73 41 74
REMARK SMILES IDX 42 75 43 76 69 77 70 78 79 79 71 80 72 81 78 82 80 83 73 84
REMARK SMILES IDX 74 85 75 86 76 87 77 88 53 89 54 90 63 91 55 92 56 93 62 94
REMARK SMILES IDX 64 95 57 96 58 97 59 98 60 99 61 100
REMARK H PARENT 85 50 51 61
REMARK Flexibility Score: inf
ROOT
ATOM      1  C   UNL     1      -3.111   7.529 -10.425  1.00  0.00     0.274 C 
ENDROOT
BRANCH   1   2
ATOM      2  O   UNL     1      -1.820   6.892 -10.406  1.00  0.00    -0.462 OA
BRANCH   2   3
ATOM      3  C   UNL     1      -1.322   6.455 -11.583  1.00  0.00     0.307 C 
ATOM      4  O   UNL     1      -1.914   6.538 -12.650  1.00  0.00    -0.252 OA
BRANCH   3   5
ATOM      5  C   UNL     1       0.045   5.821 -11.447  1.00  0.00     0.144 C 
BRANCH   5   6
ATOM      6  C   UNL     1       0.812   6.157 -10.159  1.00  0.00     0.134 C 
BRANCH   6   7
ATOM      7  N   UNL     1       0.550   5.161  -9.130  1.00  0.00    -0.346 N 
ATOM      8  C   UNL     1      -0.122   3.102  -8.734  1.00  0.00     0.024 A 
ATOM      9  C   UNL     1       0.926   3.849  -9.253  1.00  0.00     0.094 A 
ATOM     10  C   UNL     1      -1.176   4.034  -8.473  1.00  0.00     0.007 A 
ATOM     11  C   UNL     1      -0.487   5.216  -8.230  1.00  0.00     0.048 A 
ATOM     12  C   UNL     1      -2.526   3.954  -8.105  1.00  0.00     0.011 A 
ATOM     13  C   UNL     1      -0.908   6.133  -7.267  1.00  0.00     0.027 A 
ATOM     14  C   UNL     1      -3.008   4.899  -7.200  1.00  0.00     0.001 A 
ATOM     15  C   UNL     1      -2.166   5.896  -6.700  1.00  0.00     0.002 A 
BRANCH   8  16
ATOM     16  C   UNL     1      -0.025   1.685  -8.247  1.00  0.00     0.255 C 
ATOM     17  C   UNL     1       0.299   1.280  -3.755  1.00  0.00     0.062 A 
ATOM     18  C   UNL     1      -1.107   0.929  -3.935  1.00  0.00     0.018 A 
ATOM     19  C   UNL     1       1.093   1.613  -4.787  1.00  0.00     0.046 A 
ATOM     20  C   UNL     1      -1.724   0.935  -5.127  1.00  0.00     0.031 A 
ATOM     21  C   UNL     1       0.515   1.562  -6.135  1.00  0.00     0.087 A 
ATOM     22  C   UNL     1      -0.919   1.262  -6.308  1.00  0.00     0.086 A 
ATOM     23  N   UNL     1       1.113   1.681  -7.266  1.00  0.00    -0.252 NA
ATOM     24  N   UNL     1      -1.272   1.259  -7.546  1.00  0.00    -0.252 NA
BRANCH  17  25
ATOM     25  C   UNL     1       0.935   1.280  -2.405  1.00  0.00     0.337 C 
ATOM     26  O   UNL     1       1.871   2.002  -2.078  1.00  0.00    -0.246 OA
BRANCH  25  27
ATOM     27  O   UNL     1       0.354   0.337  -1.620  1.00  0.00    -0.465 OA
ATOM     28  C   UNL     1       0.924   0.216  -0.315  1.00  0.00     0.282 C 
ENDBRANCH  25  27
ENDBRANCH  17  25
ENDBRANCH   8  16
ENDBRANCH   6   7
ENDBRANCH   5   6
ENDBRANCH   3   5
ENDBRANCH   2   3
ENDBRANCH   1   2
BRANCH   1  29
ATOM     29  C   UNL     1      -3.030   8.771  -9.534  1.00  0.00     0.275 C 
BRANCH  29  30
ATOM     30  O   UNL     1      -2.403   9.840 -10.268  1.00  0.00    -0.458 OA
BRANCH  30  31
ATOM     31  C   UNL     1      -1.050   9.896 -10.172  1.00  0.00     0.338 C 
ATOM     32  O   UNL     1      -0.391   9.749  -9.156  1.00  0.00    -0.246 OA
BRANCH  31  33
ATOM     33  C   UNL     1      -0.500   9.813 -11.548  1.00  0.00     0.060 A 
ATOM     34  C   UNL     1      -1.296  10.096 -12.663  1.00  0.00     0.016 A 
ATOM     35  C   UNL     1       0.733   9.171 -11.706  1.00  0.00     0.016 A 
ATOM     36  C   UNL     1      -0.950   9.562 -13.897  1.00  0.00     0.010 A 
ATOM     37  C   UNL     1       1.064   8.619 -12.939  1.00  0.00     0.010 A 
ATOM     38  C   UNL     1       0.184   8.747 -14.016  1.00  0.00    -0.014 A 
BRANCH  38  39
ATOM     39  C   UNL     1       0.572   8.303 -15.355  1.00  0.00     0.031 A 
ATOM     40  C   UNL     1       1.282   9.392 -16.067  1.00  0.00     0.074 A 
ATOM     41  C   UNL     1       0.418   7.088 -15.925  1.00  0.00     0.049 A 
ATOM     42  N   UNL     1       0.798  10.181 -16.968  1.00  0.00    -0.248 NA
ATOM     43  C   UNL     1       2.597   9.802 -15.548  1.00  0.00     0.031 C 
ATOM     44  C   UNL     1      -0.007   5.828 -15.322  1.00  0.00     0.029 A 
ATOM     45  N   UNL     1       0.678   6.721 -17.219  1.00  0.00    -0.354 N 
ATOM     46  C   UNL     1       1.835  11.046 -17.287  1.00  0.00     0.074 A 
ATOM     47  C   UNL     1       2.799  10.930 -16.227  1.00  0.00     0.031 C 
ATOM     48  C   UNL     1       0.213   4.806 -16.184  1.00  0.00     0.029 A 
ATOM     49  C   UNL     1       0.661   5.346 -17.455  1.00  0.00     0.049 A 
ATOM     50  H   UNL     1       0.863   7.377 -17.928  1.00  0.00     0.167 HD
ATOM     51  C   UNL     1       1.952  11.575 -18.534  1.00  0.00     0.037 A 
ATOM     52  C   UNL     1       0.998   4.704 -18.607  1.00  0.00     0.037 A 
ATOM     53  C   UNL     1       0.708  11.480 -19.256  1.00  0.00     0.049 A 
ATOM     54  C   UNL     1       0.871   5.697 -19.703  1.00  0.00     0.074 A 
ATOM     55  C   UNL     1      -0.573  11.959 -19.054  1.00  0.00     0.029 A 
ATOM     56  N   UNL     1       0.592  10.477 -20.188  1.00  0.00    -0.354 N 
ATOM     57  N   UNL     1      -0.263   6.206 -20.101  1.00  0.00    -0.248 NA
ATOM     58  C   UNL     1       2.058   6.448 -20.075  1.00  0.00     0.031 C 
ATOM     59  C   UNL     1      -1.437  10.930 -19.528  1.00  0.00     0.029 A 
ATOM     60  C   UNL     1      -0.645   9.903 -20.045  1.00  0.00     0.049 A 
ATOM     61  H   UNL     1       1.278  10.216 -20.844  1.00  0.00     0.167 HD
ATOM     62  C   UNL     1       0.028   7.531 -20.390  1.00  0.00     0.074 A 
ATOM     63  C   UNL     1       1.486   7.596 -20.445  1.00  0.00     0.031 C 
ATOM     64  C   UNL     1      -0.926   8.502 -20.284  1.00  0.00     0.037 A 
BRANCH  51  65
ATOM     65  C   UNL     1       3.282  11.811 -19.213  1.00  0.00     0.058 A 
ATOM     66  C   UNL     1       3.309  12.468 -20.458  1.00  0.00     0.135 A 
ATOM     67  C   UNL     1       4.498  11.196 -18.828  1.00  0.00     0.135 A 
ATOM     68  F   UNL     1       2.211  13.075 -20.936  1.00  0.00    -0.206 F 
ATOM     69  C   UNL     1       4.434  12.458 -21.285  1.00  0.00     0.059 A 
ATOM     70  C   UNL     1       5.646  11.227 -19.607  1.00  0.00     0.059 A 
ATOM     71  F   UNL     1       4.619  10.447 -17.727  1.00  0.00    -0.206 F 
ATOM     72  C   UNL     1       5.594  11.824 -20.852  1.00  0.00     0.060 A 
BRANCH  72  73
ATOM     73  S   UNL     1       7.015  11.721 -21.949  1.00  0.00     0.124 S 
ATOM     74  O   UNL     1       6.509  10.845 -22.998  1.00  0.00    -0.237 OA
ATOM     75  O   UNL     1       7.210  13.120 -22.318  1.00  0.00    -0.237 OA
ATOM     76  O   UNL     1       8.057  11.153 -21.098  1.00  0.00    -0.744 OA
ENDBRANCH  72  73
ENDBRANCH  51  65
BRANCH  52  77
ATOM     77  C   UNL     1       1.717   3.409 -18.798  1.00  0.00     0.058 A 
ATOM     78  C   UNL     1       1.850   2.820 -20.074  1.00  0.00     0.135 A 
ATOM     79  C   UNL     1       2.547   2.877 -17.792  1.00  0.00     0.135 A 
ATOM     80  F   UNL     1       1.116   3.268 -21.104  1.00  0.00    -0.206 F 
ATOM     81  C   UNL     1       2.788   1.813 -20.347  1.00  0.00     0.059 A 
ATOM     82  C   UNL     1       3.483   1.869 -18.038  1.00  0.00     0.059 A 
ATOM     83  F   UNL     1       2.542   3.389 -16.553  1.00  0.00    -0.206 F 
ATOM     84  C   UNL     1       3.619   1.361 -19.325  1.00  0.00     0.060 A 
BRANCH  84  85
ATOM     85  S   UNL     1       4.948   0.190 -19.706  1.00  0.00     0.124 S 
ATOM     86  O   UNL     1       4.203  -1.011 -20.066  1.00  0.00    -0.237 OA
ATOM     87  O   UNL     1       5.644   0.859 -20.799  1.00  0.00    -0.237 OA
ATOM     88  O   UNL     1       5.696   0.107 -18.454  1.00  0.00    -0.744 OA
ENDBRANCH  84  85
ENDBRANCH  52  77
BRANCH  64  89
ATOM     89  C   UNL     1      -2.373   8.085 -20.176  1.00  0.00     0.058 A 
ATOM     90  C   UNL     1      -2.925   7.403 -19.076  1.00  0.00     0.135 A 
ATOM     91  C   UNL     1      -3.268   8.578 -21.138  1.00  0.00     0.135 A 
ATOM     92  F   UNL     1      -2.148   6.965 -18.076  1.00  0.00    -0.206 F 
ATOM     93  C   UNL     1      -4.306   7.226 -18.940  1.00  0.00     0.059 A 
ATOM     94  C   UNL     1      -4.647   8.439 -21.008  1.00  0.00     0.059 A 
ATOM     95  F   UNL     1      -2.806   9.275 -22.189  1.00  0.00    -0.206 F 
ATOM     96  C   UNL     1      -5.161   7.764 -19.903  1.00  0.00     0.060 A 
BRANCH  96  97
ATOM     97  S   UNL     1      -6.949   7.665 -19.653  1.00  0.00     0.124 S 
ATOM     98  O   UNL     1      -7.208   6.240 -19.826  1.00  0.00    -0.237 OA
ATOM     99  O   UNL     1      -7.108   8.179 -18.296  1.00  0.00    -0.237 OA
ATOM    100  O   UNL     1      -7.490   8.527 -20.701  1.00  0.00    -0.744 OA
ENDBRANCH  96  97
ENDBRANCH  64  89
ENDBRANCH  38  39
ENDBRANCH  31  33
ENDBRANCH  30  31
ENDBRANCH  29  30
ENDBRANCH   1  29
TORSDOF 19
