REMARK SMILES O=C(CN1C(=O)S/C(=C\c2cccc(F)c2)C1=O)NCC(=O)OCCOC(=O)c1ccc(-c2c3nc(c(-c4c(F)cc(S(=O)(=O)[O-])cc4F)c4ccc([nH]4)c(-c4c(F)cc(S(=O)(=O)[O-])cc4F)c4nc(c(-c5c(F)cc(S(=O)(=O)[O-])cc5F)c5ccc2[nH]5)C=C4)C=C3)cc1
REMARK SMILES IDX 24 1 23 2 21 3 22 4 20 5 19 6 1 7 2 8 3 10 4 11 5 12 17 13
REMARK SMILES IDX 6 14 7 15 8 16 18 17 9 18 10 19 11 20 16 21 12 22 14 23
REMARK SMILES IDX 13 24 15 25 25 26 26 27 27 28 28 29 29 30 30 31 94 32 31 33
REMARK SMILES IDX 93 34 32 35 33 36 34 37 87 38 35 39 92 40 86 41 88 42 36 43
REMARK SMILES IDX 91 44 85 45 84 46 37 48 71 49 50 50 70 51 51 52 54 53 69 54
REMARK SMILES IDX 89 55 52 56 53 57 68 59 90 60 55 61 38 62 39 63 48 64 40 65
REMARK SMILES IDX 41 66 47 67 49 68 42 69 43 70 44 71 45 72 46 73 72 74 73 75
REMARK SMILES IDX 82 76 74 77 75 78 81 79 83 80 76 81 77 82 78 83 79 84 80 85
REMARK SMILES IDX 56 86 57 87 66 88 58 89 59 90 65 91 67 92 60 93 61 94 62 95
REMARK SMILES IDX 63 96 64 97
REMARK H PARENT 19 9 88 47 54 58
REMARK Flexibility Score: inf
ROOT
ATOM      1  C   UNL     1       2.792   2.012   4.732  1.00  0.00     0.274 C 
ENDROOT
BRANCH   1   2
ATOM      2  O   UNL     1       2.380   1.572   3.428  1.00  0.00    -0.461 OA
BRANCH   2   3
ATOM      3  C   UNL     1       1.701   2.469   2.656  1.00  0.00     0.325 C 
ATOM      4  O   UNL     1       1.264   3.542   3.053  1.00  0.00    -0.250 OA
BRANCH   3   5
ATOM      5  C   UNL     1       1.513   1.958   1.231  1.00  0.00     0.238 C 
BRANCH   5   6
ATOM      6  N   UNL     1       2.392   0.849   0.905  1.00  0.00    -0.344 N 
ATOM      7  O   UNL     1       0.962  -0.207  -0.550  1.00  0.00    -0.273 OA
ATOM      8  C   UNL     1       2.063  -0.118  -0.016  1.00  0.00     0.240 C 
ATOM      9  H   UNL     1       3.262   0.787   1.363  1.00  0.00     0.164 HD
BRANCH   8  10
ATOM     10  C   UNL     1       3.240  -1.007  -0.403  1.00  0.00     0.229 C 
BRANCH  10  11
ATOM     11  N   UNL     1       3.848  -0.666  -1.678  1.00  0.00    -0.259 N 
ATOM     12  C   UNL     1       4.050   0.631  -2.068  1.00  0.00     0.294 C 
ATOM     13  C   UNL     1       4.586  -1.619  -2.345  1.00  0.00     0.268 C 
ATOM     14  O   UNL     1       3.720   1.653  -1.484  1.00  0.00    -0.261 OA
ATOM     15  S   UNL     1       4.967   0.678  -3.557  1.00  0.00    -0.022 SA
ATOM     16  C   UNL     1       5.355  -0.992  -3.453  1.00  0.00     0.083 C 
ATOM     17  O   UNL     1       4.686  -2.799  -2.032  1.00  0.00    -0.268 OA
ATOM     18  C   UNL     1       6.252  -1.672  -4.181  1.00  0.00     0.029 C 
BRANCH  18  19
ATOM     19  C   UNL     1       7.090  -1.097  -5.239  1.00  0.00    -0.021 A 
ATOM     20  C   UNL     1       8.054  -0.117  -4.954  1.00  0.00     0.008 A 
ATOM     21  C   UNL     1       6.926  -1.531  -6.556  1.00  0.00     0.047 A 
ATOM     22  C   UNL     1       8.817   0.447  -5.980  1.00  0.00     0.004 A 
ATOM     23  C   UNL     1       7.695  -0.965  -7.569  1.00  0.00     0.123 A 
ATOM     24  C   UNL     1       8.633   0.024  -7.295  1.00  0.00     0.039 A 
ATOM     25  F   UNL     1       7.521  -1.379  -8.831  1.00  0.00    -0.207 F 
ENDBRANCH  18  19
ENDBRANCH  10  11
ENDBRANCH   8  10
ENDBRANCH   5   6
ENDBRANCH   3   5
ENDBRANCH   2   3
ENDBRANCH   1   2
BRANCH   1  26
ATOM     26  C   UNL     1       4.307   2.225   4.755  1.00  0.00     0.275 C 
BRANCH  26  27
ATOM     27  O   UNL     1       4.698   3.381   3.993  1.00  0.00    -0.458 OA
BRANCH  27  28
ATOM     28  C   UNL     1       4.888   3.182   2.666  1.00  0.00     0.338 C 
ATOM     29  O   UNL     1       4.763   2.136   2.049  1.00  0.00    -0.246 OA
BRANCH  28  30
ATOM     30  C   UNL     1       5.179   4.479   2.033  1.00  0.00     0.060 A 
ATOM     31  C   UNL     1       4.343   4.936   1.010  1.00  0.00     0.016 A 
ATOM     32  C   UNL     1       6.304   5.214   2.413  1.00  0.00     0.016 A 
ATOM     33  C   UNL     1       4.640   6.128   0.349  1.00  0.00     0.010 A 
ATOM     34  C   UNL     1       6.595   6.411   1.754  1.00  0.00     0.010 A 
ATOM     35  C   UNL     1       5.774   6.869   0.708  1.00  0.00    -0.014 A 
BRANCH  35  36
ATOM     36  C   UNL     1       6.158   8.095  -0.034  1.00  0.00     0.031 A 
ATOM     37  C   UNL     1       7.377   8.071  -0.913  1.00  0.00     0.074 A 
ATOM     38  C   UNL     1       5.444   9.228   0.107  1.00  0.00     0.049 A 
ATOM     39  N   UNL     1       7.999   9.062  -1.494  1.00  0.00    -0.248 NA
ATOM     40  C   UNL     1       7.980   6.751  -1.165  1.00  0.00     0.031 C 
ATOM     41  C   UNL     1       4.210   9.357   0.883  1.00  0.00     0.029 A 
ATOM     42  N   UNL     1       5.662  10.490  -0.386  1.00  0.00    -0.354 N 
ATOM     43  C   UNL     1       9.074   8.493  -2.166  1.00  0.00     0.074 A 
ATOM     44  C   UNL     1       9.037   7.072  -1.899  1.00  0.00     0.031 C 
ATOM     45  C   UNL     1       3.784  10.629   0.818  1.00  0.00     0.029 A 
ATOM     46  C   UNL     1       4.743  11.417   0.048  1.00  0.00     0.049 A 
ATOM     47  H   UNL     1       6.406  10.711  -0.992  1.00  0.00     0.167 HD
ATOM     48  C   UNL     1       9.999   9.104  -2.943  1.00  0.00     0.037 A 
ATOM     49  C   UNL     1       4.701  12.754  -0.125  1.00  0.00     0.037 A 
ATOM     50  C   UNL     1      10.013  10.519  -3.210  1.00  0.00     0.049 A 
ATOM     51  C   UNL     1       5.794  13.426  -0.914  1.00  0.00     0.074 A 
ATOM     52  C   UNL     1      10.914  11.239  -3.974  1.00  0.00     0.029 A 
ATOM     53  N   UNL     1       9.080  11.427  -2.729  1.00  0.00    -0.354 N 
ATOM     54  N   UNL     1       6.826  12.884  -1.516  1.00  0.00    -0.248 NA
ATOM     55  C   UNL     1       5.728  14.889  -1.041  1.00  0.00     0.031 C 
ATOM     56  C   UNL     1      10.553  12.588  -3.918  1.00  0.00     0.029 A 
ATOM     57  C   UNL     1       9.392  12.701  -3.170  1.00  0.00     0.049 A 
ATOM     58  H   UNL     1       8.310  11.198  -2.160  1.00  0.00     0.167 HD
ATOM     59  C   UNL     1       7.507  13.932  -2.126  1.00  0.00     0.074 A 
ATOM     60  C   UNL     1       6.775  15.143  -1.815  1.00  0.00     0.031 C 
ATOM     61  C   UNL     1       8.633  13.893  -2.879  1.00  0.00     0.037 A 
BRANCH  48  62
ATOM     62  C   UNL     1      11.079   8.259  -3.559  1.00  0.00     0.058 A 
ATOM     63  C   UNL     1      12.414   8.389  -3.140  1.00  0.00     0.135 A 
ATOM     64  C   UNL     1      10.810   7.377  -4.617  1.00  0.00     0.135 A 
ATOM     65  F   UNL     1      12.728   9.213  -2.128  1.00  0.00    -0.206 F 
ATOM     66  C   UNL     1      13.444   7.690  -3.760  1.00  0.00     0.059 A 
ATOM     67  C   UNL     1      11.821   6.647  -5.235  1.00  0.00     0.059 A 
ATOM     68  F   UNL     1       9.549   7.198  -5.043  1.00  0.00    -0.206 F 
ATOM     69  C   UNL     1      13.138   6.822  -4.809  1.00  0.00     0.060 A 
BRANCH  69  70
ATOM     70  S   UNL     1      14.482   5.900  -5.585  1.00  0.00     0.124 S 
ATOM     71  O   UNL     1      15.217   6.957  -6.271  1.00  0.00    -0.237 OA
ATOM     72  O   UNL     1      15.148   5.305  -4.430  1.00  0.00    -0.237 OA
ATOM     73  O   UNL     1      13.786   4.952  -6.450  1.00  0.00    -0.744 OA
ENDBRANCH  69  70
ENDBRANCH  48  62
BRANCH  49  74
ATOM     74  C   UNL     1       3.585  13.544   0.465  1.00  0.00     0.058 A 
ATOM     75  C   UNL     1       3.443  13.689   1.854  1.00  0.00     0.135 A 
ATOM     76  C   UNL     1       2.624  14.153  -0.356  1.00  0.00     0.135 A 
ATOM     77  F   UNL     1       4.331  13.123   2.686  1.00  0.00    -0.206 F 
ATOM     78  C   UNL     1       2.376  14.387   2.408  1.00  0.00     0.059 A 
ATOM     79  C   UNL     1       1.563  14.881   0.174  1.00  0.00     0.059 A 
ATOM     80  F   UNL     1       2.726  14.056  -1.690  1.00  0.00    -0.206 F 
ATOM     81  C   UNL     1       1.439  14.979   1.560  1.00  0.00     0.060 A 
BRANCH  81  82
ATOM     82  S   UNL     1       0.063  15.884   2.301  1.00  0.00     0.124 S 
ATOM     83  O   UNL     1      -0.696  14.804   2.923  1.00  0.00    -0.237 OA
ATOM     84  O   UNL     1       0.751  16.787   3.217  1.00  0.00    -0.237 OA
ATOM     85  O   UNL     1      -0.577  16.523   1.156  1.00  0.00    -0.744 OA
ENDBRANCH  81  82
ENDBRANCH  49  74
BRANCH  61  86
ATOM     86  C   UNL     1       9.133  15.176  -3.482  1.00  0.00     0.058 A 
ATOM     87  C   UNL     1       9.065  15.372  -4.871  1.00  0.00     0.135 A 
ATOM     88  C   UNL     1       9.803  16.141  -2.715  1.00  0.00     0.135 A 
ATOM     89  F   UNL     1       8.438  14.476  -5.651  1.00  0.00    -0.206 F 
ATOM     90  C   UNL     1       9.681  16.457  -5.484  1.00  0.00     0.059 A 
ATOM     91  C   UNL     1      10.404  17.250  -3.304  1.00  0.00     0.059 A 
ATOM     92  F   UNL     1       9.885  16.006  -1.381  1.00  0.00    -0.206 F 
ATOM     93  C   UNL     1      10.360  17.384  -4.693  1.00  0.00     0.060 A 
BRANCH  93  94
ATOM     94  S   UNL     1      11.197  18.758  -5.511  1.00  0.00     0.124 S 
ATOM     95  O   UNL     1      12.274  18.074  -6.218  1.00  0.00    -0.237 OA
ATOM     96  O   UNL     1      10.136  19.308  -6.350  1.00  0.00    -0.237 OA
ATOM     97  O   UNL     1      11.616  19.610  -4.402  1.00  0.00    -0.744 OA
ENDBRANCH  93  94
ENDBRANCH  61  86
ENDBRANCH  35  36
ENDBRANCH  28  30
ENDBRANCH  27  28
ENDBRANCH  26  27
ENDBRANCH   1  26
TORSDOF 18
