REMARK SMILES CCn1c(C(=O)OCCOC(=O)c2ccc(-c3c4nc(c(-c5c(F)cc(S(=O)(=O)[O-])cc5F)c5ccc([nH]5)c(-c5c(F)cc(S(=O)(=O)[O-])cc5F)c5nc(c(-c6c(F)cc(S(=O)(=O)[O-])cc6F)c6ccc3[nH]6)C=C5)C=C4)cc2)c(C[NH2+]Cc2ccccc2Cl)c2ccc(C)cc21
REMARK SMILES IDX 8 1 7 2 5 3 6 4 4 5 3 6 96 7 79 8 90 9 95 10 91 11 93 12
REMARK SMILES IDX 92 13 94 14 2 15 1 16 80 17 81 18 82 21 83 22 84 23 88 24
REMARK SMILES IDX 85 25 87 26 89 27 86 28 9 29 10 30 11 31 12 32 13 33 14 34
REMARK SMILES IDX 78 35 15 36 77 37 16 38 17 39 18 40 71 41 19 42 76 43 70 44
REMARK SMILES IDX 72 45 20 46 75 47 69 48 68 49 21 51 55 52 34 53 54 54 35 55
REMARK SMILES IDX 38 56 53 57 73 58 36 59 37 60 52 62 74 63 39 64 22 65 23 66
REMARK SMILES IDX 32 67 24 68 25 69 31 70 33 71 26 72 27 73 28 74 29 75 30 76
REMARK SMILES IDX 56 77 57 78 66 79 58 80 59 81 65 82 67 83 60 84 61 85 62 86
REMARK SMILES IDX 63 87 64 88 40 89 41 90 50 91 42 92 43 93 49 94 51 95 44 96
REMARK SMILES IDX 45 97 46 98 47 99 48 100
REMARK H PARENT 81 19 81 20 72 50 38 61
REMARK Flexibility Score: inf
ROOT
ATOM      1  C   UNL     1       0.455  -3.967  -1.238  1.00  0.00     0.275 C 
ENDROOT
BRANCH   1   2
ATOM      2  O   UNL     1       1.094  -2.724  -1.641  1.00  0.00    -0.457 OA
BRANCH   2   3
ATOM      3  C   UNL     1       0.396  -2.062  -2.620  1.00  0.00     0.355 C 
ATOM      4  O   UNL     1      -0.696  -2.426  -3.019  1.00  0.00    -0.244 OA
BRANCH   3   5
ATOM      5  C   UNL     1       1.157  -1.013  -3.296  1.00  0.00     0.137 A 
ATOM      6  N   UNL     1       1.640   0.239  -2.975  1.00  0.00    -0.335 N 
ATOM      7  C   UNL     1       1.767   0.976  -4.153  1.00  0.00     0.049 A 
ATOM      8  C   UNL     1       1.405  -1.177  -4.660  1.00  0.00     0.047 A 
ATOM      9  C   UNL     1       1.812   0.070  -5.204  1.00  0.00     0.009 A 
ATOM     10  C   UNL     1       1.939   2.357  -4.339  1.00  0.00     0.030 A 
ATOM     11  C   UNL     1       2.188   0.546  -6.475  1.00  0.00     0.011 A 
ATOM     12  C   UNL     1       2.333   2.818  -5.596  1.00  0.00    -0.049 A 
ATOM     13  C   UNL     1       2.474   1.912  -6.648  1.00  0.00     0.004 A 
ATOM     14  C   UNL     1       2.620   4.282  -5.757  1.00  0.00     0.044 C 
BRANCH   6  15
ATOM     15  C   UNL     1       2.030   0.889  -1.733  1.00  0.00     0.119 C 
ATOM     16  C   UNL     1       2.552   0.075  -0.572  1.00  0.00     0.027 C 
ENDBRANCH   6  15
BRANCH   8  17
ATOM     17  C   UNL     1       1.251  -2.512  -5.317  1.00  0.00     0.300 C 
BRANCH  17  18
ATOM     18  N   UNL     1       2.221  -3.356  -4.598  1.00  0.00    -0.339 N 
ATOM     19  H   UNL     1       1.852  -3.535  -3.664  1.00  0.00     0.346 HD
ATOM     20  H   UNL     1       3.100  -2.838  -4.597  1.00  0.00     0.346 HD
BRANCH  18  21
ATOM     21  C   UNL     1       2.507  -4.633  -5.220  1.00  0.00     0.299 C 
BRANCH  21  22
ATOM     22  C   UNL     1       3.095  -4.545  -6.609  1.00  0.00     0.025 A 
ATOM     23  C   UNL     1       3.600  -3.332  -7.123  1.00  0.00     0.011 A 
ATOM     24  C   UNL     1       3.075  -5.660  -7.455  1.00  0.00     0.049 A 
ATOM     25  C   UNL     1       3.858  -3.180  -8.480  1.00  0.00     0.001 A 
ATOM     26  C   UNL     1       3.385  -5.519  -8.808  1.00  0.00     0.021 A 
ATOM     27  Cl  UNL     1       2.667  -7.237  -6.876  1.00  0.00    -0.084 Cl
ATOM     28  C   UNL     1       3.727  -4.271  -9.328  1.00  0.00     0.002 A 
ENDBRANCH  21  22
ENDBRANCH  18  21
ENDBRANCH  17  18
ENDBRANCH   8  17
ENDBRANCH   3   5
ENDBRANCH   2   3
ENDBRANCH   1   2
BRANCH   1  29
ATOM     29  C   UNL     1       0.675  -4.259   0.255  1.00  0.00     0.275 C 
BRANCH  29  30
ATOM     30  O   UNL     1      -0.271  -3.515   1.055  1.00  0.00    -0.458 OA
BRANCH  30  31
ATOM     31  C   UNL     1       0.128  -2.313   1.546  1.00  0.00     0.338 C 
ATOM     32  O   UNL     1       1.219  -2.043   2.025  1.00  0.00    -0.246 OA
BRANCH  31  33
ATOM     33  C   UNL     1      -0.855  -1.311   1.077  1.00  0.00     0.060 A 
ATOM     34  C   UNL     1      -1.342  -0.172   1.695  1.00  0.00     0.016 A 
ATOM     35  C   UNL     1      -1.145  -1.435  -0.255  1.00  0.00     0.016 A 
ATOM     36  C   UNL     1      -2.055   0.766   0.896  1.00  0.00     0.010 A 
ATOM     37  C   UNL     1      -1.240  -0.306  -1.009  1.00  0.00     0.010 A 
ATOM     38  C   UNL     1      -1.995   0.701  -0.516  1.00  0.00    -0.014 A 
BRANCH  38  39
ATOM     39  C   UNL     1      -2.283   1.757  -1.501  1.00  0.00     0.031 A 
ATOM     40  C   UNL     1      -2.142   3.106  -0.947  1.00  0.00     0.074 A 
ATOM     41  C   UNL     1      -2.539   1.669  -2.835  1.00  0.00     0.049 A 
ATOM     42  N   UNL     1      -2.985   3.623  -0.128  1.00  0.00    -0.248 NA
ATOM     43  C   UNL     1      -0.901   3.869  -1.091  1.00  0.00     0.031 C 
ATOM     44  C   UNL     1      -2.434   0.553  -3.785  1.00  0.00     0.029 A 
ATOM     45  N   UNL     1      -3.045   2.671  -3.630  1.00  0.00    -0.354 N 
ATOM     46  C   UNL     1      -2.544   4.901   0.117  1.00  0.00     0.074 A 
ATOM     47  C   UNL     1      -1.159   4.907  -0.285  1.00  0.00     0.031 C 
ATOM     48  C   UNL     1      -2.758   0.965  -5.039  1.00  0.00     0.029 A 
ATOM     49  C   UNL     1      -3.274   2.321  -4.961  1.00  0.00     0.049 A 
ATOM     50  H   UNL     1      -3.232   3.573  -3.283  1.00  0.00     0.167 HD
ATOM     51  C   UNL     1      -3.458   5.869   0.398  1.00  0.00     0.037 A 
ATOM     52  C   UNL     1      -3.987   3.018  -5.891  1.00  0.00     0.037 A 
ATOM     53  C   UNL     1      -4.788   5.286   0.526  1.00  0.00     0.049 A 
ATOM     54  C   UNL     1      -4.963   3.844  -5.131  1.00  0.00     0.074 A 
ATOM     55  C   UNL     1      -5.341   4.308   1.335  1.00  0.00     0.029 A 
ATOM     56  N   UNL     1      -5.624   5.365  -0.570  1.00  0.00    -0.354 N 
ATOM     57  N   UNL     1      -5.956   3.345  -4.447  1.00  0.00    -0.248 NA
ATOM     58  C   UNL     1      -4.562   5.189  -4.754  1.00  0.00     0.031 C 
ATOM     59  C   UNL     1      -6.162   3.523   0.466  1.00  0.00     0.029 A 
ATOM     60  C   UNL     1      -6.147   4.113  -0.799  1.00  0.00     0.049 A 
ATOM     61  H   UNL     1      -5.813   6.176  -1.096  1.00  0.00     0.167 HD
ATOM     62  C   UNL     1      -6.003   4.103  -3.286  1.00  0.00     0.074 A 
ATOM     63  C   UNL     1      -5.180   5.278  -3.573  1.00  0.00     0.031 C 
ATOM     64  C   UNL     1      -6.479   3.587  -2.113  1.00  0.00     0.037 A 
BRANCH  51  65
ATOM     65  C   UNL     1      -3.255   7.344   0.214  1.00  0.00     0.058 A 
ATOM     66  C   UNL     1      -4.242   8.218   0.713  1.00  0.00     0.135 A 
ATOM     67  C   UNL     1      -2.279   7.930  -0.618  1.00  0.00     0.135 A 
ATOM     68  F   UNL     1      -5.206   7.769   1.532  1.00  0.00    -0.206 F 
ATOM     69  C   UNL     1      -4.311   9.555   0.337  1.00  0.00     0.059 A 
ATOM     70  C   UNL     1      -2.299   9.276  -0.965  1.00  0.00     0.059 A 
ATOM     71  F   UNL     1      -1.314   7.219  -1.209  1.00  0.00    -0.206 F 
ATOM     72  C   UNL     1      -3.344  10.069  -0.519  1.00  0.00     0.060 A 
BRANCH  72  73
ATOM     73  S   UNL     1      -3.504  11.766  -1.093  1.00  0.00     0.124 S 
ATOM     74  O   UNL     1      -4.711  11.683  -1.906  1.00  0.00    -0.237 OA
ATOM     75  O   UNL     1      -3.625  12.496   0.165  1.00  0.00    -0.237 OA
ATOM     76  O   UNL     1      -2.262  11.990  -1.826  1.00  0.00    -0.744 OA
ENDBRANCH  72  73
ENDBRANCH  51  65
BRANCH  52  77
ATOM     77  C   UNL     1      -3.755   3.217  -7.351  1.00  0.00     0.058 A 
ATOM     78  C   UNL     1      -4.726   3.806  -8.189  1.00  0.00     0.135 A 
ATOM     79  C   UNL     1      -2.457   3.130  -7.888  1.00  0.00     0.135 A 
ATOM     80  F   UNL     1      -5.989   3.952  -7.760  1.00  0.00    -0.206 F 
ATOM     81  C   UNL     1      -4.417   4.328  -9.454  1.00  0.00     0.059 A 
ATOM     82  C   UNL     1      -2.125   3.644  -9.147  1.00  0.00     0.059 A 
ATOM     83  F   UNL     1      -1.451   2.626  -7.159  1.00  0.00    -0.206 F 
ATOM     84  C   UNL     1      -3.104   4.266  -9.915  1.00  0.00     0.060 A 
BRANCH  84  85
ATOM     85  S   UNL     1      -2.663   5.095 -11.466  1.00  0.00     0.124 S 
ATOM     86  O   UNL     1      -3.390   4.306 -12.454  1.00  0.00    -0.237 OA
ATOM     87  O   UNL     1      -3.158   6.450 -11.246  1.00  0.00    -0.237 OA
ATOM     88  O   UNL     1      -1.208   4.970 -11.518  1.00  0.00    -0.744 OA
ENDBRANCH  84  85
ENDBRANCH  52  77
BRANCH  64  89
ATOM     89  C   UNL     1      -7.222   2.265  -2.154  1.00  0.00     0.058 A 
ATOM     90  C   UNL     1      -6.668   1.044  -2.582  1.00  0.00     0.135 A 
ATOM     91  C   UNL     1      -8.507   2.203  -1.590  1.00  0.00     0.135 A 
ATOM     92  F   UNL     1      -5.420   0.984  -3.061  1.00  0.00    -0.206 F 
ATOM     93  C   UNL     1      -7.357  -0.168  -2.476  1.00  0.00     0.059 A 
ATOM     94  C   UNL     1      -9.203   1.002  -1.446  1.00  0.00     0.059 A 
ATOM     95  F   UNL     1      -9.087   3.319  -1.118  1.00  0.00    -0.206 F 
ATOM     96  C   UNL     1      -8.625  -0.181  -1.898  1.00  0.00     0.060 A 
BRANCH  96  97
ATOM     97  S   UNL     1      -9.479  -1.759  -1.684  1.00  0.00     0.124 S 
ATOM     98  O   UNL     1      -9.784  -2.137  -3.059  1.00  0.00    -0.237 OA
ATOM     99  O   UNL     1      -8.473  -2.576  -1.010  1.00  0.00    -0.237 OA
ATOM    100  O   UNL     1     -10.637  -1.412  -0.863  1.00  0.00    -0.744 OA
ENDBRANCH  96  97
ENDBRANCH  64  89
ENDBRANCH  38  39
ENDBRANCH  31  33
ENDBRANCH  30  31
ENDBRANCH  29  30
ENDBRANCH   1  29
TORSDOF 19
