REMARK SMILES CCc1c(Cl)ccc2c1C=C(C(=O)OCCOC(=O)c1ccc(-c3c4nc(c(-c5c(F)cc(S(=O)(=O)[O-])cc5F)c5ccc([nH]5)c(-c5c(F)cc(S(=O)(=O)[O-])cc5F)c5nc(c(-c6c(F)cc(S(=O)(=O)[O-])cc6F)c6ccc3[nH]6)C=C5)C=C4)cc1)[C@@H](C(F)(F)F)O2
REMARK SMILES IDX 16 1 15 2 14 3 12 4 13 5 11 6 3 7 4 8 9 9 5 10 6 11 8 12
REMARK SMILES IDX 10 13 7 14 91 15 86 16 2 17 1 18 87 19 88 20 89 21 90 22
REMARK SMILES IDX 17 23 18 24 19 25 20 26 21 27 85 28 22 29 84 30 23 31 24 32
REMARK SMILES IDX 25 33 78 34 26 35 83 36 77 37 79 38 27 39 82 40 76 41 75 42
REMARK SMILES IDX 28 44 62 45 41 46 61 47 42 48 45 49 60 50 80 51 43 52 44 53
REMARK SMILES IDX 59 55 81 56 46 57 29 58 30 59 39 60 31 61 32 62 38 63 40 64
REMARK SMILES IDX 33 65 34 66 35 67 36 68 37 69 63 70 64 71 73 72 65 73 66 74
REMARK SMILES IDX 72 75 74 76 67 77 68 78 69 79 70 80 71 81 47 82 48 83 57 84
REMARK SMILES IDX 49 85 50 86 56 87 58 88 51 89 52 90 53 91 54 92 55 93
REMARK H PARENT 79 43 45 54
REMARK Flexibility Score: inf
ROOT
ATOM      1  C   UNL     1       5.246  -2.096   6.788  1.00  0.00     0.275 C 
ENDROOT
BRANCH   1   2
ATOM      2  C   UNL     1       6.059  -1.050   6.026  1.00  0.00     0.275 C 
BRANCH   2   3
ATOM      3  O   UNL     1       5.224   0.041   5.577  1.00  0.00    -0.459 OA
BRANCH   3   4
ATOM      4  C   UNL     1       4.971   0.086   4.247  1.00  0.00     0.338 C 
ATOM      5  O   UNL     1       5.374  -0.696   3.401  1.00  0.00    -0.246 OA
BRANCH   4   6
ATOM      6  C   UNL     1       4.096   1.236   3.933  1.00  0.00     0.087 C 
ATOM      7  C   UNL     1       1.066   2.035   1.900  1.00  0.00    -0.019 A 
ATOM      8  C   UNL     1       0.398   3.208   1.492  1.00  0.00     0.045 A 
ATOM      9  C   UNL     1       2.206   2.172   2.740  1.00  0.00     0.022 A 
ATOM     10  Cl  UNL     1      -0.953   3.181   0.410  1.00  0.00    -0.084 Cl
ATOM     11  C   UNL     1       0.807   4.464   1.945  1.00  0.00     0.024 A 
ATOM     12  C   UNL     1       2.579   3.438   3.217  1.00  0.00     0.128 A 
ATOM     13  C   UNL     1       3.048   1.043   3.122  1.00  0.00     0.027 C 
ATOM     14  C   UNL     1       1.881   4.576   2.822  1.00  0.00     0.048 A 
ATOM     15  O   UNL     1       3.603   3.668   4.093  1.00  0.00    -0.475 OA
ATOM     16  C   UNL     1       4.498   2.583   4.445  1.00  0.00     0.316 C 
BRANCH   7  17
ATOM     17  C   UNL     1       0.554   0.675   1.452  1.00  0.00     0.034 C 
ATOM     18  C   UNL     1       1.171   0.207   0.142  1.00  0.00     0.009 C 
ENDBRANCH   7  17
BRANCH  16  19
ATOM     19  C   UNL     1       5.916   2.958   3.979  1.00  0.00     0.430 C 
ATOM     20  F   UNL     1       6.264   4.195   4.411  1.00  0.00    -0.167 F 
ATOM     21  F   UNL     1       6.849   2.107   4.471  1.00  0.00    -0.167 F 
ATOM     22  F   UNL     1       6.031   2.953   2.632  1.00  0.00    -0.167 F 
ENDBRANCH  16  19
ENDBRANCH   4   6
ENDBRANCH   3   4
ENDBRANCH   2   3
ENDBRANCH   1   2
BRANCH   1  23
ATOM     23  O   UNL     1       4.357  -2.784   5.891  1.00  0.00    -0.458 OA
BRANCH  23  24
ATOM     24  C   UNL     1       3.058  -2.414   5.961  1.00  0.00     0.338 C 
ATOM     25  O   UNL     1       2.552  -1.617   6.731  1.00  0.00    -0.246 OA
BRANCH  24  26
ATOM     26  C   UNL     1       2.325  -3.048   4.856  1.00  0.00     0.060 A 
ATOM     27  C   UNL     1       1.408  -4.069   5.071  1.00  0.00     0.016 A 
ATOM     28  C   UNL     1       2.486  -2.513   3.584  1.00  0.00     0.016 A 
ATOM     29  C   UNL     1       0.668  -4.559   3.985  1.00  0.00     0.010 A 
ATOM     30  C   UNL     1       1.656  -2.904   2.543  1.00  0.00     0.010 A 
ATOM     31  C   UNL     1       0.754  -3.958   2.712  1.00  0.00    -0.014 A 
BRANCH  31  32
ATOM     32  C   UNL     1      -0.067  -4.415   1.550  1.00  0.00     0.031 A 
ATOM     33  C   UNL     1       0.589  -4.769   0.231  1.00  0.00     0.074 A 
ATOM     34  C   UNL     1      -1.412  -4.448   1.649  1.00  0.00     0.049 A 
ATOM     35  N   UNL     1       0.032  -5.101  -0.908  1.00  0.00    -0.248 NA
ATOM     36  C   UNL     1       2.058  -4.687   0.164  1.00  0.00     0.031 C 
ATOM     37  C   UNL     1      -2.189  -4.037   2.822  1.00  0.00     0.029 A 
ATOM     38  N   UNL     1      -2.369  -4.855   0.751  1.00  0.00    -0.354 N 
ATOM     39  C   UNL     1       1.075  -5.228  -1.822  1.00  0.00     0.074 A 
ATOM     40  C   UNL     1       2.287  -4.856  -1.130  1.00  0.00     0.031 C 
ATOM     41  C   UNL     1      -3.489  -4.285   2.601  1.00  0.00     0.029 A 
ATOM     42  C   UNL     1      -3.649  -4.824   1.255  1.00  0.00     0.049 A 
ATOM     43  H   UNL     1      -2.158  -5.141  -0.167  1.00  0.00     0.167 HD
ATOM     44  C   UNL     1       1.042  -5.663  -3.105  1.00  0.00     0.037 A 
ATOM     45  C   UNL     1      -4.819  -5.200   0.703  1.00  0.00     0.037 A 
ATOM     46  C   UNL     1      -0.152  -6.117  -3.768  1.00  0.00     0.049 A 
ATOM     47  C   UNL     1      -4.826  -5.747  -0.698  1.00  0.00     0.074 A 
ATOM     48  C   UNL     1      -0.281  -6.660  -5.034  1.00  0.00     0.029 A 
ATOM     49  N   UNL     1      -1.421  -6.106  -3.207  1.00  0.00    -0.354 N 
ATOM     50  N   UNL     1      -3.820  -5.909  -1.524  1.00  0.00    -0.248 NA
ATOM     51  C   UNL     1      -6.126  -6.166  -1.240  1.00  0.00     0.031 C 
ATOM     52  C   UNL     1      -1.632  -6.954  -5.249  1.00  0.00     0.029 A 
ATOM     53  C   UNL     1      -2.339  -6.630  -4.102  1.00  0.00     0.049 A 
ATOM     54  H   UNL     1      -1.637  -5.774  -2.306  1.00  0.00     0.167 HD
ATOM     55  C   UNL     1      -4.364  -6.460  -2.680  1.00  0.00     0.074 A 
ATOM     56  C   UNL     1      -5.782  -6.628  -2.434  1.00  0.00     0.031 C 
ATOM     57  C   UNL     1      -3.747  -6.789  -3.842  1.00  0.00     0.037 A 
BRANCH  44  58
ATOM     58  C   UNL     1       2.344  -5.722  -3.863  1.00  0.00     0.058 A 
ATOM     59  C   UNL     1       3.350  -6.642  -3.522  1.00  0.00     0.135 A 
ATOM     60  C   UNL     1       2.577  -4.884  -4.966  1.00  0.00     0.135 A 
ATOM     61  F   UNL     1       3.189  -7.460  -2.470  1.00  0.00    -0.206 F 
ATOM     62  C   UNL     1       4.550  -6.705  -4.221  1.00  0.00     0.059 A 
ATOM     63  C   UNL     1       3.758  -4.953  -5.702  1.00  0.00     0.059 A 
ATOM     64  F   UNL     1       1.651  -3.989  -5.343  1.00  0.00    -0.206 F 
ATOM     65  C   UNL     1       4.745  -5.858  -5.313  1.00  0.00     0.060 A 
BRANCH  65  66
ATOM     66  S   UNL     1       6.303  -5.970  -6.217  1.00  0.00     0.124 S 
ATOM     67  O   UNL     1       7.240  -5.391  -5.258  1.00  0.00    -0.237 OA
ATOM     68  O   UNL     1       6.432  -7.407  -6.437  1.00  0.00    -0.237 OA
ATOM     69  O   UNL     1       6.061  -5.174  -7.416  1.00  0.00    -0.744 OA
ENDBRANCH  65  66
ENDBRANCH  44  58
BRANCH  45  70
ATOM     70  C   UNL     1      -6.072  -5.131   1.503  1.00  0.00     0.058 A 
ATOM     71  C   UNL     1      -6.685  -6.303   1.970  1.00  0.00     0.135 A 
ATOM     72  C   UNL     1      -6.661  -3.905   1.846  1.00  0.00     0.135 A 
ATOM     73  F   UNL     1      -6.162  -7.501   1.663  1.00  0.00    -0.206 F 
ATOM     74  C   UNL     1      -7.843  -6.265   2.739  1.00  0.00     0.059 A 
ATOM     75  C   UNL     1      -7.805  -3.839   2.636  1.00  0.00     0.059 A 
ATOM     76  F   UNL     1      -6.103  -2.753   1.440  1.00  0.00    -0.206 F 
ATOM     77  C   UNL     1      -8.392  -5.027   3.074  1.00  0.00     0.060 A 
BRANCH  77  78
ATOM     78  S   UNL     1      -9.858  -4.992   4.128  1.00  0.00     0.124 S 
ATOM     79  O   UNL     1     -10.882  -5.508   3.227  1.00  0.00    -0.237 OA
ATOM     80  O   UNL     1      -9.467  -5.874   5.223  1.00  0.00    -0.237 OA
ATOM     81  O   UNL     1      -9.984  -3.581   4.483  1.00  0.00    -0.744 OA
ENDBRANCH  77  78
ENDBRANCH  45  70
BRANCH  57  82
ATOM     82  C   UNL     1      -4.599  -7.375  -4.932  1.00  0.00     0.058 A 
ATOM     83  C   UNL     1      -5.506  -6.585  -5.657  1.00  0.00     0.135 A 
ATOM     84  C   UNL     1      -4.478  -8.728  -5.285  1.00  0.00     0.135 A 
ATOM     85  F   UNL     1      -5.662  -5.286  -5.356  1.00  0.00    -0.206 F 
ATOM     86  C   UNL     1      -6.285  -7.125  -6.675  1.00  0.00     0.059 A 
ATOM     87  C   UNL     1      -5.227  -9.282  -6.319  1.00  0.00     0.059 A 
ATOM     88  F   UNL     1      -3.616  -9.523  -4.632  1.00  0.00    -0.206 F 
ATOM     89  C   UNL     1      -6.138  -8.475  -6.998  1.00  0.00     0.060 A 
BRANCH  89  90
ATOM     90  S   UNL     1      -7.146  -9.156  -8.332  1.00  0.00     0.124 S 
ATOM     91  O   UNL     1      -8.465  -9.199  -7.711  1.00  0.00    -0.237 OA
ATOM     92  O   UNL     1      -6.975  -8.164  -9.389  1.00  0.00    -0.237 OA
ATOM     93  O   UNL     1      -6.532 -10.454  -8.593  1.00  0.00    -0.744 OA
ENDBRANCH  89  90
ENDBRANCH  57  82
ENDBRANCH  31  32
ENDBRANCH  24  26
ENDBRANCH  23  24
ENDBRANCH   1  23
TORSDOF 16
