REMARK SMILES O=C(OCCOC(=O)c1nnn(-c2cccc(C(F)(F)F)c2)c1[C@@H]1COc2ccccc2O1)c1ccc(-c2c3nc(c(-c4c(F)cc(S(=O)(=O)[O-])cc4F)c4ccc([nH]4)c(-c4c(F)cc(S(=O)(=O)[O-])cc4F)c4nc(c(-c5c(F)cc(S(=O)(=O)[O-])cc5F)c5ccc2[nH]5)C=C4)C=C3)cc1
REMARK SMILES IDX 4 1 3 2 2 3 1 4 34 5 35 6 99 7 36 8 98 9 37 10 38 11 39 12
REMARK SMILES IDX 92 13 40 14 97 15 91 16 93 17 41 18 96 19 90 20 89 21 42 23
REMARK SMILES IDX 76 24 55 25 75 26 56 27 59 28 74 29 94 30 57 31 58 32 73 34
REMARK SMILES IDX 95 35 60 36 43 37 44 38 53 39 45 40 46 41 52 42 54 43 47 44
REMARK SMILES IDX 48 45 49 46 50 47 51 48 77 49 78 50 87 51 79 52 80 53 86 54
REMARK SMILES IDX 88 55 81 56 82 57 83 58 84 59 85 60 61 61 62 62 71 63 63 64
REMARK SMILES IDX 64 65 70 66 72 67 65 68 66 69 67 70 68 71 69 72 5 73 6 74
REMARK SMILES IDX 7 75 8 76 9 77 10 78 23 79 11 80 12 81 24 82 25 83 33 84
REMARK SMILES IDX 26 85 32 86 27 87 31 88 28 89 30 90 29 91 13 92 14 93 22 94
REMARK SMILES IDX 15 95 17 96 16 97 18 98 19 99 20 100 21 101
REMARK H PARENT 93 22 59 33
REMARK Flexibility Score: inf
ROOT
ATOM      1  C   UNL     1       4.590   0.008   0.895  1.00  0.00     0.275 C 
ENDROOT
BRANCH   1   2
ATOM      2  O   UNL     1       3.470   0.907   1.019  1.00  0.00    -0.458 OA
BRANCH   2   3
ATOM      3  C   UNL     1       2.347   0.627   0.320  1.00  0.00     0.338 C 
ATOM      4  O   UNL     1       1.527  -0.214   0.643  1.00  0.00    -0.246 OA
BRANCH   3   5
ATOM      5  C   UNL     1       2.197   1.524  -0.850  1.00  0.00     0.060 A 
ATOM      6  C   UNL     1       3.273   2.280  -1.327  1.00  0.00     0.016 A 
ATOM      7  C   UNL     1       0.952   1.589  -1.491  1.00  0.00     0.016 A 
ATOM      8  C   UNL     1       3.095   3.122  -2.413  1.00  0.00     0.010 A 
ATOM      9  C   UNL     1       0.769   2.447  -2.574  1.00  0.00     0.010 A 
ATOM     10  C   UNL     1       1.839   3.223  -3.023  1.00  0.00    -0.014 A 
BRANCH  10  11
ATOM     11  C   UNL     1       1.741   4.111  -4.176  1.00  0.00     0.031 A 
ATOM     12  C   UNL     1       2.471   3.676  -5.398  1.00  0.00     0.074 A 
ATOM     13  C   UNL     1       1.007   5.239  -4.206  1.00  0.00     0.049 A 
ATOM     14  N   UNL     1       3.510   4.220  -5.945  1.00  0.00    -0.248 NA
ATOM     15  C   UNL     1       2.032   2.435  -6.049  1.00  0.00     0.031 C 
ATOM     16  C   UNL     1      -0.006   5.685  -3.251  1.00  0.00     0.029 A 
ATOM     17  N   UNL     1       0.969   6.196  -5.178  1.00  0.00    -0.354 N 
ATOM     18  C   UNL     1       3.740   3.515  -7.126  1.00  0.00     0.074 A 
ATOM     19  C   UNL     1       2.887   2.354  -7.070  1.00  0.00     0.031 C 
ATOM     20  C   UNL     1      -0.698   6.714  -3.793  1.00  0.00     0.029 A 
ATOM     21  C   UNL     1      -0.091   7.082  -5.063  1.00  0.00     0.049 A 
ATOM     22  H   UNL     1       1.637   6.253  -5.899  1.00  0.00     0.167 HD
ATOM     23  C   UNL     1       4.477   4.036  -8.148  1.00  0.00     0.037 A 
ATOM     24  C   UNL     1      -0.476   8.008  -5.977  1.00  0.00     0.037 A 
ATOM     25  C   UNL     1       5.283   5.147  -7.713  1.00  0.00     0.049 A 
ATOM     26  C   UNL     1       0.684   8.288  -6.861  1.00  0.00     0.074 A 
ATOM     27  C   UNL     1       6.256   5.328  -6.748  1.00  0.00     0.029 A 
ATOM     28  N   UNL     1       4.916   6.413  -8.101  1.00  0.00    -0.354 N 
ATOM     29  N   UNL     1       1.762   8.919  -6.486  1.00  0.00    -0.248 NA
ATOM     30  C   UNL     1       0.810   7.524  -8.093  1.00  0.00     0.031 C 
ATOM     31  C   UNL     1       6.054   6.652  -6.259  1.00  0.00     0.029 A 
ATOM     32  C   UNL     1       4.999   7.206  -6.985  1.00  0.00     0.049 A 
ATOM     33  H   UNL     1       4.646   6.696  -9.004  1.00  0.00     0.167 HD
ATOM     34  C   UNL     1       2.794   8.307  -7.180  1.00  0.00     0.074 A 
ATOM     35  C   UNL     1       2.137   7.537  -8.232  1.00  0.00     0.031 C 
ATOM     36  C   UNL     1       4.062   8.261  -6.676  1.00  0.00     0.037 A 
BRANCH  23  37
ATOM     37  C   UNL     1       4.236   3.751  -9.615  1.00  0.00     0.058 A 
ATOM     38  C   UNL     1       5.169   4.202 -10.574  1.00  0.00     0.135 A 
ATOM     39  C   UNL     1       2.997   3.317 -10.133  1.00  0.00     0.135 A 
ATOM     40  F   UNL     1       6.382   4.639 -10.197  1.00  0.00    -0.206 F 
ATOM     41  C   UNL     1       4.862   4.299 -11.932  1.00  0.00     0.059 A 
ATOM     42  C   UNL     1       2.689   3.353 -11.489  1.00  0.00     0.059 A 
ATOM     43  F   UNL     1       1.990   2.929  -9.340  1.00  0.00    -0.206 F 
ATOM     44  C   UNL     1       3.608   3.892 -12.375  1.00  0.00     0.060 A 
BRANCH  44  45
ATOM     45  S   UNL     1       3.157   4.137 -14.102  1.00  0.00     0.124 S 
ATOM     46  O   UNL     1       2.988   5.584 -14.153  1.00  0.00    -0.237 OA
ATOM     47  O   UNL     1       4.323   3.603 -14.800  1.00  0.00    -0.237 OA
ATOM     48  O   UNL     1       1.936   3.349 -14.243  1.00  0.00    -0.744 OA
ENDBRANCH  44  45
ENDBRANCH  23  37
BRANCH  24  49
ATOM     49  C   UNL     1      -1.852   8.452  -6.313  1.00  0.00     0.058 A 
ATOM     50  C   UNL     1      -2.075   9.594  -7.103  1.00  0.00     0.135 A 
ATOM     51  C   UNL     1      -2.963   7.608  -6.112  1.00  0.00     0.135 A 
ATOM     52  F   UNL     1      -1.069  10.442  -7.365  1.00  0.00    -0.206 F 
ATOM     53  C   UNL     1      -3.311   9.855  -7.702  1.00  0.00     0.059 A 
ATOM     54  C   UNL     1      -4.207   7.856  -6.686  1.00  0.00     0.059 A 
ATOM     55  F   UNL     1      -2.846   6.460  -5.428  1.00  0.00    -0.206 F 
ATOM     56  C   UNL     1      -4.366   8.966  -7.505  1.00  0.00     0.060 A 
BRANCH  56  57
ATOM     57  S   UNL     1      -5.903   9.192  -8.430  1.00  0.00     0.124 S 
ATOM     58  O   UNL     1      -6.469  10.373  -7.789  1.00  0.00    -0.237 OA
ATOM     59  O   UNL     1      -5.418   9.377  -9.794  1.00  0.00    -0.237 OA
ATOM     60  O   UNL     1      -6.627   7.946  -8.194  1.00  0.00    -0.744 OA
ENDBRANCH  56  57
ENDBRANCH  24  49
BRANCH  36  61
ATOM     61  C   UNL     1       4.426   9.191  -5.549  1.00  0.00     0.058 A 
ATOM     62  C   UNL     1       3.802   9.201  -4.289  1.00  0.00     0.135 A 
ATOM     63  C   UNL     1       5.548  10.019  -5.714  1.00  0.00     0.135 A 
ATOM     64  F   UNL     1       2.799   8.355  -4.007  1.00  0.00    -0.206 F 
ATOM     65  C   UNL     1       4.239  10.039  -3.262  1.00  0.00     0.059 A 
ATOM     66  C   UNL     1       6.024  10.835  -4.692  1.00  0.00     0.059 A 
ATOM     67  F   UNL     1       6.230  10.008  -6.872  1.00  0.00    -0.206 F 
ATOM     68  C   UNL     1       5.352  10.853  -3.472  1.00  0.00     0.060 A 
BRANCH  68  69
ATOM     69  S   UNL     1       5.961  11.879  -2.117  1.00  0.00     0.124 S 
ATOM     70  O   UNL     1       4.958  12.935  -2.056  1.00  0.00    -0.237 OA
ATOM     71  O   UNL     1       5.971  10.946  -0.992  1.00  0.00    -0.237 OA
ATOM     72  O   UNL     1       7.284  12.299  -2.574  1.00  0.00    -0.744 OA
ENDBRANCH  68  69
ENDBRANCH  36  61
ENDBRANCH  10  11
ENDBRANCH   3   5
ENDBRANCH   2   3
ENDBRANCH   1   2
BRANCH   1  73
ATOM     73  C   UNL     1       4.271  -1.474   0.705  1.00  0.00     0.275 C 
BRANCH  73  74
ATOM     74  O   UNL     1       3.750  -1.692  -0.618  1.00  0.00    -0.457 OA
BRANCH  74  75
ATOM     75  C   UNL     1       2.705  -2.578  -0.703  1.00  0.00     0.361 C 
ATOM     76  O   UNL     1       2.278  -3.236   0.230  1.00  0.00    -0.244 OA
BRANCH  75  77
ATOM     77  C   UNL     1       2.204  -2.696  -2.065  1.00  0.00     0.198 A 
ATOM     78  N   UNL     1       0.865  -2.758  -2.346  1.00  0.00    -0.122 NA
ATOM     79  C   UNL     1       2.925  -2.764  -3.252  1.00  0.00     0.123 A 
ATOM     80  N   UNL     1       0.722  -2.846  -3.659  1.00  0.00    -0.061 NA
ATOM     81  N   UNL     1       1.949  -2.986  -4.209  1.00  0.00    -0.213 N 
BRANCH  79  82
ATOM     82  C   UNL     1       4.385  -2.536  -3.507  1.00  0.00     0.262 C 
ATOM     83  C   UNL     1       4.678  -1.142  -4.073  1.00  0.00     0.281 C 
ATOM     84  O   UNL     1       4.957  -3.612  -4.259  1.00  0.00    -0.477 OA
ATOM     85  O   UNL     1       4.340  -1.056  -5.458  1.00  0.00    -0.485 OA
ATOM     86  C   UNL     1       5.304  -3.280  -5.544  1.00  0.00     0.162 A 
ATOM     87  C   UNL     1       4.967  -2.063  -6.143  1.00  0.00     0.161 A 
ATOM     88  C   UNL     1       5.952  -4.264  -6.290  1.00  0.00     0.050 A 
ATOM     89  C   UNL     1       5.210  -1.854  -7.497  1.00  0.00     0.050 A 
ATOM     90  C   UNL     1       6.226  -4.043  -7.641  1.00  0.00     0.004 A 
ATOM     91  C   UNL     1       5.842  -2.846  -8.247  1.00  0.00     0.004 A 
ENDBRANCH  79  82
BRANCH  81  92
ATOM     92  C   UNL     1       2.048  -3.678  -5.429  1.00  0.00     0.067 A 
ATOM     93  C   UNL     1       1.710  -3.035  -6.619  1.00  0.00     0.028 A 
ATOM     94  C   UNL     1       2.455  -5.019  -5.417  1.00  0.00     0.041 A 
ATOM     95  C   UNL     1       1.874  -3.719  -7.823  1.00  0.00     0.003 A 
ATOM     96  C   UNL     1       2.573  -5.723  -6.623  1.00  0.00     0.058 A 
ATOM     97  C   UNL     1       2.308  -5.049  -7.827  1.00  0.00     0.013 A 
BRANCH  96  98
ATOM     98  C   UNL     1       3.018  -7.162  -6.626  1.00  0.00     0.416 C 
ATOM     99  F   UNL     1       2.432  -7.903  -7.609  1.00  0.00    -0.166 F 
ATOM    100  F   UNL     1       4.361  -7.297  -6.808  1.00  0.00    -0.166 F 
ATOM    101  F   UNL     1       2.737  -7.815  -5.461  1.00  0.00    -0.166 F 
ENDBRANCH  96  98
ENDBRANCH  81  92
ENDBRANCH  75  77
ENDBRANCH  74  75
ENDBRANCH  73  74
ENDBRANCH   1  73
TORSDOF 17
