REMARK SMILES COc1ccc(-c2sc(C(=O)OCCOC(=O)c3ccc(-c4c5nc(c(-c6c(F)cc(S(=O)(=O)[O-])cc6F)c6ccc([nH]6)c(-c6c(F)cc(S(=O)(=O)[O-])cc6F)c6nc(c(-c7c(F)cc(S(=O)(=O)[O-])cc7F)c7ccc4[nH]7)C=C6)C=C5)cc3)cc2C)c(OC)c1
REMARK SMILES IDX 14 1 13 2 12 3 10 4 11 5 9 6 7 7 8 8 85 9 84 10 86 11 6 12
REMARK SMILES IDX 3 13 4 14 90 15 5 16 87 17 2 18 1 19 88 20 89 21 15 22 16 23
REMARK SMILES IDX 17 24 18 25 19 26 83 27 20 28 82 29 21 30 22 31 23 32 76 33
REMARK SMILES IDX 24 34 81 35 75 36 77 37 25 38 80 39 74 40 73 41 26 43 60 44
REMARK SMILES IDX 39 45 59 46 40 47 43 48 58 49 78 50 41 51 42 52 57 54 79 55
REMARK SMILES IDX 44 56 27 57 28 58 37 59 29 60 30 61 36 62 38 63 31 64 32 65
REMARK SMILES IDX 33 66 34 67 35 68 61 69 62 70 71 71 63 72 64 73 70 74 72 75
REMARK SMILES IDX 65 76 66 77 67 78 68 79 69 80 45 81 46 82 55 83 47 84 48 85
REMARK SMILES IDX 54 86 56 87 49 88 50 89 51 90 52 91 53 92
REMARK H PARENT 77 42 43 53
REMARK Flexibility Score: inf
ROOT
ATOM      1  C   UNL     1       3.047   3.778  11.590  1.00  0.00     0.275 C 
ENDROOT
BRANCH   1   2
ATOM      2  C   UNL     1       1.671   4.094  10.997  1.00  0.00     0.275 C 
BRANCH   2   3
ATOM      3  O   UNL     1       1.644   3.884   9.571  1.00  0.00    -0.458 OA
BRANCH   3   4
ATOM      4  C   UNL     1       1.793   5.004   8.804  1.00  0.00     0.348 C 
ATOM      5  O   UNL     1       1.873   6.140   9.262  1.00  0.00    -0.245 OA
BRANCH   4   6
ATOM      6  C   UNL     1       1.958   4.689   7.397  1.00  0.00     0.113 A 
ATOM      7  C   UNL     1       1.918   3.737   5.115  1.00  0.00     0.042 A 
ATOM      8  S   UNL     1       1.284   3.309   6.654  1.00  0.00    -0.128 S 
ATOM      9  C   UNL     1       2.732   4.856   5.180  1.00  0.00    -0.031 A 
ATOM     10  C   UNL     1       2.635   5.460   6.469  1.00  0.00     0.031 A 
ATOM     11  C   UNL     1       3.570   5.416   4.077  1.00  0.00     0.046 C 
BRANCH   7  12
ATOM     12  C   UNL     1       1.540   2.958   3.930  1.00  0.00     0.034 A 
ATOM     13  C   UNL     1       0.752   1.687   1.557  1.00  0.00     0.122 A 
ATOM     14  C   UNL     1      -0.152   2.486   2.253  1.00  0.00     0.047 A 
ATOM     15  C   UNL     1       2.059   1.536   2.032  1.00  0.00     0.093 A 
ATOM     16  C   UNL     1       0.234   3.109   3.436  1.00  0.00     0.017 A 
ATOM     17  C   UNL     1       2.466   2.176   3.213  1.00  0.00     0.131 A 
BRANCH  13  18
ATOM     18  O   UNL     1       0.262   1.143   0.400  1.00  0.00    -0.497 OA
ATOM     19  C   UNL     1       0.873  -0.072  -0.016  1.00  0.00     0.278 C 
ENDBRANCH  13  18
BRANCH  17  20
ATOM     20  O   UNL     1       3.731   2.097   3.737  1.00  0.00    -0.496 OA
ATOM     21  C   UNL     1       4.759   1.562   2.914  1.00  0.00     0.278 C 
ENDBRANCH  17  20
ENDBRANCH   7  12
ENDBRANCH   4   6
ENDBRANCH   3   4
ENDBRANCH   2   3
ENDBRANCH   1   2
BRANCH   1  22
ATOM     22  O   UNL     1       4.041   4.715  11.136  1.00  0.00    -0.458 OA
BRANCH  22  23
ATOM     23  C   UNL     1       4.870   4.244  10.176  1.00  0.00     0.338 C 
ATOM     24  O   UNL     1       4.870   3.130   9.681  1.00  0.00    -0.246 OA
BRANCH  23  25
ATOM     25  C   UNL     1       5.773   5.309   9.715  1.00  0.00     0.060 A 
ATOM     26  C   UNL     1       5.324   6.152   8.705  1.00  0.00     0.016 A 
ATOM     27  C   UNL     1       7.099   5.362  10.131  1.00  0.00     0.016 A 
ATOM     28  C   UNL     1       6.213   6.976   8.024  1.00  0.00     0.010 A 
ATOM     29  C   UNL     1       7.972   6.269   9.517  1.00  0.00     0.010 A 
ATOM     30  C   UNL     1       7.551   7.058   8.427  1.00  0.00    -0.014 A 
BRANCH  30  31
ATOM     31  C   UNL     1       8.512   7.930   7.692  1.00  0.00     0.031 A 
ATOM     32  C   UNL     1       9.758   7.334   7.085  1.00  0.00     0.074 A 
ATOM     33  C   UNL     1       8.277   9.252   7.563  1.00  0.00     0.049 A 
ATOM     34  N   UNL     1      10.809   7.935   6.590  1.00  0.00    -0.248 NA
ATOM     35  C   UNL     1       9.837   5.864   7.043  1.00  0.00     0.031 C 
ATOM     36  C   UNL     1       7.086   9.955   8.048  1.00  0.00     0.029 A 
ATOM     37  N   UNL     1       9.033  10.248   6.991  1.00  0.00    -0.354 N 
ATOM     38  C   UNL     1      11.694   6.924   6.229  1.00  0.00     0.074 A 
ATOM     39  C   UNL     1      11.062   5.669   6.576  1.00  0.00     0.031 C 
ATOM     40  C   UNL     1       7.181  11.256   7.735  1.00  0.00     0.029 A 
ATOM     41  C   UNL     1       8.478  11.501   7.116  1.00  0.00     0.049 A 
ATOM     42  H   UNL     1       9.889  10.080   6.534  1.00  0.00     0.167 HD
ATOM     43  C   UNL     1      12.920   7.034   5.661  1.00  0.00     0.037 A 
ATOM     44  C   UNL     1       8.973  12.719   6.821  1.00  0.00     0.037 A 
ATOM     45  C   UNL     1      13.520   8.289   5.282  1.00  0.00     0.049 A 
ATOM     46  C   UNL     1      10.360  12.822   6.248  1.00  0.00     0.074 A 
ATOM     47  C   UNL     1      14.752   8.510   4.690  1.00  0.00     0.029 A 
ATOM     48  N   UNL     1      12.930   9.534   5.448  1.00  0.00    -0.354 N 
ATOM     49  N   UNL     1      11.203  11.861   5.954  1.00  0.00    -0.248 NA
ATOM     50  C   UNL     1      10.868  14.173   5.976  1.00  0.00     0.031 C 
ATOM     51  C   UNL     1      14.926   9.889   4.543  1.00  0.00     0.029 A 
ATOM     52  C   UNL     1      13.778  10.526   4.986  1.00  0.00     0.049 A 
ATOM     53  H   UNL     1      12.039   9.688   5.837  1.00  0.00     0.167 HD
ATOM     54  C   UNL     1      12.329  12.490   5.435  1.00  0.00     0.074 A 
ATOM     55  C   UNL     1      12.056  13.912   5.447  1.00  0.00     0.031 C 
ATOM     56  C   UNL     1      13.483  11.938   4.986  1.00  0.00     0.037 A 
BRANCH  43  57
ATOM     57  C   UNL     1      13.713   5.771   5.444  1.00  0.00     0.058 A 
ATOM     58  C   UNL     1      13.354   4.818   4.478  1.00  0.00     0.135 A 
ATOM     59  C   UNL     1      14.879   5.531   6.192  1.00  0.00     0.135 A 
ATOM     60  F   UNL     1      12.243   4.986   3.743  1.00  0.00    -0.206 F 
ATOM     61  C   UNL     1      14.101   3.659   4.284  1.00  0.00     0.059 A 
ATOM     62  C   UNL     1      15.659   4.395   5.993  1.00  0.00     0.059 A 
ATOM     63  F   UNL     1      15.274   6.408   7.128  1.00  0.00    -0.206 F 
ATOM     64  C   UNL     1      15.253   3.457   5.047  1.00  0.00     0.060 A 
BRANCH  64  65
ATOM     65  S   UNL     1      16.211   1.950   4.781  1.00  0.00     0.124 S 
ATOM     66  O   UNL     1      15.332   0.939   5.361  1.00  0.00    -0.237 OA
ATOM     67  O   UNL     1      16.341   1.916   3.328  1.00  0.00    -0.237 OA
ATOM     68  O   UNL     1      17.449   2.198   5.513  1.00  0.00    -0.744 OA
ENDBRANCH  64  65
ENDBRANCH  43  57
BRANCH  44  69
ATOM     69  C   UNL     1       8.167  13.939   7.102  1.00  0.00     0.058 A 
ATOM     70  C   UNL     1       7.676  14.738   6.060  1.00  0.00     0.135 A 
ATOM     71  C   UNL     1       7.862  14.324   8.418  1.00  0.00     0.135 A 
ATOM     72  F   UNL     1       7.948  14.419   4.785  1.00  0.00    -0.206 F 
ATOM     73  C   UNL     1       6.923  15.881   6.310  1.00  0.00     0.059 A 
ATOM     74  C   UNL     1       7.084  15.444   8.693  1.00  0.00     0.059 A 
ATOM     75  F   UNL     1       8.297  13.589   9.454  1.00  0.00    -0.206 F 
ATOM     76  C   UNL     1       6.629  16.224   7.631  1.00  0.00     0.060 A 
BRANCH  76  77
ATOM     77  S   UNL     1       5.615  17.685   7.941  1.00  0.00     0.124 S 
ATOM     78  O   UNL     1       6.543  18.761   7.612  1.00  0.00    -0.237 OA
ATOM     79  O   UNL     1       4.506  17.491   7.013  1.00  0.00    -0.237 OA
ATOM     80  O   UNL     1       5.269  17.560   9.354  1.00  0.00    -0.744 OA
ENDBRANCH  76  77
ENDBRANCH  44  69
BRANCH  56  81
ATOM     81  C   UNL     1      14.519  12.866   4.411  1.00  0.00     0.058 A 
ATOM     82  C   UNL     1      15.283  13.720   5.219  1.00  0.00     0.135 A 
ATOM     83  C   UNL     1      14.789  12.851   3.032  1.00  0.00     0.135 A 
ATOM     84  F   UNL     1      15.059  13.781   6.541  1.00  0.00    -0.206 F 
ATOM     85  C   UNL     1      16.268  14.541   4.679  1.00  0.00     0.059 A 
ATOM     86  C   UNL     1      15.789  13.640   2.475  1.00  0.00     0.059 A 
ATOM     87  F   UNL     1      14.091  12.046   2.215  1.00  0.00    -0.206 F 
ATOM     88  C   UNL     1      16.518  14.489   3.306  1.00  0.00     0.060 A 
BRANCH  88  89
ATOM     89  S   UNL     1      17.833  15.522   2.625  1.00  0.00     0.124 S 
ATOM     90  O   UNL     1      17.235  16.850   2.705  1.00  0.00    -0.237 OA
ATOM     91  O   UNL     1      18.936  15.267   3.546  1.00  0.00    -0.237 OA
ATOM     92  O   UNL     1      18.016  14.996   1.276  1.00  0.00    -0.744 OA
ENDBRANCH  88  89
ENDBRANCH  56  81
ENDBRANCH  30  31
ENDBRANCH  23  25
ENDBRANCH  22  23
ENDBRANCH   1  22
TORSDOF 17
