REMARK SMILES CCOc1ccccc1-c1cc(C(=O)OCCOC(=O)c2ccc(-c3c4nc(c(-c5c(F)cc(S(=O)(=O)[O-])cc5F)c5ccc([nH]5)c(-c5c(F)cc(S(=O)(=O)[O-])cc5F)c5nc(c(-c6c(F)cc(S(=O)(=O)[O-])cc6F)c6ccc3[nH]6)C=C5)C=C4)cc2)c2cc(C)cc(C)c2n1
REMARK SMILES IDX 16 1 15 2 13 3 14 4 12 5 10 6 11 7 95 8 94 9 87 10 92 11
REMARK SMILES IDX 88 12 91 13 93 14 89 15 90 16 9 17 4 18 5 19 6 20 8 21 7 22
REMARK SMILES IDX 3 23 2 24 1 25 17 26 18 27 19 28 20 29 21 30 22 31 86 32
REMARK SMILES IDX 23 33 85 34 24 35 25 36 26 37 79 38 27 39 84 40 78 41 80 42
REMARK SMILES IDX 28 43 83 44 77 45 76 46 29 48 63 49 42 50 62 51 43 52 46 53
REMARK SMILES IDX 61 54 81 55 44 56 45 57 60 59 82 60 47 61 30 62 31 63 40 64
REMARK SMILES IDX 32 65 33 66 39 67 41 68 34 69 35 70 36 71 37 72 38 73 64 74
REMARK SMILES IDX 65 75 74 76 66 77 67 78 73 79 75 80 68 81 69 82 70 83 71 84
REMARK SMILES IDX 72 85 48 86 49 87 58 88 50 89 51 90 57 91 59 92 52 93 53 94
REMARK SMILES IDX 54 95 55 96 56 97
REMARK H PARENT 80 47 46 58
REMARK Flexibility Score: inf
ROOT
ATOM      1  C   UNL     1      -2.609  -0.226   0.057  1.00  0.00     0.275 C 
ENDROOT
BRANCH   1   2
ATOM      2  O   UNL     1      -1.290   0.341  -0.110  1.00  0.00    -0.458 OA
BRANCH   2   3
ATOM      3  C   UNL     1      -1.189   1.695   0.016  1.00  0.00     0.339 C 
ATOM      4  O   UNL     1      -2.105   2.439   0.330  1.00  0.00    -0.246 OA
BRANCH   3   5
ATOM      5  C   UNL     1       0.176   2.177  -0.350  1.00  0.00     0.071 A 
ATOM      6  C   UNL     1       2.370   1.768  -1.058  1.00  0.00     0.076 A 
ATOM      7  C   UNL     1       1.078   1.311  -0.980  1.00  0.00     0.045 A 
ATOM      8  N   UNL     1       2.497   3.068  -1.379  1.00  0.00    -0.247 NA
ATOM      9  C   UNL     1       1.838   3.896  -0.565  1.00  0.00     0.075 A 
ATOM     10  C   UNL     1       0.670   3.441   0.078  1.00  0.00     0.015 A 
ATOM     11  C   UNL     1       2.431   5.107  -0.203  1.00  0.00    -0.024 A 
ATOM     12  C   UNL     1       0.225   4.150   1.213  1.00  0.00     0.014 A 
ATOM     13  C   UNL     1       2.022   5.742   0.968  1.00  0.00     0.009 A 
ATOM     14  C   UNL     1       3.650   5.643  -0.898  1.00  0.00     0.047 C 
ATOM     15  C   UNL     1       0.972   5.224   1.714  1.00  0.00    -0.050 A 
ATOM     16  C   UNL     1       0.794   5.693   3.122  1.00  0.00     0.044 C 
BRANCH   6  17
ATOM     17  C   UNL     1       3.378   1.447   0.036  1.00  0.00     0.042 A 
ATOM     18  C   UNL     1       2.996   1.157   1.372  1.00  0.00     0.128 A 
ATOM     19  C   UNL     1       3.831   1.495   2.445  1.00  0.00     0.047 A 
ATOM     20  C   UNL     1       5.096   2.025   2.211  1.00  0.00     0.004 A 
ATOM     21  C   UNL     1       4.711   1.868  -0.169  1.00  0.00     0.014 A 
ATOM     22  C   UNL     1       5.554   2.167   0.905  1.00  0.00     0.001 A 
BRANCH  18  23
ATOM     23  O   UNL     1       1.712   0.761   1.667  1.00  0.00    -0.493 OA
BRANCH  23  24
ATOM     24  C   UNL     1       1.639  -0.548   2.241  1.00  0.00     0.226 C 
ATOM     25  C   UNL     1       1.712  -1.617   1.164  1.00  0.00     0.049 C 
ENDBRANCH  23  24
ENDBRANCH  18  23
ENDBRANCH   6  17
ENDBRANCH   3   5
ENDBRANCH   2   3
ENDBRANCH   1   2
BRANCH   1  26
ATOM     26  C   UNL     1      -2.795  -0.821   1.452  1.00  0.00     0.275 C 
BRANCH  26  27
ATOM     27  O   UNL     1      -2.664   0.231   2.412  1.00  0.00    -0.458 OA
BRANCH  27  28
ATOM     28  C   UNL     1      -2.697  -0.135   3.714  1.00  0.00     0.338 C 
ATOM     29  O   UNL     1      -2.990  -1.227   4.163  1.00  0.00    -0.246 OA
BRANCH  28  30
ATOM     30  C   UNL     1      -2.258   1.035   4.508  1.00  0.00     0.060 A 
ATOM     31  C   UNL     1      -1.169   1.784   4.055  1.00  0.00     0.016 A 
ATOM     32  C   UNL     1      -2.871   1.362   5.721  1.00  0.00     0.016 A 
ATOM     33  C   UNL     1      -0.697   2.853   4.808  1.00  0.00     0.010 A 
ATOM     34  C   UNL     1      -2.418   2.472   6.456  1.00  0.00     0.010 A 
ATOM     35  C   UNL     1      -1.321   3.225   6.005  1.00  0.00    -0.014 A 
BRANCH  35  36
ATOM     36  C   UNL     1      -0.688   4.300   6.819  1.00  0.00     0.031 A 
ATOM     37  C   UNL     1       0.258   3.911   7.918  1.00  0.00     0.074 A 
ATOM     38  C   UNL     1      -0.811   5.601   6.489  1.00  0.00     0.049 A 
ATOM     39  N   UNL     1       0.986   4.673   8.692  1.00  0.00    -0.248 NA
ATOM     40  C   UNL     1       0.398   2.471   8.176  1.00  0.00     0.031 C 
ATOM     41  C   UNL     1      -1.633   6.121   5.401  1.00  0.00     0.029 A 
ATOM     42  N   UNL     1      -0.167   6.716   6.979  1.00  0.00    -0.354 N 
ATOM     43  C   UNL     1       1.623   3.811   9.574  1.00  0.00     0.074 A 
ATOM     44  C   UNL     1       1.223   2.467   9.212  1.00  0.00     0.031 C 
ATOM     45  C   UNL     1      -1.333   7.419   5.210  1.00  0.00     0.029 A 
ATOM     46  C   UNL     1      -0.367   7.849   6.221  1.00  0.00     0.049 A 
ATOM     47  H   UNL     1       0.384   6.704   7.795  1.00  0.00     0.167 HD
ATOM     48  C   UNL     1       2.436   4.112  10.615  1.00  0.00     0.037 A 
ATOM     49  C   UNL     1       0.177   9.081   6.321  1.00  0.00     0.037 A 
ATOM     50  C   UNL     1       2.840   5.444  10.982  1.00  0.00     0.049 A 
ATOM     51  C   UNL     1       1.075   9.398   7.494  1.00  0.00     0.074 A 
ATOM     52  C   UNL     1       3.586   5.848  12.075  1.00  0.00     0.029 A 
ATOM     53  N   UNL     1       2.538   6.589  10.261  1.00  0.00    -0.354 N 
ATOM     54  N   UNL     1       1.582   8.591   8.395  1.00  0.00    -0.248 NA
ATOM     55  C   UNL     1       1.428  10.813   7.692  1.00  0.00     0.031 C 
ATOM     56  C   UNL     1       3.706   7.242  12.036  1.00  0.00     0.029 A 
ATOM     57  C   UNL     1       3.079   7.701  10.889  1.00  0.00     0.049 A 
ATOM     58  H   UNL     1       2.017   6.610   9.426  1.00  0.00     0.167 HD
ATOM     59  C   UNL     1       2.309   9.400   9.265  1.00  0.00     0.074 A 
ATOM     60  C   UNL     1       2.208  10.753   8.762  1.00  0.00     0.031 C 
ATOM     61  C   UNL     1       2.982   9.051  10.391  1.00  0.00     0.037 A 
BRANCH  48  62
ATOM     62  C   UNL     1       2.834   2.966  11.498  1.00  0.00     0.058 A 
ATOM     63  C   UNL     1       3.763   1.994  11.098  1.00  0.00     0.135 A 
ATOM     64  C   UNL     1       2.209   2.807  12.746  1.00  0.00     0.135 A 
ATOM     65  F   UNL     1       4.364   2.086   9.901  1.00  0.00    -0.206 F 
ATOM     66  C   UNL     1       4.018   0.873  11.881  1.00  0.00     0.059 A 
ATOM     67  C   UNL     1       2.470   1.710  13.558  1.00  0.00     0.059 A 
ATOM     68  F   UNL     1       1.310   3.708  13.172  1.00  0.00    -0.206 F 
ATOM     69  C   UNL     1       3.353   0.733  13.102  1.00  0.00     0.060 A 
BRANCH  69  70
ATOM     70  S   UNL     1       3.627  -0.761  14.075  1.00  0.00     0.124 S 
ATOM     71  O   UNL     1       2.831  -1.736  13.335  1.00  0.00    -0.237 OA
ATOM     72  O   UNL     1       5.074  -0.931  13.990  1.00  0.00    -0.237 OA
ATOM     73  O   UNL     1       3.116  -0.404  15.394  1.00  0.00    -0.744 OA
ENDBRANCH  69  70
ENDBRANCH  48  62
BRANCH  49  74
ATOM     74  C   UNL     1      -0.100  10.136   5.302  1.00  0.00     0.058 A 
ATOM     75  C   UNL     1       0.942  10.674   4.526  1.00  0.00     0.135 A 
ATOM     76  C   UNL     1      -1.385  10.667   5.114  1.00  0.00     0.135 A 
ATOM     77  F   UNL     1       2.196  10.220   4.680  1.00  0.00    -0.206 F 
ATOM     78  C   UNL     1       0.724  11.704   3.615  1.00  0.00     0.059 A 
ATOM     79  C   UNL     1      -1.634  11.673   4.184  1.00  0.00     0.059 A 
ATOM     80  F   UNL     1      -2.417  10.202   5.833  1.00  0.00    -0.206 F 
ATOM     81  C   UNL     1      -0.571  12.196   3.449  1.00  0.00     0.060 A 
BRANCH  81  82
ATOM     82  S   UNL     1      -0.861  13.504   2.238  1.00  0.00     0.124 S 
ATOM     83  O   UNL     1      -0.358  14.676   2.946  1.00  0.00    -0.237 OA
ATOM     84  O   UNL     1      -0.065  13.056   1.099  1.00  0.00    -0.237 OA
ATOM     85  O   UNL     1      -2.307  13.458   2.038  1.00  0.00    -0.744 OA
ENDBRANCH  81  82
ENDBRANCH  49  74
BRANCH  61  86
ATOM     86  C   UNL     1       3.686  10.143  11.156  1.00  0.00     0.058 A 
ATOM     87  C   UNL     1       2.978  11.114  11.884  1.00  0.00     0.135 A 
ATOM     88  C   UNL     1       5.089  10.194  11.197  1.00  0.00     0.135 A 
ATOM     89  F   UNL     1       1.636  11.114  11.883  1.00  0.00    -0.206 F 
ATOM     90  C   UNL     1       3.635  12.114  12.597  1.00  0.00     0.059 A 
ATOM     91  C   UNL     1       5.766  11.170  11.925  1.00  0.00     0.059 A 
ATOM     92  F   UNL     1       5.819   9.284  10.533  1.00  0.00    -0.206 F 
ATOM     93  C   UNL     1       5.030  12.136  12.610  1.00  0.00     0.060 A 
BRANCH  93  94
ATOM     94  S   UNL     1       5.873  13.427  13.550  1.00  0.00     0.124 S 
ATOM     95  O   UNL     1       5.686  14.589  12.688  1.00  0.00    -0.237 OA
ATOM     96  O   UNL     1       5.125  13.442  14.804  1.00  0.00    -0.237 OA
ATOM     97  O   UNL     1       7.243  12.934  13.652  1.00  0.00    -0.744 OA
ENDBRANCH  93  94
ENDBRANCH  61  86
ENDBRANCH  35  36
ENDBRANCH  28  30
ENDBRANCH  27  28
ENDBRANCH  26  27
ENDBRANCH   1  26
TORSDOF 17
