REMARK SMILES O=C(OCCOC(=O)[C@@H]1CCC(=O)N(CCCOC2CCCCC2)[C@H]1c1ccco1)c1ccc(-c2c3nc(c(-c4c(F)cc(S(=O)(=O)[O-])cc4F)c4ccc([nH]4)c(-c4c(F)cc(S(=O)(=O)[O-])cc4F)c4nc(c(-c5c(F)cc(S(=O)(=O)[O-])cc5F)c5ccc2[nH]5)C=C4)C=C3)cc1
REMARK SMILES IDX 5 1 4 2 3 3 2 4 1 5 31 6 32 7 96 8 33 9 95 10 34 11 35 12
REMARK SMILES IDX 36 13 89 14 37 15 94 16 88 17 90 18 38 19 93 20 87 21 86 22
REMARK SMILES IDX 39 24 73 25 52 26 72 27 53 28 56 29 71 30 91 31 54 32 55 33
REMARK SMILES IDX 70 35 92 36 57 37 40 38 41 39 50 40 42 41 43 42 49 43 51 44
REMARK SMILES IDX 44 45 45 46 46 47 47 48 48 49 74 50 75 51 84 52 76 53 77 54
REMARK SMILES IDX 83 55 85 56 78 57 79 58 80 59 81 60 82 61 58 62 59 63 68 64
REMARK SMILES IDX 60 65 61 66 67 67 69 68 62 69 63 70 64 71 65 72 66 73 6 74
REMARK SMILES IDX 7 75 8 76 9 77 10 78 25 79 11 80 14 81 12 82 13 83 26 84
REMARK SMILES IDX 27 85 30 86 28 87 29 88 15 89 16 90 17 91 18 92 19 93 20 94
REMARK SMILES IDX 24 95 21 96 23 97 22 98
REMARK H PARENT 90 23 56 34
REMARK Flexibility Score: inf
ROOT
ATOM      1  C   UNL     1       4.023  -1.790  -0.185  1.00  0.00     0.274 C 
ENDROOT
BRANCH   1   2
ATOM      2  C   UNL     1       4.290  -0.898   1.026  1.00  0.00     0.275 C 
BRANCH   2   3
ATOM      3  O   UNL     1       3.198  -0.021   1.323  1.00  0.00    -0.458 OA
BRANCH   3   4
ATOM      4  C   UNL     1       2.805   1.112   0.703  1.00  0.00     0.338 C 
ATOM      5  O   UNL     1       1.735   1.604   1.066  1.00  0.00    -0.246 OA
BRANCH   4   6
ATOM      6  C   UNL     1       3.529   1.791  -0.433  1.00  0.00     0.060 A 
ATOM      7  C   UNL     1       4.785   1.470  -0.968  1.00  0.00     0.016 A 
ATOM      8  C   UNL     1       2.823   2.841  -1.049  1.00  0.00     0.016 A 
ATOM      9  C   UNL     1       5.280   2.105  -2.117  1.00  0.00     0.010 A 
ATOM     10  C   UNL     1       3.322   3.498  -2.176  1.00  0.00     0.010 A 
ATOM     11  C   UNL     1       4.549   3.122  -2.727  1.00  0.00    -0.014 A 
BRANCH  11  12
ATOM     12  C   UNL     1       5.119   3.911  -3.844  1.00  0.00     0.031 A 
ATOM     13  C   UNL     1       5.788   5.186  -3.515  1.00  0.00     0.074 A 
ATOM     14  C   UNL     1       4.934   3.566  -5.130  1.00  0.00     0.049 A 
ATOM     15  N   UNL     1       6.272   6.074  -4.331  1.00  0.00    -0.248 NA
ATOM     16  C   UNL     1       5.875   5.527  -2.089  1.00  0.00     0.031 C 
ATOM     17  C   UNL     1       4.208   2.383  -5.505  1.00  0.00     0.029 A 
ATOM     18  N   UNL     1       5.265   4.131  -6.334  1.00  0.00    -0.354 N 
ATOM     19  C   UNL     1       6.695   7.107  -3.521  1.00  0.00     0.074 A 
ATOM     20  C   UNL     1       6.383   6.745  -2.154  1.00  0.00     0.031 C 
ATOM     21  C   UNL     1       4.093   2.313  -6.836  1.00  0.00     0.029 A 
ATOM     22  C   UNL     1       4.814   3.414  -7.426  1.00  0.00     0.049 A 
ATOM     23  H   UNL     1       5.775   4.970  -6.413  1.00  0.00     0.167 HD
ATOM     24  C   UNL     1       7.281   8.259  -3.905  1.00  0.00     0.037 A 
ATOM     25  C   UNL     1       4.976   3.596  -8.751  1.00  0.00     0.037 A 
ATOM     26  C   UNL     1       7.506   8.607  -5.280  1.00  0.00     0.049 A 
ATOM     27  C   UNL     1       5.706   4.836  -9.155  1.00  0.00     0.074 A 
ATOM     28  C   UNL     1       8.070   9.755  -5.795  1.00  0.00     0.029 A 
ATOM     29  N   UNL     1       7.146   7.811  -6.366  1.00  0.00    -0.354 N 
ATOM     30  N   UNL     1       6.168   5.782  -8.372  1.00  0.00    -0.248 NA
ATOM     31  C   UNL     1       5.917   5.069 -10.586  1.00  0.00     0.031 C 
ATOM     32  C   UNL     1       8.014   9.674  -7.191  1.00  0.00     0.029 A 
ATOM     33  C   UNL     1       7.471   8.447  -7.550  1.00  0.00     0.049 A 
ATOM     34  H   UNL     1       6.723   6.924  -6.299  1.00  0.00     0.167 HD
ATOM     35  C   UNL     1       6.718   6.732  -9.210  1.00  0.00     0.074 A 
ATOM     36  C   UNL     1       6.557   6.232 -10.565  1.00  0.00     0.031 C 
ATOM     37  C   UNL     1       7.289   7.914  -8.882  1.00  0.00     0.037 A 
BRANCH  24  38
ATOM     38  C   UNL     1       7.613   9.205  -2.795  1.00  0.00     0.058 A 
ATOM     39  C   UNL     1       8.590   8.889  -1.833  1.00  0.00     0.135 A 
ATOM     40  C   UNL     1       6.830  10.350  -2.591  1.00  0.00     0.135 A 
ATOM     41  F   UNL     1       9.329   7.774  -1.960  1.00  0.00    -0.206 F 
ATOM     42  C   UNL     1       8.725   9.635  -0.670  1.00  0.00     0.059 A 
ATOM     43  C   UNL     1       6.974  11.131  -1.450  1.00  0.00     0.059 A 
ATOM     44  F   UNL     1       5.870  10.680  -3.469  1.00  0.00    -0.206 F 
ATOM     45  C   UNL     1       7.898  10.743  -0.480  1.00  0.00     0.060 A 
BRANCH  45  46
ATOM     46  S   UNL     1       8.015  11.645   1.077  1.00  0.00     0.124 S 
ATOM     47  O   UNL     1       7.329  10.735   1.989  1.00  0.00    -0.237 OA
ATOM     48  O   UNL     1       9.458  11.759   1.264  1.00  0.00    -0.237 OA
ATOM     49  O   UNL     1       7.320  12.896   0.795  1.00  0.00    -0.744 OA
ENDBRANCH  45  46
ENDBRANCH  24  38
BRANCH  25  50
ATOM     50  C   UNL     1       4.500   2.582  -9.742  1.00  0.00     0.058 A 
ATOM     51  C   UNL     1       5.412   1.789 -10.460  1.00  0.00     0.135 A 
ATOM     52  C   UNL     1       3.134   2.327  -9.951  1.00  0.00     0.135 A 
ATOM     53  F   UNL     1       6.731   1.987 -10.310  1.00  0.00    -0.206 F 
ATOM     54  C   UNL     1       4.994   0.790 -11.339  1.00  0.00     0.059 A 
ATOM     55  C   UNL     1       2.690   1.316 -10.804  1.00  0.00     0.059 A 
ATOM     56  F   UNL     1       2.211   3.042  -9.290  1.00  0.00    -0.206 F 
ATOM     57  C   UNL     1       3.628   0.555 -11.500  1.00  0.00     0.060 A 
BRANCH  57  58
ATOM     58  S   UNL     1       3.094  -0.784 -12.594  1.00  0.00     0.124 S 
ATOM     59  O   UNL     1       3.363  -0.215 -13.909  1.00  0.00    -0.237 OA
ATOM     60  O   UNL     1       3.962  -1.883 -12.184  1.00  0.00    -0.237 OA
ATOM     61  O   UNL     1       1.683  -0.948 -12.256  1.00  0.00    -0.744 OA
ENDBRANCH  57  58
ENDBRANCH  25  50
BRANCH  37  62
ATOM     62  C   UNL     1       7.796   8.749 -10.014  1.00  0.00     0.058 A 
ATOM     63  C   UNL     1       6.925   9.493 -10.821  1.00  0.00     0.135 A 
ATOM     64  C   UNL     1       9.178   8.896 -10.204  1.00  0.00     0.135 A 
ATOM     65  F   UNL     1       5.595   9.364 -10.683  1.00  0.00    -0.206 F 
ATOM     66  C   UNL     1       7.411  10.377 -11.774  1.00  0.00     0.059 A 
ATOM     67  C   UNL     1       9.685   9.793 -11.132  1.00  0.00     0.059 A 
ATOM     68  F   UNL     1      10.042   8.197  -9.451  1.00  0.00    -0.206 F 
ATOM     69  C   UNL     1       8.793  10.534 -11.907  1.00  0.00     0.060 A 
BRANCH  69  70
ATOM     70  S   UNL     1       9.410  11.776 -13.058  1.00  0.00     0.124 S 
ATOM     71  O   UNL     1       9.143  11.142 -14.345  1.00  0.00    -0.237 OA
ATOM     72  O   UNL     1       8.582  12.934 -12.736  1.00  0.00    -0.237 OA
ATOM     73  O   UNL     1      10.819  11.901 -12.698  1.00  0.00    -0.744 OA
ENDBRANCH  69  70
ENDBRANCH  37  62
ENDBRANCH  11  12
ENDBRANCH   4   6
ENDBRANCH   3   4
ENDBRANCH   2   3
ENDBRANCH   1   2
BRANCH   1  74
ATOM     74  O   UNL     1       3.520  -1.046  -1.321  1.00  0.00    -0.462 OA
BRANCH  74  75
ATOM     75  C   UNL     1       2.418  -1.564  -1.944  1.00  0.00     0.311 C 
ATOM     76  O   UNL     1       1.984  -2.677  -1.717  1.00  0.00    -0.252 OA
BRANCH  75  77
ATOM     77  C   UNL     1       1.717  -0.532  -2.836  1.00  0.00     0.130 C 
ATOM     78  C   UNL     1       0.211  -0.774  -2.783  1.00  0.00     0.028 C 
ATOM     79  C   UNL     1       2.160  -0.497  -4.317  1.00  0.00     0.166 C 
ATOM     80  C   UNL     1      -0.201  -1.974  -3.623  1.00  0.00     0.101 C 
ATOM     81  N   UNL     1       1.882  -1.750  -5.024  1.00  0.00    -0.332 N 
ATOM     82  C   UNL     1       0.789  -2.529  -4.643  1.00  0.00     0.223 C 
ATOM     83  O   UNL     1       0.588  -3.654  -5.107  1.00  0.00    -0.275 OA
BRANCH  79  84
ATOM     84  C   UNL     1       1.479   0.658  -5.043  1.00  0.00     0.127 A 
ATOM     85  C   UNL     1       1.142   1.954  -4.676  1.00  0.00     0.048 A 
ATOM     86  O   UNL     1       1.132   0.472  -6.353  1.00  0.00    -0.467 OA
ATOM     87  C   UNL     1       0.640   2.598  -5.831  1.00  0.00     0.042 A 
ATOM     88  C   UNL     1       0.630   1.645  -6.818  1.00  0.00     0.195 A 
ENDBRANCH  79  84
BRANCH  81  89
ATOM     89  C   UNL     1       2.739  -2.309  -6.112  1.00  0.00     0.122 C 
BRANCH  89  90
ATOM     90  C   UNL     1       3.658  -1.504  -7.062  1.00  0.00     0.050 C 
BRANCH  90  91
ATOM     91  C   UNL     1       4.881  -0.702  -6.606  1.00  0.00     0.162 C 
BRANCH  91  92
ATOM     92  O   UNL     1       6.075  -1.385  -6.237  1.00  0.00    -0.378 OA
BRANCH  92  93
ATOM     93  C   UNL     1       6.282  -1.452  -4.822  1.00  0.00     0.118 C 
ATOM     94  C   UNL     1       5.446  -2.626  -4.354  1.00  0.00     0.032 C 
ATOM     95  C   UNL     1       7.778  -1.593  -4.511  1.00  0.00     0.032 C 
ATOM     96  C   UNL     1       5.800  -3.179  -3.006  1.00  0.00     0.003 C 
ATOM     97  C   UNL     1       8.036  -2.128  -3.101  1.00  0.00     0.003 C 
ATOM     98  C   UNL     1       7.282  -3.433  -2.874  1.00  0.00     0.000 C 
ENDBRANCH  92  93
ENDBRANCH  91  92
ENDBRANCH  90  91
ENDBRANCH  89  90
ENDBRANCH  81  89
ENDBRANCH  75  77
ENDBRANCH  74  75
ENDBRANCH   1  74
TORSDOF 20
