REMARK SMILES CCc1cc(/C=C/C(=O)OCCOC(=O)c2ccc(-c3c4nc(c(-c5c(F)cc(S(=O)(=O)[O-])cc5F)c5ccc([nH]5)c(-c5c(F)cc(S(=O)(=O)[O-])cc5F)c5nc(c(-c6c(F)cc(S(=O)(=O)[O-])cc6F)c6ccc3[nH]6)C=C5)C=C4)cc2)cc(C(=O)c2ccccc2)c1
REMARK SMILES IDX 11 1 10 2 8 3 9 4 7 5 6 6 5 7 3 8 4 9 92 10 83 11 82 12 2 13
REMARK SMILES IDX 1 14 84 15 85 16 86 17 87 18 91 19 88 20 90 21 89 22 12 23
REMARK SMILES IDX 13 24 14 25 15 26 16 27 17 28 81 29 18 30 80 31 19 32 20 33
REMARK SMILES IDX 21 34 74 35 22 36 79 37 73 38 75 39 23 40 78 41 72 42 71 43
REMARK SMILES IDX 24 45 58 46 37 47 57 48 38 49 41 50 56 51 76 52 39 53 40 54
REMARK SMILES IDX 55 56 77 57 42 58 25 59 26 60 35 61 27 62 28 63 34 64 36 65
REMARK SMILES IDX 29 66 30 67 31 68 32 69 33 70 59 71 60 72 69 73 61 74 62 75
REMARK SMILES IDX 68 76 70 77 63 78 64 79 65 80 66 81 67 82 43 83 44 84 53 85
REMARK SMILES IDX 45 86 46 87 52 88 54 89 47 90 48 91 49 92 50 93 51 94
REMARK H PARENT 75 44 41 55
REMARK Flexibility Score: inf
ROOT
ATOM      1  C   UNL     1       0.227  -8.135  -2.687  1.00  0.00     0.275 C 
ENDROOT
BRANCH   1   2
ATOM      2  O   UNL     1       0.391  -6.754  -3.058  1.00  0.00    -0.459 OA
BRANCH   2   3
ATOM      3  C   UNL     1      -0.697  -5.967  -2.883  1.00  0.00     0.330 C 
ATOM      4  O   UNL     1      -1.810  -6.341  -2.543  1.00  0.00    -0.247 OA
BRANCH   3   5
ATOM      5  C   UNL     1      -0.399  -4.533  -3.074  1.00  0.00     0.094 C 
ATOM      6  C   UNL     1       0.792  -4.020  -3.424  1.00  0.00     0.015 C 
BRANCH   6   7
ATOM      7  C   UNL     1       1.054  -2.571  -3.462  1.00  0.00    -0.024 A 
ATOM      8  C   UNL     1       0.859  -0.352  -2.447  1.00  0.00    -0.047 A 
ATOM      9  C   UNL     1       0.566  -1.723  -2.457  1.00  0.00     0.011 A 
ATOM     10  C   UNL     1       1.642   0.178  -3.479  1.00  0.00     0.016 A 
ATOM     11  C   UNL     1       2.166  -0.655  -4.478  1.00  0.00     0.023 A 
ATOM     12  C   UNL     1       1.868  -2.028  -4.462  1.00  0.00     0.020 A 
BRANCH   8  13
ATOM     13  C   UNL     1       0.336   0.533  -1.341  1.00  0.00     0.032 C 
ATOM     14  C   UNL     1       0.899   0.157   0.024  1.00  0.00     0.009 C 
ENDBRANCH   8  13
BRANCH  11  15
ATOM     15  C   UNL     1       2.998  -0.122  -5.597  1.00  0.00     0.193 C 
ATOM     16  O   UNL     1       3.172  -0.794  -6.611  1.00  0.00    -0.289 OA
BRANCH  15  17
ATOM     17  C   UNL     1       3.601   1.231  -5.548  1.00  0.00     0.022 A 
ATOM     18  C   UNL     1       3.419   2.079  -6.647  1.00  0.00     0.012 A 
ATOM     19  C   UNL     1       4.356   1.658  -4.450  1.00  0.00     0.012 A 
ATOM     20  C   UNL     1       3.954   3.367  -6.628  1.00  0.00     0.001 A 
ATOM     21  C   UNL     1       4.888   2.949  -4.436  1.00  0.00     0.001 A 
ATOM     22  C   UNL     1       4.681   3.804  -5.520  1.00  0.00     0.000 A 
ENDBRANCH  15  17
ENDBRANCH  11  15
ENDBRANCH   6   7
ENDBRANCH   3   5
ENDBRANCH   2   3
ENDBRANCH   1   2
BRANCH   1  23
ATOM     23  C   UNL     1       0.915  -8.438  -1.352  1.00  0.00     0.275 C 
BRANCH  23  24
ATOM     24  O   UNL     1       0.309  -7.725  -0.257  1.00  0.00    -0.458 OA
BRANCH  24  25
ATOM     25  C   UNL     1       0.876  -6.525   0.021  1.00  0.00     0.338 C 
ATOM     26  O   UNL     1       1.839  -6.026  -0.537  1.00  0.00    -0.246 OA
BRANCH  25  27
ATOM     27  C   UNL     1       0.091  -5.807   1.046  1.00  0.00     0.060 A 
ATOM     28  C   UNL     1      -0.218  -4.467   0.796  1.00  0.00     0.016 A 
ATOM     29  C   UNL     1      -0.275  -6.399   2.258  1.00  0.00     0.016 A 
ATOM     30  C   UNL     1      -0.887  -3.712   1.756  1.00  0.00     0.010 A 
ATOM     31  C   UNL     1      -0.946  -5.637   3.226  1.00  0.00     0.010 A 
ATOM     32  C   UNL     1      -1.245  -4.285   2.986  1.00  0.00    -0.014 A 
BRANCH  32  33
ATOM     33  C   UNL     1      -1.910  -3.434   4.005  1.00  0.00     0.031 A 
ATOM     34  C   UNL     1      -1.127  -2.880   5.163  1.00  0.00     0.074 A 
ATOM     35  C   UNL     1      -3.205  -3.102   3.849  1.00  0.00     0.049 A 
ATOM     36  N   UNL     1      -1.507  -2.035   6.088  1.00  0.00    -0.248 NA
ATOM     37  C   UNL     1       0.266  -3.332   5.298  1.00  0.00     0.031 C 
ATOM     38  C   UNL     1      -4.071  -3.576   2.769  1.00  0.00     0.029 A 
ATOM     39  N   UNL     1      -4.012  -2.274   4.588  1.00  0.00    -0.354 N 
ATOM     40  C   UNL     1      -0.404  -1.849   6.912  1.00  0.00     0.074 A 
ATOM     41  C   UNL     1       0.651  -2.696   6.396  1.00  0.00     0.031 C 
ATOM     42  C   UNL     1      -5.285  -3.016   2.905  1.00  0.00     0.029 A 
ATOM     43  C   UNL     1      -5.287  -2.158   4.087  1.00  0.00     0.049 A 
ATOM     44  H   UNL     1      -3.707  -1.807   5.399  1.00  0.00     0.167 HD
ATOM     45  C   UNL     1      -0.279  -1.038   7.992  1.00  0.00     0.037 A 
ATOM     46  C   UNL     1      -6.337  -1.437   4.527  1.00  0.00     0.037 A 
ATOM     47  C   UNL     1      -1.330  -0.198   8.507  1.00  0.00     0.049 A 
ATOM     48  C   UNL     1      -6.175  -0.555   5.735  1.00  0.00     0.074 A 
ATOM     49  C   UNL     1      -1.289   0.674   9.583  1.00  0.00     0.029 A 
ATOM     50  N   UNL     1      -2.615  -0.127   7.990  1.00  0.00    -0.354 N 
ATOM     51  N   UNL     1      -5.112  -0.360   6.478  1.00  0.00    -0.248 NA
ATOM     52  C   UNL     1      -7.354   0.214   6.156  1.00  0.00     0.031 C 
ATOM     53  C   UNL     1      -2.558   1.244   9.737  1.00  0.00     0.029 A 
ATOM     54  C   UNL     1      -3.380   0.760   8.733  1.00  0.00     0.049 A 
ATOM     55  H   UNL     1      -2.938  -0.632   7.209  1.00  0.00     0.167 HD
ATOM     56  C   UNL     1      -5.490   0.564   7.446  1.00  0.00     0.074 A 
ATOM     57  C   UNL     1      -6.872   0.905   7.179  1.00  0.00     0.031 C 
ATOM     58  C   UNL     1      -4.759   1.081   8.466  1.00  0.00     0.037 A 
BRANCH  45  59
ATOM     59  C   UNL     1       1.048  -1.031   8.700  1.00  0.00     0.058 A 
ATOM     60  C   UNL     1       2.174  -0.404   8.143  1.00  0.00     0.135 A 
ATOM     61  C   UNL     1       1.188  -1.628   9.963  1.00  0.00     0.135 A 
ATOM     62  F   UNL     1       2.099   0.170   6.932  1.00  0.00    -0.206 F 
ATOM     63  C   UNL     1       3.400  -0.393   8.802  1.00  0.00     0.059 A 
ATOM     64  C   UNL     1       2.399  -1.610  10.649  1.00  0.00     0.059 A 
ATOM     65  F   UNL     1       0.142  -2.240  10.540  1.00  0.00    -0.206 F 
ATOM     66  C   UNL     1       3.503  -1.002  10.054  1.00  0.00     0.060 A 
BRANCH  66  67
ATOM     67  S   UNL     1       5.101  -0.984  10.896  1.00  0.00     0.124 S 
ATOM     68  O   UNL     1       5.838  -1.992  10.141  1.00  0.00    -0.237 OA
ATOM     69  O   UNL     1       5.540   0.395  10.707  1.00  0.00    -0.237 OA
ATOM     70  O   UNL     1       4.764  -1.348  12.269  1.00  0.00    -0.744 OA
ENDBRANCH  66  67
ENDBRANCH  45  59
BRANCH  46  71
ATOM     71  C   UNL     1      -7.634  -1.508   3.807  1.00  0.00     0.058 A 
ATOM     72  C   UNL     1      -8.100  -0.427   3.044  1.00  0.00     0.135 A 
ATOM     73  C   UNL     1      -8.429  -2.663   3.862  1.00  0.00     0.135 A 
ATOM     74  F   UNL     1      -7.378   0.702   2.969  1.00  0.00    -0.206 F 
ATOM     75  C   UNL     1      -9.316  -0.482   2.371  1.00  0.00     0.059 A 
ATOM     76  C   UNL     1      -9.637  -2.751   3.179  1.00  0.00     0.059 A 
ATOM     77  F   UNL     1      -8.019  -3.727   4.570  1.00  0.00    -0.206 F 
ATOM     78  C   UNL     1     -10.077  -1.651   2.444  1.00  0.00     0.060 A 
BRANCH  78  79
ATOM     79  S   UNL     1     -11.629  -1.737   1.524  1.00  0.00     0.124 S 
ATOM     80  O   UNL     1     -12.516  -0.949   2.372  1.00  0.00    -0.237 OA
ATOM     81  O   UNL     1     -11.265  -1.134   0.246  1.00  0.00    -0.237 OA
ATOM     82  O   UNL     1     -11.908  -3.169   1.475  1.00  0.00    -0.744 OA
ENDBRANCH  78  79
ENDBRANCH  46  71
BRANCH  58  83
ATOM     83  C   UNL     1      -5.446   2.081   9.355  1.00  0.00     0.058 A 
ATOM     84  C   UNL     1      -6.431   1.691  10.277  1.00  0.00     0.135 A 
ATOM     85  C   UNL     1      -5.120   3.445   9.283  1.00  0.00     0.135 A 
ATOM     86  F   UNL     1      -6.782   0.400  10.383  1.00  0.00    -0.206 F 
ATOM     87  C   UNL     1      -7.100   2.623  11.064  1.00  0.00     0.059 A 
ATOM     88  C   UNL     1      -5.759   4.391  10.079  1.00  0.00     0.059 A 
ATOM     89  F   UNL     1      -4.176   3.870   8.428  1.00  0.00    -0.206 F 
ATOM     90  C   UNL     1      -6.763   3.973  10.950  1.00  0.00     0.060 A 
BRANCH  90  91
ATOM     91  S   UNL     1      -7.646   5.180  11.963  1.00  0.00     0.124 S 
ATOM     92  O   UNL     1      -8.896   5.324  11.223  1.00  0.00    -0.237 OA
ATOM     93  O   UNL     1      -7.747   4.500  13.251  1.00  0.00    -0.237 OA
ATOM     94  O   UNL     1      -6.766   6.344  11.944  1.00  0.00    -0.744 OA
ENDBRANCH  90  91
ENDBRANCH  58  83
ENDBRANCH  32  33
ENDBRANCH  25  27
ENDBRANCH  24  25
ENDBRANCH  23  24
ENDBRANCH   1  23
TORSDOF 18
