REMARK SMILES CC1=C([C@H](NC(=O)[C@@H]2[C@H](C)c3cc(F)ccc3N2C)C(=O)OCCOC(=O)c2ccc(-c3c4nc(c(-c5c(F)cc(S(=O)(=O)[O-])cc5F)c5ccc([nH]5)c(-c5c(F)cc(S(=O)(=O)[O-])cc5F)c5nc(c(-c6c(F)cc(S(=O)(=O)[O-])cc6F)c6ccc3[nH]6)C=C5)C=C4)cc2)[C@@H](C)N=N1
REMARK SMILES IDX 24 1 23 2 22 3 20 4 21 5 4 6 3 7 1 8 2 9 97 10 94 11 96 12
REMARK SMILES IDX 95 13 5 14 6 15 7 17 8 18 9 19 18 20 11 21 10 22 17 23 19 24
REMARK SMILES IDX 12 25 16 26 13 27 15 28 14 29 25 30 26 31 27 32 28 33 29 34
REMARK SMILES IDX 93 35 30 36 92 37 31 38 32 39 33 40 86 41 34 42 91 43 85 44
REMARK SMILES IDX 87 45 35 46 90 47 84 48 83 49 36 51 70 52 49 53 69 54 50 55
REMARK SMILES IDX 53 56 68 57 88 58 51 59 52 60 67 62 89 63 54 64 37 65 38 66
REMARK SMILES IDX 47 67 39 68 40 69 46 70 48 71 41 72 42 73 43 74 44 75 45 76
REMARK SMILES IDX 71 77 72 78 81 79 73 80 74 81 80 82 82 83 75 84 76 85 77 86
REMARK SMILES IDX 78 87 79 88 55 89 56 90 65 91 57 92 58 93 64 94 66 95 59 96
REMARK SMILES IDX 60 97 61 98 62 99 63 100
REMARK H PARENT 5 16 87 50 53 61
REMARK Flexibility Score: inf
ROOT
ATOM      1  C   UNL     1       1.665  -0.101   6.286  1.00  0.00     0.275 C 
ENDROOT
BRANCH   1   2
ATOM      2  C   UNL     1       0.397  -0.962   6.463  1.00  0.00     0.274 C 
BRANCH   2   3
ATOM      3  O   UNL     1       0.020  -1.657   5.243  1.00  0.00    -0.460 OA
BRANCH   3   4
ATOM      4  C   UNL     1      -0.708  -0.926   4.374  1.00  0.00     0.333 C 
ATOM      5  O   UNL     1      -1.130   0.172   4.710  1.00  0.00    -0.249 OA
BRANCH   4   6
ATOM      6  C   UNL     1      -0.945  -1.558   2.923  1.00  0.00     0.223 C 
BRANCH   6   7
ATOM      7  C   UNL     1      -2.431  -1.729   2.642  1.00  0.00     0.012 C 
ATOM      8  C   UNL     1      -2.804  -2.568   0.237  1.00  0.00     0.069 C 
ATOM      9  C   UNL     1      -3.185  -2.147   1.610  1.00  0.00     0.064 C 
ATOM     10  N   UNL     1      -4.535  -2.014   1.845  1.00  0.00    -0.160 NA
ATOM     11  C   UNL     1      -3.427  -1.022   3.491  1.00  0.00     0.156 C 
ATOM     12  N   UNL     1      -4.730  -1.433   2.942  1.00  0.00    -0.181 NA
ATOM     13  C   UNL     1      -3.210   0.426   3.159  1.00  0.00     0.040 C 
ENDBRANCH   6   7
BRANCH   6  14
ATOM     14  N   UNL     1      -0.312  -2.796   2.481  1.00  0.00    -0.337 N 
ATOM     15  C   UNL     1       1.023  -3.012   2.242  1.00  0.00     0.244 C 
ATOM     16  H   UNL     1      -0.911  -3.565   2.337  1.00  0.00     0.164 HD
ATOM     17  O   UNL     1       1.310  -3.731   1.284  1.00  0.00    -0.273 OA
BRANCH  15  18
ATOM     18  C   UNL     1       2.035  -2.520   3.285  1.00  0.00     0.178 C 
ATOM     19  C   UNL     1       3.457  -2.092   2.816  1.00  0.00     0.050 C 
ATOM     20  N   UNL     1       2.223  -3.574   4.315  1.00  0.00    -0.362 N 
ATOM     21  C   UNL     1       4.338  -2.837   3.783  1.00  0.00    -0.016 A 
ATOM     22  C   UNL     1       3.800  -2.245   1.348  1.00  0.00     0.015 C 
ATOM     23  C   UNL     1       3.561  -3.636   4.628  1.00  0.00     0.041 A 
ATOM     24  C   UNL     1       1.175  -4.217   5.071  1.00  0.00     0.144 C 
ATOM     25  C   UNL     1       5.707  -2.721   3.957  1.00  0.00     0.045 A 
ATOM     26  C   UNL     1       4.152  -4.353   5.655  1.00  0.00     0.029 A 
ATOM     27  C   UNL     1       6.290  -3.436   4.997  1.00  0.00     0.123 A 
ATOM     28  C   UNL     1       5.530  -4.248   5.843  1.00  0.00     0.041 A 
ATOM     29  F   UNL     1       7.609  -3.332   5.208  1.00  0.00    -0.207 F 
ENDBRANCH  15  18
ENDBRANCH   6  14
ENDBRANCH   4   6
ENDBRANCH   3   4
ENDBRANCH   2   3
ENDBRANCH   1   2
BRANCH   1  30
ATOM     30  O   UNL     1       1.329   1.187   5.733  1.00  0.00    -0.458 OA
BRANCH  30  31
ATOM     31  C   UNL     1       1.688   1.459   4.457  1.00  0.00     0.338 C 
ATOM     32  O   UNL     1       2.506   0.852   3.779  1.00  0.00    -0.246 OA
BRANCH  31  33
ATOM     33  C   UNL     1       0.677   2.373   3.887  1.00  0.00     0.060 A 
ATOM     34  C   UNL     1      -0.026   3.268   4.702  1.00  0.00     0.016 A 
ATOM     35  C   UNL     1       0.243   2.106   2.586  1.00  0.00     0.016 A 
ATOM     36  C   UNL     1      -1.277   3.728   4.296  1.00  0.00     0.010 A 
ATOM     37  C   UNL     1      -1.003   2.576   2.188  1.00  0.00     0.010 A 
ATOM     38  C   UNL     1      -1.820   3.299   3.080  1.00  0.00    -0.014 A 
BRANCH  38  39
ATOM     39  C   UNL     1      -3.062   3.894   2.559  1.00  0.00     0.031 A 
ATOM     40  C   UNL     1      -2.696   5.162   1.915  1.00  0.00     0.074 A 
ATOM     41  C   UNL     1      -4.375   3.557   2.614  1.00  0.00     0.049 A 
ATOM     42  N   UNL     1      -2.653   6.263   2.588  1.00  0.00    -0.248 NA
ATOM     43  C   UNL     1      -2.021   5.212   0.618  1.00  0.00     0.031 C 
ATOM     44  C   UNL     1      -5.076   2.488   3.310  1.00  0.00     0.029 A 
ATOM     45  N   UNL     1      -5.415   4.142   1.933  1.00  0.00    -0.354 N 
ATOM     46  C   UNL     1      -2.217   7.211   1.696  1.00  0.00     0.074 A 
ATOM     47  C   UNL     1      -1.577   6.473   0.639  1.00  0.00     0.031 C 
ATOM     48  C   UNL     1      -6.292   2.259   2.772  1.00  0.00     0.029 A 
ATOM     49  C   UNL     1      -6.583   3.375   1.891  1.00  0.00     0.049 A 
ATOM     50  H   UNL     1      -5.344   5.028   1.509  1.00  0.00     0.167 HD
ATOM     51  C   UNL     1      -2.745   8.461   1.768  1.00  0.00     0.037 A 
ATOM     52  C   UNL     1      -7.869   3.735   1.647  1.00  0.00     0.037 A 
ATOM     53  C   UNL     1      -3.385   8.673   3.059  1.00  0.00     0.049 A 
ATOM     54  C   UNL     1      -7.973   5.165   2.016  1.00  0.00     0.074 A 
ATOM     55  C   UNL     1      -2.963   8.582   4.375  1.00  0.00     0.029 A 
ATOM     56  N   UNL     1      -4.761   8.611   3.111  1.00  0.00    -0.354 N 
ATOM     57  N   UNL     1      -7.918   5.583   3.254  1.00  0.00    -0.248 NA
ATOM     58  C   UNL     1      -7.607   6.146   1.008  1.00  0.00     0.031 C 
ATOM     59  C   UNL     1      -4.064   8.025   5.094  1.00  0.00     0.029 A 
ATOM     60  C   UNL     1      -5.133   7.875   4.210  1.00  0.00     0.049 A 
ATOM     61  H   UNL     1      -5.378   9.028   2.466  1.00  0.00     0.167 HD
ATOM     62  C   UNL     1      -7.090   6.696   3.211  1.00  0.00     0.074 A 
ATOM     63  C   UNL     1      -6.998   7.040   1.792  1.00  0.00     0.031 C 
ATOM     64  C   UNL     1      -6.346   7.079   4.292  1.00  0.00     0.037 A 
BRANCH  51  65
ATOM     65  C   UNL     1      -3.069   9.276   0.539  1.00  0.00     0.058 A 
ATOM     66  C   UNL     1      -3.603  10.566   0.715  1.00  0.00     0.135 A 
ATOM     67  C   UNL     1      -3.137   8.768  -0.781  1.00  0.00     0.135 A 
ATOM     68  F   UNL     1      -3.579  11.159   1.919  1.00  0.00    -0.206 F 
ATOM     69  C   UNL     1      -4.253  11.248  -0.311  1.00  0.00     0.059 A 
ATOM     70  C   UNL     1      -3.735   9.450  -1.826  1.00  0.00     0.059 A 
ATOM     71  F   UNL     1      -2.715   7.550  -1.129  1.00  0.00    -0.206 F 
ATOM     72  C   UNL     1      -4.331  10.669  -1.573  1.00  0.00     0.060 A 
BRANCH  72  73
ATOM     73  S   UNL     1      -5.266  11.483  -2.871  1.00  0.00     0.124 S 
ATOM     74  O   UNL     1      -6.622  11.400  -2.342  1.00  0.00    -0.237 OA
ATOM     75  O   UNL     1      -4.658  12.809  -2.885  1.00  0.00    -0.237 OA
ATOM     76  O   UNL     1      -4.994  10.661  -4.047  1.00  0.00    -0.744 OA
ENDBRANCH  72  73
ENDBRANCH  51  65
BRANCH  52  77
ATOM     77  C   UNL     1      -8.818   2.991   0.775  1.00  0.00     0.058 A 
ATOM     78  C   UNL     1     -10.148   3.414   0.606  1.00  0.00     0.135 A 
ATOM     79  C   UNL     1      -8.389   1.948  -0.072  1.00  0.00     0.135 A 
ATOM     80  F   UNL     1     -10.649   4.388   1.382  1.00  0.00    -0.206 F 
ATOM     81  C   UNL     1     -10.979   2.891  -0.393  1.00  0.00     0.059 A 
ATOM     82  C   UNL     1      -9.199   1.409  -1.075  1.00  0.00     0.059 A 
ATOM     83  F   UNL     1      -7.138   1.468   0.004  1.00  0.00    -0.206 F 
ATOM     84  C   UNL     1     -10.484   1.909  -1.250  1.00  0.00     0.060 A 
BRANCH  84  85
ATOM     85  S   UNL     1     -11.485   1.375  -2.662  1.00  0.00     0.124 S 
ATOM     86  O   UNL     1     -12.595   0.690  -2.009  1.00  0.00    -0.237 OA
ATOM     87  O   UNL     1     -11.810   2.644  -3.304  1.00  0.00    -0.237 OA
ATOM     88  O   UNL     1     -10.578   0.513  -3.417  1.00  0.00    -0.744 OA
ENDBRANCH  84  85
ENDBRANCH  52  77
BRANCH  64  89
ATOM     89  C   UNL     1      -6.679   6.493   5.649  1.00  0.00     0.058 A 
ATOM     90  C   UNL     1      -6.511   5.144   6.005  1.00  0.00     0.135 A 
ATOM     91  C   UNL     1      -7.020   7.375   6.685  1.00  0.00     0.135 A 
ATOM     92  F   UNL     1      -6.108   4.245   5.103  1.00  0.00    -0.206 F 
ATOM     93  C   UNL     1      -6.683   4.689   7.316  1.00  0.00     0.059 A 
ATOM     94  C   UNL     1      -7.174   6.951   8.006  1.00  0.00     0.059 A 
ATOM     95  F   UNL     1      -7.152   8.687   6.431  1.00  0.00    -0.206 F 
ATOM     96  C   UNL     1      -7.007   5.604   8.314  1.00  0.00     0.060 A 
BRANCH  96  97
ATOM     97  S   UNL     1      -7.134   5.031  10.024  1.00  0.00     0.124 S 
ATOM     98  O   UNL     1      -8.340   4.212   9.987  1.00  0.00    -0.237 OA
ATOM     99  O   UNL     1      -5.881   4.305  10.208  1.00  0.00    -0.237 OA
ATOM    100  O   UNL     1      -7.244   6.269  10.792  1.00  0.00    -0.744 OA
ENDBRANCH  96  97
ENDBRANCH  64  89
ENDBRANCH  38  39
ENDBRANCH  31  33
ENDBRANCH  30  31
ENDBRANCH   1  30
TORSDOF 17
