REMARK SMILES CC(C)(C(=O)OCCOC(=O)c1ccc(-c2c3nc(c(-c4c(F)cc(S(=O)(=O)[O-])cc4F)c4ccc([nH]4)c(-c4c(F)cc(S(=O)(=O)[O-])cc4F)c4nc(c(-c5c(F)cc(S(=O)(=O)[O-])cc5F)c5ccc2[nH]5)C=C4)C=C3)cc1)N1C(=O)/C(=C/c2ccc(C=O)cc2)SC1=S
REMARK SMILES IDX 7 1 6 2 4 3 5 4 2 5 1 6 3 7 78 8 79 9 92 10 80 11 81 12
REMARK SMILES IDX 91 13 93 14 82 15 83 16 84 17 90 18 85 19 89 20 86 21 87 22
REMARK SMILES IDX 88 23 8 24 9 25 10 26 11 27 12 28 13 29 77 30 14 31 76 32
REMARK SMILES IDX 15 33 16 34 17 35 70 36 18 37 75 38 69 39 71 40 19 41 74 42
REMARK SMILES IDX 68 43 67 44 20 46 54 47 33 48 53 49 34 50 37 51 52 52 72 53
REMARK SMILES IDX 35 54 36 55 51 57 73 58 38 59 21 60 22 61 31 62 23 63 24 64
REMARK SMILES IDX 30 65 32 66 25 67 26 68 27 69 28 70 29 71 55 72 56 73 65 74
REMARK SMILES IDX 57 75 58 76 64 77 66 78 59 79 60 80 61 81 62 82 63 83 39 84
REMARK SMILES IDX 40 85 49 86 41 87 42 88 48 89 50 90 43 91 44 92 45 93 46 94
REMARK SMILES IDX 47 95
REMARK H PARENT 71 45 37 56
REMARK Flexibility Score: inf
ROOT
ATOM      1  C   UNL     1      -2.947   1.320  -0.558  1.00  0.00     0.274 C 
ENDROOT
BRANCH   1   2
ATOM      2  O   UNL     1      -1.528   1.066  -0.645  1.00  0.00    -0.460 OA
BRANCH   2   3
ATOM      3  C   UNL     1      -0.726   1.825   0.157  1.00  0.00     0.332 C 
ATOM      4  O   UNL     1      -1.155   2.675   0.928  1.00  0.00    -0.249 OA
BRANCH   3   5
ATOM      5  C   UNL     1       0.784   1.567  -0.087  1.00  0.00     0.141 C 
ATOM      6  C   UNL     1       1.012   0.269  -0.894  1.00  0.00     0.048 C 
ATOM      7  C   UNL     1       1.266   2.698  -1.034  1.00  0.00     0.048 C 
BRANCH   5   8
ATOM      8  N   UNL     1       1.499   1.599   1.265  1.00  0.00    -0.276 N 
ATOM      9  C   UNL     1       1.764   2.840   1.861  1.00  0.00     0.267 C 
ATOM     10  C   UNL     1       1.793   0.515   2.084  1.00  0.00     0.149 C 
ATOM     11  O   UNL     1       1.538   3.945   1.387  1.00  0.00    -0.268 OA
ATOM     12  C   UNL     1       2.369   2.692   3.217  1.00  0.00     0.081 C 
ATOM     13  S   UNL     1       2.616   1.039   3.547  1.00  0.00    -0.054 SA
ATOM     14  S   UNL     1       1.510  -1.118   1.907  1.00  0.00    -0.052 S 
ATOM     15  C   UNL     1       2.590   3.744   4.023  1.00  0.00     0.029 C 
BRANCH  15  16
ATOM     16  C   UNL     1       3.102   3.761   5.410  1.00  0.00    -0.024 A 
ATOM     17  C   UNL     1       2.600   4.725   6.297  1.00  0.00     0.009 A 
ATOM     18  C   UNL     1       4.105   2.898   5.874  1.00  0.00     0.009 A 
ATOM     19  C   UNL     1       3.058   4.790   7.619  1.00  0.00     0.012 A 
ATOM     20  C   UNL     1       4.530   2.927   7.208  1.00  0.00     0.012 A 
ATOM     21  C   UNL     1       4.000   3.873   8.081  1.00  0.00     0.014 A 
BRANCH  21  22
ATOM     22  C   UNL     1       4.467   3.903   9.481  1.00  0.00     0.260 C 
ATOM     23  O   UNL     1       4.390   4.912  10.169  1.00  0.00    -0.298 OA
ENDBRANCH  21  22
ENDBRANCH  15  16
ENDBRANCH   5   8
ENDBRANCH   3   5
ENDBRANCH   2   3
ENDBRANCH   1   2
BRANCH   1  24
ATOM     24  C   UNL     1      -3.634   0.343   0.392  1.00  0.00     0.275 C 
BRANCH  24  25
ATOM     25  O   UNL     1      -3.213   0.597   1.742  1.00  0.00    -0.458 OA
BRANCH  25  26
ATOM     26  C   UNL     1      -2.547  -0.411   2.349  1.00  0.00     0.338 C 
ATOM     27  O   UNL     1      -2.310  -1.515   1.894  1.00  0.00    -0.246 OA
BRANCH  26  28
ATOM     28  C   UNL     1      -2.126   0.018   3.694  1.00  0.00     0.060 A 
ATOM     29  C   UNL     1      -1.246   1.089   3.839  1.00  0.00     0.016 A 
ATOM     30  C   UNL     1      -2.517  -0.721   4.809  1.00  0.00     0.016 A 
ATOM     31  C   UNL     1      -0.685   1.365   5.083  1.00  0.00     0.010 A 
ATOM     32  C   UNL     1      -2.015  -0.386   6.073  1.00  0.00     0.010 A 
ATOM     33  C   UNL     1      -1.056   0.631   6.217  1.00  0.00    -0.014 A 
BRANCH  33  34
ATOM     34  C   UNL     1      -0.377   0.890   7.520  1.00  0.00     0.031 A 
ATOM     35  C   UNL     1       0.400  -0.215   8.191  1.00  0.00     0.074 A 
ATOM     36  C   UNL     1      -0.412   2.120   8.075  1.00  0.00     0.049 A 
ATOM     37  N   UNL     1       0.954  -0.232   9.377  1.00  0.00    -0.248 NA
ATOM     38  C   UNL     1       0.561  -1.473   7.442  1.00  0.00     0.031 C 
ATOM     39  C   UNL     1      -1.086   3.285   7.500  1.00  0.00     0.029 A 
ATOM     40  N   UNL     1       0.157   2.609   9.227  1.00  0.00    -0.354 N 
ATOM     41  C   UNL     1       1.434  -1.526   9.554  1.00  0.00     0.074 A 
ATOM     42  C   UNL     1       1.144  -2.255   8.340  1.00  0.00     0.031 C 
ATOM     43  C   UNL     1      -0.823   4.365   8.251  1.00  0.00     0.029 A 
ATOM     44  C   UNL     1      -0.035   3.962   9.411  1.00  0.00     0.049 A 
ATOM     45  H   UNL     1       0.655   2.046   9.862  1.00  0.00     0.167 HD
ATOM     46  C   UNL     1       2.043  -2.056  10.641  1.00  0.00     0.037 A 
ATOM     47  C   UNL     1       0.373   4.782  10.402  1.00  0.00     0.037 A 
ATOM     48  C   UNL     1       2.410  -1.294  11.805  1.00  0.00     0.049 A 
ATOM     49  C   UNL     1       1.144   4.183  11.550  1.00  0.00     0.074 A 
ATOM     50  C   UNL     1       3.036  -1.730  12.961  1.00  0.00     0.029 A 
ATOM     51  N   UNL     1       2.210   0.071  11.949  1.00  0.00    -0.354 N 
ATOM     52  N   UNL     1       1.520   2.936  11.730  1.00  0.00    -0.248 NA
ATOM     53  C   UNL     1       1.516   5.089  12.644  1.00  0.00     0.031 C 
ATOM     54  C   UNL     1       3.202  -0.629  13.809  1.00  0.00     0.029 A 
ATOM     55  C   UNL     1       2.708   0.497  13.168  1.00  0.00     0.049 A 
ATOM     56  H   UNL     1       1.778   0.652  11.282  1.00  0.00     0.167 HD
ATOM     57  C   UNL     1       2.170   2.913  12.960  1.00  0.00     0.074 A 
ATOM     58  C   UNL     1       2.171   4.273  13.458  1.00  0.00     0.031 C 
ATOM     59  C   UNL     1       2.696   1.860  13.634  1.00  0.00     0.037 A 
BRANCH  46  60
ATOM     60  C   UNL     1       2.299  -3.538  10.649  1.00  0.00     0.058 A 
ATOM     61  C   UNL     1       3.335  -4.129   9.913  1.00  0.00     0.135 A 
ATOM     62  C   UNL     1       1.497  -4.377  11.442  1.00  0.00     0.135 A 
ATOM     63  F   UNL     1       4.119  -3.376   9.126  1.00  0.00    -0.206 F 
ATOM     64  C   UNL     1       3.555  -5.504   9.944  1.00  0.00     0.059 A 
ATOM     65  C   UNL     1       1.712  -5.750  11.505  1.00  0.00     0.059 A 
ATOM     66  F   UNL     1       0.490  -3.863  12.166  1.00  0.00    -0.206 F 
ATOM     67  C   UNL     1       2.735  -6.307  10.740  1.00  0.00     0.060 A 
BRANCH  67  68
ATOM     68  S   UNL     1       3.029  -8.089  10.778  1.00  0.00     0.124 S 
ATOM     69  O   UNL     1       2.436  -8.508   9.512  1.00  0.00    -0.237 OA
ATOM     70  O   UNL     1       4.484  -8.168  10.853  1.00  0.00    -0.237 OA
ATOM     71  O   UNL     1       2.320  -8.524  11.978  1.00  0.00    -0.744 OA
ENDBRANCH  67  68
ENDBRANCH  46  60
BRANCH  47  72
ATOM     72  C   UNL     1       0.092   6.248  10.334  1.00  0.00     0.058 A 
ATOM     73  C   UNL     1       1.138   7.176  10.205  1.00  0.00     0.135 A 
ATOM     74  C   UNL     1      -1.214   6.762  10.340  1.00  0.00     0.135 A 
ATOM     75  F   UNL     1       2.410   6.764  10.234  1.00  0.00    -0.206 F 
ATOM     76  C   UNL     1       0.909   8.539  10.049  1.00  0.00     0.059 A 
ATOM     77  C   UNL     1      -1.473   8.120  10.162  1.00  0.00     0.059 A 
ATOM     78  F   UNL     1      -2.262   5.933  10.470  1.00  0.00    -0.206 F 
ATOM     79  C   UNL     1      -0.403   9.001  10.013  1.00  0.00     0.060 A 
BRANCH  79  80
ATOM     80  S   UNL     1      -0.691  10.755   9.696  1.00  0.00     0.124 S 
ATOM     81  O   UNL     1      -0.361  11.348  10.986  1.00  0.00    -0.237 OA
ATOM     82  O   UNL     1       0.245  11.030   8.609  1.00  0.00    -0.237 OA
ATOM     83  O   UNL     1      -2.101  10.798   9.320  1.00  0.00    -0.744 OA
ENDBRANCH  79  80
ENDBRANCH  47  72
BRANCH  59  84
ATOM     84  C   UNL     1       3.304   2.142  14.978  1.00  0.00     0.058 A 
ATOM     85  C   UNL     1       2.498   2.391  16.101  1.00  0.00     0.135 A 
ATOM     86  C   UNL     1       4.695   2.119  15.157  1.00  0.00     0.135 A 
ATOM     87  F   UNL     1       1.162   2.422  15.980  1.00  0.00    -0.206 F 
ATOM     88  C   UNL     1       3.053   2.632  17.352  1.00  0.00     0.059 A 
ATOM     89  C   UNL     1       5.271   2.337  16.405  1.00  0.00     0.059 A 
ATOM     90  F   UNL     1       5.507   1.868  14.118  1.00  0.00    -0.206 F 
ATOM     91  C   UNL     1       4.441   2.606  17.494  1.00  0.00     0.060 A 
BRANCH  91  92
ATOM     92  S   UNL     1       5.152   2.886  19.130  1.00  0.00     0.124 S 
ATOM     93  O   UNL     1       5.074   4.339  19.240  1.00  0.00    -0.237 OA
ATOM     94  O   UNL     1       4.251   2.136  20.000  1.00  0.00    -0.237 OA
ATOM     95  O   UNL     1       6.499   2.335  19.012  1.00  0.00    -0.744 OA
ENDBRANCH  91  92
ENDBRANCH  59  84
ENDBRANCH  33  34
ENDBRANCH  26  28
ENDBRANCH  25  26
ENDBRANCH  24  25
ENDBRANCH   1  24
TORSDOF 17
