REMARK SMILES CC[C@](C)(NC(=O)[C@H]1CNc2ccccc2O1)C(=O)OCCOC(=O)c1ccc(-c2c3nc(c(-c4c(F)cc(S(=O)(=O)[O-])cc4F)c4ccc([nH]4)c(-c4c(F)cc(S(=O)(=O)[O-])cc4F)c4nc(c(-c5c(F)cc(S(=O)(=O)[O-])cc5F)c5ccc2[nH]5)C=C4)C=C3)cc1
REMARK SMILES IDX 22 1 21 2 20 3 18 4 19 5 3 6 4 7 2 8 1 9 5 10 6 11 7 13 8 14
REMARK SMILES IDX 9 15 17 16 10 17 16 18 11 19 15 21 12 22 14 23 13 24 23 25
REMARK SMILES IDX 24 26 25 27 26 28 27 29 91 30 28 31 90 32 29 33 30 34 31 35
REMARK SMILES IDX 84 36 32 37 89 38 83 39 85 40 33 41 88 42 82 43 81 44 34 46
REMARK SMILES IDX 68 47 47 48 67 49 48 50 51 51 66 52 86 53 49 54 50 55 65 57
REMARK SMILES IDX 87 58 52 59 35 60 36 61 45 62 37 63 38 64 44 65 46 66 39 67
REMARK SMILES IDX 40 68 41 69 42 70 43 71 69 72 70 73 79 74 71 75 72 76 78 77
REMARK SMILES IDX 80 78 73 79 74 80 75 81 76 82 77 83 53 84 54 85 63 86 55 87
REMARK SMILES IDX 56 88 62 89 64 90 57 91 58 92 59 93 60 94 61 95
REMARK H PARENT 5 12 10 20 85 45 51 56
REMARK Flexibility Score: inf
ROOT
ATOM      1  C   UNL     1       1.057  -3.365   4.256  1.00  0.00     0.275 C 
ENDROOT
BRANCH   1   2
ATOM      2  C   UNL     1       1.894  -4.475   4.898  1.00  0.00     0.274 C 
BRANCH   2   3
ATOM      3  O   UNL     1       2.642  -5.231   3.915  1.00  0.00    -0.460 OA
BRANCH   3   4
ATOM      4  C   UNL     1       2.064  -6.353   3.435  1.00  0.00     0.331 C 
ATOM      5  O   UNL     1       1.010  -6.799   3.876  1.00  0.00    -0.249 OA
BRANCH   4   6
ATOM      6  C   UNL     1       2.873  -7.053   2.292  1.00  0.00     0.135 C 
ATOM      7  C   UNL     1       1.901  -7.358   1.137  1.00  0.00     0.047 C 
BRANCH   6   8
ATOM      8  C   UNL     1       3.404  -8.393   2.909  1.00  0.00     0.037 C 
ATOM      9  C   UNL     1       2.408  -9.322   3.595  1.00  0.00     0.007 C 
ENDBRANCH   6   8
BRANCH   6  10
ATOM     10  N   UNL     1       4.104  -6.443   1.668  1.00  0.00    -0.337 N 
ATOM     11  C   UNL     1       4.350  -5.236   1.064  1.00  0.00     0.263 C 
ATOM     12  H   UNL     1       4.893  -7.032   1.701  1.00  0.00     0.164 HD
ATOM     13  O   UNL     1       4.966  -5.271  -0.004  1.00  0.00    -0.271 OA
BRANCH  11  14
ATOM     14  C   UNL     1       4.055  -3.935   1.804  1.00  0.00     0.281 C 
ATOM     15  C   UNL     1       5.038  -3.883   2.987  1.00  0.00     0.168 C 
ATOM     16  O   UNL     1       4.229  -2.747   1.016  1.00  0.00    -0.477 OA
ATOM     17  N   UNL     1       4.698  -2.772   3.864  1.00  0.00    -0.378 N 
ATOM     18  C   UNL     1       4.066  -1.617   1.800  1.00  0.00     0.143 A 
ATOM     19  C   UNL     1       4.301  -1.616   3.193  1.00  0.00     0.077 A 
ATOM     20  H   UNL     1       4.745  -2.832   4.846  1.00  0.00     0.160 HD
ATOM     21  C   UNL     1       3.667  -0.453   1.147  1.00  0.00     0.049 A 
ATOM     22  C   UNL     1       4.018  -0.459   3.922  1.00  0.00     0.029 A 
ATOM     23  C   UNL     1       3.424   0.706   1.886  1.00  0.00     0.004 A 
ATOM     24  C   UNL     1       3.583   0.698   3.273  1.00  0.00     0.002 A 
ENDBRANCH  11  14
ENDBRANCH   6  10
ENDBRANCH   4   6
ENDBRANCH   3   4
ENDBRANCH   2   3
ENDBRANCH   1   2
BRANCH   1  25
ATOM     25  O   UNL     1      -0.063  -3.931   3.557  1.00  0.00    -0.458 OA
BRANCH  25  26
ATOM     26  C   UNL     1      -0.074  -3.786   2.212  1.00  0.00     0.338 C 
ATOM     27  O   UNL     1       0.737  -3.222   1.504  1.00  0.00    -0.246 OA
BRANCH  26  28
ATOM     28  C   UNL     1      -1.250  -4.485   1.690  1.00  0.00     0.060 A 
ATOM     29  C   UNL     1      -1.259  -5.879   1.692  1.00  0.00     0.016 A 
ATOM     30  C   UNL     1      -2.327  -3.763   1.185  1.00  0.00     0.016 A 
ATOM     31  C   UNL     1      -2.342  -6.573   1.182  1.00  0.00     0.010 A 
ATOM     32  C   UNL     1      -3.453  -4.458   0.745  1.00  0.00     0.010 A 
ATOM     33  C   UNL     1      -3.469  -5.864   0.760  1.00  0.00    -0.014 A 
BRANCH  33  34
ATOM     34  C   UNL     1      -4.710  -6.593   0.433  1.00  0.00     0.031 A 
ATOM     35  C   UNL     1      -5.244  -6.557  -0.962  1.00  0.00     0.074 A 
ATOM     36  C   UNL     1      -5.361  -7.218   1.434  1.00  0.00     0.049 A 
ATOM     37  N   UNL     1      -6.421  -6.912  -1.397  1.00  0.00    -0.248 NA
ATOM     38  C   UNL     1      -4.345  -6.032  -2.003  1.00  0.00     0.031 C 
ATOM     39  C   UNL     1      -4.885  -7.317   2.820  1.00  0.00     0.029 A 
ATOM     40  N   UNL     1      -6.569  -7.862   1.457  1.00  0.00    -0.354 N 
ATOM     41  C   UNL     1      -6.429  -6.603  -2.751  1.00  0.00     0.074 A 
ATOM     42  C   UNL     1      -5.131  -6.049  -3.071  1.00  0.00     0.031 C 
ATOM     43  C   UNL     1      -5.795  -7.970   3.556  1.00  0.00     0.029 A 
ATOM     44  C   UNL     1      -6.948  -8.263   2.717  1.00  0.00     0.049 A 
ATOM     45  H   UNL     1      -7.113  -8.021   0.651  1.00  0.00     0.167 HD
ATOM     46  C   UNL     1      -7.447  -6.757  -3.628  1.00  0.00     0.037 A 
ATOM     47  C   UNL     1      -8.122  -8.750   3.159  1.00  0.00     0.037 A 
ATOM     48  C   UNL     1      -8.713  -7.343  -3.268  1.00  0.00     0.049 A 
ATOM     49  C   UNL     1      -9.235  -8.904   2.164  1.00  0.00     0.074 A 
ATOM     50  C   UNL     1      -9.806  -7.597  -4.074  1.00  0.00     0.029 A 
ATOM     51  N   UNL     1      -9.049  -7.765  -1.987  1.00  0.00    -0.354 N 
ATOM     52  N   UNL     1      -9.235  -8.611   0.884  1.00  0.00    -0.248 NA
ATOM     53  C   UNL     1     -10.508  -9.431   2.666  1.00  0.00     0.031 C 
ATOM     54  C   UNL     1     -10.817  -8.139  -3.273  1.00  0.00     0.029 A 
ATOM     55  C   UNL     1     -10.341  -8.256  -1.975  1.00  0.00     0.049 A 
ATOM     56  H   UNL     1      -8.454  -7.720  -1.204  1.00  0.00     0.167 HD
ATOM     57  C   UNL     1     -10.508  -8.915   0.426  1.00  0.00     0.074 A 
ATOM     58  C   UNL     1     -11.243  -9.439   1.562  1.00  0.00     0.031 C 
ATOM     59  C   UNL     1     -11.030  -8.768  -0.816  1.00  0.00     0.037 A 
BRANCH  46  60
ATOM     60  C   UNL     1      -7.256  -6.252  -5.029  1.00  0.00     0.058 A 
ATOM     61  C   UNL     1      -6.447  -6.920  -5.961  1.00  0.00     0.135 A 
ATOM     62  C   UNL     1      -7.928  -5.095  -5.458  1.00  0.00     0.135 A 
ATOM     63  F   UNL     1      -5.766  -8.018  -5.599  1.00  0.00    -0.206 F 
ATOM     64  C   UNL     1      -6.302  -6.454  -7.265  1.00  0.00     0.059 A 
ATOM     65  C   UNL     1      -7.813  -4.621  -6.762  1.00  0.00     0.059 A 
ATOM     66  F   UNL     1      -8.707  -4.411  -4.605  1.00  0.00    -0.206 F 
ATOM     67  C   UNL     1      -6.990  -5.303  -7.657  1.00  0.00     0.060 A 
BRANCH  67  68
ATOM     68  S   UNL     1      -6.810  -4.721  -9.357  1.00  0.00     0.124 S 
ATOM     69  O   UNL     1      -5.467  -4.149  -9.329  1.00  0.00    -0.237 OA
ATOM     70  O   UNL     1      -6.957  -5.952 -10.127  1.00  0.00    -0.237 OA
ATOM     71  O   UNL     1      -7.898  -3.760  -9.505  1.00  0.00    -0.744 OA
ENDBRANCH  67  68
ENDBRANCH  46  60
BRANCH  47  72
ATOM     72  C   UNL     1      -8.310  -9.049   4.603  1.00  0.00     0.058 A 
ATOM     73  C   UNL     1      -8.426 -10.368   5.062  1.00  0.00     0.135 A 
ATOM     74  C   UNL     1      -8.337  -8.021   5.561  1.00  0.00     0.135 A 
ATOM     75  F   UNL     1      -8.408 -11.386   4.188  1.00  0.00    -0.206 F 
ATOM     76  C   UNL     1      -8.572 -10.659   6.415  1.00  0.00     0.059 A 
ATOM     77  C   UNL     1      -8.456  -8.288   6.921  1.00  0.00     0.059 A 
ATOM     78  F   UNL     1      -8.210  -6.741   5.177  1.00  0.00    -0.206 F 
ATOM     79  C   UNL     1      -8.584  -9.611   7.338  1.00  0.00     0.060 A 
BRANCH  79  80
ATOM     80  S   UNL     1      -8.722  -9.998   9.097  1.00  0.00     0.124 S 
ATOM     81  O   UNL     1     -10.144 -10.293   9.222  1.00  0.00    -0.237 OA
ATOM     82  O   UNL     1      -7.819 -11.137   9.237  1.00  0.00    -0.237 OA
ATOM     83  O   UNL     1      -8.271  -8.770   9.746  1.00  0.00    -0.744 OA
ENDBRANCH  79  80
ENDBRANCH  47  72
BRANCH  59  84
ATOM     84  C   UNL     1     -12.457  -9.186  -1.000  1.00  0.00     0.058 A 
ATOM     85  C   UNL     1     -13.513  -8.371  -0.568  1.00  0.00     0.135 A 
ATOM     86  C   UNL     1     -12.767 -10.379  -1.669  1.00  0.00     0.135 A 
ATOM     87  F   UNL     1     -13.260  -7.227   0.088  1.00  0.00    -0.206 F 
ATOM     88  C   UNL     1     -14.836  -8.729  -0.791  1.00  0.00     0.059 A 
ATOM     89  C   UNL     1     -14.082 -10.746  -1.921  1.00  0.00     0.059 A 
ATOM     90  F   UNL     1     -11.785 -11.186  -2.103  1.00  0.00    -0.206 F 
ATOM     91  C   UNL     1     -15.110  -9.916  -1.473  1.00  0.00     0.060 A 
BRANCH  91  92
ATOM     92  S   UNL     1     -16.831 -10.344  -1.808  1.00  0.00     0.124 S 
ATOM     93  O   UNL     1     -17.274 -10.819  -0.501  1.00  0.00    -0.237 OA
ATOM     94  O   UNL     1     -17.392  -9.068  -2.243  1.00  0.00    -0.237 OA
ATOM     95  O   UNL     1     -16.730 -11.363  -2.847  1.00  0.00    -0.744 OA
ENDBRANCH  91  92
ENDBRANCH  59  84
ENDBRANCH  33  34
ENDBRANCH  26  28
ENDBRANCH  25  26
ENDBRANCH   1  25
TORSDOF 17
