REMARK SMILES Nc1ccc(C(=O)N2Cc3nc[nH]c3C[C@H]2C(=O)OCCOC(=O)c2ccc(-c3c4nc(c(-c5c(F)cc(S(=O)(=O)[O-])cc5F)c5ccc([nH]5)c(-c5c(F)cc(S(=O)(=O)[O-])cc5F)c5nc(c(-c6c(F)cc(S(=O)(=O)[O-])cc6F)c6ccc3[nH]6)C=C5)C=C4)cc2)cc1
REMARK SMILES IDX 20 1 19 2 17 3 18 4 16 5 8 6 9 7 10 8 15 9 11 10 14 11 12 12
REMARK SMILES IDX 13 13 6 15 7 16 5 17 2 18 3 19 92 20 4 21 91 22 1 23 21 26
REMARK SMILES IDX 22 27 23 28 24 29 25 30 26 31 90 32 27 33 89 34 28 35 29 36
REMARK SMILES IDX 30 37 83 38 31 39 88 40 82 41 84 42 32 43 87 44 81 45 80 46
REMARK SMILES IDX 33 48 67 49 46 50 66 51 47 52 50 53 65 54 85 55 48 56 49 57
REMARK SMILES IDX 64 59 86 60 51 61 34 62 35 63 44 64 36 65 37 66 43 67 45 68
REMARK SMILES IDX 38 69 39 70 40 71 41 72 42 73 68 74 69 75 78 76 70 77 71 78
REMARK SMILES IDX 77 79 79 80 72 81 73 82 74 83 75 84 76 85 52 86 53 87 62 88
REMARK SMILES IDX 54 89 55 90 61 91 63 92 56 93 57 94 58 95 59 96 60 97
REMARK H PARENT 13 14 1 24 1 25 84 47 50 58
REMARK Flexibility Score: inf
ROOT
ATOM      1  C   UNL     1      -2.897   5.543  -0.108  1.00  0.00     0.274 C 
ENDROOT
BRANCH   1   2
ATOM      2  O   UNL     1      -3.429   4.205  -0.188  1.00  0.00    -0.461 OA
BRANCH   2   3
ATOM      3  C   UNL     1      -3.259   3.548  -1.372  1.00  0.00     0.329 C 
ATOM      4  O   UNL     1      -2.785   4.071  -2.379  1.00  0.00    -0.250 OA
BRANCH   3   5
ATOM      5  C   UNL     1      -3.870   2.127  -1.401  1.00  0.00     0.201 C 
ATOM      6  N   UNL     1      -4.072   1.382  -0.121  1.00  0.00    -0.318 N 
ATOM      7  C   UNL     1      -5.085   1.852   0.843  1.00  0.00     0.179 C 
ATOM      8  C   UNL     1      -6.164   2.607   0.137  1.00  0.00     0.081 A 
ATOM      9  C   UNL     1      -5.207   2.269  -2.184  1.00  0.00     0.093 C 
ATOM     10  N   UNL     1      -7.157   3.326   0.751  1.00  0.00    -0.240 NA
ATOM     11  C   UNL     1      -6.213   2.795  -1.227  1.00  0.00     0.042 A 
ATOM     12  C   UNL     1      -7.787   3.941  -0.228  1.00  0.00     0.197 A 
ATOM     13  N   UNL     1      -7.250   3.646  -1.454  1.00  0.00    -0.348 N 
ATOM     14  H   UNL     1      -7.555   3.984  -2.327  1.00  0.00     0.167 HD
BRANCH   6  15
ATOM     15  C   UNL     1      -3.779   0.020  -0.126  1.00  0.00     0.254 C 
ATOM     16  O   UNL     1      -4.450  -0.791  -0.753  1.00  0.00    -0.269 OA
BRANCH  15  17
ATOM     17  C   UNL     1      -2.524  -0.387   0.582  1.00  0.00     0.040 A 
ATOM     18  C   UNL     1      -0.042  -1.077   1.742  1.00  0.00     0.031 A 
ATOM     19  C   UNL     1      -0.701  -1.966   0.890  1.00  0.00     0.026 A 
ATOM     20  C   UNL     1      -0.672   0.123   2.064  1.00  0.00     0.026 A 
ATOM     21  C   UNL     1      -1.932  -1.625   0.306  1.00  0.00     0.016 A 
ATOM     22  C   UNL     1      -1.899   0.466   1.491  1.00  0.00     0.016 A 
BRANCH  18  23
ATOM     23  N   UNL     1       1.174  -1.399   2.311  1.00  0.00    -0.399 N 
ATOM     24  H   UNL     1       1.616  -2.247   2.081  1.00  0.00     0.156 HD
ATOM     25  H   UNL     1       1.599  -0.779   2.947  1.00  0.00     0.156 HD
ENDBRANCH  18  23
ENDBRANCH  15  17
ENDBRANCH   6  15
ENDBRANCH   3   5
ENDBRANCH   2   3
ENDBRANCH   1   2
BRANCH   1  26
ATOM     26  C   UNL     1      -1.606   5.642   0.718  1.00  0.00     0.275 C 
BRANCH  26  27
ATOM     27  O   UNL     1      -0.418   5.149   0.073  1.00  0.00    -0.458 OA
BRANCH  27  28
ATOM     28  C   UNL     1      -0.339   3.816   0.079  1.00  0.00     0.338 C 
ATOM     29  O   UNL     1      -1.288   3.032   0.267  1.00  0.00    -0.246 OA
BRANCH  28  30
ATOM     30  C   UNL     1       1.001   3.264   0.097  1.00  0.00     0.060 A 
ATOM     31  C   UNL     1       1.091   1.919  -0.264  1.00  0.00     0.016 A 
ATOM     32  C   UNL     1       2.008   3.898   0.832  1.00  0.00     0.016 A 
ATOM     33  C   UNL     1       2.101   1.160   0.275  1.00  0.00     0.010 A 
ATOM     34  C   UNL     1       3.046   3.130   1.343  1.00  0.00     0.010 A 
ATOM     35  C   UNL     1       3.045   1.749   1.130  1.00  0.00    -0.014 A 
BRANCH  35  36
ATOM     36  C   UNL     1       4.144   0.886   1.574  1.00  0.00     0.031 A 
ATOM     37  C   UNL     1       4.817   0.247   0.409  1.00  0.00     0.074 A 
ATOM     38  C   UNL     1       4.551   0.753   2.857  1.00  0.00     0.049 A 
ATOM     39  N   UNL     1       5.002  -1.013   0.191  1.00  0.00    -0.248 NA
ATOM     40  C   UNL     1       5.131   1.105  -0.755  1.00  0.00     0.031 C 
ATOM     41  C   UNL     1       4.012   1.481   4.010  1.00  0.00     0.029 A 
ATOM     42  N   UNL     1       5.589   0.043   3.410  1.00  0.00    -0.354 N 
ATOM     43  C   UNL     1       5.713  -1.065  -1.005  1.00  0.00     0.074 A 
ATOM     44  C   UNL     1       5.559   0.210  -1.644  1.00  0.00     0.031 C 
ATOM     45  C   UNL     1       4.868   1.374   5.049  1.00  0.00     0.029 A 
ATOM     46  C   UNL     1       5.967   0.497   4.680  1.00  0.00     0.049 A 
ATOM     47  H   UNL     1       6.026  -0.714   2.957  1.00  0.00     0.167 HD
ATOM     48  C   UNL     1       6.689  -1.995  -1.165  1.00  0.00     0.037 A 
ATOM     49  C   UNL     1       7.115   0.237   5.364  1.00  0.00     0.037 A 
ATOM     50  C   UNL     1       6.469  -3.127  -0.310  1.00  0.00     0.049 A 
ATOM     51  C   UNL     1       7.726  -0.977   4.781  1.00  0.00     0.074 A 
ATOM     52  C   UNL     1       5.596  -4.192  -0.270  1.00  0.00     0.029 A 
ATOM     53  N   UNL     1       7.037  -3.012   0.928  1.00  0.00    -0.354 N 
ATOM     54  N   UNL     1       7.250  -2.177   4.949  1.00  0.00    -0.248 NA
ATOM     55  C   UNL     1       8.738  -0.843   3.736  1.00  0.00     0.031 C 
ATOM     56  C   UNL     1       5.581  -4.648   1.079  1.00  0.00     0.029 A 
ATOM     57  C   UNL     1       6.472  -3.878   1.821  1.00  0.00     0.049 A 
ATOM     58  H   UNL     1       7.763  -2.384   1.148  1.00  0.00     0.167 HD
ATOM     59  C   UNL     1       7.559  -2.826   3.774  1.00  0.00     0.074 A 
ATOM     60  C   UNL     1       8.612  -2.037   3.154  1.00  0.00     0.031 C 
ATOM     61  C   UNL     1       6.687  -3.725   3.241  1.00  0.00     0.037 A 
BRANCH  48  62
ATOM     62  C   UNL     1       8.080  -1.627  -1.647  1.00  0.00     0.058 A 
ATOM     63  C   UNL     1       9.015  -2.650  -1.896  1.00  0.00     0.135 A 
ATOM     64  C   UNL     1       8.618  -0.318  -1.586  1.00  0.00     0.135 A 
ATOM     65  F   UNL     1       8.625  -3.934  -1.935  1.00  0.00    -0.206 F 
ATOM     66  C   UNL     1      10.382  -2.395  -2.040  1.00  0.00     0.059 A 
ATOM     67  C   UNL     1       9.962  -0.036  -1.782  1.00  0.00     0.059 A 
ATOM     68  F   UNL     1       7.891   0.747  -1.232  1.00  0.00    -0.206 F 
ATOM     69  C   UNL     1      10.843  -1.082  -1.979  1.00  0.00     0.060 A 
BRANCH  69  70
ATOM     70  S   UNL     1      12.604  -0.741  -2.122  1.00  0.00     0.124 S 
ATOM     71  O   UNL     1      13.108  -1.273  -0.862  1.00  0.00    -0.237 OA
ATOM     72  O   UNL     1      12.958  -1.488  -3.324  1.00  0.00    -0.237 OA
ATOM     73  O   UNL     1      12.652   0.713  -2.260  1.00  0.00    -0.744 OA
ENDBRANCH  69  70
ENDBRANCH  48  62
BRANCH  49  74
ATOM     74  C   UNL     1       7.852   1.030   6.393  1.00  0.00     0.058 A 
ATOM     75  C   UNL     1       8.919   0.459   7.121  1.00  0.00     0.135 A 
ATOM     76  C   UNL     1       7.734   2.429   6.482  1.00  0.00     0.135 A 
ATOM     77  F   UNL     1       9.117  -0.868   7.108  1.00  0.00    -0.206 F 
ATOM     78  C   UNL     1       9.858   1.231   7.814  1.00  0.00     0.059 A 
ATOM     79  C   UNL     1       8.649   3.219   7.182  1.00  0.00     0.059 A 
ATOM     80  F   UNL     1       6.780   3.089   5.810  1.00  0.00    -0.206 F 
ATOM     81  C   UNL     1       9.732   2.617   7.811  1.00  0.00     0.060 A 
BRANCH  81  82
ATOM     82  S   UNL     1      11.066   3.632   8.494  1.00  0.00     0.124 S 
ATOM     83  O   UNL     1      10.916   3.407   9.927  1.00  0.00    -0.237 OA
ATOM     84  O   UNL     1      12.250   3.045   7.876  1.00  0.00    -0.237 OA
ATOM     85  O   UNL     1      10.732   4.978   8.035  1.00  0.00    -0.744 OA
ENDBRANCH  81  82
ENDBRANCH  49  74
BRANCH  61  86
ATOM     86  C   UNL     1       5.851  -4.522   4.190  1.00  0.00     0.058 A 
ATOM     87  C   UNL     1       4.862  -4.011   5.045  1.00  0.00     0.135 A 
ATOM     88  C   UNL     1       6.056  -5.911   4.189  1.00  0.00     0.135 A 
ATOM     89  F   UNL     1       4.552  -2.704   5.043  1.00  0.00    -0.206 F 
ATOM     90  C   UNL     1       4.140  -4.849   5.896  1.00  0.00     0.059 A 
ATOM     91  C   UNL     1       5.324  -6.766   4.998  1.00  0.00     0.059 A 
ATOM     92  F   UNL     1       6.965  -6.458   3.364  1.00  0.00    -0.206 F 
ATOM     93  C   UNL     1       4.380  -6.225   5.865  1.00  0.00     0.060 A 
BRANCH  93  94
ATOM     94  S   UNL     1       3.419  -7.320   6.929  1.00  0.00     0.124 S 
ATOM     95  O   UNL     1       3.955  -7.010   8.250  1.00  0.00    -0.237 OA
ATOM     96  O   UNL     1       2.050  -6.881   6.679  1.00  0.00    -0.237 OA
ATOM     97  O   UNL     1       3.738  -8.653   6.424  1.00  0.00    -0.744 OA
ENDBRANCH  93  94
ENDBRANCH  61  86
ENDBRANCH  35  36
ENDBRANCH  28  30
ENDBRANCH  27  28
ENDBRANCH  26  27
ENDBRANCH   1  26
TORSDOF 17
