REMARK SMILES O=C(OCCOC(=O)[C@H]1CCCC[C@H]1C(=O)N1CCN(S(=O)(=O)c2ccc(F)cc2)CC1)c1ccc(-c2c3nc(c(-c4c(F)cc(S(=O)(=O)[O-])cc4F)c4ccc([nH]4)c(-c4c(F)cc(S(=O)(=O)[O-])cc4F)c4nc(c(-c5c(F)cc(S(=O)(=O)[O-])cc5F)c5ccc2[nH]5)C=C4)C=C3)cc1
REMARK SMILES IDX 4 1 3 2 2 3 1 4 33 5 34 6 98 7 35 8 97 9 36 10 37 11 38 12
REMARK SMILES IDX 91 13 39 14 96 15 90 16 92 17 40 18 95 19 89 20 88 21 41 23
REMARK SMILES IDX 75 24 54 25 74 26 55 27 58 28 73 29 93 30 56 31 57 32 72 34
REMARK SMILES IDX 94 35 59 36 42 37 43 38 52 39 44 40 45 41 51 42 53 43 46 44
REMARK SMILES IDX 47 45 48 46 49 47 50 48 76 49 77 50 86 51 78 52 79 53 85 54
REMARK SMILES IDX 87 55 80 56 81 57 82 58 83 59 84 60 60 61 61 62 70 63 62 64
REMARK SMILES IDX 63 65 69 66 71 67 64 68 65 69 66 70 67 71 68 72 5 73 6 74
REMARK SMILES IDX 7 75 8 76 9 77 10 78 14 79 11 80 13 81 12 82 15 83 16 84
REMARK SMILES IDX 17 85 18 86 32 87 19 88 31 89 20 90 21 91 22 92 23 93 24 94
REMARK SMILES IDX 25 95 30 96 26 97 29 98 27 99 28 100
REMARK H PARENT 92 22 58 33
REMARK Flexibility Score: inf
ROOT
ATOM      1  C   UNL     1      -1.407   1.846   2.889  1.00  0.00     0.275 C 
ENDROOT
BRANCH   1   2
ATOM      2  O   UNL     1      -1.387   1.035   1.684  1.00  0.00    -0.458 OA
BRANCH   2   3
ATOM      3  C   UNL     1      -0.526   1.010   0.630  1.00  0.00     0.338 C 
ATOM      4  O   UNL     1      -0.806   0.392  -0.390  1.00  0.00    -0.246 OA
BRANCH   3   5
ATOM      5  C   UNL     1       0.828   1.565   0.779  1.00  0.00     0.060 A 
ATOM      6  C   UNL     1       1.000   2.831   1.317  1.00  0.00     0.016 A 
ATOM      7  C   UNL     1       1.942   0.824   0.335  1.00  0.00     0.016 A 
ATOM      8  C   UNL     1       2.268   3.300   1.562  1.00  0.00     0.010 A 
ATOM      9  C   UNL     1       3.235   1.331   0.512  1.00  0.00     0.010 A 
ATOM     10  C   UNL     1       3.386   2.571   1.136  1.00  0.00    -0.014 A 
BRANCH  10  11
ATOM     11  C   UNL     1       4.627   3.363   1.161  1.00  0.00     0.031 A 
ATOM     12  C   UNL     1       4.816   4.288  -0.001  1.00  0.00     0.074 A 
ATOM     13  C   UNL     1       5.235   3.540   2.348  1.00  0.00     0.049 A 
ATOM     14  N   UNL     1       5.468   5.412  -0.050  1.00  0.00    -0.248 NA
ATOM     15  C   UNL     1       4.075   3.959  -1.234  1.00  0.00     0.031 C 
ATOM     16  C   UNL     1       4.938   2.759   3.547  1.00  0.00     0.029 A 
ATOM     17  N   UNL     1       6.124   4.484   2.781  1.00  0.00    -0.354 N 
ATOM     18  C   UNL     1       5.175   5.950  -1.295  1.00  0.00     0.074 A 
ATOM     19  C   UNL     1       4.303   5.028  -1.981  1.00  0.00     0.031 C 
ATOM     20  C   UNL     1       5.595   3.277   4.596  1.00  0.00     0.029 A 
ATOM     21  C   UNL     1       6.374   4.421   4.136  1.00  0.00     0.049 A 
ATOM     22  H   UNL     1       6.545   5.144   2.185  1.00  0.00     0.167 HD
ATOM     23  C   UNL     1       5.597   7.127  -1.802  1.00  0.00     0.037 A 
ATOM     24  C   UNL     1       7.135   5.217   4.912  1.00  0.00     0.037 A 
ATOM     25  C   UNL     1       6.510   7.984  -1.100  1.00  0.00     0.049 A 
ATOM     26  C   UNL     1       7.749   6.421   4.250  1.00  0.00     0.074 A 
ATOM     27  C   UNL     1       7.143   9.123  -1.551  1.00  0.00     0.029 A 
ATOM     28  N   UNL     1       6.930   7.772   0.208  1.00  0.00    -0.354 N 
ATOM     29  N   UNL     1       7.527   6.890   3.042  1.00  0.00    -0.248 NA
ATOM     30  C   UNL     1       8.712   7.199   5.034  1.00  0.00     0.031 C 
ATOM     31  C   UNL     1       7.993   9.569  -0.534  1.00  0.00     0.029 A 
ATOM     32  C   UNL     1       7.843   8.742   0.572  1.00  0.00     0.049 A 
ATOM     33  H   UNL     1       6.623   7.039   0.789  1.00  0.00     0.167 HD
ATOM     34  C   UNL     1       8.323   8.019   2.919  1.00  0.00     0.074 A 
ATOM     35  C   UNL     1       9.003   8.182   4.192  1.00  0.00     0.031 C 
ATOM     36  C   UNL     1       8.493   8.844   1.856  1.00  0.00     0.037 A 
BRANCH  23  37
ATOM     37  C   UNL     1       5.148   7.489  -3.184  1.00  0.00     0.058 A 
ATOM     38  C   UNL     1       6.030   7.357  -4.267  1.00  0.00     0.135 A 
ATOM     39  C   UNL     1       3.856   7.974  -3.444  1.00  0.00     0.135 A 
ATOM     40  F   UNL     1       7.263   6.862  -4.077  1.00  0.00    -0.206 F 
ATOM     41  C   UNL     1       5.660   7.726  -5.555  1.00  0.00     0.059 A 
ATOM     42  C   UNL     1       3.458   8.334  -4.729  1.00  0.00     0.059 A 
ATOM     43  F   UNL     1       2.958   8.069  -2.450  1.00  0.00    -0.206 F 
ATOM     44  C   UNL     1       4.375   8.223  -5.775  1.00  0.00     0.060 A 
BRANCH  44  45
ATOM     45  S   UNL     1       3.923   8.709  -7.454  1.00  0.00     0.124 S 
ATOM     46  O   UNL     1       4.793   9.858  -7.677  1.00  0.00    -0.237 OA
ATOM     47  O   UNL     1       4.248   7.507  -8.216  1.00  0.00    -0.237 OA
ATOM     48  O   UNL     1       2.498   9.009  -7.348  1.00  0.00    -0.744 OA
ENDBRANCH  44  45
ENDBRANCH  23  37
BRANCH  24  49
ATOM     49  C   UNL     1       7.387   4.880   6.343  1.00  0.00     0.058 A 
ATOM     50  C   UNL     1       8.029   3.677   6.688  1.00  0.00     0.135 A 
ATOM     51  C   UNL     1       7.028   5.738   7.395  1.00  0.00     0.135 A 
ATOM     52  F   UNL     1       8.398   2.812   5.731  1.00  0.00    -0.206 F 
ATOM     53  C   UNL     1       8.290   3.331   8.009  1.00  0.00     0.059 A 
ATOM     54  C   UNL     1       7.307   5.428   8.728  1.00  0.00     0.059 A 
ATOM     55  F   UNL     1       6.419   6.904   7.130  1.00  0.00    -0.206 F 
ATOM     56  C   UNL     1       7.931   4.216   9.024  1.00  0.00     0.060 A 
BRANCH  56  57
ATOM     57  S   UNL     1       8.326   3.760  10.727  1.00  0.00     0.124 S 
ATOM     58  O   UNL     1       7.408   2.648  10.951  1.00  0.00    -0.237 OA
ATOM     59  O   UNL     1       9.739   3.406  10.627  1.00  0.00    -0.237 OA
ATOM     60  O   UNL     1       8.037   4.977  11.478  1.00  0.00    -0.744 OA
ENDBRANCH  56  57
ENDBRANCH  24  49
BRANCH  36  61
ATOM     61  C   UNL     1       9.456   9.979   2.032  1.00  0.00     0.058 A 
ATOM     62  C   UNL     1       8.990  11.300   2.098  1.00  0.00     0.135 A 
ATOM     63  C   UNL     1      10.841   9.758   2.056  1.00  0.00     0.135 A 
ATOM     64  F   UNL     1       7.672  11.557   2.066  1.00  0.00    -0.206 F 
ATOM     65  C   UNL     1       9.869  12.370   2.168  1.00  0.00     0.059 A 
ATOM     66  C   UNL     1      11.738  10.812   2.159  1.00  0.00     0.059 A 
ATOM     67  F   UNL     1      11.327   8.507   2.004  1.00  0.00    -0.206 F 
ATOM     68  C   UNL     1      11.242  12.116   2.198  1.00  0.00     0.060 A 
BRANCH  68  69
ATOM     69  S   UNL     1      12.369  13.517   2.320  1.00  0.00     0.124 S 
ATOM     70  O   UNL     1      12.268  14.096   0.985  1.00  0.00    -0.237 OA
ATOM     71  O   UNL     1      11.773  14.298   3.400  1.00  0.00    -0.237 OA
ATOM     72  O   UNL     1      13.649  12.893   2.640  1.00  0.00    -0.744 OA
ENDBRANCH  68  69
ENDBRANCH  36  61
ENDBRANCH  10  11
ENDBRANCH   3   5
ENDBRANCH   2   3
ENDBRANCH   1   2
BRANCH   1  73
ATOM     73  C   UNL     1      -0.638   1.292   4.095  1.00  0.00     0.274 C 
BRANCH  73  74
ATOM     74  O   UNL     1       0.677   0.843   3.746  1.00  0.00    -0.462 OA
BRANCH  74  75
ATOM     75  C   UNL     1       1.078  -0.356   4.276  1.00  0.00     0.309 C 
ATOM     76  O   UNL     1       0.456  -0.993   5.112  1.00  0.00    -0.252 OA
BRANCH  75  77
ATOM     77  C   UNL     1       2.362  -0.806   3.610  1.00  0.00     0.111 C 
ATOM     78  C   UNL     1       3.506  -0.487   4.591  1.00  0.00     0.016 C 
ATOM     79  C   UNL     1       2.432  -2.263   3.102  1.00  0.00     0.093 C 
ATOM     80  C   UNL     1       3.637  -1.509   5.714  1.00  0.00     0.001 C 
ATOM     81  C   UNL     1       2.602  -3.279   4.241  1.00  0.00     0.014 C 
ATOM     82  C   UNL     1       3.766  -2.920   5.162  1.00  0.00     0.001 C 
BRANCH  79  83
ATOM     83  C   UNL     1       1.475  -2.869   2.033  1.00  0.00     0.226 C 
ATOM     84  O   UNL     1       1.966  -3.444   1.055  1.00  0.00    -0.275 OA
ATOM     85  N   UNL     1       0.117  -2.969   2.284  1.00  0.00    -0.340 N 
ATOM     86  C   UNL     1      -0.642  -4.128   1.798  1.00  0.00     0.136 C 
ATOM     87  C   UNL     1      -0.706  -1.789   2.233  1.00  0.00     0.136 C 
ATOM     88  C   UNL     1      -1.981  -4.316   2.564  1.00  0.00     0.124 C 
ATOM     89  C   UNL     1      -1.910  -1.926   3.158  1.00  0.00     0.124 C 
ATOM     90  N   UNL     1      -2.795  -3.044   2.726  1.00  0.00    -0.194 NA
BRANCH  90  91
ATOM     91  S   UNL     1      -3.909  -2.740   1.468  1.00  0.00     0.243 S 
ATOM     92  O   UNL     1      -3.163  -2.476   0.261  1.00  0.00    -0.207 OA
ATOM     93  O   UNL     1      -4.892  -3.805   1.502  1.00  0.00    -0.207 OA
BRANCH  91  94
ATOM     94  C   UNL     1      -4.749  -1.230   1.939  1.00  0.00     0.082 A 
ATOM     95  C   UNL     1      -4.310  -0.004   1.419  1.00  0.00     0.025 A 
ATOM     96  C   UNL     1      -5.885  -1.276   2.754  1.00  0.00     0.025 A 
ATOM     97  C   UNL     1      -4.952   1.183   1.784  1.00  0.00     0.040 A 
ATOM     98  C   UNL     1      -6.542  -0.087   3.092  1.00  0.00     0.040 A 
ATOM     99  C   UNL     1      -6.060   1.131   2.621  1.00  0.00     0.123 A 
ATOM    100  F   UNL     1      -6.677   2.268   2.970  1.00  0.00    -0.207 F 
ENDBRANCH  91  94
ENDBRANCH  90  91
ENDBRANCH  79  83
ENDBRANCH  75  77
ENDBRANCH  74  75
ENDBRANCH  73  74
ENDBRANCH   1  73
TORSDOF 17
