REMARK SMILES O=C(C[N@@H+]1CCO[C@@H](CCc2ccccc2)C1)OCCOC(=O)c1ccc(-c2c3nc(c(-c4c(F)cc(S(=O)(=O)[O-])cc4F)c4ccc([nH]4)c(-c4c(F)cc(S(=O)(=O)[O-])cc4F)c4nc(c(-c5c(F)cc(S(=O)(=O)[O-])cc5F)c5ccc2[nH]5)C=C4)C=C3)cc1
REMARK SMILES IDX 19 1 18 2 2 3 1 4 3 5 4 6 5 7 17 8 6 10 8 11 7 12 9 13 10 14
REMARK SMILES IDX 11 15 12 16 16 17 13 18 15 19 14 20 20 21 21 22 22 23 23 24
REMARK SMILES IDX 24 25 25 26 89 27 26 28 88 29 27 30 28 31 29 32 82 33 30 34
REMARK SMILES IDX 87 35 81 36 83 37 31 38 86 39 80 40 79 41 32 43 66 44 45 45
REMARK SMILES IDX 65 46 46 47 49 48 64 49 84 50 47 51 48 52 63 54 85 55 50 56
REMARK SMILES IDX 33 57 34 58 43 59 35 60 36 61 42 62 44 63 37 64 38 65 39 66
REMARK SMILES IDX 40 67 41 68 67 69 68 70 77 71 69 72 70 73 76 74 78 75 71 76
REMARK SMILES IDX 72 77 73 78 74 79 75 80 51 81 52 82 61 83 53 84 54 85 60 86
REMARK SMILES IDX 62 87 55 88 56 89 57 90 58 91 59 92
REMARK H PARENT 4 9 83 42 49 53
REMARK Flexibility Score: inf
ROOT
ATOM      1  C   UNL     1       3.652   0.947  -1.522  1.00  0.00     0.274 C 
ENDROOT
BRANCH   1   2
ATOM      2  O   UNL     1       2.420   0.717  -0.801  1.00  0.00    -0.458 OA
BRANCH   2   3
ATOM      3  C   UNL     1       2.320   0.152   0.438  1.00  0.00     0.361 C 
ATOM      4  O   UNL     1       1.278  -0.407   0.772  1.00  0.00    -0.245 OA
BRANCH   3   5
ATOM      5  C   UNL     1       3.483   0.343   1.412  1.00  0.00     0.386 C 
BRANCH   5   6
ATOM      6  N   UNL     1       4.137  -0.872   1.966  1.00  0.00    -0.322 N 
ATOM      7  C   UNL     1       5.602  -0.708   2.031  1.00  0.00     0.291 C 
ATOM      8  C   UNL     1       3.845  -2.166   1.318  1.00  0.00     0.295 C 
ATOM      9  H   UNL     1       3.710  -0.935   2.891  1.00  0.00     0.348 HD
ATOM     10  C   UNL     1       6.286  -0.874   0.664  1.00  0.00     0.222 C 
ATOM     11  C   UNL     1       4.472  -2.276  -0.081  1.00  0.00     0.173 C 
ATOM     12  O   UNL     1       5.904  -2.078  -0.017  1.00  0.00    -0.366 OA
BRANCH  11  13
ATOM     13  C   UNL     1       4.228  -3.597  -0.821  1.00  0.00     0.043 C 
BRANCH  13  14
ATOM     14  C   UNL     1       2.807  -4.176  -0.815  1.00  0.00     0.038 C 
BRANCH  14  15
ATOM     15  C   UNL     1       1.645  -3.417  -1.416  1.00  0.00    -0.048 A 
ATOM     16  C   UNL     1       1.761  -2.244  -2.167  1.00  0.00     0.004 A 
ATOM     17  C   UNL     1       0.354  -3.934  -1.205  1.00  0.00     0.004 A 
ATOM     18  C   UNL     1       0.621  -1.556  -2.603  1.00  0.00     0.000 A 
ATOM     19  C   UNL     1      -0.783  -3.268  -1.670  1.00  0.00     0.000 A 
ATOM     20  C   UNL     1      -0.650  -2.064  -2.349  1.00  0.00     0.000 A 
ENDBRANCH  14  15
ENDBRANCH  13  14
ENDBRANCH  11  13
ENDBRANCH   5   6
ENDBRANCH   3   5
ENDBRANCH   2   3
ENDBRANCH   1   2
BRANCH   1  21
ATOM     21  C   UNL     1       4.078   2.410  -1.629  1.00  0.00     0.275 C 
BRANCH  21  22
ATOM     22  O   UNL     1       3.817   3.089  -0.404  1.00  0.00    -0.458 OA
BRANCH  22  23
ATOM     23  C   UNL     1       2.540   3.552  -0.343  1.00  0.00     0.338 C 
ATOM     24  O   UNL     1       1.758   3.659  -1.263  1.00  0.00    -0.246 OA
BRANCH  23  25
ATOM     25  C   UNL     1       2.171   3.680   1.076  1.00  0.00     0.060 A 
ATOM     26  C   UNL     1       0.910   3.206   1.451  1.00  0.00     0.016 A 
ATOM     27  C   UNL     1       3.037   4.256   2.010  1.00  0.00     0.016 A 
ATOM     28  C   UNL     1       0.467   3.402   2.750  1.00  0.00     0.010 A 
ATOM     29  C   UNL     1       2.591   4.450   3.316  1.00  0.00     0.010 A 
ATOM     30  C   UNL     1       1.281   4.082   3.664  1.00  0.00    -0.014 A 
BRANCH  30  31
ATOM     31  C   UNL     1       0.656   4.630   4.885  1.00  0.00     0.031 A 
ATOM     32  C   UNL     1       0.180   6.057   4.848  1.00  0.00     0.074 A 
ATOM     33  C   UNL     1       0.451   3.854   5.960  1.00  0.00     0.049 A 
ATOM     34  N   UNL     1      -0.461   6.741   5.758  1.00  0.00    -0.248 NA
ATOM     35  C   UNL     1       0.465   6.816   3.617  1.00  0.00     0.031 C 
ATOM     36  C   UNL     1       0.859   2.455   6.086  1.00  0.00     0.029 A 
ATOM     37  N   UNL     1      -0.162   4.139   7.151  1.00  0.00    -0.354 N 
ATOM     38  C   UNL     1      -0.677   7.996   5.201  1.00  0.00     0.074 A 
ATOM     39  C   UNL     1      -0.045   8.004   3.901  1.00  0.00     0.031 C 
ATOM     40  C   UNL     1       0.491   2.005   7.299  1.00  0.00     0.029 A 
ATOM     41  C   UNL     1      -0.170   3.084   8.030  1.00  0.00     0.049 A 
ATOM     42  H   UNL     1      -0.559   5.016   7.358  1.00  0.00     0.167 HD
ATOM     43  C   UNL     1      -1.365   9.040   5.716  1.00  0.00     0.037 A 
ATOM     44  C   UNL     1      -0.657   3.009   9.283  1.00  0.00     0.037 A 
ATOM     45  C   UNL     1      -1.976   9.027   7.017  1.00  0.00     0.049 A 
ATOM     46  C   UNL     1      -1.374   4.204   9.858  1.00  0.00     0.074 A 
ATOM     47  C   UNL     1      -2.682  10.034   7.649  1.00  0.00     0.029 A 
ATOM     48  N   UNL     1      -1.949   7.947   7.888  1.00  0.00    -0.354 N 
ATOM     49  N   UNL     1      -1.596   5.378   9.311  1.00  0.00    -0.248 NA
ATOM     50  C   UNL     1      -1.925   4.058  11.211  1.00  0.00     0.031 C 
ATOM     51  C   UNL     1      -3.050   9.575   8.919  1.00  0.00     0.029 A 
ATOM     52  C   UNL     1      -2.614   8.267   9.059  1.00  0.00     0.049 A 
ATOM     53  H   UNL     1      -1.520   7.081   7.700  1.00  0.00     0.167 HD
ATOM     54  C   UNL     1      -2.331   6.101  10.245  1.00  0.00     0.074 A 
ATOM     55  C   UNL     1      -2.533   5.224  11.381  1.00  0.00     0.031 C 
ATOM     56  C   UNL     1      -2.798   7.373  10.175  1.00  0.00     0.037 A 
BRANCH  43  57
ATOM     57  C   UNL     1      -1.483  10.275   4.868  1.00  0.00     0.058 A 
ATOM     58  C   UNL     1      -2.296  10.302   3.722  1.00  0.00     0.135 A 
ATOM     59  C   UNL     1      -0.790  11.447   5.206  1.00  0.00     0.135 A 
ATOM     60  F   UNL     1      -2.960   9.200   3.338  1.00  0.00    -0.206 F 
ATOM     61  C   UNL     1      -2.402  11.441   2.931  1.00  0.00     0.059 A 
ATOM     62  C   UNL     1      -0.900  12.606   4.443  1.00  0.00     0.059 A 
ATOM     63  F   UNL     1       0.010  11.472   6.284  1.00  0.00    -0.206 F 
ATOM     64  C   UNL     1      -1.700  12.589   3.300  1.00  0.00     0.060 A 
BRANCH  64  65
ATOM     65  S   UNL     1      -1.855  14.063   2.269  1.00  0.00     0.124 S 
ATOM     66  O   UNL     1      -1.077  13.680   1.095  1.00  0.00    -0.237 OA
ATOM     67  O   UNL     1      -3.298  14.155   2.071  1.00  0.00    -0.237 OA
ATOM     68  O   UNL     1      -1.270  15.117   3.092  1.00  0.00    -0.744 OA
ENDBRANCH  64  65
ENDBRANCH  43  57
BRANCH  44  69
ATOM     69  C   UNL     1      -0.483   1.764  10.076  1.00  0.00     0.058 A 
ATOM     70  C   UNL     1      -1.572   0.945  10.404  1.00  0.00     0.135 A 
ATOM     71  C   UNL     1       0.787   1.376  10.532  1.00  0.00     0.135 A 
ATOM     72  F   UNL     1      -2.807   1.276   9.996  1.00  0.00    -0.206 F 
ATOM     73  C   UNL     1      -1.416  -0.200  11.179  1.00  0.00     0.059 A 
ATOM     74  C   UNL     1       0.973   0.222  11.286  1.00  0.00     0.059 A 
ATOM     75  F   UNL     1       1.865   2.117  10.232  1.00  0.00    -0.206 F 
ATOM     76  C   UNL     1      -0.138  -0.552  11.618  1.00  0.00     0.060 A 
BRANCH  76  77
ATOM     77  S   UNL     1       0.062  -2.050  12.606  1.00  0.00     0.124 S 
ATOM     78  O   UNL     1      -0.470  -1.625  13.895  1.00  0.00    -0.237 OA
ATOM     79  O   UNL     1      -0.746  -3.016  11.868  1.00  0.00    -0.237 OA
ATOM     80  O   UNL     1       1.502  -2.289  12.565  1.00  0.00    -0.744 OA
ENDBRANCH  76  77
ENDBRANCH  44  69
BRANCH  56  81
ATOM     81  C   UNL     1      -3.589   7.878  11.350  1.00  0.00     0.058 A 
ATOM     82  C   UNL     1      -2.976   8.177  12.576  1.00  0.00     0.135 A 
ATOM     83  C   UNL     1      -4.972   8.093  11.236  1.00  0.00     0.135 A 
ATOM     84  F   UNL     1      -1.657   7.990  12.736  1.00  0.00    -0.206 F 
ATOM     85  C   UNL     1      -3.714   8.631  13.664  1.00  0.00     0.059 A 
ATOM     86  C   UNL     1      -5.725   8.575  12.302  1.00  0.00     0.059 A 
ATOM     87  F   UNL     1      -5.604   7.840  10.079  1.00  0.00    -0.206 F 
ATOM     88  C   UNL     1      -5.090   8.822  13.518  1.00  0.00     0.060 A 
BRANCH  88  89
ATOM     89  S   UNL     1      -6.037   9.415  14.935  1.00  0.00     0.124 S 
ATOM     90  O   UNL     1      -6.121   8.211  15.755  1.00  0.00    -0.237 OA
ATOM     91  O   UNL     1      -5.187  10.480  15.459  1.00  0.00    -0.237 OA
ATOM     92  O   UNL     1      -7.294   9.860  14.341  1.00  0.00    -0.744 OA
ENDBRANCH  88  89
ENDBRANCH  56  81
ENDBRANCH  30  31
ENDBRANCH  23  25
ENDBRANCH  22  23
ENDBRANCH  21  22
ENDBRANCH   1  21
TORSDOF 18
