REMARK SMILES O=C1C[N@@H+](Cc2ccc(C(=O)OCCOC(=O)c3ccc(-c4c5nc(c(-c6c(F)cc(S(=O)(=O)[O-])cc6F)c6ccc([nH]6)c(-c6c(F)cc(S(=O)(=O)[O-])cc6F)c6nc(c(-c7c(F)cc(S(=O)(=O)[O-])cc7F)c7ccc4[nH]7)C=C6)C=C5)cc3)cc2)CCN1
REMARK SMILES IDX 14 1 13 2 12 3 10 4 11 5 9 6 6 7 7 8 85 9 8 10 84 11 5 12
REMARK SMILES IDX 4 13 1 14 2 15 3 16 88 17 87 18 86 20 15 22 16 23 17 24
REMARK SMILES IDX 18 25 19 26 83 27 20 28 82 29 21 30 22 31 23 32 76 33 24 34
REMARK SMILES IDX 81 35 75 36 77 37 25 38 80 39 74 40 73 41 26 43 60 44 39 45
REMARK SMILES IDX 59 46 40 47 43 48 58 49 78 50 41 51 42 52 57 54 79 55 44 56
REMARK SMILES IDX 27 57 28 58 37 59 29 60 30 61 36 62 38 63 31 64 32 65 33 66
REMARK SMILES IDX 34 67 35 68 61 69 62 70 71 71 63 72 64 73 70 74 72 75 65 76
REMARK SMILES IDX 66 77 67 78 68 79 69 80 45 81 46 82 55 83 47 84 48 85 54 86
REMARK SMILES IDX 56 87 49 88 50 89 51 90 52 91 53 92
REMARK H PARENT 88 19 4 21 77 42 43 53
REMARK Flexibility Score: inf
ROOT
ATOM      1  C   UNL     1       0.582   6.029   5.777  1.00  0.00     0.275 C 
ENDROOT
BRANCH   1   2
ATOM      2  C   UNL     1       0.814   5.877   4.274  1.00  0.00     0.275 C 
BRANCH   2   3
ATOM      3  O   UNL     1       0.089   4.747   3.756  1.00  0.00    -0.458 OA
BRANCH   3   4
ATOM      4  C   UNL     1       0.843   3.635   3.562  1.00  0.00     0.338 C 
ATOM      5  O   UNL     1       2.045   3.552   3.718  1.00  0.00    -0.246 OA
BRANCH   4   6
ATOM      6  C   UNL     1       0.006   2.470   3.170  1.00  0.00     0.060 A 
ATOM      7  C   UNL     1      -1.344   0.217   2.204  1.00  0.00     0.006 A 
ATOM      8  C   UNL     1      -0.074   0.082   2.770  1.00  0.00     0.010 A 
ATOM      9  C   UNL     1      -1.995   1.459   2.271  1.00  0.00     0.010 A 
ATOM     10  C   UNL     1       0.613   1.208   3.204  1.00  0.00     0.016 A 
ATOM     11  C   UNL     1      -1.323   2.586   2.756  1.00  0.00     0.016 A 
BRANCH   7  12
ATOM     12  C   UNL     1      -1.927  -0.927   1.412  1.00  0.00     0.299 C 
BRANCH  12  13
ATOM     13  N   UNL     1      -1.442  -1.056   0.029  1.00  0.00    -0.322 N 
ATOM     14  O   UNL     1       2.159  -0.396   0.106  1.00  0.00    -0.269 OA
ATOM     15  C   UNL     1       0.970  -0.269  -0.183  1.00  0.00     0.275 C 
ATOM     16  C   UNL     1      -0.020  -1.438  -0.109  1.00  0.00     0.363 C 
ATOM     17  N   UNL     1       0.532   0.923  -0.691  1.00  0.00    -0.346 N 
ATOM     18  C   UNL     1      -0.858   1.242  -0.903  1.00  0.00     0.177 C 
ATOM     19  H   UNL     1       1.205   1.602  -0.926  1.00  0.00     0.163 HD
ATOM     20  C   UNL     1      -1.798   0.026  -0.891  1.00  0.00     0.284 C 
ATOM     21  H   UNL     1      -1.990  -1.859  -0.280  1.00  0.00     0.348 HD
ENDBRANCH  12  13
ENDBRANCH   7  12
ENDBRANCH   4   6
ENDBRANCH   3   4
ENDBRANCH   2   3
ENDBRANCH   1   2
BRANCH   1  22
ATOM     22  O   UNL     1       1.086   4.887   6.498  1.00  0.00    -0.458 OA
BRANCH  22  23
ATOM     23  C   UNL     1       0.138   4.043   6.970  1.00  0.00     0.338 C 
ATOM     24  O   UNL     1      -1.072   4.176   6.891  1.00  0.00    -0.246 OA
BRANCH  23  25
ATOM     25  C   UNL     1       0.756   2.840   7.552  1.00  0.00     0.060 A 
ATOM     26  C   UNL     1       1.129   1.817   6.689  1.00  0.00     0.016 A 
ATOM     27  C   UNL     1       0.772   2.626   8.928  1.00  0.00     0.016 A 
ATOM     28  C   UNL     1       1.411   0.546   7.178  1.00  0.00     0.010 A 
ATOM     29  C   UNL     1       1.158   1.371   9.427  1.00  0.00     0.010 A 
ATOM     30  C   UNL     1       1.434   0.298   8.557  1.00  0.00    -0.014 A 
BRANCH  30  31
ATOM     31  C   UNL     1       1.683  -1.091   9.055  1.00  0.00     0.031 A 
ATOM     32  C   UNL     1       0.667  -1.787   9.931  1.00  0.00     0.074 A 
ATOM     33  C   UNL     1       2.793  -1.762   8.678  1.00  0.00     0.049 A 
ATOM     34  N   UNL     1       0.749  -2.948  10.534  1.00  0.00    -0.248 NA
ATOM     35  C   UNL     1      -0.602  -1.082  10.175  1.00  0.00     0.031 C 
ATOM     36  C   UNL     1       3.848  -1.233   7.810  1.00  0.00     0.029 A 
ATOM     37  N   UNL     1       3.212  -3.041   8.957  1.00  0.00    -0.354 N 
ATOM     38  C   UNL     1      -0.425  -3.085  11.270  1.00  0.00     0.074 A 
ATOM     39  C   UNL     1      -1.198  -1.882  11.048  1.00  0.00     0.031 C 
ATOM     40  C   UNL     1       4.756  -2.193   7.581  1.00  0.00     0.029 A 
ATOM     41  C   UNL     1       4.404  -3.377   8.357  1.00  0.00     0.049 A 
ATOM     42  H   UNL     1       2.706  -3.659   9.533  1.00  0.00     0.167 HD
ATOM     43  C   UNL     1      -0.826  -4.117  12.052  1.00  0.00     0.037 A 
ATOM     44  C   UNL     1       5.154  -4.494   8.441  1.00  0.00     0.037 A 
ATOM     45  C   UNL     1      -0.083  -5.342  12.223  1.00  0.00     0.049 A 
ATOM     46  C   UNL     1       4.692  -5.623   9.320  1.00  0.00     0.074 A 
ATOM     47  C   UNL     1      -0.416  -6.452  12.980  1.00  0.00     0.029 A 
ATOM     48  N   UNL     1       1.131  -5.628  11.614  1.00  0.00    -0.354 N 
ATOM     49  N   UNL     1       3.603  -5.710  10.046  1.00  0.00    -0.248 NA
ATOM     50  C   UNL     1       5.567  -6.799   9.402  1.00  0.00     0.031 C 
ATOM     51  C   UNL     1       0.615  -7.392  12.862  1.00  0.00     0.029 A 
ATOM     52  C   UNL     1       1.565  -6.891  11.988  1.00  0.00     0.049 A 
ATOM     53  H   UNL     1       1.614  -5.022  11.007  1.00  0.00     0.167 HD
ATOM     54  C   UNL     1       3.655  -6.958  10.658  1.00  0.00     0.074 A 
ATOM     55  C   UNL     1       4.871  -7.597  10.199  1.00  0.00     0.031 C 
ATOM     56  C   UNL     1       2.776  -7.520  11.524  1.00  0.00     0.037 A 
BRANCH  43  57
ATOM     57  C   UNL     1      -2.116  -3.962  12.815  1.00  0.00     0.058 A 
ATOM     58  C   UNL     1      -3.369  -3.983  12.182  1.00  0.00     0.135 A 
ATOM     59  C   UNL     1      -2.097  -3.830  14.214  1.00  0.00     0.135 A 
ATOM     60  F   UNL     1      -3.450  -4.092  10.846  1.00  0.00    -0.206 F 
ATOM     61  C   UNL     1      -4.553  -3.846  12.903  1.00  0.00     0.059 A 
ATOM     62  C   UNL     1      -3.269  -3.722  14.959  1.00  0.00     0.059 A 
ATOM     63  F   UNL     1      -0.929  -3.808  14.875  1.00  0.00    -0.206 F 
ATOM     64  C   UNL     1      -4.492  -3.716  14.291  1.00  0.00     0.060 A 
BRANCH  64  65
ATOM     65  S   UNL     1      -6.035  -3.542  15.213  1.00  0.00     0.124 S 
ATOM     66  O   UNL     1      -6.425  -2.176  14.874  1.00  0.00    -0.237 OA
ATOM     67  O   UNL     1      -6.864  -4.598  14.640  1.00  0.00    -0.237 OA
ATOM     68  O   UNL     1      -5.630  -3.751  16.600  1.00  0.00    -0.744 OA
ENDBRANCH  64  65
ENDBRANCH  43  57
BRANCH  44  69
ATOM     69  C   UNL     1       6.439  -4.583   7.695  1.00  0.00     0.058 A 
ATOM     70  C   UNL     1       6.600  -5.475   6.625  1.00  0.00     0.135 A 
ATOM     71  C   UNL     1       7.530  -3.764   8.030  1.00  0.00     0.135 A 
ATOM     72  F   UNL     1       5.593  -6.289   6.273  1.00  0.00    -0.206 F 
ATOM     73  C   UNL     1       7.797  -5.561   5.920  1.00  0.00     0.059 A 
ATOM     74  C   UNL     1       8.725  -3.808   7.320  1.00  0.00     0.059 A 
ATOM     75  F   UNL     1       7.427  -2.886   9.040  1.00  0.00    -0.206 F 
ATOM     76  C   UNL     1       8.853  -4.718   6.273  1.00  0.00     0.060 A 
BRANCH  76  77
ATOM     77  S   UNL     1      10.386  -4.798   5.321  1.00  0.00     0.124 S 
ATOM     78  O   UNL     1      10.971  -6.040   5.811  1.00  0.00    -0.237 OA
ATOM     79  O   UNL     1       9.896  -4.821   3.947  1.00  0.00    -0.237 OA
ATOM     80  O   UNL     1      11.084  -3.575   5.708  1.00  0.00    -0.744 OA
ENDBRANCH  76  77
ENDBRANCH  44  69
BRANCH  56  81
ATOM     81  C   UNL     1       3.079  -8.915  11.999  1.00  0.00     0.058 A 
ATOM     82  C   UNL     1       4.126  -9.182  12.896  1.00  0.00     0.135 A 
ATOM     83  C   UNL     1       2.304  -9.999  11.557  1.00  0.00     0.135 A 
ATOM     84  F   UNL     1       4.902  -8.183  13.346  1.00  0.00    -0.206 F 
ATOM     85  C   UNL     1       4.419 -10.479  13.305  1.00  0.00     0.059 A 
ATOM     86  C   UNL     1       2.560 -11.300  11.975  1.00  0.00     0.059 A 
ATOM     87  F   UNL     1       1.282  -9.798  10.709  1.00  0.00    -0.206 F 
ATOM     88  C   UNL     1       3.633 -11.533  12.834  1.00  0.00     0.060 A 
BRANCH  88  89
ATOM     89  S   UNL     1       4.023 -13.213  13.369  1.00  0.00     0.124 S 
ATOM     90  O   UNL     1       5.213 -13.504  12.576  1.00  0.00    -0.237 OA
ATOM     91  O   UNL     1       4.242 -13.044  14.802  1.00  0.00    -0.237 OA
ATOM     92  O   UNL     1       2.828 -13.970  13.009  1.00  0.00    -0.744 OA
ENDBRANCH  88  89
ENDBRANCH  56  81
ENDBRANCH  30  31
ENDBRANCH  23  25
ENDBRANCH  22  23
ENDBRANCH   1  22
TORSDOF 16
