REMARK SMILES C[N@@H+]1CC[N@H+](Cc2ccc(C#CC(C)(C)O)s2)C[C@H]1C(=O)OCCOC(=O)c1ccc(-c2c3nc(c(-c4c(F)cc(S(=O)(=O)[O-])cc4F)c4ccc([nH]4)c(-c4c(F)cc(S(=O)(=O)[O-])cc4F)c4nc(c(-c5c(F)cc(S(=O)(=O)[O-])cc5F)c5ccc2[nH]5)C=C4)C=C3)cc1
REMARK SMILES IDX 23 1 22 2 20 3 21 4 19 5 1 6 2 7 3 8 4 10 18 11 5 12 6 14
REMARK SMILES IDX 7 15 8 16 17 17 9 18 10 19 11 20 12 21 13 22 14 23 15 24
REMARK SMILES IDX 16 25 24 27 25 28 26 29 27 30 28 31 29 32 93 33 30 34 92 35
REMARK SMILES IDX 31 36 32 37 33 38 86 39 34 40 91 41 85 42 87 43 35 44 90 45
REMARK SMILES IDX 84 46 83 47 36 49 70 50 49 51 69 52 50 53 53 54 68 55 88 56
REMARK SMILES IDX 51 57 52 58 67 60 89 61 54 62 37 63 38 64 47 65 39 66 40 67
REMARK SMILES IDX 46 68 48 69 41 70 42 71 43 72 44 73 45 74 71 75 72 76 81 77
REMARK SMILES IDX 73 78 74 79 80 80 82 81 75 82 76 83 77 84 78 85 79 86 55 87
REMARK SMILES IDX 56 88 65 89 57 90 58 91 64 92 66 93 59 94 60 95 61 96 62 97
REMARK SMILES IDX 63 98
REMARK H PARENT 2 9 5 13 16 26 87 48 53 59
REMARK Flexibility Score: inf
ROOT
ATOM      1  C   UNL     1       1.248  -3.839  -2.494  1.00  0.00     0.274 C 
ENDROOT
BRANCH   1   2
ATOM      2  O   UNL     1       0.959  -2.491  -2.058  1.00  0.00    -0.457 OA
BRANCH   2   3
ATOM      3  C   UNL     1       0.541  -2.372  -0.771  1.00  0.00     0.371 C 
ATOM      4  O   UNL     1       0.395  -3.338  -0.019  1.00  0.00    -0.245 OA
BRANCH   3   5
ATOM      5  C   UNL     1       0.149  -0.964  -0.317  1.00  0.00     0.350 C 
ATOM      6  C   UNL     1       2.122   0.339  -0.988  1.00  0.00     0.333 C 
ATOM      7  N   UNL     1       0.661   0.206  -1.103  1.00  0.00    -0.316 N 
ATOM      8  C   UNL     1       0.064   1.444  -0.553  1.00  0.00     0.325 C 
ATOM      9  H   UNL     1       0.413   0.059  -2.081  1.00  0.00     0.348 HD
ATOM     10  C   UNL     1      -1.476   1.420  -0.467  1.00  0.00     0.324 C 
ATOM     11  C   UNL     1      -1.405  -0.990  -0.279  1.00  0.00     0.341 C 
ATOM     12  N   UNL     1      -2.076   0.242   0.166  1.00  0.00    -0.320 N 
ATOM     13  H   UNL     1      -3.035   0.200  -0.178  1.00  0.00     0.348 HD
BRANCH  12  14
ATOM     14  C   UNL     1      -2.320   0.336   1.610  1.00  0.00     0.310 C 
BRANCH  14  15
ATOM     15  C   UNL     1      -1.117   0.282   2.506  1.00  0.00     0.060 A 
ATOM     16  C   UNL     1      -0.286   1.311   2.908  1.00  0.00     0.022 A 
ATOM     17  S   UNL     1      -0.654  -1.200   3.245  1.00  0.00    -0.126 S 
ATOM     18  C   UNL     1       0.832   0.843   3.658  1.00  0.00     0.029 A 
ATOM     19  C   UNL     1       0.777  -0.515   3.871  1.00  0.00     0.077 A 
BRANCH  19  20
ATOM     20  C   UNL     1       1.729  -1.265   4.614  1.00  0.00    -0.053 C 
ATOM     21  C   UNL     1       2.456  -1.930   5.468  1.00  0.00    -0.063 C 
BRANCH  21  22
ATOM     22  C   UNL     1       3.304  -2.705   6.463  1.00  0.00     0.120 C 
ATOM     23  C   UNL     1       3.184  -2.081   7.850  1.00  0.00     0.056 C 
ATOM     24  C   UNL     1       2.887  -4.172   6.479  1.00  0.00     0.056 C 
BRANCH  22  25
ATOM     25  O   UNL     1       4.652  -2.614   6.063  1.00  0.00    -0.378 OA
ATOM     26  H   UNL     1       4.924  -1.683   6.051  1.00  0.00     0.212 HD
ENDBRANCH  22  25
ENDBRANCH  21  22
ENDBRANCH  19  20
ENDBRANCH  14  15
ENDBRANCH  12  14
ENDBRANCH   3   5
ENDBRANCH   2   3
ENDBRANCH   1   2
BRANCH   1  27
ATOM     27  C   UNL     1       2.695  -4.288  -2.261  1.00  0.00     0.275 C 
BRANCH  27  28
ATOM     28  O   UNL     1       3.016  -4.457  -0.873  1.00  0.00    -0.458 OA
BRANCH  28  29
ATOM     29  C   UNL     1       3.414  -3.298  -0.311  1.00  0.00     0.338 C 
ATOM     30  O   UNL     1       3.424  -2.204  -0.849  1.00  0.00    -0.246 OA
BRANCH  29  31
ATOM     31  C   UNL     1       4.041  -3.449   0.996  1.00  0.00     0.060 A 
ATOM     32  C   UNL     1       4.005  -2.305   1.808  1.00  0.00     0.016 A 
ATOM     33  C   UNL     1       5.051  -4.406   1.094  1.00  0.00     0.016 A 
ATOM     34  C   UNL     1       5.120  -1.990   2.555  1.00  0.00     0.010 A 
ATOM     35  C   UNL     1       6.162  -4.089   1.845  1.00  0.00     0.010 A 
ATOM     36  C   UNL     1       6.221  -2.843   2.487  1.00  0.00    -0.014 A 
BRANCH  36  37
ATOM     37  C   UNL     1       7.480  -2.373   3.042  1.00  0.00     0.031 A 
ATOM     38  C   UNL     1       7.668  -2.564   4.504  1.00  0.00     0.074 A 
ATOM     39  C   UNL     1       8.490  -2.022   2.224  1.00  0.00     0.049 A 
ATOM     40  N   UNL     1       8.064  -1.720   5.402  1.00  0.00    -0.248 NA
ATOM     41  C   UNL     1       7.276  -3.877   5.040  1.00  0.00     0.031 C 
ATOM     42  C   UNL     1       8.566  -2.183   0.767  1.00  0.00     0.029 A 
ATOM     43  N   UNL     1       9.750  -1.649   2.559  1.00  0.00    -0.354 N 
ATOM     44  C   UNL     1       8.069  -2.422   6.609  1.00  0.00     0.074 A 
ATOM     45  C   UNL     1       7.446  -3.691   6.345  1.00  0.00     0.031 C 
ATOM     46  C   UNL     1       9.869  -2.211   0.409  1.00  0.00     0.029 A 
ATOM     47  C   UNL     1      10.684  -1.968   1.590  1.00  0.00     0.049 A 
ATOM     48  H   UNL     1       9.976  -1.197   3.403  1.00  0.00     0.167 HD
ATOM     49  C   UNL     1       8.706  -1.997   7.735  1.00  0.00     0.037 A 
ATOM     50  C   UNL     1      11.997  -2.216   1.821  1.00  0.00     0.037 A 
ATOM     51  C   UNL     1       9.058  -0.606   7.666  1.00  0.00     0.049 A 
ATOM     52  C   UNL     1      12.335  -1.651   3.161  1.00  0.00     0.074 A 
ATOM     53  C   UNL     1       8.338   0.569   7.550  1.00  0.00     0.029 A 
ATOM     54  N   UNL     1      10.358  -0.268   7.376  1.00  0.00    -0.354 N 
ATOM     55  N   UNL     1      12.307  -0.379   3.462  1.00  0.00    -0.248 NA
ATOM     56  C   UNL     1      12.278  -2.556   4.303  1.00  0.00     0.031 C 
ATOM     57  C   UNL     1       9.136   1.413   6.721  1.00  0.00     0.029 A 
ATOM     58  C   UNL     1      10.289   0.696   6.400  1.00  0.00     0.049 A 
ATOM     59  H   UNL     1      11.173  -0.640   7.785  1.00  0.00     0.167 HD
ATOM     60  C   UNL     1      11.851  -0.321   4.774  1.00  0.00     0.074 A 
ATOM     61  C   UNL     1      11.926  -1.696   5.262  1.00  0.00     0.031 C 
ATOM     62  C   UNL     1      11.191   0.769   5.272  1.00  0.00     0.037 A 
BRANCH  49  63
ATOM     63  C   UNL     1       9.223  -2.921   8.812  1.00  0.00     0.058 A 
ATOM     64  C   UNL     1       9.645  -2.396  10.050  1.00  0.00     0.135 A 
ATOM     65  C   UNL     1       9.542  -4.281   8.590  1.00  0.00     0.135 A 
ATOM     66  F   UNL     1       9.413  -1.112  10.366  1.00  0.00    -0.206 F 
ATOM     67  C   UNL     1      10.380  -3.149  10.969  1.00  0.00     0.059 A 
ATOM     68  C   UNL     1      10.208  -5.067   9.520  1.00  0.00     0.059 A 
ATOM     69  F   UNL     1       9.319  -4.886   7.416  1.00  0.00    -0.206 F 
ATOM     70  C   UNL     1      10.672  -4.479  10.683  1.00  0.00     0.060 A 
BRANCH  70  71
ATOM     71  S   UNL     1      11.747  -5.417  11.781  1.00  0.00     0.124 S 
ATOM     72  O   UNL     1      13.052  -4.854  11.454  1.00  0.00    -0.237 OA
ATOM     73  O   UNL     1      11.217  -5.081  13.098  1.00  0.00    -0.237 OA
ATOM     74  O   UNL     1      11.531  -6.799  11.361  1.00  0.00    -0.744 OA
ENDBRANCH  70  71
ENDBRANCH  49  63
BRANCH  50  75
ATOM     75  C   UNL     1      12.780  -3.301   1.167  1.00  0.00     0.058 A 
ATOM     76  C   UNL     1      14.183  -3.304   1.179  1.00  0.00     0.135 A 
ATOM     77  C   UNL     1      12.162  -4.479   0.690  1.00  0.00     0.135 A 
ATOM     78  F   UNL     1      14.852  -2.252   1.673  1.00  0.00    -0.206 F 
ATOM     79  C   UNL     1      14.928  -4.402   0.732  1.00  0.00     0.059 A 
ATOM     80  C   UNL     1      12.880  -5.572   0.215  1.00  0.00     0.059 A 
ATOM     81  F   UNL     1      10.832  -4.642   0.747  1.00  0.00    -0.206 F 
ATOM     82  C   UNL     1      14.265  -5.533   0.250  1.00  0.00     0.060 A 
BRANCH  82  83
ATOM     83  S   UNL     1      15.215  -6.987  -0.247  1.00  0.00     0.124 S 
ATOM     84  O   UNL     1      15.937  -6.491  -1.413  1.00  0.00    -0.237 OA
ATOM     85  O   UNL     1      16.020  -7.247   0.941  1.00  0.00    -0.237 OA
ATOM     86  O   UNL     1      14.186  -7.985  -0.531  1.00  0.00    -0.744 OA
ENDBRANCH  82  83
ENDBRANCH  50  75
BRANCH  62  87
ATOM     87  C   UNL     1      11.136   2.029   4.450  1.00  0.00     0.058 A 
ATOM     88  C   UNL     1      10.482   2.109   3.209  1.00  0.00     0.135 A 
ATOM     89  C   UNL     1      11.570   3.236   5.019  1.00  0.00     0.135 A 
ATOM     90  F   UNL     1       9.926   1.025   2.655  1.00  0.00    -0.206 F 
ATOM     91  C   UNL     1      10.302   3.321   2.543  1.00  0.00     0.059 A 
ATOM     92  C   UNL     1      11.374   4.464   4.387  1.00  0.00     0.059 A 
ATOM     93  F   UNL     1      12.137   3.240   6.237  1.00  0.00    -0.206 F 
ATOM     94  C   UNL     1      10.746   4.497   3.143  1.00  0.00     0.060 A 
BRANCH  94  95
ATOM     95  S   UNL     1      10.402   6.072   2.329  1.00  0.00     0.124 S 
ATOM     96  O   UNL     1      11.363   6.067   1.232  1.00  0.00    -0.237 OA
ATOM     97  O   UNL     1       9.000   5.934   1.944  1.00  0.00    -0.237 OA
ATOM     98  O   UNL     1      10.654   7.059   3.377  1.00  0.00    -0.744 OA
ENDBRANCH  94  95
ENDBRANCH  62  87
ENDBRANCH  36  37
ENDBRANCH  29  31
ENDBRANCH  28  29
ENDBRANCH  27  28
ENDBRANCH   1  27
TORSDOF 19
