REMARK SMILES O=C(OCCOC(=O)[C@@H]1CN(c2cccc(Cl)c2)CCO1)c1ccc(-c2c3nc(c(-c4c(F)cc(S(=O)(=O)[O-])cc4F)c4ccc([nH]4)c(-c4c(F)cc(S(=O)(=O)[O-])cc4F)c4nc(c(-c5c(F)cc(S(=O)(=O)[O-])cc5F)c5ccc2[nH]5)C=C4)C=C3)cc1
REMARK SMILES IDX 4 1 3 2 2 3 1 4 22 5 23 6 87 7 24 8 86 9 25 10 26 11 27 12
REMARK SMILES IDX 80 13 28 14 85 15 79 16 81 17 29 18 84 19 78 20 77 21 30 23
REMARK SMILES IDX 64 24 43 25 63 26 44 27 47 28 62 29 82 30 45 31 46 32 61 34
REMARK SMILES IDX 83 35 48 36 31 37 32 38 41 39 33 40 34 41 40 42 42 43 35 44
REMARK SMILES IDX 36 45 37 46 38 47 39 48 65 49 66 50 75 51 67 52 68 53 74 54
REMARK SMILES IDX 76 55 69 56 70 57 71 58 72 59 73 60 49 61 50 62 59 63 51 64
REMARK SMILES IDX 52 65 58 66 60 67 53 68 54 69 55 70 56 71 57 72 5 73 6 74
REMARK SMILES IDX 7 75 8 76 9 77 10 78 21 79 11 80 20 81 19 82 12 83 13 84
REMARK SMILES IDX 18 85 14 86 16 87 15 88 17 89
REMARK H PARENT 81 22 47 33
REMARK Flexibility Score: inf
ROOT
ATOM      1  C   UNL     1       3.874   1.532  -0.551  1.00  0.00     0.275 C 
ENDROOT
BRANCH   1   2
ATOM      2  O   UNL     1       2.858   0.635  -1.023  1.00  0.00    -0.458 OA
BRANCH   2   3
ATOM      3  C   UNL     1       2.820  -0.720  -0.992  1.00  0.00     0.338 C 
ATOM      4  O   UNL     1       1.914  -1.283  -1.608  1.00  0.00    -0.246 OA
BRANCH   3   5
ATOM      5  C   UNL     1       3.749  -1.574  -0.176  1.00  0.00     0.060 A 
ATOM      6  C   UNL     1       5.021  -1.224   0.284  1.00  0.00     0.016 A 
ATOM      7  C   UNL     1       3.264  -2.845   0.177  1.00  0.00     0.016 A 
ATOM      8  C   UNL     1       5.738  -2.053   1.153  1.00  0.00     0.010 A 
ATOM      9  C   UNL     1       3.966  -3.669   1.064  1.00  0.00     0.010 A 
ATOM     10  C   UNL     1       5.205  -3.267   1.578  1.00  0.00    -0.014 A 
BRANCH  10  11
ATOM     11  C   UNL     1       5.992  -4.150   2.475  1.00  0.00     0.031 A 
ATOM     12  C   UNL     1       6.497  -5.450   1.923  1.00  0.00     0.074 A 
ATOM     13  C   UNL     1       6.277  -3.783   3.744  1.00  0.00     0.049 A 
ATOM     14  N   UNL     1       7.208  -6.371   2.512  1.00  0.00    -0.248 NA
ATOM     15  C   UNL     1       6.166  -5.749   0.518  1.00  0.00     0.031 C 
ATOM     16  C   UNL     1       5.864  -2.528   4.373  1.00  0.00     0.029 A 
ATOM     17  N   UNL     1       6.958  -4.427   4.746  1.00  0.00    -0.354 N 
ATOM     18  C   UNL     1       7.461  -7.321   1.533  1.00  0.00     0.074 A 
ATOM     19  C   UNL     1       6.720  -6.939   0.355  1.00  0.00     0.031 C 
ATOM     20  C   UNL     1       6.229  -2.521   5.665  1.00  0.00     0.029 A 
ATOM     21  C   UNL     1       6.946  -3.755   5.950  1.00  0.00     0.049 A 
ATOM     22  H   UNL     1       7.415  -5.289   4.617  1.00  0.00     0.167 HD
ATOM     23  C   UNL     1       8.306  -8.375   1.587  1.00  0.00     0.037 A 
ATOM     24  C   UNL     1       7.457  -4.099   7.148  1.00  0.00     0.037 A 
ATOM     25  C   UNL     1       9.037  -8.743   2.766  1.00  0.00     0.049 A 
ATOM     26  C   UNL     1       8.261  -5.365   7.228  1.00  0.00     0.074 A 
ATOM     27  C   UNL     1       9.922  -9.789   2.941  1.00  0.00     0.029 A 
ATOM     28  N   UNL     1       8.961  -8.071   3.979  1.00  0.00    -0.354 N 
ATOM     29  N   UNL     1       8.524  -6.230   6.277  1.00  0.00    -0.248 NA
ATOM     30  C   UNL     1       8.869  -5.683   8.525  1.00  0.00     0.031 C 
ATOM     31  C   UNL     1      10.353  -9.772   4.272  1.00  0.00     0.029 A 
ATOM     32  C   UNL     1       9.771  -8.688   4.913  1.00  0.00     0.049 A 
ATOM     33  H   UNL     1       8.410  -7.272   4.148  1.00  0.00     0.167 HD
ATOM     34  C   UNL     1       9.370  -7.170   6.846  1.00  0.00     0.074 A 
ATOM     35  C   UNL     1       9.570  -6.768   8.226  1.00  0.00     0.031 C 
ATOM     36  C   UNL     1       9.947  -8.257   6.277  1.00  0.00     0.037 A 
BRANCH  23  37
ATOM     37  C   UNL     1       8.500  -9.151   0.317  1.00  0.00     0.058 A 
ATOM     38  C   UNL     1       9.181  -8.587  -0.777  1.00  0.00     0.135 A 
ATOM     39  C   UNL     1       7.992 -10.449   0.175  1.00  0.00     0.135 A 
ATOM     40  F   UNL     1       9.658  -7.333  -0.704  1.00  0.00    -0.206 F 
ATOM     41  C   UNL     1       9.328  -9.274  -1.975  1.00  0.00     0.059 A 
ATOM     42  C   UNL     1       8.150 -11.166  -1.007  1.00  0.00     0.059 A 
ATOM     43  F   UNL     1       7.319 -11.026   1.183  1.00  0.00    -0.206 F 
ATOM     44  C   UNL     1       8.810 -10.565  -2.080  1.00  0.00     0.060 A 
BRANCH  44  45
ATOM     45  S   UNL     1       9.020 -11.448  -3.639  1.00  0.00     0.124 S 
ATOM     46  O   UNL     1       8.105 -10.718  -4.514  1.00  0.00    -0.237 OA
ATOM     47  O   UNL     1      10.443 -11.256  -3.913  1.00  0.00    -0.237 OA
ATOM     48  O   UNL     1       8.625 -12.812  -3.315  1.00  0.00    -0.744 OA
ENDBRANCH  44  45
ENDBRANCH  23  37
BRANCH  24  49
ATOM     49  C   UNL     1       7.221  -3.268   8.361  1.00  0.00     0.058 A 
ATOM     50  C   UNL     1       8.235  -2.515   8.969  1.00  0.00     0.135 A 
ATOM     51  C   UNL     1       5.961  -3.272   8.976  1.00  0.00     0.135 A 
ATOM     52  F   UNL     1       9.465  -2.494   8.434  1.00  0.00    -0.206 F 
ATOM     53  C   UNL     1       8.015  -1.815  10.155  1.00  0.00     0.059 A 
ATOM     54  C   UNL     1       5.707  -2.561  10.146  1.00  0.00     0.059 A 
ATOM     55  F   UNL     1       4.968  -3.993   8.436  1.00  0.00    -0.206 F 
ATOM     56  C   UNL     1       6.747  -1.848  10.739  1.00  0.00     0.060 A 
BRANCH  56  57
ATOM     57  S   UNL     1       6.468  -0.934  12.275  1.00  0.00     0.124 S 
ATOM     58  O   UNL     1       7.155  -1.777  13.247  1.00  0.00    -0.237 OA
ATOM     59  O   UNL     1       7.099   0.351  11.988  1.00  0.00    -0.237 OA
ATOM     60  O   UNL     1       5.013  -0.896  12.387  1.00  0.00    -0.744 OA
ENDBRANCH  56  57
ENDBRANCH  24  49
BRANCH  36  61
ATOM     61  C   UNL     1      10.888  -9.044   7.138  1.00  0.00     0.058 A 
ATOM     62  C   UNL     1      10.428  -9.852   8.188  1.00  0.00     0.135 A 
ATOM     63  C   UNL     1      12.269  -8.999   6.891  1.00  0.00     0.135 A 
ATOM     64  F   UNL     1       9.117  -9.916   8.468  1.00  0.00    -0.206 F 
ATOM     65  C   UNL     1      11.311 -10.564   8.990  1.00  0.00     0.059 A 
ATOM     66  C   UNL     1      13.167  -9.730   7.658  1.00  0.00     0.059 A 
ATOM     67  F   UNL     1      12.754  -8.247   5.891  1.00  0.00    -0.206 F 
ATOM     68  C   UNL     1      12.679 -10.495   8.716  1.00  0.00     0.060 A 
BRANCH  68  69
ATOM     69  S   UNL     1      13.815 -11.437   9.752  1.00  0.00     0.124 S 
ATOM     70  O   UNL     1      13.829 -10.638  10.972  1.00  0.00    -0.237 OA
ATOM     71  O   UNL     1      13.149 -12.732   9.847  1.00  0.00    -0.237 OA
ATOM     72  O   UNL     1      15.057 -11.433   8.983  1.00  0.00    -0.744 OA
ENDBRANCH  68  69
ENDBRANCH  36  61
ENDBRANCH  10  11
ENDBRANCH   3   5
ENDBRANCH   2   3
ENDBRANCH   1   2
BRANCH   1  73
ATOM     73  C   UNL     1       3.774   1.875   0.937  1.00  0.00     0.274 C 
BRANCH  73  74
ATOM     74  O   UNL     1       3.333   0.774   1.749  1.00  0.00    -0.460 OA
BRANCH  74  75
ATOM     75  C   UNL     1       2.043   0.827   2.199  1.00  0.00     0.337 C 
ATOM     76  O   UNL     1       1.269   1.749   1.964  1.00  0.00    -0.249 OA
BRANCH  75  77
ATOM     77  C   UNL     1       1.663  -0.391   3.047  1.00  0.00     0.247 C 
ATOM     78  C   UNL     1       2.628  -0.509   4.238  1.00  0.00     0.160 C 
ATOM     79  O   UNL     1       1.627  -1.586   2.255  1.00  0.00    -0.363 OA
ATOM     80  N   UNL     1       2.409  -1.756   4.989  1.00  0.00    -0.366 N 
ATOM     81  C   UNL     1       1.288  -2.737   3.051  1.00  0.00     0.183 C 
ATOM     82  C   UNL     1       2.310  -2.972   4.172  1.00  0.00     0.145 C 
BRANCH  80  83
ATOM     83  C   UNL     1       1.826  -1.786   6.241  1.00  0.00     0.038 A 
ATOM     84  C   UNL     1       0.790  -0.915   6.596  1.00  0.00     0.026 A 
ATOM     85  C   UNL     1       2.237  -2.737   7.189  1.00  0.00     0.046 A 
ATOM     86  C   UNL     1       0.181  -0.986   7.851  1.00  0.00     0.004 A 
ATOM     87  C   UNL     1       1.627  -2.812   8.441  1.00  0.00     0.043 A 
ATOM     88  C   UNL     1       0.604  -1.933   8.778  1.00  0.00     0.020 A 
ATOM     89  Cl  UNL     1       2.097  -4.022   9.571  1.00  0.00    -0.084 Cl
ENDBRANCH  80  83
ENDBRANCH  75  77
ENDBRANCH  74  75
ENDBRANCH  73  74
ENDBRANCH   1  73
TORSDOF 15
