REMARK SMILES O=C1NC(=S)S/C1=C\c1ccc(OCc2cn(-c3ccc(C(=O)OCCOC(=O)c4ccc(-c5c6nc(c(-c7c(F)cc(S(=O)(=O)[O-])cc7F)c7ccc([nH]7)c(-c7c(F)cc(S(=O)(=O)[O-])cc7F)c7nc(c(-c8c(F)cc(S(=O)(=O)[O-])cc8F)c8ccc5[nH]8)C=C7)C=C6)cc4)cc3)nn2)cc1
REMARK SMILES IDX 25 1 24 2 22 3 23 4 21 5 18 6 19 7 97 8 20 9 96 10 17 11
REMARK SMILES IDX 15 12 16 13 99 14 98 15 14 16 13 17 12 18 9 19 10 20 101 21
REMARK SMILES IDX 11 22 100 23 8 24 1 25 2 26 3 27 7 28 4 29 6 31 5 32 26 33
REMARK SMILES IDX 27 34 28 35 29 36 30 37 31 38 95 39 32 40 94 41 33 42 34 43
REMARK SMILES IDX 35 44 88 45 36 46 93 47 87 48 89 49 37 50 92 51 86 52 85 53
REMARK SMILES IDX 38 55 72 56 51 57 71 58 52 59 55 60 70 61 90 62 53 63 54 64
REMARK SMILES IDX 69 66 91 67 56 68 39 69 40 70 49 71 41 72 42 73 48 74 50 75
REMARK SMILES IDX 43 76 44 77 45 78 46 79 47 80 73 81 74 82 83 83 75 84 76 85
REMARK SMILES IDX 82 86 84 87 77 88 78 89 79 90 80 91 81 92 57 93 58 94 67 95
REMARK SMILES IDX 59 96 60 97 66 98 68 99 61 100 62 101 63 102 64 103 65 104
REMARK H PARENT 3 30 89 54 55 65
REMARK Flexibility Score: inf
ROOT
ATOM      1  C   UNL     1       8.122  10.874  -0.254  1.00  0.00     0.275 C 
ENDROOT
BRANCH   1   2
ATOM      2  O   UNL     1       6.744  10.473  -0.257  1.00  0.00    -0.458 OA
BRANCH   2   3
ATOM      3  C   UNL     1       6.276  10.035  -1.452  1.00  0.00     0.338 C 
ATOM      4  O   UNL     1       6.844  10.122  -2.533  1.00  0.00    -0.246 OA
BRANCH   3   5
ATOM      5  C   UNL     1       4.982   9.341  -1.274  1.00  0.00     0.060 A 
ATOM      6  C   UNL     1       2.489   8.101  -1.126  1.00  0.00     0.066 A 
ATOM      7  C   UNL     1       3.424   7.675  -2.082  1.00  0.00     0.029 A 
ATOM      8  C   UNL     1       2.832   9.087  -0.193  1.00  0.00     0.029 A 
ATOM      9  C   UNL     1       4.657   8.316  -2.172  1.00  0.00     0.018 A 
ATOM     10  C   UNL     1       4.089   9.693  -0.256  1.00  0.00     0.018 A 
BRANCH   6  11
ATOM     11  N   UNL     1       1.179   7.574  -1.173  1.00  0.00    -0.220 N 
ATOM     12  C   UNL     1      -0.991   7.324  -1.175  1.00  0.00     0.120 A 
ATOM     13  C   UNL     1       0.013   8.146  -0.708  1.00  0.00     0.144 A 
ATOM     14  N   UNL     1      -0.421   6.293  -1.871  1.00  0.00    -0.131 NA
ATOM     15  N   UNL     1       0.888   6.455  -1.870  1.00  0.00    -0.062 NA
BRANCH  12  16
ATOM     16  C   UNL     1      -2.475   7.477  -1.134  1.00  0.00     0.289 C 
BRANCH  16  17
ATOM     17  O   UNL     1      -3.148   6.733  -0.106  1.00  0.00    -0.487 OA
BRANCH  17  18
ATOM     18  C   UNL     1      -3.145   5.367  -0.192  1.00  0.00     0.119 A 
ATOM     19  C   UNL     1      -2.918   2.572  -0.020  1.00  0.00    -0.024 A 
ATOM     20  C   UNL     1      -3.393   3.305   1.070  1.00  0.00     0.012 A 
ATOM     21  C   UNL     1      -2.650   3.234  -1.221  1.00  0.00     0.012 A 
ATOM     22  C   UNL     1      -3.502   4.698   0.981  1.00  0.00     0.047 A 
ATOM     23  C   UNL     1      -2.788   4.620  -1.313  1.00  0.00     0.047 A 
BRANCH  19  24
ATOM     24  C   UNL     1      -2.675   1.132   0.090  1.00  0.00     0.029 C 
ATOM     25  O   UNL     1      -2.182  -1.732   0.164  1.00  0.00    -0.268 OA
ATOM     26  C   UNL     1      -1.277  -0.913   0.122  1.00  0.00     0.263 C 
ATOM     27  N   UNL     1       0.056  -1.212   0.071  1.00  0.00    -0.307 N 
ATOM     28  C   UNL     1      -1.461   0.563   0.088  1.00  0.00     0.080 C 
ATOM     29  C   UNL     1       0.943  -0.180   0.002  1.00  0.00     0.145 C 
ATOM     30  H   UNL     1       0.366  -2.146   0.084  1.00  0.00     0.171 HD
ATOM     31  S   UNL     1       0.080   1.340   0.021  1.00  0.00    -0.055 SA
ATOM     32  S   UNL     1       2.579  -0.379  -0.101  1.00  0.00    -0.052 S 
ENDBRANCH  19  24
ENDBRANCH  17  18
ENDBRANCH  16  17
ENDBRANCH  12  16
ENDBRANCH   6  11
ENDBRANCH   3   5
ENDBRANCH   2   3
ENDBRANCH   1   2
BRANCH   1  33
ATOM     33  C   UNL     1       9.035   9.694   0.047  1.00  0.00     0.275 C 
BRANCH  33  34
ATOM     34  O   UNL     1       9.071   8.751  -1.025  1.00  0.00    -0.458 OA
BRANCH  34  35
ATOM     35  C   UNL     1       8.268   7.676  -0.850  1.00  0.00     0.338 C 
ATOM     36  O   UNL     1       7.237   7.622  -0.201  1.00  0.00    -0.246 OA
BRANCH  35  37
ATOM     37  C   UNL     1       8.959   6.480  -1.340  1.00  0.00     0.060 A 
ATOM     38  C   UNL     1       8.223   5.298  -1.475  1.00  0.00     0.016 A 
ATOM     39  C   UNL     1      10.360   6.487  -1.397  1.00  0.00     0.016 A 
ATOM     40  C   UNL     1       8.907   4.100  -1.558  1.00  0.00     0.010 A 
ATOM     41  C   UNL     1      11.038   5.293  -1.452  1.00  0.00     0.010 A 
ATOM     42  C   UNL     1      10.306   4.108  -1.485  1.00  0.00    -0.014 A 
BRANCH  42  43
ATOM     43  C   UNL     1      11.021   2.856  -1.655  1.00  0.00     0.031 A 
ATOM     44  C   UNL     1      10.949   2.368  -3.055  1.00  0.00     0.074 A 
ATOM     45  C   UNL     1      11.803   2.319  -0.696  1.00  0.00     0.049 A 
ATOM     46  N   UNL     1      10.337   1.320  -3.494  1.00  0.00    -0.248 NA
ATOM     47  C   UNL     1      11.434   3.263  -4.123  1.00  0.00     0.031 C 
ATOM     48  C   UNL     1      12.160   2.908   0.598  1.00  0.00     0.029 A 
ATOM     49  N   UNL     1      12.542   1.177  -0.718  1.00  0.00    -0.354 N 
ATOM     50  C   UNL     1      10.598   1.289  -4.861  1.00  0.00     0.074 A 
ATOM     51  C   UNL     1      11.046   2.606  -5.216  1.00  0.00     0.031 C 
ATOM     52  C   UNL     1      13.216   2.239   1.117  1.00  0.00     0.029 A 
ATOM     53  C   UNL     1      13.533   1.109   0.259  1.00  0.00     0.049 A 
ATOM     54  H   UNL     1      12.389   0.456  -1.371  1.00  0.00     0.167 HD
ATOM     55  C   UNL     1      10.724   0.102  -5.514  1.00  0.00     0.037 A 
ATOM     56  C   UNL     1      14.571   0.230   0.305  1.00  0.00     0.037 A 
ATOM     57  C   UNL     1      10.139  -0.968  -4.744  1.00  0.00     0.049 A 
ATOM     58  C   UNL     1      14.220  -0.907  -0.588  1.00  0.00     0.074 A 
ATOM     59  C   UNL     1       8.884  -1.214  -4.219  1.00  0.00     0.029 A 
ATOM     60  N   UNL     1      11.000  -1.804  -4.076  1.00  0.00    -0.354 N 
ATOM     61  N   UNL     1      13.258  -1.754  -0.344  1.00  0.00    -0.248 NA
ATOM     62  C   UNL     1      14.637  -0.825  -1.980  1.00  0.00     0.031 C 
ATOM     63  C   UNL     1       9.124  -1.836  -2.960  1.00  0.00     0.029 A 
ATOM     64  C   UNL     1      10.501  -2.011  -2.818  1.00  0.00     0.049 A 
ATOM     65  H   UNL     1      11.832  -2.186  -4.438  1.00  0.00     0.167 HD
ATOM     66  C   UNL     1      12.655  -1.966  -1.576  1.00  0.00     0.074 A 
ATOM     67  C   UNL     1      13.602  -1.440  -2.557  1.00  0.00     0.031 C 
ATOM     68  C   UNL     1      11.328  -2.276  -1.662  1.00  0.00     0.037 A 
BRANCH  55  69
ATOM     69  C   UNL     1      11.743  -0.155  -6.606  1.00  0.00     0.058 A 
ATOM     70  C   UNL     1      11.736  -1.406  -7.256  1.00  0.00     0.135 A 
ATOM     71  C   UNL     1      12.892   0.638  -6.835  1.00  0.00     0.135 A 
ATOM     72  F   UNL     1      10.699  -2.247  -7.112  1.00  0.00    -0.206 F 
ATOM     73  C   UNL     1      12.822  -1.870  -7.999  1.00  0.00     0.059 A 
ATOM     74  C   UNL     1      13.960   0.217  -7.617  1.00  0.00     0.059 A 
ATOM     75  F   UNL     1      13.091   1.819  -6.242  1.00  0.00    -0.206 F 
ATOM     76  C   UNL     1      13.936  -1.054  -8.160  1.00  0.00     0.060 A 
BRANCH  76  77
ATOM     77  S   UNL     1      15.371  -1.676  -9.048  1.00  0.00     0.124 S 
ATOM     78  O   UNL     1      15.864  -2.692  -8.126  1.00  0.00    -0.237 OA
ATOM     79  O   UNL     1      14.769  -2.167 -10.283  1.00  0.00    -0.237 OA
ATOM     80  O   UNL     1      16.213  -0.492  -9.195  1.00  0.00    -0.744 OA
ENDBRANCH  76  77
ENDBRANCH  55  69
BRANCH  56  81
ATOM     81  C   UNL     1      15.969   0.447   0.782  1.00  0.00     0.058 A 
ATOM     82  C   UNL     1      16.865  -0.631   0.927  1.00  0.00     0.135 A 
ATOM     83  C   UNL     1      16.545   1.732   0.824  1.00  0.00     0.135 A 
ATOM     84  F   UNL     1      16.414  -1.895   0.886  1.00  0.00    -0.206 F 
ATOM     85  C   UNL     1      18.250  -0.449   1.040  1.00  0.00     0.059 A 
ATOM     86  C   UNL     1      17.920   1.939   0.947  1.00  0.00     0.059 A 
ATOM     87  F   UNL     1      15.800   2.832   0.647  1.00  0.00    -0.206 F 
ATOM     88  C   UNL     1      18.771   0.844   1.025  1.00  0.00     0.060 A 
BRANCH  88  89
ATOM     89  S   UNL     1      20.564   1.086   0.977  1.00  0.00     0.124 S 
ATOM     90  O   UNL     1      20.962   0.674   2.318  1.00  0.00    -0.237 OA
ATOM     91  O   UNL     1      20.968   0.200  -0.109  1.00  0.00    -0.237 OA
ATOM     92  O   UNL     1      20.705   2.513   0.696  1.00  0.00    -0.744 OA
ENDBRANCH  88  89
ENDBRANCH  56  81
BRANCH  68  93
ATOM     93  C   UNL     1      10.621  -2.756  -0.422  1.00  0.00     0.058 A 
ATOM     94  C   UNL     1      10.449  -2.014   0.759  1.00  0.00     0.135 A 
ATOM     95  C   UNL     1       9.973  -3.999  -0.498  1.00  0.00     0.135 A 
ATOM     96  F   UNL     1      10.945  -0.773   0.876  1.00  0.00    -0.206 F 
ATOM     97  C   UNL     1       9.707  -2.511   1.835  1.00  0.00     0.059 A 
ATOM     98  C   UNL     1       9.201  -4.497   0.544  1.00  0.00     0.059 A 
ATOM     99  F   UNL     1      10.051  -4.732  -1.622  1.00  0.00    -0.206 F 
ATOM    100  C   UNL     1       9.088  -3.757   1.717  1.00  0.00     0.060 A 
BRANCH 100 101
ATOM    101  S   UNL     1       8.098  -4.392   3.087  1.00  0.00     0.124 S 
ATOM    102  O   UNL     1       9.118  -4.700   4.084  1.00  0.00    -0.237 OA
ATOM    103  O   UNL     1       7.225  -3.265   3.400  1.00  0.00    -0.237 OA
ATOM    104  O   UNL     1       7.421  -5.552   2.511  1.00  0.00    -0.744 OA
ENDBRANCH 100 101
ENDBRANCH  68  93
ENDBRANCH  42  43
ENDBRANCH  35  37
ENDBRANCH  34  35
ENDBRANCH  33  34
ENDBRANCH   1  33
TORSDOF 19
