REMARK SMILES COc1ccc(CSc2ncccc2C(=O)OCCOC(=O)c2ccc(-c3c4nc(c(-c5c(F)cc(S(=O)(=O)[O-])cc5F)c5ccc([nH]5)c(-c5c(F)cc(S(=O)(=O)[O-])cc5F)c5nc(c(-c6c(F)cc(S(=O)(=O)[O-])cc6F)c6ccc3[nH]6)C=C5)C=C4)cc2)cc1
REMARK SMILES IDX 18 1 17 2 15 3 16 4 14 5 9 6 10 7 11 8 13 9 12 10 8 11 7 12
REMARK SMILES IDX 6 13 3 14 4 15 90 16 5 17 89 18 2 19 1 20 19 21 20 22 21 23
REMARK SMILES IDX 22 24 23 25 24 26 88 27 25 28 87 29 26 30 27 31 28 32 81 33
REMARK SMILES IDX 29 34 86 35 80 36 82 37 30 38 85 39 79 40 78 41 31 43 65 44
REMARK SMILES IDX 44 45 64 46 45 47 48 48 63 49 83 50 46 51 47 52 62 54 84 55
REMARK SMILES IDX 49 56 32 57 33 58 42 59 34 60 35 61 41 62 43 63 36 64 37 65
REMARK SMILES IDX 38 66 39 67 40 68 66 69 67 70 76 71 68 72 69 73 75 74 77 75
REMARK SMILES IDX 70 76 71 77 72 78 73 79 74 80 50 81 51 82 60 83 52 84 53 85
REMARK SMILES IDX 59 86 61 87 54 88 55 89 56 90 57 91 58 92
REMARK H PARENT 82 42 48 53
REMARK Flexibility Score: inf
ROOT
ATOM      1  C   UNL     1       2.624   0.939  -1.369  1.00  0.00     0.275 C 
ENDROOT
BRANCH   1   2
ATOM      2  O   UNL     1       3.146   1.899  -2.700  1.00  0.00    -0.458 OA
BRANCH   2   3
ATOM      3  C   UNL     1       2.450   2.373  -3.870  1.00  0.00     0.341 C 
ATOM      4  O   UNL     1       1.739   1.675  -4.590  1.00  0.00    -0.246 OA
BRANCH   3   5
ATOM      5  C   UNL     1       2.693   3.828  -4.293  1.00  0.00     0.092 A 
ATOM      6  C   UNL     1       1.910   5.066  -4.128  1.00  0.00     0.111 A 
ATOM      7  N   UNL     1       2.411   6.264  -4.594  1.00  0.00    -0.249 NA
ATOM      8  C   UNL     1       3.630   6.267  -5.205  1.00  0.00     0.112 A 
ATOM      9  C   UNL     1       3.908   3.914  -5.010  1.00  0.00     0.020 A 
ATOM     10  C   UNL     1       4.387   5.137  -5.464  1.00  0.00     0.021 A 
BRANCH   6  11
ATOM     11  S   UNL     1       0.147   5.372  -3.356  1.00  0.00    -0.101 SA
BRANCH  11  12
ATOM     12  C   UNL     1       0.048   6.138  -1.263  1.00  0.00     0.112 C 
BRANCH  12  13
ATOM     13  C   UNL     1       0.422   5.174   0.433  1.00  0.00    -0.037 A 
ATOM     14  C   UNL     1       1.158   2.867  -1.832  1.00  0.00     0.118 A 
ATOM     15  C   UNL     1      -0.460   3.450  -1.567  1.00  0.00     0.047 A 
ATOM     16  C   UNL     1       2.669   3.258  -0.689  1.00  0.00     0.047 A 
ATOM     17  C   UNL     1      -0.834   4.432  -0.417  1.00  0.00     0.008 A 
ATOM     18  C   UNL     1       2.161   4.390   0.724  1.00  0.00     0.008 A 
BRANCH  14  19
ATOM     19  O   UNL     1       0.710   1.533  -2.365  1.00  0.00    -0.497 OA
ATOM     20  C   UNL     1      -0.308   0.718  -1.694  1.00  0.00     0.278 C 
ENDBRANCH  14  19
ENDBRANCH  12  13
ENDBRANCH  11  12
ENDBRANCH   6  11
ENDBRANCH   3   5
ENDBRANCH   2   3
ENDBRANCH   1   2
BRANCH   1  21
ATOM     21  C   UNL     1       1.575   1.690   0.050  1.00  0.00     0.275 C 
BRANCH  21  22
ATOM     22  O   UNL     1       0.994   3.469  -0.162  1.00  0.00    -0.458 OA
BRANCH  22  23
ATOM     23  C   UNL     1       1.863   4.987  -1.053  1.00  0.00     0.338 C 
ATOM     24  O   UNL     1       2.706   4.937  -1.982  1.00  0.00    -0.246 OA
BRANCH  23  25
ATOM     25  C   UNL     1       2.379   6.596  -0.201  1.00  0.00     0.060 A 
ATOM     26  C   UNL     1       2.428   7.805  -0.958  1.00  0.00     0.016 A 
ATOM     27  C   UNL     1       2.541   6.862   1.207  1.00  0.00     0.016 A 
ATOM     28  C   UNL     1       2.488   9.073  -0.396  1.00  0.00     0.010 A 
ATOM     29  C   UNL     1       2.311   8.123   1.777  1.00  0.00     0.010 A 
ATOM     30  C   UNL     1       2.204   9.222   0.944  1.00  0.00    -0.014 A 
BRANCH  30  31
ATOM     31  C   UNL     1       1.976  10.603   1.372  1.00  0.00     0.031 A 
ATOM     32  C   UNL     1       3.131  11.259   2.027  1.00  0.00     0.074 A 
ATOM     33  C   UNL     1       0.900  11.273   0.904  1.00  0.00     0.049 A 
ATOM     34  N   UNL     1       3.258  12.481   2.438  1.00  0.00    -0.248 NA
ATOM     35  C   UNL     1       4.321  10.412   2.235  1.00  0.00     0.031 C 
ATOM     36  C   UNL     1      -0.188  10.682   0.107  1.00  0.00     0.029 A 
ATOM     37  N   UNL     1       0.585  12.604   0.936  1.00  0.00    -0.354 N 
ATOM     38  C   UNL     1       4.523  12.534   2.994  1.00  0.00     0.074 A 
ATOM     39  C   UNL     1       5.112  11.223   2.905  1.00  0.00     0.031 C 
ATOM     40  C   UNL     1      -1.004  11.659  -0.326  1.00  0.00     0.029 A 
ATOM     41  C   UNL     1      -0.554  12.930   0.227  1.00  0.00     0.049 A 
ATOM     42  H   UNL     1       1.122  13.271   1.421  1.00  0.00     0.167 HD
ATOM     43  C   UNL     1       5.137  13.610   3.518  1.00  0.00     0.037 A 
ATOM     44  C   UNL     1      -1.160  14.127   0.080  1.00  0.00     0.037 A 
ATOM     45  C   UNL     1       4.521  14.902   3.526  1.00  0.00     0.049 A 
ATOM     46  C   UNL     1      -0.500  15.297   0.769  1.00  0.00     0.074 A 
ATOM     47  C   UNL     1       4.979  16.070   4.092  1.00  0.00     0.029 A 
ATOM     48  N   UNL     1       3.301  15.185   2.919  1.00  0.00    -0.354 N 
ATOM     49  N   UNL     1       0.647  15.325   1.415  1.00  0.00    -0.248 NA
ATOM     50  C   UNL     1      -1.209  16.579   0.745  1.00  0.00     0.031 C 
ATOM     51  C   UNL     1       4.002  17.047   3.885  1.00  0.00     0.029 A 
ATOM     52  C   UNL     1       2.976  16.510   3.116  1.00  0.00     0.049 A 
ATOM     53  H   UNL     1       2.752  14.535   2.424  1.00  0.00     0.167 HD
ATOM     54  C   UNL     1       0.805  16.629   1.862  1.00  0.00     0.074 A 
ATOM     55  C   UNL     1      -0.356  17.364   1.391  1.00  0.00     0.031 C 
ATOM     56  C   UNL     1       1.804  17.177   2.600  1.00  0.00     0.037 A 
BRANCH  43  57
ATOM     57  C   UNL     1       6.446  13.364   4.196  1.00  0.00     0.058 A 
ATOM     58  C   UNL     1       7.604  12.981   3.499  1.00  0.00     0.135 A 
ATOM     59  C   UNL     1       6.504  13.411   5.596  1.00  0.00     0.135 A 
ATOM     60  F   UNL     1       7.579  12.843   2.163  1.00  0.00    -0.206 F 
ATOM     61  C   UNL     1       8.771  12.637   4.171  1.00  0.00     0.059 A 
ATOM     62  C   UNL     1       7.671  13.113   6.286  1.00  0.00     0.059 A 
ATOM     63  F   UNL     1       5.409  13.717   6.309  1.00  0.00    -0.206 F 
ATOM     64  C   UNL     1       8.796  12.720   5.565  1.00  0.00     0.060 A 
BRANCH  64  65
ATOM     65  S   UNL     1      10.334  12.330   6.420  1.00  0.00     0.124 S 
ATOM     66  O   UNL     1      10.424  10.887   6.222  1.00  0.00    -0.237 OA
ATOM     67  O   UNL     1      11.304  13.134   5.684  1.00  0.00    -0.237 OA
ATOM     68  O   UNL     1      10.078  12.761   7.791  1.00  0.00    -0.744 OA
ENDBRANCH  64  65
ENDBRANCH  43  57
BRANCH  44  69
ATOM     69  C   UNL     1      -2.462  14.270  -0.645  1.00  0.00     0.058 A 
ATOM     70  C   UNL     1      -2.617  15.109  -1.762  1.00  0.00     0.135 A 
ATOM     71  C   UNL     1      -3.610  13.587  -0.203  1.00  0.00     0.135 A 
ATOM     72  F   UNL     1      -1.570  15.808  -2.227  1.00  0.00    -0.206 F 
ATOM     73  C   UNL     1      -3.850  15.272  -2.401  1.00  0.00     0.059 A 
ATOM     74  C   UNL     1      -4.842  13.706  -0.842  1.00  0.00     0.059 A 
ATOM     75  F   UNL     1      -3.540  12.777   0.866  1.00  0.00    -0.206 F 
ATOM     76  C   UNL     1      -4.957  14.560  -1.935  1.00  0.00     0.060 A 
BRANCH  76  77
ATOM     77  S   UNL     1      -6.542  14.746  -2.785  1.00  0.00     0.124 S 
ATOM     78  O   UNL     1      -6.898  16.121  -2.454  1.00  0.00    -0.237 OA
ATOM     79  O   UNL     1      -6.173  14.498  -4.175  1.00  0.00    -0.237 OA
ATOM     80  O   UNL     1      -7.376  13.716  -2.172  1.00  0.00    -0.744 OA
ENDBRANCH  76  77
ENDBRANCH  44  69
BRANCH  56  81
ATOM     81  C   UNL     1       1.706  18.645   2.884  1.00  0.00     0.058 A 
ATOM     82  C   UNL     1       0.770  19.163   3.789  1.00  0.00     0.135 A 
ATOM     83  C   UNL     1       2.632  19.526   2.303  1.00  0.00     0.135 A 
ATOM     84  F   UNL     1      -0.134  18.356   4.368  1.00  0.00    -0.206 F 
ATOM     85  C   UNL     1       0.737  20.517   4.089  1.00  0.00     0.059 A 
ATOM     86  C   UNL     1       2.645  20.875   2.622  1.00  0.00     0.059 A 
ATOM     87  F   UNL     1       3.559  19.067   1.446  1.00  0.00    -0.206 F 
ATOM     88  C   UNL     1       1.685  21.363   3.506  1.00  0.00     0.060 A 
BRANCH  88  89
ATOM     89  S   UNL     1       1.657  23.111   3.939  1.00  0.00     0.124 S 
ATOM     90  O   UNL     1       0.438  23.557   3.274  1.00  0.00    -0.237 OA
ATOM     91  O   UNL     1       1.607  23.066   5.397  1.00  0.00    -0.237 OA
ATOM     92  O   UNL     1       2.903  23.621   3.375  1.00  0.00    -0.744 OA
ENDBRANCH  88  89
ENDBRANCH  56  81
ENDBRANCH  30  31
ENDBRANCH  23  25
ENDBRANCH  22  23
ENDBRANCH  21  22
ENDBRANCH   1  21
TORSDOF 18
