REMARK SMILES Cc1c(-c2nn(-c3ccccc3)cc2/C=N/O)nnn1-c1ccc(C(=O)OCCOC(=O)c2ccc(-c3c4nc(c(-c5c(F)cc(S(=O)(=O)[O-])cc5F)c5ccc([nH]5)c(-c5c(F)cc(S(=O)(=O)[O-])cc5F)c5nc(c(-c6c(F)cc(S(=O)(=O)[O-])cc6F)c6ccc3[nH]6)C=C5)C=C4)cc2)cc1
REMARK SMILES IDX 28 1 27 2 25 3 26 4 24 5 21 6 22 7 100 8 23 9 99 10 20 11
REMARK SMILES IDX 1 12 2 13 3 14 18 15 19 16 4 17 5 18 14 19 6 20 13 21 15 22
REMARK SMILES IDX 16 23 17 24 7 26 8 27 12 28 9 29 11 30 10 31 29 32 30 33
REMARK SMILES IDX 31 34 32 35 33 36 34 37 98 38 35 39 97 40 36 41 37 42 38 43
REMARK SMILES IDX 91 44 39 45 96 46 90 47 92 48 40 49 95 50 89 51 88 52 41 54
REMARK SMILES IDX 75 55 54 56 74 57 55 58 58 59 73 60 93 61 56 62 57 63 72 65
REMARK SMILES IDX 94 66 59 67 42 68 43 69 52 70 44 71 45 72 51 73 53 74 46 75
REMARK SMILES IDX 47 76 48 77 49 78 50 79 76 80 77 81 86 82 78 83 79 84 85 85
REMARK SMILES IDX 87 86 80 87 81 88 82 89 83 90 84 91 60 92 61 93 70 94 62 95
REMARK SMILES IDX 63 96 69 97 71 98 64 99 65 100 66 101 67 102 68 103
REMARK H PARENT 17 25 92 53 58 64
REMARK Flexibility Score: inf
ROOT
ATOM      1  C   UNL     1       4.211   3.262  -6.390  1.00  0.00     0.275 C 
ENDROOT
BRANCH   1   2
ATOM      2  O   UNL     1       3.427   2.972  -5.220  1.00  0.00    -0.458 OA
BRANCH   2   3
ATOM      3  C   UNL     1       4.090   3.025  -4.036  1.00  0.00     0.338 C 
ATOM      4  O   UNL     1       5.300   3.127  -3.887  1.00  0.00    -0.246 OA
BRANCH   3   5
ATOM      5  C   UNL     1       3.137   3.011  -2.900  1.00  0.00     0.060 A 
ATOM      6  C   UNL     1       1.505   2.791  -0.653  1.00  0.00     0.067 A 
ATOM      7  C   UNL     1       2.699   3.511  -0.561  1.00  0.00     0.029 A 
ATOM      8  C   UNL     1       1.072   2.282  -1.885  1.00  0.00     0.029 A 
ATOM      9  C   UNL     1       3.529   3.591  -1.682  1.00  0.00     0.018 A 
ATOM     10  C   UNL     1       1.881   2.408  -3.014  1.00  0.00     0.018 A 
BRANCH   6  11
ATOM     11  N   UNL     1       0.784   2.493   0.523  1.00  0.00    -0.217 N 
ATOM     12  C   UNL     1       0.556  -0.019   0.216  1.00  0.00     0.069 C 
ATOM     13  C   UNL     1       0.285   1.261   0.911  1.00  0.00     0.071 A 
ATOM     14  C   UNL     1      -0.339   1.537   2.110  1.00  0.00     0.137 A 
ATOM     15  N   UNL     1      -0.136   2.839   2.459  1.00  0.00    -0.128 NA
ATOM     16  N   UNL     1       0.621   3.396   1.519  1.00  0.00    -0.061 NA
BRANCH  14  17
ATOM     17  C   UNL     1      -1.012   0.600   3.003  1.00  0.00     0.124 A 
ATOM     18  N   UNL     1      -0.339  -0.361   3.647  1.00  0.00    -0.165 NA
ATOM     19  C   UNL     1      -2.404   0.537   3.241  1.00  0.00     0.044 A 
ATOM     20  N   UNL     1      -1.294  -1.112   4.231  1.00  0.00    -0.240 N 
ATOM     21  C   UNL     1      -2.554  -0.607   4.004  1.00  0.00     0.125 A 
BRANCH  19  22
ATOM     22  C   UNL     1      -3.485   1.393   2.822  1.00  0.00     0.166 C 
ATOM     23  N   UNL     1      -3.272   2.332   1.963  1.00  0.00    -0.097 NA
BRANCH  23  24
ATOM     24  O   UNL     1      -4.460   3.043   1.748  1.00  0.00    -0.411 OA
ATOM     25  H   UNL     1      -4.473   3.762   1.148  1.00  0.00     0.330 HD
ENDBRANCH  23  24
ENDBRANCH  19  22
BRANCH  20  26
ATOM     26  C   UNL     1      -0.952  -2.290   4.938  1.00  0.00     0.065 A 
ATOM     27  C   UNL     1       0.285  -2.358   5.593  1.00  0.00     0.028 A 
ATOM     28  C   UNL     1      -1.823  -3.386   4.963  1.00  0.00     0.028 A 
ATOM     29  C   UNL     1       0.638  -3.511   6.294  1.00  0.00     0.002 A 
ATOM     30  C   UNL     1      -1.439  -4.555   5.625  1.00  0.00     0.002 A 
ATOM     31  C   UNL     1      -0.217  -4.613   6.298  1.00  0.00     0.000 A 
ENDBRANCH  20  26
ENDBRANCH  14  17
ENDBRANCH   6  11
ENDBRANCH   3   5
ENDBRANCH   2   3
ENDBRANCH   1   2
BRANCH   1  32
ATOM     32  C   UNL     1       4.220   4.752  -6.700  1.00  0.00     0.275 C 
BRANCH  32  33
ATOM     33  O   UNL     1       4.981   5.476  -5.737  1.00  0.00    -0.458 OA
BRANCH  33  34
ATOM     34  C   UNL     1       4.262   5.987  -4.712  1.00  0.00     0.338 C 
ATOM     35  O   UNL     1       3.129   5.678  -4.382  1.00  0.00    -0.246 OA
BRANCH  34  36
ATOM     36  C   UNL     1       4.956   7.162  -4.180  1.00  0.00     0.060 A 
ATOM     37  C   UNL     1       4.344   7.827  -3.113  1.00  0.00     0.016 A 
ATOM     38  C   UNL     1       5.983   7.748  -4.933  1.00  0.00     0.016 A 
ATOM     39  C   UNL     1       4.627   9.161  -2.926  1.00  0.00     0.010 A 
ATOM     40  C   UNL     1       6.252   9.082  -4.755  1.00  0.00     0.010 A 
ATOM     41  C   UNL     1       5.511   9.787  -3.809  1.00  0.00    -0.014 A 
BRANCH  41  42
ATOM     42  C   UNL     1       5.709  11.214  -3.677  1.00  0.00     0.031 A 
ATOM     43  C   UNL     1       6.513  11.583  -2.490  1.00  0.00     0.074 A 
ATOM     44  C   UNL     1       5.324  12.070  -4.642  1.00  0.00     0.049 A 
ATOM     45  N   UNL     1       6.157  12.297  -1.475  1.00  0.00    -0.248 NA
ATOM     46  C   UNL     1       7.827  10.933  -2.337  1.00  0.00     0.031 C 
ATOM     47  C   UNL     1       4.800  11.754  -5.974  1.00  0.00     0.029 A 
ATOM     48  N   UNL     1       5.445  13.421  -4.679  1.00  0.00    -0.354 N 
ATOM     49  C   UNL     1       7.283  12.369  -0.661  1.00  0.00     0.074 A 
ATOM     50  C   UNL     1       8.194  11.361  -1.130  1.00  0.00     0.031 C 
ATOM     51  C   UNL     1       4.887  12.854  -6.755  1.00  0.00     0.029 A 
ATOM     52  C   UNL     1       5.363  13.967  -5.952  1.00  0.00     0.049 A 
ATOM     53  H   UNL     1       5.580  13.967  -3.871  1.00  0.00     0.167 HD
ATOM     54  C   UNL     1       7.490  13.425   0.171  1.00  0.00     0.037 A 
ATOM     55  C   UNL     1       5.769  15.212  -6.312  1.00  0.00     0.037 A 
ATOM     56  C   UNL     1       6.270  14.149   0.416  1.00  0.00     0.049 A 
ATOM     57  C   UNL     1       5.868  16.018  -5.062  1.00  0.00     0.074 A 
ATOM     58  C   UNL     1       5.037  13.805   0.939  1.00  0.00     0.029 A 
ATOM     59  N   UNL     1       6.076  15.335  -0.251  1.00  0.00    -0.354 N 
ATOM     60  N   UNL     1       4.840  16.354  -4.328  1.00  0.00    -0.248 NA
ATOM     61  C   UNL     1       7.152  16.046  -4.373  1.00  0.00     0.031 C 
ATOM     62  C   UNL     1       4.090  14.528   0.159  1.00  0.00     0.029 A 
ATOM     63  C   UNL     1       4.798  15.315  -0.751  1.00  0.00     0.049 A 
ATOM     64  H   UNL     1       6.731  16.063  -0.352  1.00  0.00     0.167 HD
ATOM     65  C   UNL     1       5.275  16.224  -3.015  1.00  0.00     0.074 A 
ATOM     66  C   UNL     1       6.729  16.113  -3.107  1.00  0.00     0.031 C 
ATOM     67  C   UNL     1       4.407  15.929  -2.002  1.00  0.00     0.037 A 
BRANCH  54  68
ATOM     68  C   UNL     1       8.855  14.001   0.451  1.00  0.00     0.058 A 
ATOM     69  C   UNL     1       9.000  14.970   1.463  1.00  0.00     0.135 A 
ATOM     70  C   UNL     1       9.964  13.850  -0.414  1.00  0.00     0.135 A 
ATOM     71  F   UNL     1       8.005  15.203   2.333  1.00  0.00    -0.206 F 
ATOM     72  C   UNL     1      10.132  15.780   1.560  1.00  0.00     0.059 A 
ATOM     73  C   UNL     1      11.123  14.604  -0.297  1.00  0.00     0.059 A 
ATOM     74  F   UNL     1       9.941  13.040  -1.479  1.00  0.00    -0.206 F 
ATOM     75  C   UNL     1      11.180  15.599   0.662  1.00  0.00     0.060 A 
BRANCH  75  76
ATOM     76  S   UNL     1      12.584  16.724   0.697  1.00  0.00     0.124 S 
ATOM     77  O   UNL     1      11.979  17.956   0.203  1.00  0.00    -0.237 OA
ATOM     78  O   UNL     1      12.949  16.709   2.110  1.00  0.00    -0.237 OA
ATOM     79  O   UNL     1      13.545  16.088  -0.199  1.00  0.00    -0.744 OA
ENDBRANCH  75  76
ENDBRANCH  54  68
BRANCH  55  80
ATOM     80  C   UNL     1       6.425  15.610  -7.590  1.00  0.00     0.058 A 
ATOM     81  C   UNL     1       6.598  16.963  -7.932  1.00  0.00     0.135 A 
ATOM     82  C   UNL     1       7.127  14.680  -8.386  1.00  0.00     0.135 A 
ATOM     83  F   UNL     1       5.992  17.922  -7.215  1.00  0.00    -0.206 F 
ATOM     84  C   UNL     1       7.445  17.370  -8.972  1.00  0.00     0.059 A 
ATOM     85  C   UNL     1       7.961  15.059  -9.435  1.00  0.00     0.059 A 
ATOM     86  F   UNL     1       7.100  13.368  -8.112  1.00  0.00    -0.206 F 
ATOM     87  C   UNL     1       8.137  16.409  -9.708  1.00  0.00     0.060 A 
BRANCH  87  88
ATOM     88  S   UNL     1       9.357  16.926 -10.938  1.00  0.00     0.124 S 
ATOM     89  O   UNL     1       8.512  17.491 -11.984  1.00  0.00    -0.237 OA
ATOM     90  O   UNL     1      10.167  17.879 -10.188  1.00  0.00    -0.237 OA
ATOM     91  O   UNL     1      10.034  15.679 -11.290  1.00  0.00    -0.744 OA
ENDBRANCH  87  88
ENDBRANCH  55  80
BRANCH  67  92
ATOM     92  C   UNL     1       2.927  16.011  -2.277  1.00  0.00     0.058 A 
ATOM     93  C   UNL     1       2.246  15.194  -3.198  1.00  0.00     0.135 A 
ATOM     94  C   UNL     1       2.143  16.831  -1.451  1.00  0.00     0.135 A 
ATOM     95  F   UNL     1       2.906  14.301  -3.947  1.00  0.00    -0.206 F 
ATOM     96  C   UNL     1       0.856  15.224  -3.322  1.00  0.00     0.059 A 
ATOM     97  C   UNL     1       0.753  16.852  -1.535  1.00  0.00     0.059 A 
ATOM     98  F   UNL     1       2.725  17.585  -0.504  1.00  0.00    -0.206 F 
ATOM     99  C   UNL     1       0.116  16.056  -2.483  1.00  0.00     0.060 A 
BRANCH  99 100
ATOM    100  S   UNL     1      -1.687  16.034  -2.591  1.00  0.00     0.124 S 
ATOM    101  O   UNL     1      -1.927  16.724  -3.854  1.00  0.00    -0.237 OA
ATOM    102  O   UNL     1      -1.991  14.606  -2.580  1.00  0.00    -0.237 OA
ATOM    103  O   UNL     1      -2.109  16.760  -1.395  1.00  0.00    -0.744 OA
ENDBRANCH  99 100
ENDBRANCH  67  92
ENDBRANCH  41  42
ENDBRANCH  34  36
ENDBRANCH  33  34
ENDBRANCH  32  33
ENDBRANCH   1  32
TORSDOF 19
