REMARK SMILES Cc1[nH]c2ccccc2c1[C@@H](C(=O)OCCOC(=O)c1ccc(-c2c3nc(c(-c4c(F)cc(S(=O)(=O)[O-])cc4F)c4ccc([nH]4)c(-c4c(F)cc(S(=O)(=O)[O-])cc4F)c4nc(c(-c5c(F)cc(S(=O)(=O)[O-])cc5F)c5ccc2[nH]5)C=C4)C=C3)cc1)[NH+]1CCCC1
REMARK SMILES IDX 16 1 15 2 14 3 12 4 13 5 11 6 10 7 1 8 2 9 3 10 4 11 9 13
REMARK SMILES IDX 5 14 8 15 6 16 7 17 86 18 87 19 90 20 88 22 89 23 17 24
REMARK SMILES IDX 18 25 19 26 20 27 21 28 85 29 22 30 84 31 23 32 24 33 25 34
REMARK SMILES IDX 78 35 26 36 83 37 77 38 79 39 27 40 82 41 76 42 75 43 28 45
REMARK SMILES IDX 62 46 41 47 61 48 42 49 45 50 60 51 80 52 43 53 44 54 59 56
REMARK SMILES IDX 81 57 46 58 29 59 30 60 39 61 31 62 32 63 38 64 40 65 33 66
REMARK SMILES IDX 34 67 35 68 36 69 37 70 63 71 64 72 73 73 65 74 66 75 72 76
REMARK SMILES IDX 74 77 67 78 68 79 69 80 70 81 71 82 47 83 48 84 57 85 49 86
REMARK SMILES IDX 50 87 56 88 58 89 51 90 52 91 53 92 54 93 55 94
REMARK H PARENT 3 12 86 21 79 44 45 55
REMARK Flexibility Score: inf
ROOT
ATOM      1  C   UNL     1       0.380  -4.150  -3.396  1.00  0.00     0.275 C 
ENDROOT
BRANCH   1   2
ATOM      2  C   UNL     1      -0.995  -3.513  -3.202  1.00  0.00     0.274 C 
BRANCH   2   3
ATOM      3  O   UNL     1      -1.004  -2.584  -2.098  1.00  0.00    -0.457 OA
BRANCH   3   4
ATOM      4  C   UNL     1      -1.458  -3.090  -0.912  1.00  0.00     0.370 C 
ATOM      5  O   UNL     1      -1.782  -4.269  -0.773  1.00  0.00    -0.245 OA
BRANCH   4   6
ATOM      6  C   UNL     1      -1.717  -2.023   0.165  1.00  0.00     0.328 C 
BRANCH   6   7
ATOM      7  C   UNL     1      -1.231  -0.611  -0.097  1.00  0.00     0.049 A 
ATOM      8  C   UNL     1      -3.547   0.638  -0.100  1.00  0.00     0.065 C 
ATOM      9  C   UNL     1      -2.066   0.505  -0.163  1.00  0.00     0.022 A 
ATOM     10  N   UNL     1      -1.277   1.621  -0.247  1.00  0.00    -0.358 N 
ATOM     11  C   UNL     1       0.048   1.276  -0.290  1.00  0.00     0.046 A 
ATOM     12  H   UNL     1      -1.616   2.545  -0.274  1.00  0.00     0.166 HD
ATOM     13  C   UNL     1       0.113  -0.118  -0.295  1.00  0.00     0.009 A 
ATOM     14  C   UNL     1       1.179   2.102  -0.318  1.00  0.00     0.027 A 
ATOM     15  C   UNL     1       1.393  -0.704  -0.421  1.00  0.00     0.011 A 
ATOM     16  C   UNL     1       2.430   1.489  -0.370  1.00  0.00     0.002 A 
ATOM     17  C   UNL     1       2.538   0.105  -0.439  1.00  0.00     0.001 A 
ENDBRANCH   6   7
BRANCH   6  18
ATOM     18  N   UNL     1      -1.470  -2.535   1.539  1.00  0.00    -0.319 N 
ATOM     19  C   UNL     1      -2.249  -1.888   2.593  1.00  0.00     0.263 C 
ATOM     20  C   UNL     1      -0.103  -2.572   2.042  1.00  0.00     0.263 C 
ATOM     21  H   UNL     1      -1.772  -3.493   1.359  1.00  0.00     0.349 HD
ATOM     22  C   UNL     1      -1.326  -0.866   3.235  1.00  0.00     0.067 C 
ATOM     23  C   UNL     1       0.080  -1.376   2.964  1.00  0.00     0.067 C 
ENDBRANCH   6  18
ENDBRANCH   4   6
ENDBRANCH   3   4
ENDBRANCH   2   3
ENDBRANCH   1   2
BRANCH   1  24
ATOM     24  O   UNL     1       0.766  -4.839  -2.197  1.00  0.00    -0.458 OA
BRANCH  24  25
ATOM     25  C   UNL     1       2.034  -4.631  -1.769  1.00  0.00     0.338 C 
ATOM     26  O   UNL     1       2.912  -4.042  -2.377  1.00  0.00    -0.246 OA
BRANCH  25  27
ATOM     27  C   UNL     1       2.219  -5.173  -0.398  1.00  0.00     0.060 A 
ATOM     28  C   UNL     1       1.141  -5.381   0.459  1.00  0.00     0.016 A 
ATOM     29  C   UNL     1       3.515  -5.372   0.085  1.00  0.00     0.016 A 
ATOM     30  C   UNL     1       1.359  -5.672   1.807  1.00  0.00     0.010 A 
ATOM     31  C   UNL     1       3.724  -5.758   1.417  1.00  0.00     0.010 A 
ATOM     32  C   UNL     1       2.650  -5.866   2.316  1.00  0.00    -0.014 A 
BRANCH  32  33
ATOM     33  C   UNL     1       2.874  -6.126   3.774  1.00  0.00     0.031 A 
ATOM     34  C   UNL     1       3.860  -5.292   4.564  1.00  0.00     0.074 A 
ATOM     35  C   UNL     1       2.188  -7.091   4.424  1.00  0.00     0.049 A 
ATOM     36  N   UNL     1       4.363  -5.511   5.754  1.00  0.00    -0.248 NA
ATOM     37  C   UNL     1       4.362  -4.064   3.926  1.00  0.00     0.031 C 
ATOM     38  C   UNL     1       1.171  -7.961   3.832  1.00  0.00     0.029 A 
ATOM     39  N   UNL     1       2.232  -7.491   5.740  1.00  0.00    -0.354 N 
ATOM     40  C   UNL     1       5.303  -4.507   5.966  1.00  0.00     0.074 A 
ATOM     41  C   UNL     1       5.284  -3.662   4.791  1.00  0.00     0.031 C 
ATOM     42  C   UNL     1       0.637  -8.734   4.788  1.00  0.00     0.029 A 
ATOM     43  C   UNL     1       1.351  -8.503   6.038  1.00  0.00     0.049 A 
ATOM     44  H   UNL     1       2.837  -7.090   6.405  1.00  0.00     0.167 HD
ATOM     45  C   UNL     1       6.113  -4.315   7.036  1.00  0.00     0.037 A 
ATOM     46  C   UNL     1       1.161  -9.210   7.170  1.00  0.00     0.037 A 
ATOM     47  C   UNL     1       6.062  -5.094   8.249  1.00  0.00     0.049 A 
ATOM     48  C   UNL     1       2.040  -8.957   8.358  1.00  0.00     0.074 A 
ATOM     49  C   UNL     1       6.835  -4.963   9.392  1.00  0.00     0.029 A 
ATOM     50  N   UNL     1       5.165  -6.121   8.496  1.00  0.00    -0.354 N 
ATOM     51  N   UNL     1       3.014  -8.090   8.490  1.00  0.00    -0.248 NA
ATOM     52  C   UNL     1       1.818  -9.804   9.538  1.00  0.00     0.031 C 
ATOM     53  C   UNL     1       6.417  -5.922  10.322  1.00  0.00     0.029 A 
ATOM     54  C   UNL     1       5.361  -6.628   9.771  1.00  0.00     0.049 A 
ATOM     55  H   UNL     1       4.487  -6.444   7.859  1.00  0.00     0.167 HD
ATOM     56  C   UNL     1       3.533  -8.297   9.762  1.00  0.00     0.074 A 
ATOM     57  C   UNL     1       2.741  -9.346  10.373  1.00  0.00     0.031 C 
ATOM     58  C   UNL     1       4.581  -7.684  10.363  1.00  0.00     0.037 A 
BRANCH  45  59
ATOM     59  C   UNL     1       7.162  -3.240   6.943  1.00  0.00     0.058 A 
ATOM     60  C   UNL     1       6.853  -1.877   7.062  1.00  0.00     0.135 A 
ATOM     61  C   UNL     1       8.514  -3.594   6.796  1.00  0.00     0.135 A 
ATOM     62  F   UNL     1       5.576  -1.482   7.186  1.00  0.00    -0.206 F 
ATOM     63  C   UNL     1       7.846  -0.901   7.025  1.00  0.00     0.059 A 
ATOM     64  C   UNL     1       9.525  -2.637   6.780  1.00  0.00     0.059 A 
ATOM     65  F   UNL     1       8.866  -4.884   6.680  1.00  0.00    -0.206 F 
ATOM     66  C   UNL     1       9.179  -1.291   6.885  1.00  0.00     0.060 A 
BRANCH  66  67
ATOM     67  S   UNL     1      10.463  -0.020   6.867  1.00  0.00     0.124 S 
ATOM     68  O   UNL     1      10.333   0.504   5.511  1.00  0.00    -0.237 OA
ATOM     69  O   UNL     1      10.034   0.877   7.936  1.00  0.00    -0.237 OA
ATOM     70  O   UNL     1      11.686  -0.769   7.138  1.00  0.00    -0.744 OA
ENDBRANCH  66  67
ENDBRANCH  45  59
BRANCH  46  71
ATOM     71  C   UNL     1       0.118 -10.269   7.203  1.00  0.00     0.058 A 
ATOM     72  C   UNL     1      -1.067 -10.089   7.930  1.00  0.00     0.135 A 
ATOM     73  C   UNL     1       0.263 -11.454   6.465  1.00  0.00     0.135 A 
ATOM     74  F   UNL     1      -1.242  -8.980   8.665  1.00  0.00    -0.206 F 
ATOM     75  C   UNL     1      -2.080 -11.042   7.915  1.00  0.00     0.059 A 
ATOM     76  C   UNL     1      -0.747 -12.408   6.412  1.00  0.00     0.059 A 
ATOM     77  F   UNL     1       1.376 -11.667   5.747  1.00  0.00    -0.206 F 
ATOM     78  C   UNL     1      -1.915 -12.194   7.143  1.00  0.00     0.060 A 
BRANCH  78  79
ATOM     79  S   UNL     1      -3.272 -13.381   7.034  1.00  0.00     0.124 S 
ATOM     80  O   UNL     1      -3.076 -14.162   8.249  1.00  0.00    -0.237 OA
ATOM     81  O   UNL     1      -4.447 -12.514   7.014  1.00  0.00    -0.237 OA
ATOM     82  O   UNL     1      -2.999 -14.078   5.780  1.00  0.00    -0.744 OA
ENDBRANCH  78  79
ENDBRANCH  46  71
BRANCH  58  83
ATOM     83  C   UNL     1       4.923  -8.135  11.754  1.00  0.00     0.058 A 
ATOM     84  C   UNL     1       5.578  -9.355  11.985  1.00  0.00     0.135 A 
ATOM     85  C   UNL     1       4.580  -7.351  12.865  1.00  0.00     0.135 A 
ATOM     86  F   UNL     1       5.921 -10.144  10.954  1.00  0.00    -0.206 F 
ATOM     87  C   UNL     1       5.847  -9.801  13.275  1.00  0.00     0.059 A 
ATOM     88  C   UNL     1       4.858  -7.768  14.163  1.00  0.00     0.059 A 
ATOM     89  F   UNL     1       3.961  -6.172  12.696  1.00  0.00    -0.206 F 
ATOM     90  C   UNL     1       5.473  -9.005  14.358  1.00  0.00     0.060 A 
BRANCH  90  91
ATOM     91  S   UNL     1       5.804  -9.598  16.031  1.00  0.00     0.124 S 
ATOM     92  O   UNL     1       4.717 -10.552  16.223  1.00  0.00    -0.237 OA
ATOM     93  O   UNL     1       7.139 -10.176  15.905  1.00  0.00    -0.237 OA
ATOM     94  O   UNL     1       5.727  -8.386  16.841  1.00  0.00    -0.744 OA
ENDBRANCH  90  91
ENDBRANCH  58  83
ENDBRANCH  32  33
ENDBRANCH  25  27
ENDBRANCH  24  25
ENDBRANCH   1  24
TORSDOF 16
