REMARK SMILES CCN(CC)c1ccc([C@@H]2c3[nH]c4ccccc4c3C[C@@H](C(=O)OCCOC(=O)c3ccc(-c4c5nc(c(-c6c(F)cc(S(=O)(=O)[O-])cc6F)c6ccc([nH]6)c(-c6c(F)cc(S(=O)(=O)[O-])cc6F)c6nc(c(-c7c(F)cc(S(=O)(=O)[O-])cc7F)c7ccc4[nH]7)C=C6)C=C5)cc3)N2C(C)=O)cc1
REMARK SMILES IDX 25 1 24 2 22 3 23 4 21 5 10 6 11 7 96 8 12 9 19 10 13 11
REMARK SMILES IDX 18 13 20 14 14 15 17 16 15 17 16 18 9 19 6 20 7 21 101 22
REMARK SMILES IDX 8 23 100 24 3 25 2 26 1 27 4 28 5 29 97 30 98 31 99 32 26 33
REMARK SMILES IDX 27 34 28 35 29 36 30 37 31 38 95 39 32 40 94 41 33 42 34 43
REMARK SMILES IDX 35 44 88 45 36 46 93 47 87 48 89 49 37 50 92 51 86 52 85 53
REMARK SMILES IDX 38 55 72 56 51 57 71 58 52 59 55 60 70 61 90 62 53 63 54 64
REMARK SMILES IDX 69 66 91 67 56 68 39 69 40 70 49 71 41 72 42 73 48 74 50 75
REMARK SMILES IDX 43 76 44 77 45 78 46 79 47 80 73 81 74 82 83 83 75 84 76 85
REMARK SMILES IDX 82 86 84 87 77 88 78 89 79 90 80 91 81 92 57 93 58 94 67 95
REMARK SMILES IDX 59 96 60 97 66 98 68 99 61 100 62 101 63 102 64 103 65 104
REMARK H PARENT 12 12 89 54 55 65
REMARK Flexibility Score: inf
ROOT
ATOM      1  C   UNL     1       8.185   3.973  -2.658  1.00  0.00     0.274 C 
ENDROOT
BRANCH   1   2
ATOM      2  O   UNL     1       7.931   2.588  -2.960  1.00  0.00    -0.461 OA
BRANCH   2   3
ATOM      3  C   UNL     1       8.950   1.706  -3.058  1.00  0.00     0.329 C 
ATOM      4  O   UNL     1      10.105   1.968  -2.741  1.00  0.00    -0.250 OA
BRANCH   3   5
ATOM      5  C   UNL     1       8.555   0.448  -3.895  1.00  0.00     0.200 C 
ATOM      6  C   UNL     1       6.070   0.828  -4.033  1.00  0.00     0.163 C 
ATOM      7  C   UNL     1       6.391   1.532  -5.331  1.00  0.00     0.047 A 
ATOM      8  N   UNL     1       7.165  -0.152  -3.915  1.00  0.00    -0.316 N 
ATOM      9  N   UNL     1       5.523   2.188  -6.157  1.00  0.00    -0.356 N 
ATOM     10  C   UNL     1       7.635   1.527  -5.963  1.00  0.00    -0.014 A 
ATOM     11  C   UNL     1       6.036   2.127  -7.437  1.00  0.00     0.046 A 
ATOM     12  H   UNL     1       4.683   2.625  -5.888  1.00  0.00     0.166 HD
ATOM     13  C   UNL     1       7.394   1.825  -7.323  1.00  0.00     0.003 A 
ATOM     14  C   UNL     1       8.871   0.919  -5.349  1.00  0.00     0.075 C 
ATOM     15  C   UNL     1       5.396   2.242  -8.671  1.00  0.00     0.026 A 
ATOM     16  C   UNL     1       8.177   1.703  -8.483  1.00  0.00     0.010 A 
ATOM     17  C   UNL     1       6.171   2.009  -9.812  1.00  0.00     0.002 A 
ATOM     18  C   UNL     1       7.542   1.764  -9.724  1.00  0.00     0.001 A 
BRANCH   6  19
ATOM     19  C   UNL     1       4.677   0.300  -3.726  1.00  0.00    -0.019 A 
ATOM     20  C   UNL     1       2.006  -0.245  -2.881  1.00  0.00     0.037 A 
ATOM     21  C   UNL     1       2.321  -0.013  -4.222  1.00  0.00     0.026 A 
ATOM     22  C   UNL     1       3.083  -0.356  -2.000  1.00  0.00     0.026 A 
ATOM     23  C   UNL     1       3.632   0.237  -4.644  1.00  0.00     0.008 A 
ATOM     24  C   UNL     1       4.392  -0.095  -2.410  1.00  0.00     0.008 A 
BRANCH  20  25
ATOM     25  N   UNL     1       0.702  -0.309  -2.422  1.00  0.00    -0.372 N 
BRANCH  25  26
ATOM     26  C   UNL     1       0.287   0.631  -1.373  1.00  0.00     0.113 C 
ATOM     27  C   UNL     1       0.430   0.055   0.027  1.00  0.00     0.027 C 
ENDBRANCH  25  26
BRANCH  25  28
ATOM     28  C   UNL     1      -0.329  -1.089  -3.106  1.00  0.00     0.113 C 
ATOM     29  C   UNL     1      -0.916  -0.377  -4.319  1.00  0.00     0.027 C 
ENDBRANCH  25  28
ENDBRANCH  20  25
ENDBRANCH   6  19
BRANCH   8  30
ATOM     30  C   UNL     1       6.962  -1.351  -4.639  1.00  0.00     0.221 C 
ATOM     31  C   UNL     1       8.039  -2.397  -4.580  1.00  0.00     0.114 C 
ATOM     32  O   UNL     1       5.983  -1.570  -5.355  1.00  0.00    -0.275 OA
ENDBRANCH   8  30
ENDBRANCH   3   5
ENDBRANCH   2   3
ENDBRANCH   1   2
BRANCH   1  33
ATOM     33  C   UNL     1       6.870   4.565  -2.147  1.00  0.00     0.275 C 
BRANCH  33  34
ATOM     34  O   UNL     1       6.649   3.994  -0.847  1.00  0.00    -0.458 OA
BRANCH  34  35
ATOM     35  C   UNL     1       5.567   3.204  -0.706  1.00  0.00     0.338 C 
ATOM     36  O   UNL     1       4.549   3.188  -1.390  1.00  0.00    -0.246 OA
BRANCH  35  37
ATOM     37  C   UNL     1       5.907   2.231   0.336  1.00  0.00     0.060 A 
ATOM     38  C   UNL     1       6.853   1.246   0.029  1.00  0.00     0.016 A 
ATOM     39  C   UNL     1       5.331   2.297   1.601  1.00  0.00     0.016 A 
ATOM     40  C   UNL     1       7.238   0.322   0.988  1.00  0.00     0.010 A 
ATOM     41  C   UNL     1       5.749   1.391   2.579  1.00  0.00     0.010 A 
ATOM     42  C   UNL     1       6.704   0.400   2.278  1.00  0.00    -0.014 A 
BRANCH  42  43
ATOM     43  C   UNL     1       7.130  -0.581   3.300  1.00  0.00     0.031 A 
ATOM     44  C   UNL     1       6.168  -1.635   3.759  1.00  0.00     0.074 A 
ATOM     45  C   UNL     1       8.384  -0.531   3.791  1.00  0.00     0.049 A 
ATOM     46  N   UNL     1       6.304  -2.520   4.710  1.00  0.00    -0.248 NA
ATOM     47  C   UNL     1       4.877  -1.697   3.054  1.00  0.00     0.031 C 
ATOM     48  C   UNL     1       9.416   0.425   3.379  1.00  0.00     0.029 A 
ATOM     49  N   UNL     1       9.004  -1.300   4.741  1.00  0.00    -0.354 N 
ATOM     50  C   UNL     1       5.108  -3.226   4.742  1.00  0.00     0.074 A 
ATOM     51  C   UNL     1       4.253  -2.658   3.721  1.00  0.00     0.031 C 
ATOM     52  C   UNL     1      10.542   0.179   4.069  1.00  0.00     0.029 A 
ATOM     53  C   UNL     1      10.297  -0.913   5.004  1.00  0.00     0.049 A 
ATOM     54  H   UNL     1       8.565  -2.057   5.192  1.00  0.00     0.167 HD
ATOM     55  C   UNL     1       4.760  -4.253   5.552  1.00  0.00     0.037 A 
ATOM     56  C   UNL     1      11.174  -1.373   5.917  1.00  0.00     0.037 A 
ATOM     57  C   UNL     1       5.630  -4.817   6.552  1.00  0.00     0.049 A 
ATOM     58  C   UNL     1      10.753  -2.499   6.821  1.00  0.00     0.074 A 
ATOM     59  C   UNL     1       5.374  -5.850   7.436  1.00  0.00     0.029 A 
ATOM     60  N   UNL     1       6.931  -4.397   6.794  1.00  0.00    -0.354 N 
ATOM     61  N   UNL     1       9.605  -3.133   6.867  1.00  0.00    -0.248 NA
ATOM     62  C   UNL     1      11.745  -2.973   7.795  1.00  0.00     0.031 C 
ATOM     63  C   UNL     1       6.511  -6.035   8.232  1.00  0.00     0.029 A 
ATOM     64  C   UNL     1       7.490  -5.146   7.816  1.00  0.00     0.049 A 
ATOM     65  H   UNL     1       7.389  -3.672   6.310  1.00  0.00     0.167 HD
ATOM     66  C   UNL     1       9.742  -4.094   7.862  1.00  0.00     0.074 A 
ATOM     67  C   UNL     1      11.091  -3.967   8.378  1.00  0.00     0.031 C 
ATOM     68  C   UNL     1       8.836  -5.000   8.309  1.00  0.00     0.037 A 
BRANCH  55  69
ATOM     69  C   UNL     1       3.368  -4.802   5.409  1.00  0.00     0.058 A 
ATOM     70  C   UNL     1       2.986  -5.580   4.304  1.00  0.00     0.135 A 
ATOM     71  C   UNL     1       2.402  -4.548   6.396  1.00  0.00     0.135 A 
ATOM     72  F   UNL     1       3.864  -5.833   3.321  1.00  0.00    -0.206 F 
ATOM     73  C   UNL     1       1.688  -6.062   4.168  1.00  0.00     0.059 A 
ATOM     74  C   UNL     1       1.104  -5.040   6.293  1.00  0.00     0.059 A 
ATOM     75  F   UNL     1       2.712  -3.805   7.470  1.00  0.00    -0.206 F 
ATOM     76  C   UNL     1       0.752  -5.783   5.167  1.00  0.00     0.060 A 
BRANCH  76  77
ATOM     77  S   UNL     1      -0.931  -6.408   4.978  1.00  0.00     0.124 S 
ATOM     78  O   UNL     1      -1.468  -5.499   3.969  1.00  0.00    -0.237 OA
ATOM     79  O   UNL     1      -0.709  -7.782   4.538  1.00  0.00    -0.237 OA
ATOM     80  O   UNL     1      -1.498  -6.266   6.315  1.00  0.00    -0.744 OA
ENDBRANCH  76  77
ENDBRANCH  55  69
BRANCH  56  81
ATOM     81  C   UNL     1      12.524  -0.761   6.028  1.00  0.00     0.058 A 
ATOM     82  C   UNL     1      13.673  -1.463   5.635  1.00  0.00     0.135 A 
ATOM     83  C   UNL     1      12.693   0.545   6.516  1.00  0.00     0.135 A 
ATOM     84  F   UNL     1      13.565  -2.717   5.170  1.00  0.00    -0.206 F 
ATOM     85  C   UNL     1      14.941  -0.900   5.734  1.00  0.00     0.059 A 
ATOM     86  C   UNL     1      13.948   1.139   6.601  1.00  0.00     0.059 A 
ATOM     87  F   UNL     1      11.625   1.265   6.893  1.00  0.00    -0.206 F 
ATOM     88  C   UNL     1      15.069   0.404   6.216  1.00  0.00     0.060 A 
BRANCH  88  89
ATOM     89  S   UNL     1      16.713   1.148   6.290  1.00  0.00     0.124 S 
ATOM     90  O   UNL     1      17.278   0.495   7.464  1.00  0.00    -0.237 OA
ATOM     91  O   UNL     1      17.286   0.759   5.005  1.00  0.00    -0.237 OA
ATOM     92  O   UNL     1      16.428   2.573   6.433  1.00  0.00    -0.744 OA
ENDBRANCH  88  89
ENDBRANCH  56  81
BRANCH  68  93
ATOM     93  C   UNL     1       9.298  -5.944   9.383  1.00  0.00     0.058 A 
ATOM     94  C   UNL     1       9.484  -5.521  10.708  1.00  0.00     0.135 A 
ATOM     95  C   UNL     1       9.551  -7.291   9.080  1.00  0.00     0.135 A 
ATOM     96  F   UNL     1       9.260  -4.241  11.047  1.00  0.00    -0.206 F 
ATOM     97  C   UNL     1       9.946  -6.392  11.689  1.00  0.00     0.059 A 
ATOM     98  C   UNL     1       9.989  -8.186  10.050  1.00  0.00     0.059 A 
ATOM     99  F   UNL     1       9.376  -7.748   7.830  1.00  0.00    -0.206 F 
ATOM    100  C   UNL     1      10.204  -7.721  11.348  1.00  0.00     0.060 A 
BRANCH 100 101
ATOM    101  S   UNL     1      10.812  -8.845  12.623  1.00  0.00     0.124 S 
ATOM    102  O   UNL     1      12.220  -8.469  12.696  1.00  0.00    -0.237 OA
ATOM    103  O   UNL     1       9.997  -8.482  13.779  1.00  0.00    -0.237 OA
ATOM    104  O   UNL     1      10.542 -10.166  12.065  1.00  0.00    -0.744 OA
ENDBRANCH 100 101
ENDBRANCH  68  93
ENDBRANCH  42  43
ENDBRANCH  35  37
ENDBRANCH  34  35
ENDBRANCH  33  34
ENDBRANCH   1  33
TORSDOF 19
