REMARK SMILES COc1cccc([C@@H]2C[N@@H+](Cc3nccn3C)C[C@H]2C(=O)OCCOC(=O)c2ccc(-c3c4nc(c(-c5c(F)cc(S(=O)(=O)[O-])cc5F)c5ccc([nH]5)c(-c5c(F)cc(S(=O)(=O)[O-])cc5F)c5nc(c(-c6c(F)cc(S(=O)(=O)[O-])cc6F)c6ccc3[nH]6)C=C5)C=C4)cc2)c1
REMARK SMILES IDX 24 1 23 2 22 3 20 4 21 5 19 6 8 7 9 8 10 9 18 10 7 12 3 13
REMARK SMILES IDX 4 14 94 15 5 16 6 17 2 18 1 19 11 20 12 21 13 22 16 23 14 24
REMARK SMILES IDX 15 25 17 26 25 27 26 28 27 29 28 30 29 31 93 32 30 33 92 34
REMARK SMILES IDX 31 35 32 36 33 37 86 38 34 39 91 40 85 41 87 42 35 43 90 44
REMARK SMILES IDX 84 45 83 46 36 48 70 49 49 50 69 51 50 52 53 53 68 54 88 55
REMARK SMILES IDX 51 56 52 57 67 59 89 60 54 61 37 62 38 63 47 64 39 65 40 66
REMARK SMILES IDX 46 67 48 68 41 69 42 70 43 71 44 72 45 73 71 74 72 75 81 76
REMARK SMILES IDX 73 77 74 78 80 79 82 80 75 81 76 82 77 83 78 84 79 85 55 86
REMARK SMILES IDX 56 87 65 88 57 89 58 90 64 91 66 92 59 93 60 94 61 95 62 96
REMARK SMILES IDX 63 97
REMARK H PARENT 10 11 87 47 53 58
REMARK Flexibility Score: inf
ROOT
ATOM      1  C   UNL     1       2.671   1.058  -7.413  1.00  0.00     0.275 C 
ENDROOT
BRANCH   1   2
ATOM      2  C   UNL     1       4.092   0.697  -7.000  1.00  0.00     0.274 C 
BRANCH   2   3
ATOM      3  O   UNL     1       4.062  -0.214  -5.878  1.00  0.00    -0.462 OA
BRANCH   3   4
ATOM      4  C   UNL     1       4.798   0.133  -4.795  1.00  0.00     0.315 C 
ATOM      5  O   UNL     1       5.471   1.157  -4.724  1.00  0.00    -0.252 OA
BRANCH   4   6
ATOM      6  C   UNL     1       4.766  -0.872  -3.659  1.00  0.00     0.167 C 
ATOM      7  C   UNL     1       3.979  -2.173  -3.858  1.00  0.00     0.094 C 
ATOM      8  C   UNL     1       4.884  -3.235  -3.214  1.00  0.00     0.272 C 
ATOM      9  N   UNL     1       6.262  -2.775  -3.427  1.00  0.00    -0.327 N 
ATOM     10  C   UNL     1       6.212  -1.313  -3.402  1.00  0.00     0.278 C 
ATOM     11  H   UNL     1       6.870  -3.114  -2.682  1.00  0.00     0.348 HD
BRANCH   7  12
ATOM     12  C   UNL     1       2.564  -2.225  -3.305  1.00  0.00    -0.035 A 
ATOM     13  C   UNL     1       0.946  -2.102  -1.484  1.00  0.00     0.119 A 
ATOM     14  C   UNL     1      -0.052  -2.579  -2.331  1.00  0.00     0.046 A 
ATOM     15  C   UNL     1       2.251  -1.928  -1.964  1.00  0.00     0.050 A 
ATOM     16  C   UNL     1       0.237  -2.858  -3.663  1.00  0.00     0.004 A 
ATOM     17  C   UNL     1       1.534  -2.684  -4.144  1.00  0.00     0.004 A 
BRANCH  13  18
ATOM     18  O   UNL     1       0.574  -1.939  -0.178  1.00  0.00    -0.497 OA
ATOM     19  C   UNL     1       1.078  -0.765   0.449  1.00  0.00     0.278 C 
ENDBRANCH  13  18
ENDBRANCH   7  12
BRANCH   9  20
ATOM     20  C   UNL     1       6.934  -3.362  -4.599  1.00  0.00     0.339 C 
BRANCH  20  21
ATOM     21  C   UNL     1       6.185  -3.344  -5.904  1.00  0.00     0.164 A 
ATOM     22  N   UNL     1       5.247  -4.215  -6.242  1.00  0.00    -0.236 NA
ATOM     23  N   UNL     1       6.376  -2.441  -6.926  1.00  0.00    -0.333 N 
ATOM     24  C   UNL     1       4.783  -3.828  -7.467  1.00  0.00     0.131 A 
ATOM     25  C   UNL     1       5.470  -2.728  -7.914  1.00  0.00     0.107 A 
ATOM     26  C   UNL     1       7.344  -1.375  -6.991  1.00  0.00     0.151 C 
ENDBRANCH  20  21
ENDBRANCH   9  20
ENDBRANCH   4   6
ENDBRANCH   3   4
ENDBRANCH   2   3
ENDBRANCH   1   2
BRANCH   1  27
ATOM     27  O   UNL     1       2.056   1.744  -6.314  1.00  0.00    -0.458 OA
BRANCH  27  28
ATOM     28  C   UNL     1       1.069   1.065  -5.688  1.00  0.00     0.338 C 
ATOM     29  O   UNL     1       0.503   0.055  -6.061  1.00  0.00    -0.246 OA
BRANCH  28  30
ATOM     30  C   UNL     1       0.838   1.718  -4.394  1.00  0.00     0.060 A 
ATOM     31  C   UNL     1       1.754   1.497  -3.369  1.00  0.00     0.016 A 
ATOM     32  C   UNL     1      -0.306   2.480  -4.174  1.00  0.00     0.016 A 
ATOM     33  C   UNL     1       1.507   1.989  -2.095  1.00  0.00     0.010 A 
ATOM     34  C   UNL     1      -0.536   3.007  -2.899  1.00  0.00     0.010 A 
ATOM     35  C   UNL     1       0.346   2.729  -1.838  1.00  0.00    -0.014 A 
BRANCH  35  36
ATOM     36  C   UNL     1       0.003   3.098  -0.439  1.00  0.00     0.031 A 
ATOM     37  C   UNL     1      -1.214   2.488   0.209  1.00  0.00     0.074 A 
ATOM     38  C   UNL     1       0.806   3.911   0.273  1.00  0.00     0.049 A 
ATOM     39  N   UNL     1      -1.752   2.753   1.372  1.00  0.00    -0.248 NA
ATOM     40  C   UNL     1      -1.914   1.438  -0.550  1.00  0.00     0.031 C 
ATOM     41  C   UNL     1       2.054   4.505  -0.211  1.00  0.00     0.029 A 
ATOM     42  N   UNL     1       0.700   4.369   1.563  1.00  0.00    -0.354 N 
ATOM     43  C   UNL     1      -2.877   1.940   1.463  1.00  0.00     0.074 A 
ATOM     44  C   UNL     1      -2.945   1.173   0.239  1.00  0.00     0.031 C 
ATOM     45  C   UNL     1       2.607   5.229   0.775  1.00  0.00     0.029 A 
ATOM     46  C   UNL     1       1.721   5.210   1.935  1.00  0.00     0.049 A 
ATOM     47  H   UNL     1      -0.038   4.118   2.164  1.00  0.00     0.167 HD
ATOM     48  C   UNL     1      -3.771   1.844   2.476  1.00  0.00     0.037 A 
ATOM     49  C   UNL     1       1.905   5.918   3.067  1.00  0.00     0.037 A 
ATOM     50  C   UNL     1      -3.676   2.581   3.710  1.00  0.00     0.049 A 
ATOM     51  C   UNL     1       0.877   5.829   4.160  1.00  0.00     0.074 A 
ATOM     52  C   UNL     1      -4.536   2.563   4.794  1.00  0.00     0.029 A 
ATOM     53  N   UNL     1      -2.649   3.457   4.029  1.00  0.00    -0.354 N 
ATOM     54  N   UNL     1      -0.222   5.112   4.202  1.00  0.00    -0.248 NA
ATOM     55  C   UNL     1       1.103   6.655   5.353  1.00  0.00     0.031 C 
ATOM     56  C   UNL     1      -4.045   3.453   5.757  1.00  0.00     0.029 A 
ATOM     57  C   UNL     1      -2.857   3.993   5.289  1.00  0.00     0.049 A 
ATOM     58  H   UNL     1      -1.884   3.667   3.446  1.00  0.00     0.167 HD
ATOM     59  C   UNL     1      -0.814   5.395   5.428  1.00  0.00     0.074 A 
ATOM     60  C   UNL     1       0.061   6.331   6.106  1.00  0.00     0.031 C 
ATOM     61  C   UNL     1      -1.978   4.928   5.944  1.00  0.00     0.037 A 
BRANCH  48  62
ATOM     62  C   UNL     1      -4.955   0.939   2.274  1.00  0.00     0.058 A 
ATOM     63  C   UNL     1      -4.841  -0.459   2.321  1.00  0.00     0.135 A 
ATOM     64  C   UNL     1      -6.229   1.484   2.048  1.00  0.00     0.135 A 
ATOM     65  F   UNL     1      -3.643  -1.033   2.513  1.00  0.00    -0.206 F 
ATOM     66  C   UNL     1      -5.944  -1.285   2.127  1.00  0.00     0.059 A 
ATOM     67  C   UNL     1      -7.350   0.678   1.875  1.00  0.00     0.059 A 
ATOM     68  F   UNL     1      -6.394   2.816   1.990  1.00  0.00    -0.206 F 
ATOM     69  C   UNL     1      -7.195  -0.707   1.902  1.00  0.00     0.060 A 
BRANCH  69  70
ATOM     70  S   UNL     1      -8.621  -1.787   1.654  1.00  0.00     0.124 S 
ATOM     71  O   UNL     1      -8.391  -2.265   0.294  1.00  0.00    -0.237 OA
ATOM     72  O   UNL     1      -8.453  -2.778   2.711  1.00  0.00    -0.237 OA
ATOM     73  O   UNL     1      -9.760  -0.889   1.818  1.00  0.00    -0.744 OA
ENDBRANCH  69  70
ENDBRANCH  48  62
BRANCH  49  74
ATOM     74  C   UNL     1       3.093   6.803   3.203  1.00  0.00     0.058 A 
ATOM     75  C   UNL     1       4.125   6.502   4.102  1.00  0.00     0.135 A 
ATOM     76  C   UNL     1       3.225   7.961   2.420  1.00  0.00     0.135 A 
ATOM     77  F   UNL     1       4.039   5.414   4.883  1.00  0.00    -0.206 F 
ATOM     78  C   UNL     1       5.247   7.317   4.224  1.00  0.00     0.059 A 
ATOM     79  C   UNL     1       4.348   8.777   2.503  1.00  0.00     0.059 A 
ATOM     80  F   UNL     1       2.269   8.289   1.537  1.00  0.00    -0.206 F 
ATOM     81  C   UNL     1       5.351   8.450   3.414  1.00  0.00     0.060 A 
BRANCH  81  82
ATOM     82  S   UNL     1       6.841   9.466   3.523  1.00  0.00     0.124 S 
ATOM     83  O   UNL     1       6.597  10.214   4.751  1.00  0.00    -0.237 OA
ATOM     84  O   UNL     1       7.897   8.461   3.585  1.00  0.00    -0.237 OA
ATOM     85  O   UNL     1       6.803  10.246   2.289  1.00  0.00    -0.744 OA
ENDBRANCH  81  82
ENDBRANCH  49  74
BRANCH  61  86
ATOM     86  C   UNL     1      -2.356   5.410   7.316  1.00  0.00     0.058 A 
ATOM     87  C   UNL     1      -2.828   6.714   7.532  1.00  0.00     0.135 A 
ATOM     88  C   UNL     1      -2.257   4.554   8.424  1.00  0.00     0.135 A 
ATOM     89  F   UNL     1      -2.935   7.573   6.506  1.00  0.00    -0.206 F 
ATOM     90  C   UNL     1      -3.156   7.165   8.806  1.00  0.00     0.059 A 
ATOM     91  C   UNL     1      -2.602   4.976   9.703  1.00  0.00     0.059 A 
ATOM     92  F   UNL     1      -1.822   3.293   8.268  1.00  0.00    -0.206 F 
ATOM     93  C   UNL     1      -3.033   6.289   9.887  1.00  0.00     0.060 A 
BRANCH  93  94
ATOM     94  S   UNL     1      -3.458   6.882  11.539  1.00  0.00     0.124 S 
ATOM     95  O   UNL     1      -2.279   7.673  11.877  1.00  0.00    -0.237 OA
ATOM     96  O   UNL     1      -4.681   7.641  11.297  1.00  0.00    -0.237 OA
ATOM     97  O   UNL     1      -3.632   5.652  12.305  1.00  0.00    -0.744 OA
ENDBRANCH  93  94
ENDBRANCH  61  86
ENDBRANCH  35  36
ENDBRANCH  28  30
ENDBRANCH  27  28
ENDBRANCH   1  27
TORSDOF 18
