REMARK SMILES O=C(OCCOC(=O)[C@@H](Cc1ccccc1)N1C(=O)/C(=C/c2ccc3ncccc3c2)SC1=S)c1ccc(-c2c3nc(c(-c4c(F)cc(S(=O)(=O)[O-])cc4F)c4ccc([nH]4)c(-c4c(F)cc(S(=O)(=O)[O-])cc4F)c4nc(c(-c5c(F)cc(S(=O)(=O)[O-])cc5F)c5ccc2[nH]5)C=C4)C=C3)cc1
REMARK SMILES IDX 4 1 3 2 2 3 1 4 35 5 36 6 100 7 37 8 99 9 38 10 39 11 40 12
REMARK SMILES IDX 93 13 41 14 98 15 92 16 94 17 42 18 97 19 91 20 90 21 43 23
REMARK SMILES IDX 77 24 56 25 76 26 57 27 60 28 75 29 95 30 58 31 59 32 74 34
REMARK SMILES IDX 96 35 61 36 44 37 45 38 54 39 46 40 47 41 53 42 55 43 48 44
REMARK SMILES IDX 49 45 50 46 51 47 52 48 78 49 79 50 88 51 80 52 81 53 87 54
REMARK SMILES IDX 89 55 82 56 83 57 84 58 85 59 86 60 62 61 63 62 72 63 64 64
REMARK SMILES IDX 65 65 71 66 73 67 66 68 67 69 68 70 69 71 70 72 5 73 6 74
REMARK SMILES IDX 7 75 8 76 9 77 10 78 11 79 12 80 16 81 13 82 15 83 14 84
REMARK SMILES IDX 17 85 18 86 33 87 19 88 20 89 32 90 34 91 21 92 22 93 23 94
REMARK SMILES IDX 31 95 24 96 30 97 25 98 29 99 26 100 28 101 27 102
REMARK H PARENT 94 22 60 33
REMARK Flexibility Score: inf
ROOT
ATOM      1  C   UNL     1       3.988  -0.081   1.381  1.00  0.00     0.275 C 
ENDROOT
BRANCH   1   2
ATOM      2  O   UNL     1       2.628   0.385   1.175  1.00  0.00    -0.458 OA
BRANCH   2   3
ATOM      3  C   UNL     1       2.138   1.486   0.546  1.00  0.00     0.338 C 
ATOM      4  O   UNL     1       1.050   1.938   0.894  1.00  0.00    -0.246 OA
BRANCH   3   5
ATOM      5  C   UNL     1       2.736   2.028  -0.714  1.00  0.00     0.060 A 
ATOM      6  C   UNL     1       4.048   2.469  -0.841  1.00  0.00     0.016 A 
ATOM      7  C   UNL     1       1.898   2.160  -1.842  1.00  0.00     0.016 A 
ATOM      8  C   UNL     1       4.539   2.873  -2.110  1.00  0.00     0.010 A 
ATOM      9  C   UNL     1       2.393   2.570  -3.110  1.00  0.00     0.010 A 
ATOM     10  C   UNL     1       3.748   2.873  -3.293  1.00  0.00    -0.014 A 
BRANCH  10  11
ATOM     11  C   UNL     1       4.334   3.268  -4.650  1.00  0.00     0.031 A 
ATOM     12  C   UNL     1       5.037   4.594  -4.744  1.00  0.00     0.074 A 
ATOM     13  C   UNL     1       4.484   2.491  -5.762  1.00  0.00     0.049 A 
ATOM     14  N   UNL     1       5.879   4.997  -5.660  1.00  0.00    -0.248 NA
ATOM     15  C   UNL     1       4.876   5.514  -3.613  1.00  0.00     0.031 C 
ATOM     16  C   UNL     1       4.250   1.063  -5.855  1.00  0.00     0.029 A 
ATOM     17  N   UNL     1       4.982   2.774  -7.036  1.00  0.00    -0.354 N 
ATOM     18  C   UNL     1       6.434   6.159  -5.168  1.00  0.00     0.074 A 
ATOM     19  C   UNL     1       5.824   6.401  -3.873  1.00  0.00     0.031 C 
ATOM     20  C   UNL     1       4.590   0.604  -7.063  1.00  0.00     0.029 A 
ATOM     21  C   UNL     1       4.961   1.700  -7.909  1.00  0.00     0.049 A 
ATOM     22  H   UNL     1       5.321   3.662  -7.291  1.00  0.00     0.167 HD
ATOM     23  C   UNL     1       7.353   6.968  -5.740  1.00  0.00     0.037 A 
ATOM     24  C   UNL     1       5.217   1.519  -9.222  1.00  0.00     0.037 A 
ATOM     25  C   UNL     1       7.831   6.882  -7.092  1.00  0.00     0.049 A 
ATOM     26  C   UNL     1       5.911   2.608  -9.958  1.00  0.00     0.074 A 
ATOM     27  C   UNL     1       8.622   7.797  -7.767  1.00  0.00     0.029 A 
ATOM     28  N   UNL     1       7.505   5.891  -8.005  1.00  0.00    -0.354 N 
ATOM     29  N   UNL     1       6.453   3.680  -9.448  1.00  0.00    -0.248 NA
ATOM     30  C   UNL     1       6.108   2.448 -11.406  1.00  0.00     0.031 C 
ATOM     31  C   UNL     1       8.690   7.416  -9.110  1.00  0.00     0.029 A 
ATOM     32  C   UNL     1       8.006   6.223  -9.259  1.00  0.00     0.049 A 
ATOM     33  H   UNL     1       6.996   5.074  -7.797  1.00  0.00     0.167 HD
ATOM     34  C   UNL     1       7.099   4.300 -10.499  1.00  0.00     0.074 A 
ATOM     35  C   UNL     1       6.894   3.482 -11.675  1.00  0.00     0.031 C 
ATOM     36  C   UNL     1       7.811   5.447 -10.457  1.00  0.00     0.037 A 
BRANCH  23  37
ATOM     37  C   UNL     1       7.748   8.140  -4.907  1.00  0.00     0.058 A 
ATOM     38  C   UNL     1       8.654   8.019  -3.842  1.00  0.00     0.135 A 
ATOM     39  C   UNL     1       7.094   9.364  -5.103  1.00  0.00     0.135 A 
ATOM     40  F   UNL     1       9.265   6.848  -3.598  1.00  0.00    -0.206 F 
ATOM     41  C   UNL     1       8.863   9.074  -2.964  1.00  0.00     0.059 A 
ATOM     42  C   UNL     1       7.299  10.432  -4.246  1.00  0.00     0.059 A 
ATOM     43  F   UNL     1       6.198   9.499  -6.092  1.00  0.00    -0.206 F 
ATOM     44  C   UNL     1       8.164  10.268  -3.165  1.00  0.00     0.060 A 
BRANCH  44  45
ATOM     45  S   UNL     1       8.348  11.589  -1.954  1.00  0.00     0.124 S 
ATOM     46  O   UNL     1       7.610  11.041  -0.820  1.00  0.00    -0.237 OA
ATOM     47  O   UNL     1       9.796  11.664  -1.793  1.00  0.00    -0.237 OA
ATOM     48  O   UNL     1       7.730  12.737  -2.609  1.00  0.00    -0.744 OA
ENDBRANCH  44  45
ENDBRANCH  23  37
BRANCH  24  49
ATOM     49  C   UNL     1       4.775   0.290  -9.964  1.00  0.00     0.058 A 
ATOM     50  C   UNL     1       5.674  -0.593 -10.586  1.00  0.00     0.135 A 
ATOM     51  C   UNL     1       3.405   0.073 -10.192  1.00  0.00     0.135 A 
ATOM     52  F   UNL     1       6.993  -0.442 -10.396  1.00  0.00    -0.206 F 
ATOM     53  C   UNL     1       5.239  -1.596 -11.458  1.00  0.00     0.059 A 
ATOM     54  C   UNL     1       2.946  -0.930 -11.042  1.00  0.00     0.059 A 
ATOM     55  F   UNL     1       2.492   0.865  -9.609  1.00  0.00    -0.206 F 
ATOM     56  C   UNL     1       3.872  -1.737 -11.702  1.00  0.00     0.060 A 
BRANCH  56  57
ATOM     57  S   UNL     1       3.261  -2.952 -12.897  1.00  0.00     0.124 S 
ATOM     58  O   UNL     1       3.091  -2.126 -14.087  1.00  0.00    -0.237 OA
ATOM     59  O   UNL     1       4.337  -3.933 -12.965  1.00  0.00    -0.237 OA
ATOM     60  O   UNL     1       2.023  -3.418 -12.277  1.00  0.00    -0.744 OA
ENDBRANCH  56  57
ENDBRANCH  24  49
BRANCH  36  61
ATOM     61  C   UNL     1       8.419   5.921 -11.740  1.00  0.00     0.058 A 
ATOM     62  C   UNL     1       7.624   6.405 -12.790  1.00  0.00     0.135 A 
ATOM     63  C   UNL     1       9.812   5.942 -11.903  1.00  0.00     0.135 A 
ATOM     64  F   UNL     1       6.285   6.382 -12.691  1.00  0.00    -0.206 F 
ATOM     65  C   UNL     1       8.189   6.897 -13.959  1.00  0.00     0.059 A 
ATOM     66  C   UNL     1      10.400   6.458 -13.052  1.00  0.00     0.059 A 
ATOM     67  F   UNL     1      10.616   5.479 -10.933  1.00  0.00    -0.206 F 
ATOM     68  C   UNL     1       9.579   6.934 -14.074  1.00  0.00     0.060 A 
BRANCH  68  69
ATOM     69  S   UNL     1      10.300   7.675 -15.553  1.00  0.00     0.124 S 
ATOM     70  O   UNL     1      10.050   6.643 -16.553  1.00  0.00    -0.237 OA
ATOM     71  O   UNL     1       9.520   8.901 -15.696  1.00  0.00    -0.237 OA
ATOM     72  O   UNL     1      11.699   7.871 -15.185  1.00  0.00    -0.744 OA
ENDBRANCH  68  69
ENDBRANCH  36  61
ENDBRANCH  10  11
ENDBRANCH   3   5
ENDBRANCH   2   3
ENDBRANCH   1   2
BRANCH   1  73
ATOM     73  C   UNL     1       4.122  -1.570   1.034  1.00  0.00     0.274 C 
BRANCH  73  74
ATOM     74  O   UNL     1       4.118  -1.720  -0.382  1.00  0.00    -0.461 OA
BRANCH  74  75
ATOM     75  C   UNL     1       2.925  -1.894  -1.008  1.00  0.00     0.329 C 
ATOM     76  O   UNL     1       1.894  -2.288  -0.485  1.00  0.00    -0.250 OA
BRANCH  75  77
ATOM     77  C   UNL     1       3.067  -1.464  -2.465  1.00  0.00     0.206 C 
BRANCH  77  78
ATOM     78  C   UNL     1       4.212  -0.434  -2.631  1.00  0.00     0.073 C 
BRANCH  78  79
ATOM     79  C   UNL     1       5.692  -0.638  -2.856  1.00  0.00    -0.045 A 
ATOM     80  C   UNL     1       6.396  -1.772  -2.476  1.00  0.00     0.004 A 
ATOM     81  C   UNL     1       6.454   0.490  -3.232  1.00  0.00     0.004 A 
ATOM     82  C   UNL     1       7.796  -1.736  -2.381  1.00  0.00     0.000 A 
ATOM     83  C   UNL     1       7.838   0.549  -3.104  1.00  0.00     0.000 A 
ATOM     84  C   UNL     1       8.512  -0.569  -2.653  1.00  0.00     0.000 A 
ENDBRANCH  78  79
ENDBRANCH  77  78
BRANCH  77  85
ATOM     85  N   UNL     1       2.894  -2.401  -3.570  1.00  0.00    -0.278 N 
ATOM     86  C   UNL     1       2.465  -1.861  -4.785  1.00  0.00     0.267 C 
ATOM     87  C   UNL     1       3.289  -3.718  -3.594  1.00  0.00     0.149 C 
ATOM     88  O   UNL     1       1.907  -0.804  -4.941  1.00  0.00    -0.268 OA
ATOM     89  C   UNL     1       2.890  -2.764  -5.884  1.00  0.00     0.081 C 
ATOM     90  S   UNL     1       3.316  -4.300  -5.245  1.00  0.00    -0.054 SA
ATOM     91  S   UNL     1       3.667  -4.732  -2.328  1.00  0.00    -0.052 S 
ATOM     92  C   UNL     1       3.053  -2.338  -7.142  1.00  0.00     0.029 C 
BRANCH  92  93
ATOM     93  C   UNL     1       3.711  -3.177  -8.140  1.00  0.00    -0.024 A 
ATOM     94  C   UNL     1       5.104  -3.275  -8.231  1.00  0.00     0.010 A 
ATOM     95  C   UNL     1       2.910  -4.032  -8.881  1.00  0.00     0.018 A 
ATOM     96  C   UNL     1       5.680  -4.282  -9.015  1.00  0.00     0.029 A 
ATOM     97  C   UNL     1       3.493  -5.058  -9.621  1.00  0.00     0.001 A 
ATOM     98  C   UNL     1       4.896  -5.212  -9.684  1.00  0.00     0.070 A 
ATOM     99  C   UNL     1       2.683  -5.970 -10.291  1.00  0.00     0.012 A 
ATOM    100  N   UNL     1       5.471  -6.236 -10.339  1.00  0.00    -0.256 NA
ATOM    101  C   UNL     1       3.269  -7.002 -11.000  1.00  0.00     0.021 A 
ATOM    102  C   UNL     1       4.650  -7.082 -11.003  1.00  0.00     0.112 A 
ENDBRANCH  92  93
ENDBRANCH  77  85
ENDBRANCH  75  77
ENDBRANCH  74  75
ENDBRANCH  73  74
ENDBRANCH   1  73
TORSDOF 18
