REMARK SMILES CCCc1noc(C2C[NH+](CC(=O)OCCOC(=O)c3ccc(-c4c5nc(c(-c6c(F)cc(S(=O)(=O)[O-])cc6F)c6ccc([nH]6)c(-c6c(F)cc(S(=O)(=O)[O-])cc6F)c6nc(c(-c7c(F)cc(S(=O)(=O)[O-])cc7F)c7ccc4[nH]7)C=C6)C=C5)cc3)C2)n1
REMARK SMILES IDX 15 1 14 2 12 3 13 4 11 5 10 6 8 7 9 8 86 9 7 11 4 12 5 13
REMARK SMILES IDX 87 14 6 15 3 16 2 17 1 18 16 19 17 20 18 21 19 22 20 23
REMARK SMILES IDX 21 24 85 25 22 26 84 27 23 28 24 29 25 30 78 31 26 32 83 33
REMARK SMILES IDX 77 34 79 35 27 36 82 37 76 38 75 39 28 41 62 42 41 43 61 44
REMARK SMILES IDX 42 45 45 46 60 47 80 48 43 49 44 50 59 52 81 53 46 54 29 55
REMARK SMILES IDX 30 56 39 57 31 58 32 59 38 60 40 61 33 62 34 63 35 64 36 65
REMARK SMILES IDX 37 66 63 67 64 68 73 69 65 70 66 71 72 72 74 73 67 74 68 75
REMARK SMILES IDX 69 76 70 77 71 78 47 79 48 80 57 81 49 82 50 83 56 84 58 85
REMARK SMILES IDX 51 86 52 87 53 88 54 89 55 90
REMARK H PARENT 10 10 79 40 45 51
REMARK Flexibility Score: inf
ROOT
ATOM      1  C   UNL     1      -1.503  -5.000  -6.485  1.00  0.00     0.274 C 
ENDROOT
BRANCH   1   2
ATOM      2  O   UNL     1      -0.956  -5.288  -5.177  1.00  0.00    -0.458 OA
BRANCH   2   3
ATOM      3  C   UNL     1       0.240  -5.938  -5.150  1.00  0.00     0.361 C 
ATOM      4  O   UNL     1       0.791  -6.394  -6.147  1.00  0.00    -0.245 OA
BRANCH   3   5
ATOM      5  C   UNL     1       0.790  -6.160  -3.744  1.00  0.00     0.386 C 
BRANCH   5   6
ATOM      6  N   UNL     1       0.996  -5.034  -2.803  1.00  0.00    -0.324 N 
ATOM      7  C   UNL     1       0.388  -3.154  -3.579  1.00  0.00     0.188 C 
ATOM      8  C   UNL     1       1.726  -3.872  -3.351  1.00  0.00     0.282 C 
ATOM      9  C   UNL     1      -0.174  -4.176  -2.562  1.00  0.00     0.282 C 
ATOM     10  H   UNL     1       1.394  -5.585  -2.042  1.00  0.00     0.348 HD
BRANCH   7  11
ATOM     11  C   UNL     1       0.230  -1.712  -3.181  1.00  0.00     0.241 A 
ATOM     12  C   UNL     1       0.469   0.216  -2.411  1.00  0.00     0.171 A 
ATOM     13  N   UNL     1      -0.615   0.339  -3.185  1.00  0.00    -0.062 NA
ATOM     14  N   UNL     1       0.998  -1.050  -2.346  1.00  0.00    -0.196 NA
ATOM     15  O   UNL     1      -0.762  -0.936  -3.720  1.00  0.00    -0.339 OA
BRANCH  12  16
ATOM     16  C   UNL     1       1.048   1.363  -1.675  1.00  0.00     0.081 C 
BRANCH  16  17
ATOM     17  C   UNL     1       0.537   1.470  -0.238  1.00  0.00     0.005 C 
ATOM     18  C   UNL     1       0.972   0.303   0.637  1.00  0.00     0.004 C 
ENDBRANCH  16  17
ENDBRANCH  12  16
ENDBRANCH   7  11
ENDBRANCH   5   6
ENDBRANCH   3   5
ENDBRANCH   2   3
ENDBRANCH   1   2
BRANCH   1  19
ATOM     19  C   UNL     1      -0.971  -3.678  -7.047  1.00  0.00     0.275 C 
BRANCH  19  20
ATOM     20  O   UNL     1       0.441  -3.792  -7.290  1.00  0.00    -0.458 OA
BRANCH  20  21
ATOM     21  C   UNL     1       1.181  -2.681  -7.069  1.00  0.00     0.338 C 
ATOM     22  O   UNL     1       0.770  -1.598  -6.693  1.00  0.00    -0.246 OA
BRANCH  21  23
ATOM     23  C   UNL     1       2.599  -2.954  -7.380  1.00  0.00     0.060 A 
ATOM     24  C   UNL     1       3.239  -4.111  -6.925  1.00  0.00     0.016 A 
ATOM     25  C   UNL     1       3.312  -2.001  -8.109  1.00  0.00     0.016 A 
ATOM     26  C   UNL     1       4.597  -4.307  -7.176  1.00  0.00     0.010 A 
ATOM     27  C   UNL     1       4.654  -2.229  -8.416  1.00  0.00     0.010 A 
ATOM     28  C   UNL     1       5.311  -3.378  -7.944  1.00  0.00    -0.014 A 
BRANCH  28  29
ATOM     29  C   UNL     1       6.734  -3.601  -8.298  1.00  0.00     0.031 A 
ATOM     30  C   UNL     1       7.795  -2.669  -7.787  1.00  0.00     0.074 A 
ATOM     31  C   UNL     1       7.054  -4.590  -9.153  1.00  0.00     0.049 A 
ATOM     32  N   UNL     1       9.053  -2.578  -8.133  1.00  0.00    -0.248 NA
ATOM     33  C   UNL     1       7.377  -1.698  -6.764  1.00  0.00     0.031 C 
ATOM     34  C   UNL     1       6.109  -5.554  -9.720  1.00  0.00     0.029 A 
ATOM     35  N   UNL     1       8.256  -4.925  -9.725  1.00  0.00    -0.354 N 
ATOM     36  C   UNL     1       9.571  -1.516  -7.400  1.00  0.00     0.074 A 
ATOM     37  C   UNL     1       8.485  -0.990  -6.598  1.00  0.00     0.031 C 
ATOM     38  C   UNL     1       6.760  -6.356 -10.575  1.00  0.00     0.029 A 
ATOM     39  C   UNL     1       8.155  -5.932 -10.655  1.00  0.00     0.049 A 
ATOM     40  H   UNL     1       9.106  -4.488  -9.492  1.00  0.00     0.167 HD
ATOM     41  C   UNL     1      10.835  -1.027  -7.401  1.00  0.00     0.037 A 
ATOM     42  C   UNL     1       9.067  -6.430 -11.511  1.00  0.00     0.037 A 
ATOM     43  C   UNL     1      11.908  -1.569  -8.194  1.00  0.00     0.049 A 
ATOM     44  C   UNL     1      10.461  -5.874 -11.501  1.00  0.00     0.074 A 
ATOM     45  C   UNL     1      13.235  -1.179  -8.233  1.00  0.00     0.029 A 
ATOM     46  N   UNL     1      11.774  -2.616  -9.096  1.00  0.00    -0.354 N 
ATOM     47  N   UNL     1      10.945  -4.887 -10.785  1.00  0.00    -0.248 NA
ATOM     48  C   UNL     1      11.431  -6.497 -12.409  1.00  0.00     0.031 C 
ATOM     49  C   UNL     1      13.895  -1.966  -9.185  1.00  0.00     0.029 A 
ATOM     50  C   UNL     1      12.989  -2.873  -9.712  1.00  0.00     0.049 A 
ATOM     51  H   UNL     1      10.938  -3.105  -9.273  1.00  0.00     0.167 HD
ATOM     52  C   UNL     1      12.281  -4.773 -11.150  1.00  0.00     0.074 A 
ATOM     53  C   UNL     1      12.531  -5.803 -12.140  1.00  0.00     0.031 C 
ATOM     54  C   UNL     1      13.215  -3.896 -10.704  1.00  0.00     0.037 A 
BRANCH  41  55
ATOM     55  C   UNL     1      11.106   0.177  -6.541  1.00  0.00     0.058 A 
ATOM     56  C   UNL     1      11.146   0.096  -5.140  1.00  0.00     0.135 A 
ATOM     57  C   UNL     1      11.316   1.436  -7.129  1.00  0.00     0.135 A 
ATOM     58  F   UNL     1      10.939  -1.079  -4.525  1.00  0.00    -0.206 F 
ATOM     59  C   UNL     1      11.336   1.227  -4.350  1.00  0.00     0.059 A 
ATOM     60  C   UNL     1      11.533   2.576  -6.359  1.00  0.00     0.059 A 
ATOM     61  F   UNL     1      11.293   1.571  -8.464  1.00  0.00    -0.206 F 
ATOM     62  C   UNL     1      11.517   2.465  -4.970  1.00  0.00     0.060 A 
BRANCH  62  63
ATOM     63  S   UNL     1      11.719   3.932  -3.937  1.00  0.00     0.124 S 
ATOM     64  O   UNL     1      10.343   4.185  -3.520  1.00  0.00    -0.237 OA
ATOM     65  O   UNL     1      12.621   3.461  -2.890  1.00  0.00    -0.237 OA
ATOM     66  O   UNL     1      12.289   4.915  -4.853  1.00  0.00    -0.744 OA
ENDBRANCH  62  63
ENDBRANCH  41  55
BRANCH  42  67
ATOM     67  C   UNL     1       8.659  -7.503 -12.453  1.00  0.00     0.058 A 
ATOM     68  C   UNL     1       9.028  -8.836 -12.231  1.00  0.00     0.135 A 
ATOM     69  C   UNL     1       7.811  -7.227 -13.537  1.00  0.00     0.135 A 
ATOM     70  F   UNL     1       9.843  -9.146 -11.211  1.00  0.00    -0.206 F 
ATOM     71  C   UNL     1       8.556  -9.864 -13.040  1.00  0.00     0.059 A 
ATOM     72  C   UNL     1       7.310  -8.240 -14.348  1.00  0.00     0.059 A 
ATOM     73  F   UNL     1       7.418  -5.967 -13.780  1.00  0.00    -0.206 F 
ATOM     74  C   UNL     1       7.686  -9.557 -14.089  1.00  0.00     0.060 A 
BRANCH  74  75
ATOM     75  S   UNL     1       6.983 -10.910 -15.058  1.00  0.00     0.124 S 
ATOM     76  O   UNL     1       8.109 -11.279 -15.908  1.00  0.00    -0.237 OA
ATOM     77  O   UNL     1       6.621 -11.875 -14.024  1.00  0.00    -0.237 OA
ATOM     78  O   UNL     1       5.854 -10.283 -15.739  1.00  0.00    -0.744 OA
ENDBRANCH  74  75
ENDBRANCH  42  67
BRANCH  54  79
ATOM     79  C   UNL     1      14.597  -4.021 -11.278  1.00  0.00     0.058 A 
ATOM     80  C   UNL     1      14.897  -3.574 -12.574  1.00  0.00     0.135 A 
ATOM     81  C   UNL     1      15.642  -4.558 -10.509  1.00  0.00     0.135 A 
ATOM     82  F   UNL     1      13.931  -3.061 -13.352  1.00  0.00    -0.206 F 
ATOM     83  C   UNL     1      16.183  -3.673 -13.096  1.00  0.00     0.059 A 
ATOM     84  C   UNL     1      16.939  -4.648 -11.004  1.00  0.00     0.059 A 
ATOM     85  F   UNL     1      15.408  -4.993  -9.261  1.00  0.00    -0.206 F 
ATOM     86  C   UNL     1      17.197  -4.213 -12.303  1.00  0.00     0.060 A 
BRANCH  86  87
ATOM     87  S   UNL     1      18.869  -4.313 -12.979  1.00  0.00     0.124 S 
ATOM     88  O   UNL     1      18.759  -5.468 -13.863  1.00  0.00    -0.237 OA
ATOM     89  O   UNL     1      19.019  -3.020 -13.640  1.00  0.00    -0.237 OA
ATOM     90  O   UNL     1      19.701  -4.504 -11.795  1.00  0.00    -0.744 OA
ENDBRANCH  86  87
ENDBRANCH  54  79
ENDBRANCH  28  29
ENDBRANCH  21  23
ENDBRANCH  20  21
ENDBRANCH  19  20
ENDBRANCH   1  19
TORSDOF 18
