REMARK SMILES COc1cc(/C=C2/SC(=O)N(c3ccc(C)c(C)c3)C2=O)ccc1OCCC(=O)OCCOC(=O)c1ccc(-c2c3nc(c(-c4c(F)cc(S(=O)(=O)[O-])cc4F)c4ccc([nH]4)c(-c4c(F)cc(S(=O)(=O)[O-])cc4F)c4nc(c(-c5c(F)cc(S(=O)(=O)[O-])cc5F)c5ccc2[nH]5)C=C4)C=C3)cc1
REMARK SMILES IDX 31 1 30 2 28 3 29 4 27 5 26 6 25 7 24 8 3 9 4 10 5 11 23 12
REMARK SMILES IDX 22 13 2 14 1 15 6 16 7 17 8 18 20 19 9 20 11 21 21 22 10 23
REMARK SMILES IDX 12 24 13 25 19 26 14 27 17 28 15 29 18 30 16 31 32 32 33 33
REMARK SMILES IDX 34 34 35 35 36 36 37 37 101 38 38 39 100 40 39 41 40 42
REMARK SMILES IDX 41 43 94 44 42 45 99 46 93 47 95 48 43 49 98 50 92 51 91 52
REMARK SMILES IDX 44 54 78 55 57 56 77 57 58 58 61 59 76 60 96 61 59 62 60 63
REMARK SMILES IDX 75 65 97 66 62 67 45 68 46 69 55 70 47 71 48 72 54 73 56 74
REMARK SMILES IDX 49 75 50 76 51 77 52 78 53 79 79 80 80 81 89 82 81 83 82 84
REMARK SMILES IDX 88 85 90 86 83 87 84 88 85 89 86 90 87 91 63 92 64 93 73 94
REMARK SMILES IDX 65 95 66 96 72 97 74 98 67 99 68 100 69 101 70 102 71 103
REMARK H PARENT 95 53 61 64
REMARK Flexibility Score: inf
ROOT
ATOM      1  C   UNL     1      -1.132  -0.878  -2.403  1.00  0.00     0.274 C 
ENDROOT
BRANCH   1   2
ATOM      2  O   UNL     1       0.304  -0.750  -2.284  1.00  0.00    -0.462 OA
BRANCH   2   3
ATOM      3  C   UNL     1       0.795   0.411  -1.780  1.00  0.00     0.309 C 
ATOM      4  O   UNL     1       0.108   1.284  -1.265  1.00  0.00    -0.252 OA
BRANCH   3   5
ATOM      5  C   UNL     1       2.276   0.593  -2.051  1.00  0.00     0.164 C 
BRANCH   5   6
ATOM      6  C   UNL     1       3.256  -0.220  -1.210  1.00  0.00     0.241 C 
BRANCH   6   7
ATOM      7  O   UNL     1       3.715  -1.434  -1.825  1.00  0.00    -0.489 OA
BRANCH   7   8
ATOM      8  C   UNL     1       2.769  -2.415  -1.931  1.00  0.00     0.161 A 
ATOM      9  C   UNL     1       1.994  -2.891  -0.870  1.00  0.00     0.161 A 
ATOM     10  C   UNL     1       0.940  -3.772  -1.128  1.00  0.00     0.058 A 
ATOM     11  C   UNL     1       0.694  -4.214  -2.440  1.00  0.00    -0.020 A 
ATOM     12  C   UNL     1       2.595  -2.936  -3.214  1.00  0.00     0.051 A 
ATOM     13  C   UNL     1       1.556  -3.828  -3.472  1.00  0.00     0.012 A 
BRANCH   9  14
ATOM     14  O   UNL     1       2.361  -2.586   0.414  1.00  0.00    -0.493 OA
ATOM     15  C   UNL     1       1.360  -1.874   1.131  1.00  0.00     0.278 C 
ENDBRANCH   9  14
BRANCH  11  16
ATOM     16  C   UNL     1      -0.376  -5.171  -2.747  1.00  0.00     0.029 C 
ATOM     17  C   UNL     1      -0.310  -6.468  -2.418  1.00  0.00     0.083 C 
ATOM     18  S   UNL     1      -1.450  -7.663  -2.898  1.00  0.00    -0.022 SA
ATOM     19  C   UNL     1       0.805  -7.101  -1.670  1.00  0.00     0.272 C 
ATOM     20  C   UNL     1      -0.466  -8.981  -2.248  1.00  0.00     0.298 C 
ATOM     21  N   UNL     1       0.591  -8.458  -1.546  1.00  0.00    -0.236 N 
ATOM     22  O   UNL     1       1.816  -6.505  -1.321  1.00  0.00    -0.268 OA
ATOM     23  O   UNL     1      -0.754 -10.149  -2.448  1.00  0.00    -0.260 OA
BRANCH  21  24
ATOM     24  C   UNL     1       1.595  -9.228  -0.917  1.00  0.00     0.053 A 
ATOM     25  C   UNL     1       2.097  -8.809   0.321  1.00  0.00     0.027 A 
ATOM     26  C   UNL     1       2.237 -10.257  -1.607  1.00  0.00     0.030 A 
ATOM     27  C   UNL     1       3.242  -9.389   0.850  1.00  0.00     0.006 A 
ATOM     28  C   UNL     1       3.438 -10.799  -1.115  1.00  0.00    -0.046 A 
ATOM     29  C   UNL     1       3.936 -10.374   0.134  1.00  0.00    -0.048 A 
ATOM     30  C   UNL     1       4.199 -11.762  -1.983  1.00  0.00     0.044 C 
ATOM     31  C   UNL     1       5.219 -10.877   0.734  1.00  0.00     0.044 C 
ENDBRANCH  21  24
ENDBRANCH  11  16
ENDBRANCH   7   8
ENDBRANCH   6   7
ENDBRANCH   5   6
ENDBRANCH   3   5
ENDBRANCH   2   3
ENDBRANCH   1   2
BRANCH   1  32
ATOM     32  C   UNL     1      -1.808  -1.541  -1.202  1.00  0.00     0.275 C 
BRANCH  32  33
ATOM     33  O   UNL     1      -1.732  -0.684  -0.061  1.00  0.00    -0.458 OA
BRANCH  33  34
ATOM     34  C   UNL     1      -1.973  -1.286   1.128  1.00  0.00     0.338 C 
ATOM     35  O   UNL     1      -2.314  -2.444   1.297  1.00  0.00    -0.246 OA
BRANCH  34  36
ATOM     36  C   UNL     1      -1.722  -0.322   2.223  1.00  0.00     0.060 A 
ATOM     37  C   UNL     1      -0.790   0.714   2.079  1.00  0.00     0.016 A 
ATOM     38  C   UNL     1      -2.408  -0.481   3.428  1.00  0.00     0.016 A 
ATOM     39  C   UNL     1      -0.541   1.585   3.136  1.00  0.00     0.010 A 
ATOM     40  C   UNL     1      -2.214   0.439   4.457  1.00  0.00     0.010 A 
ATOM     41  C   UNL     1      -1.282   1.481   4.319  1.00  0.00    -0.014 A 
BRANCH  41  42
ATOM     42  C   UNL     1      -1.138   2.485   5.401  1.00  0.00     0.031 A 
ATOM     43  C   UNL     1      -0.676   2.061   6.765  1.00  0.00     0.074 A 
ATOM     44  C   UNL     1      -1.504   3.759   5.160  1.00  0.00     0.049 A 
ATOM     45  N   UNL     1      -0.660   2.739   7.883  1.00  0.00    -0.248 NA
ATOM     46  C   UNL     1      -0.195   0.677   6.893  1.00  0.00     0.031 C 
ATOM     47  C   UNL     1      -1.960   4.276   3.866  1.00  0.00     0.029 A 
ATOM     48  N   UNL     1      -1.565   4.849   5.989  1.00  0.00    -0.354 N 
ATOM     49  C   UNL     1      -0.210   1.853   8.857  1.00  0.00     0.074 A 
ATOM     50  C   UNL     1       0.009   0.583   8.199  1.00  0.00     0.031 C 
ATOM     51  C   UNL     1      -2.224   5.586   3.981  1.00  0.00     0.029 A 
ATOM     52  C   UNL     1      -2.029   5.985   5.369  1.00  0.00     0.049 A 
ATOM     53  H   UNL     1      -1.301   4.821   6.937  1.00  0.00     0.167 HD
ATOM     54  C   UNL     1      -0.002   2.087  10.176  1.00  0.00     0.037 A 
ATOM     55  C   UNL     1      -2.295   7.205   5.870  1.00  0.00     0.037 A 
ATOM     56  C   UNL     1      -0.223   3.369  10.798  1.00  0.00     0.049 A 
ATOM     57  C   UNL     1      -2.085   7.435   7.339  1.00  0.00     0.074 A 
ATOM     58  C   UNL     1      -0.027   3.737  12.117  1.00  0.00     0.029 A 
ATOM     59  N   UNL     1      -0.697   4.497  10.136  1.00  0.00    -0.354 N 
ATOM     60  N   UNL     1      -1.662   6.591   8.251  1.00  0.00    -0.248 NA
ATOM     61  C   UNL     1      -2.396   8.774   7.850  1.00  0.00     0.031 C 
ATOM     62  C   UNL     1      -0.427   5.071  12.261  1.00  0.00     0.029 A 
ATOM     63  C   UNL     1      -0.816   5.555  11.021  1.00  0.00     0.049 A 
ATOM     64  H   UNL     1      -0.915   4.537   9.177  1.00  0.00     0.167 HD
ATOM     65  C   UNL     1      -1.626   7.304   9.442  1.00  0.00     0.074 A 
ATOM     66  C   UNL     1      -2.067   8.651   9.129  1.00  0.00     0.031 C 
ATOM     67  C   UNL     1      -1.258   6.888  10.680  1.00  0.00     0.037 A 
BRANCH  54  68
ATOM     68  C   UNL     1       0.445   0.922  11.024  1.00  0.00     0.058 A 
ATOM     69  C   UNL     1       1.700   0.312  10.856  1.00  0.00     0.135 A 
ATOM     70  C   UNL     1      -0.408   0.383  12.002  1.00  0.00     0.135 A 
ATOM     71  F   UNL     1       2.558   0.775   9.932  1.00  0.00    -0.206 F 
ATOM     72  C   UNL     1       2.065  -0.823  11.574  1.00  0.00     0.059 A 
ATOM     73  C   UNL     1      -0.050  -0.732  12.758  1.00  0.00     0.059 A 
ATOM     74  F   UNL     1      -1.617   0.924  12.219  1.00  0.00    -0.206 F 
ATOM     75  C   UNL     1       1.177  -1.346  12.515  1.00  0.00     0.060 A 
BRANCH  75  76
ATOM     76  S   UNL     1       1.638  -2.853  13.396  1.00  0.00     0.124 S 
ATOM     77  O   UNL     1       1.475  -3.861  12.351  1.00  0.00    -0.237 OA
ATOM     78  O   UNL     1       3.013  -2.575  13.797  1.00  0.00    -0.237 OA
ATOM     79  O   UNL     1       0.671  -2.920  14.487  1.00  0.00    -0.744 OA
ENDBRANCH  75  76
ENDBRANCH  54  68
BRANCH  55  80
ATOM     80  C   UNL     1      -2.750   8.292   4.962  1.00  0.00     0.058 A 
ATOM     81  C   UNL     1      -1.890   9.351   4.637  1.00  0.00     0.135 A 
ATOM     82  C   UNL     1      -4.008   8.259   4.339  1.00  0.00     0.135 A 
ATOM     83  F   UNL     1      -0.679   9.431   5.210  1.00  0.00    -0.206 F 
ATOM     84  C   UNL     1      -2.256  10.335   3.725  1.00  0.00     0.059 A 
ATOM     85  C   UNL     1      -4.388   9.217   3.403  1.00  0.00     0.059 A 
ATOM     86  F   UNL     1      -4.862   7.257   4.601  1.00  0.00    -0.206 F 
ATOM     87  C   UNL     1      -3.503  10.253   3.103  1.00  0.00     0.060 A 
BRANCH  87  88
ATOM     88  S   UNL     1      -3.927  11.488   1.855  1.00  0.00     0.124 S 
ATOM     89  O   UNL     1      -4.114  12.681   2.672  1.00  0.00    -0.237 OA
ATOM     90  O   UNL     1      -2.743  11.477   1.002  1.00  0.00    -0.237 OA
ATOM     91  O   UNL     1      -5.136  10.947   1.242  1.00  0.00    -0.744 OA
ENDBRANCH  87  88
ENDBRANCH  55  80
BRANCH  67  92
ATOM     92  C   UNL     1      -1.276   7.916  11.776  1.00  0.00     0.058 A 
ATOM     93  C   UNL     1      -2.475   8.400  12.320  1.00  0.00     0.135 A 
ATOM     94  C   UNL     1      -0.070   8.392  12.315  1.00  0.00     0.135 A 
ATOM     95  F   UNL     1      -3.655   7.985  11.832  1.00  0.00    -0.206 F 
ATOM     96  C   UNL     1      -2.478   9.340  13.345  1.00  0.00     0.059 A 
ATOM     97  C   UNL     1      -0.049   9.308  13.359  1.00  0.00     0.059 A 
ATOM     98  F   UNL     1       1.105   7.954  11.834  1.00  0.00    -0.206 F 
ATOM     99  C   UNL     1      -1.259   9.786  13.860  1.00  0.00     0.060 A 
BRANCH  99 100
ATOM    100  S   UNL     1      -1.277  10.981  15.212  1.00  0.00     0.124 S 
ATOM    101  O   UNL     1      -1.680  12.201  14.521  1.00  0.00    -0.237 OA
ATOM    102  O   UNL     1      -2.267  10.409  16.119  1.00  0.00    -0.237 OA
ATOM    103  O   UNL     1       0.098  10.960  15.702  1.00  0.00    -0.744 OA
ENDBRANCH  99 100
ENDBRANCH  67  92
ENDBRANCH  41  42
ENDBRANCH  34  36
ENDBRANCH  33  34
ENDBRANCH  32  33
ENDBRANCH   1  32
TORSDOF 20
