REMARK SMILES COc1ccc(C(=O)N(C)CCC(=O)OCCOC(=O)c2ccc(-c3c4nc(c(-c5c(F)cc(S(=O)(=O)[O-])cc5F)c5ccc([nH]5)c(-c5c(F)cc(S(=O)(=O)[O-])cc5F)c5nc(c(-c6c(F)cc(S(=O)(=O)[O-])cc6F)c6ccc3[nH]6)C=C5)C=C4)cc2)cc1O
REMARK SMILES IDX 16 1 15 2 13 3 14 4 12 5 11 6 9 7 10 8 7 9 8 10 6 11 3 12
REMARK SMILES IDX 4 13 88 14 5 15 87 16 2 17 1 18 89 19 17 21 18 22 19 23
REMARK SMILES IDX 20 24 21 25 22 26 86 27 23 28 85 29 24 30 25 31 26 32 79 33
REMARK SMILES IDX 27 34 84 35 78 36 80 37 28 38 83 39 77 40 76 41 29 43 63 44
REMARK SMILES IDX 42 45 62 46 43 47 46 48 61 49 81 50 44 51 45 52 60 54 82 55
REMARK SMILES IDX 47 56 30 57 31 58 40 59 32 60 33 61 39 62 41 63 34 64 35 65
REMARK SMILES IDX 36 66 37 67 38 68 64 69 65 70 74 71 66 72 67 73 73 74 75 75
REMARK SMILES IDX 68 76 69 77 70 78 71 79 72 80 48 81 49 82 58 83 50 84 51 85
REMARK SMILES IDX 57 86 59 87 52 88 53 89 54 90 55 91 56 92
REMARK H PARENT 89 20 80 42 46 53
REMARK Flexibility Score: inf
ROOT
ATOM      1  C   UNL     1       0.779  -4.545   6.732  1.00  0.00     0.274 C 
ENDROOT
BRANCH   1   2
ATOM      2  O   UNL     1       1.174  -5.258   5.544  1.00  0.00    -0.462 OA
BRANCH   2   3
ATOM      3  C   UNL     1       1.700  -6.495   5.732  1.00  0.00     0.307 C 
ATOM      4  O   UNL     1       2.055  -6.956   6.809  1.00  0.00    -0.252 OA
BRANCH   3   5
ATOM      5  C   UNL     1       1.852  -7.243   4.433  1.00  0.00     0.144 C 
BRANCH   5   6
ATOM      6  C   UNL     1       0.547  -7.341   3.642  1.00  0.00     0.131 C 
BRANCH   6   7
ATOM      7  N   UNL     1       0.479  -6.343   2.565  1.00  0.00    -0.341 N 
ATOM      8  C   UNL     1       1.151  -6.688   1.327  1.00  0.00     0.147 C 
BRANCH   7   9
ATOM      9  C   UNL     1      -0.221  -5.164   2.833  1.00  0.00     0.253 C 
ATOM     10  O   UNL     1      -1.138  -5.161   3.658  1.00  0.00    -0.269 OA
BRANCH   9  11
ATOM     11  C   UNL     1       0.185  -3.822   2.290  1.00  0.00     0.043 A 
ATOM     12  C   UNL     1       0.910  -1.177   1.594  1.00  0.00     0.160 A 
ATOM     13  C   UNL     1       0.125  -1.400   2.715  1.00  0.00     0.051 A 
ATOM     14  C   UNL     1       1.359  -2.268   0.851  1.00  0.00     0.158 A 
ATOM     15  C   UNL     1      -0.238  -2.708   3.052  1.00  0.00     0.018 A 
ATOM     16  C   UNL     1       0.992  -3.575   1.178  1.00  0.00     0.064 A 
BRANCH  12  17
ATOM     17  O   UNL     1       1.281   0.111   1.321  1.00  0.00    -0.493 OA
ATOM     18  C   UNL     1       0.801   0.566   0.054  1.00  0.00     0.278 C 
ENDBRANCH  12  17
BRANCH  14  19
ATOM     19  O   UNL     1       2.228  -2.107  -0.194  1.00  0.00    -0.504 OA
ATOM     20  H   UNL     1       2.501  -1.247  -0.448  1.00  0.00     0.293 HD
ENDBRANCH  14  19
ENDBRANCH   9  11
ENDBRANCH   7   9
ENDBRANCH   6   7
ENDBRANCH   5   6
ENDBRANCH   3   5
ENDBRANCH   2   3
ENDBRANCH   1   2
BRANCH   1  21
ATOM     21  C   UNL     1      -0.663  -4.889   7.102  1.00  0.00     0.275 C 
BRANCH  21  22
ATOM     22  O   UNL     1      -0.715  -6.257   7.538  1.00  0.00    -0.458 OA
BRANCH  22  23
ATOM     23  C   UNL     1      -1.774  -6.975   7.115  1.00  0.00     0.338 C 
ATOM     24  O   UNL     1      -2.742  -6.588   6.479  1.00  0.00    -0.246 OA
BRANCH  23  25
ATOM     25  C   UNL     1      -1.631  -8.349   7.611  1.00  0.00     0.060 A 
ATOM     26  C   UNL     1      -0.689  -9.215   7.047  1.00  0.00     0.016 A 
ATOM     27  C   UNL     1      -2.499  -8.788   8.611  1.00  0.00     0.016 A 
ATOM     28  C   UNL     1      -0.640 -10.545   7.465  1.00  0.00     0.010 A 
ATOM     29  C   UNL     1      -2.422 -10.108   9.053  1.00  0.00     0.010 A 
ATOM     30  C   UNL     1      -1.512 -11.002   8.465  1.00  0.00    -0.014 A 
BRANCH  30  31
ATOM     31  C   UNL     1      -1.516 -12.429   8.867  1.00  0.00     0.031 A 
ATOM     32  C   UNL     1      -2.665 -13.311   8.465  1.00  0.00     0.074 A 
ATOM     33  C   UNL     1      -0.503 -12.922   9.602  1.00  0.00     0.049 A 
ATOM     34  N   UNL     1      -2.900 -14.558   8.781  1.00  0.00    -0.248 NA
ATOM     35  C   UNL     1      -3.690 -12.706   7.598  1.00  0.00     0.031 C 
ATOM     36  C   UNL     1       0.668 -12.162  10.043  1.00  0.00     0.029 A 
ATOM     37  N   UNL     1      -0.300 -14.177  10.117  1.00  0.00    -0.354 N 
ATOM     38  C   UNL     1      -4.106 -14.883   8.170  1.00  0.00     0.074 A 
ATOM     39  C   UNL     1      -4.564 -13.696   7.481  1.00  0.00     0.031 C 
ATOM     40  C   UNL     1       1.468 -12.967  10.761  1.00  0.00     0.029 A 
ATOM     41  C   UNL     1       0.850 -14.287  10.861  1.00  0.00     0.049 A 
ATOM     42  H   UNL     1      -0.920 -14.927   9.968  1.00  0.00     0.167 HD
ATOM     43  C   UNL     1      -4.766 -16.066   8.179  1.00  0.00     0.037 A 
ATOM     44  C   UNL     1       1.338 -15.329  11.560  1.00  0.00     0.037 A 
ATOM     45  C   UNL     1      -4.297 -17.247   8.856  1.00  0.00     0.049 A 
ATOM     46  C   UNL     1       0.577 -16.626  11.572  1.00  0.00     0.074 A 
ATOM     47  C   UNL     1      -4.880 -18.501   8.908  1.00  0.00     0.029 A 
ATOM     48  N   UNL     1      -3.128 -17.319   9.601  1.00  0.00    -0.354 N 
ATOM     49  N   UNL     1      -0.556 -16.921  10.981  1.00  0.00    -0.248 NA
ATOM     50  C   UNL     1       1.158 -17.730  12.348  1.00  0.00     0.031 C 
ATOM     51  C   UNL     1      -4.079 -19.323   9.710  1.00  0.00     0.029 A 
ATOM     52  C   UNL     1      -2.979 -18.591  10.128  1.00  0.00     0.049 A 
ATOM     53  H   UNL     1      -2.498 -16.575   9.735  1.00  0.00     0.167 HD
ATOM     54  C   UNL     1      -0.818 -18.248  11.302  1.00  0.00     0.074 A 
ATOM     55  C   UNL     1       0.284 -18.703  12.126  1.00  0.00     0.031 C 
ATOM     56  C   UNL     1      -1.875 -19.021  10.950  1.00  0.00     0.037 A 
BRANCH  43  57
ATOM     57  C   UNL     1      -6.076 -16.133   7.446  1.00  0.00     0.058 A 
ATOM     58  C   UNL     1      -6.136 -16.164   6.044  1.00  0.00     0.135 A 
ATOM     59  C   UNL     1      -7.287 -16.187   8.155  1.00  0.00     0.135 A 
ATOM     60  F   UNL     1      -5.008 -16.098   5.318  1.00  0.00    -0.206 F 
ATOM     61  C   UNL     1      -7.351 -16.221   5.369  1.00  0.00     0.059 A 
ATOM     62  C   UNL     1      -8.513 -16.266   7.500  1.00  0.00     0.059 A 
ATOM     63  F   UNL     1      -7.287 -16.159   9.496  1.00  0.00    -0.206 F 
ATOM     64  C   UNL     1      -8.536 -16.267   6.106  1.00  0.00     0.060 A 
BRANCH  64  65
ATOM     65  S   UNL     1     -10.107 -16.340   5.219  1.00  0.00     0.124 S 
ATOM     66  O   UNL     1     -10.252 -14.958   4.771  1.00  0.00    -0.237 OA
ATOM     67  O   UNL     1      -9.833 -17.319   4.172  1.00  0.00    -0.237 OA
ATOM     68  O   UNL     1     -11.054 -16.771   6.242  1.00  0.00    -0.744 OA
ENDBRANCH  64  65
ENDBRANCH  43  57
BRANCH  44  69
ATOM     69  C   UNL     1       2.613 -15.184  12.309  1.00  0.00     0.058 A 
ATOM     70  C   UNL     1       3.786 -15.809  11.865  1.00  0.00     0.135 A 
ATOM     71  C   UNL     1       2.687 -14.400  13.472  1.00  0.00     0.135 A 
ATOM     72  F   UNL     1       3.762 -16.575  10.764  1.00  0.00    -0.206 F 
ATOM     73  C   UNL     1       4.989 -15.671  12.550  1.00  0.00     0.059 A 
ATOM     74  C   UNL     1       3.883 -14.230  14.162  1.00  0.00     0.059 A 
ATOM     75  F   UNL     1       1.593 -13.772  13.931  1.00  0.00    -0.206 F 
ATOM     76  C   UNL     1       5.027 -14.876  13.698  1.00  0.00     0.060 A 
BRANCH  76  77
ATOM     77  S   UNL     1       6.605 -14.653  14.550  1.00  0.00     0.124 S 
ATOM     78  O   UNL     1       6.730 -15.915  15.269  1.00  0.00    -0.237 OA
ATOM     79  O   UNL     1       7.532 -14.457  13.439  1.00  0.00    -0.237 OA
ATOM     80  O   UNL     1       6.373 -13.473  15.377  1.00  0.00    -0.744 OA
ENDBRANCH  76  77
ENDBRANCH  44  69
BRANCH  56  81
ATOM     81  C   UNL     1      -1.878 -20.439  11.443  1.00  0.00     0.058 A 
ATOM     82  C   UNL     1      -2.181 -20.750  12.777  1.00  0.00     0.135 A 
ATOM     83  C   UNL     1      -1.606 -21.500  10.565  1.00  0.00     0.135 A 
ATOM     84  F   UNL     1      -2.443 -19.770  13.657  1.00  0.00    -0.206 F 
ATOM     85  C   UNL     1      -2.189 -22.064  13.232  1.00  0.00     0.059 A 
ATOM     86  C   UNL     1      -1.629 -22.823  10.993  1.00  0.00     0.059 A 
ATOM     87  F   UNL     1      -1.319 -21.255   9.277  1.00  0.00    -0.206 F 
ATOM     88  C   UNL     1      -1.907 -23.095  12.332  1.00  0.00     0.060 A 
BRANCH  88  89
ATOM     89  S   UNL     1      -1.938 -24.800  12.925  1.00  0.00     0.124 S 
ATOM     90  O   UNL     1      -0.651 -24.896  13.606  1.00  0.00    -0.237 OA
ATOM     91  O   UNL     1      -3.114 -24.814  13.789  1.00  0.00    -0.237 OA
ATOM     92  O   UNL     1      -2.060 -25.582  11.698  1.00  0.00    -0.744 OA
ENDBRANCH  88  89
ENDBRANCH  56  81
ENDBRANCH  30  31
ENDBRANCH  23  25
ENDBRANCH  22  23
ENDBRANCH  21  22
ENDBRANCH   1  21
TORSDOF 20
