REMARK SMILES CCc1ccc(S(=O)(=O)c2nnn(-c3ccc(C(=O)OCCOC(=O)c4ccc(-c5c6nc(c(-c7c(F)cc(S(=O)(=O)[O-])cc7F)c7ccc([nH]7)c(-c7c(F)cc(S(=O)(=O)[O-])cc7F)c7nc(c(-c8c(F)cc(S(=O)(=O)[O-])cc8F)c8ccc5[nH]8)C=C7)C=C6)cc4)cc3)c2C)cc1
REMARK SMILES IDX 21 1 20 2 18 3 19 4 17 5 14 6 15 7 93 8 16 9 92 10 13 11
REMARK SMILES IDX 10 12 11 13 94 14 12 15 95 16 7 17 8 18 9 19 6 20 3 21 4 22
REMARK SMILES IDX 97 23 5 24 96 25 2 26 1 27 22 28 23 29 24 30 25 31 26 32
REMARK SMILES IDX 27 33 91 34 28 35 90 36 29 37 30 38 31 39 84 40 32 41 89 42
REMARK SMILES IDX 83 43 85 44 33 45 88 46 82 47 81 48 34 50 68 51 47 52 67 53
REMARK SMILES IDX 48 54 51 55 66 56 86 57 49 58 50 59 65 61 87 62 52 63 35 64
REMARK SMILES IDX 36 65 45 66 37 67 38 68 44 69 46 70 39 71 40 72 41 73 42 74
REMARK SMILES IDX 43 75 69 76 70 77 79 78 71 79 72 80 78 81 80 82 73 83 74 84
REMARK SMILES IDX 75 85 76 86 77 87 53 88 54 89 63 90 55 91 56 92 62 93 64 94
REMARK SMILES IDX 57 95 58 96 59 97 60 98 61 99
REMARK H PARENT 85 49 51 60
REMARK Flexibility Score: inf
ROOT
ATOM      1  C   UNL     1      -6.645  10.393   0.304  1.00  0.00     0.275 C 
ENDROOT
BRANCH   1   2
ATOM      2  O   UNL     1      -5.471   9.874   0.945  1.00  0.00    -0.458 OA
BRANCH   2   3
ATOM      3  C   UNL     1      -4.479   9.456   0.117  1.00  0.00     0.338 C 
ATOM      4  O   UNL     1      -4.554   9.305  -1.091  1.00  0.00    -0.246 OA
BRANCH   3   5
ATOM      5  C   UNL     1      -3.235   9.229   0.892  1.00  0.00     0.060 A 
ATOM      6  C   UNL     1      -0.929   8.453   2.224  1.00  0.00     0.067 A 
ATOM      7  C   UNL     1      -0.834   8.848   0.887  1.00  0.00     0.029 A 
ATOM      8  C   UNL     1      -2.127   8.601   2.934  1.00  0.00     0.029 A 
ATOM      9  C   UNL     1      -2.003   9.212   0.215  1.00  0.00     0.018 A 
ATOM     10  C   UNL     1      -3.280   8.993   2.268  1.00  0.00     0.018 A 
BRANCH   6  11
ATOM     11  N   UNL     1       0.131   7.741   2.821  1.00  0.00    -0.216 N 
ATOM     12  C   UNL     1       1.332   6.249   3.854  1.00  0.00     0.205 A 
ATOM     13  N   UNL     1       2.171   7.171   3.289  1.00  0.00    -0.117 NA
ATOM     14  C   UNL     1       0.025   6.538   3.506  1.00  0.00     0.081 A 
ATOM     15  N   UNL     1       1.431   8.021   2.588  1.00  0.00    -0.061 NA
ATOM     16  C   UNL     1      -1.221   5.730   3.596  1.00  0.00     0.070 C 
BRANCH  12  17
ATOM     17  S   UNL     1       1.916   4.848   4.679  1.00  0.00     0.227 S 
ATOM     18  O   UNL     1       1.037   4.737   5.839  1.00  0.00    -0.217 OA
ATOM     19  O   UNL     1       3.342   4.996   4.802  1.00  0.00    -0.217 OA
BRANCH  17  20
ATOM     20  C   UNL     1       1.595   3.440   3.646  1.00  0.00     0.073 A 
ATOM     21  C   UNL     1       0.928   1.169   2.136  1.00  0.00    -0.048 A 
ATOM     22  C   UNL     1       1.295   1.048   3.486  1.00  0.00     0.005 A 
ATOM     23  C   UNL     1       0.893   2.447   1.561  1.00  0.00     0.005 A 
ATOM     24  C   UNL     1       1.621   2.176   4.242  1.00  0.00     0.021 A 
ATOM     25  C   UNL     1       1.248   3.577   2.301  1.00  0.00     0.021 A 
BRANCH  21  26
ATOM     26  C   UNL     1       0.517  -0.062   1.362  1.00  0.00     0.032 C 
ATOM     27  C   UNL     1       1.017  -0.107  -0.077  1.00  0.00     0.009 C 
ENDBRANCH  21  26
ENDBRANCH  17  20
ENDBRANCH  12  17
ENDBRANCH   6  11
ENDBRANCH   3   5
ENDBRANCH   2   3
ENDBRANCH   1   2
BRANCH   1  28
ATOM     28  C   UNL     1      -6.502  11.884   0.043  1.00  0.00     0.275 C 
BRANCH  28  29
ATOM     29  O   UNL     1      -5.575  12.141  -1.011  1.00  0.00    -0.458 OA
BRANCH  29  30
ATOM     30  C   UNL     1      -4.319  12.437  -0.609  1.00  0.00     0.338 C 
ATOM     31  O   UNL     1      -3.810  12.185   0.471  1.00  0.00    -0.246 OA
BRANCH  30  32
ATOM     32  C   UNL     1      -3.709  13.338  -1.590  1.00  0.00     0.060 A 
ATOM     33  C   UNL     1      -2.368  13.681  -1.406  1.00  0.00     0.016 A 
ATOM     34  C   UNL     1      -4.534  14.030  -2.490  1.00  0.00     0.016 A 
ATOM     35  C   UNL     1      -1.897  14.826  -2.014  1.00  0.00     0.010 A 
ATOM     36  C   UNL     1      -4.065  15.175  -3.088  1.00  0.00     0.010 A 
ATOM     37  C   UNL     1      -2.775  15.598  -2.788  1.00  0.00    -0.014 A 
BRANCH  37  38
ATOM     38  C   UNL     1      -2.258  16.803  -3.405  1.00  0.00     0.031 A 
ATOM     39  C   UNL     1      -1.232  16.513  -4.434  1.00  0.00     0.074 A 
ATOM     40  C   UNL     1      -2.754  18.031  -3.161  1.00  0.00     0.049 A 
ATOM     41  N   UNL     1       0.028  16.786  -4.388  1.00  0.00    -0.248 NA
ATOM     42  C   UNL     1      -1.617  15.641  -5.559  1.00  0.00     0.031 C 
ATOM     43  C   UNL     1      -3.944  18.398  -2.391  1.00  0.00     0.029 A 
ATOM     44  N   UNL     1      -2.333  19.227  -3.649  1.00  0.00    -0.354 N 
ATOM     45  C   UNL     1       0.549  16.336  -5.594  1.00  0.00     0.074 A 
ATOM     46  C   UNL     1      -0.446  15.471  -6.173  1.00  0.00     0.031 C 
ATOM     47  C   UNL     1      -4.276  19.681  -2.668  1.00  0.00     0.029 A 
ATOM     48  C   UNL     1      -3.255  20.260  -3.526  1.00  0.00     0.049 A 
ATOM     49  H   UNL     1      -1.446  19.352  -4.058  1.00  0.00     0.167 HD
ATOM     50  C   UNL     1       1.642  16.925  -6.148  1.00  0.00     0.037 A 
ATOM     51  C   UNL     1      -3.201  21.463  -4.159  1.00  0.00     0.037 A 
ATOM     52  C   UNL     1       2.389  17.672  -5.168  1.00  0.00     0.049 A 
ATOM     53  C   UNL     1      -1.788  21.667  -4.586  1.00  0.00     0.074 A 
ATOM     54  C   UNL     1       2.979  17.346  -3.960  1.00  0.00     0.029 A 
ATOM     55  N   UNL     1       2.260  19.040  -5.159  1.00  0.00    -0.354 N 
ATOM     56  N   UNL     1      -0.796  21.838  -3.752  1.00  0.00    -0.248 NA
ATOM     57  C   UNL     1      -1.411  21.186  -5.908  1.00  0.00     0.031 C 
ATOM     58  C   UNL     1       2.699  18.450  -3.103  1.00  0.00     0.029 A 
ATOM     59  C   UNL     1       2.034  19.418  -3.857  1.00  0.00     0.049 A 
ATOM     60  H   UNL     1       2.318  19.638  -5.939  1.00  0.00     0.167 HD
ATOM     61  C   UNL     1       0.244  21.085  -4.278  1.00  0.00     0.074 A 
ATOM     62  C   UNL     1      -0.173  20.760  -5.641  1.00  0.00     0.031 C 
ATOM     63  C   UNL     1       1.214  20.548  -3.478  1.00  0.00     0.037 A 
BRANCH  50  64
ATOM     64  C   UNL     1       1.801  17.123  -7.633  1.00  0.00     0.058 A 
ATOM     65  C   UNL     1       3.039  17.549  -8.149  1.00  0.00     0.135 A 
ATOM     66  C   UNL     1       0.714  17.166  -8.537  1.00  0.00     0.135 A 
ATOM     67  F   UNL     1       4.131  17.578  -7.369  1.00  0.00    -0.206 F 
ATOM     68  C   UNL     1       3.176  18.024  -9.454  1.00  0.00     0.059 A 
ATOM     69  C   UNL     1       0.840  17.580  -9.855  1.00  0.00     0.059 A 
ATOM     70  F   UNL     1      -0.544  16.904  -8.159  1.00  0.00    -0.206 F 
ATOM     71  C   UNL     1       2.067  18.041 -10.296  1.00  0.00     0.060 A 
BRANCH  71  72
ATOM     72  S   UNL     1       2.221  18.719 -11.956  1.00  0.00     0.124 S 
ATOM     73  O   UNL     1       2.413  20.137 -11.674  1.00  0.00    -0.237 OA
ATOM     74  O   UNL     1       3.386  18.003 -12.466  1.00  0.00    -0.237 OA
ATOM     75  O   UNL     1       0.952  18.364 -12.583  1.00  0.00    -0.744 OA
ENDBRANCH  71  72
ENDBRANCH  50  64
BRANCH  51  76
ATOM     76  C   UNL     1      -4.334  22.227  -4.758  1.00  0.00     0.058 A 
ATOM     77  C   UNL     1      -4.159  23.541  -5.235  1.00  0.00     0.135 A 
ATOM     78  C   UNL     1      -5.533  21.590  -5.139  1.00  0.00     0.135 A 
ATOM     79  F   UNL     1      -3.040  24.220  -4.943  1.00  0.00    -0.206 F 
ATOM     80  C   UNL     1      -5.090  24.163  -6.079  1.00  0.00     0.059 A 
ATOM     81  C   UNL     1      -6.478  22.193  -5.969  1.00  0.00     0.059 A 
ATOM     82  F   UNL     1      -5.785  20.319  -4.794  1.00  0.00    -0.206 F 
ATOM     83  C   UNL     1      -6.239  23.470  -6.459  1.00  0.00     0.060 A 
BRANCH  83  84
ATOM     84  S   UNL     1      -7.356  24.188  -7.688  1.00  0.00     0.124 S 
ATOM     85  O   UNL     1      -7.959  25.287  -6.943  1.00  0.00    -0.237 OA
ATOM     86  O   UNL     1      -6.437  24.569  -8.756  1.00  0.00    -0.237 OA
ATOM     87  O   UNL     1      -8.258  23.085  -8.011  1.00  0.00    -0.744 OA
ENDBRANCH  83  84
ENDBRANCH  51  76
BRANCH  63  88
ATOM     88  C   UNL     1       1.311  21.012  -2.046  1.00  0.00     0.058 A 
ATOM     89  C   UNL     1       0.293  20.881  -1.083  1.00  0.00     0.135 A 
ATOM     90  C   UNL     1       2.552  21.490  -1.595  1.00  0.00     0.135 A 
ATOM     91  F   UNL     1      -0.887  20.327  -1.395  1.00  0.00    -0.206 F 
ATOM     92  C   UNL     1       0.484  21.262   0.249  1.00  0.00     0.059 A 
ATOM     93  C   UNL     1       2.776  21.842  -0.268  1.00  0.00     0.059 A 
ATOM     94  F   UNL     1       3.587  21.581  -2.447  1.00  0.00    -0.206 F 
ATOM     95  C   UNL     1       1.730  21.746   0.646  1.00  0.00     0.060 A 
BRANCH  95  96
ATOM     96  S   UNL     1       1.992  22.208   2.372  1.00  0.00     0.124 S 
ATOM     97  O   UNL     1       1.176  23.411   2.494  1.00  0.00    -0.237 OA
ATOM     98  O   UNL     1       1.505  21.035   3.093  1.00  0.00    -0.237 OA
ATOM     99  O   UNL     1       3.435  22.423   2.454  1.00  0.00    -0.744 OA
ENDBRANCH  95  96
ENDBRANCH  63  88
ENDBRANCH  37  38
ENDBRANCH  30  32
ENDBRANCH  29  30
ENDBRANCH  28  29
ENDBRANCH   1  28
TORSDOF 18
