REMARK SMILES O=C(OCCOC(=O)[C@@H]1[C@H](C(=O)Nc2ccc(Cn3cncn3)cc2)[C@@H]2C=C[C@H]1CC2)c1ccc(-c2c3nc(c(-c4c(F)cc(S(=O)(=O)[O-])cc4F)c4ccc([nH]4)c(-c4c(F)cc(S(=O)(=O)[O-])cc4F)c4nc(c(-c5c(F)cc(S(=O)(=O)[O-])cc5F)c5ccc2[nH]5)C=C4)C=C3)cc1
REMARK SMILES IDX 5 1 4 2 3 3 2 4 1 5 32 6 33 7 97 8 34 9 96 10 35 11 36 12
REMARK SMILES IDX 37 13 90 14 38 15 95 16 89 17 91 18 39 19 94 20 88 21 87 22
REMARK SMILES IDX 40 24 74 25 53 26 73 27 54 28 57 29 72 30 92 31 55 32 56 33
REMARK SMILES IDX 71 35 93 36 58 37 41 38 42 39 51 40 43 41 44 42 50 43 52 44
REMARK SMILES IDX 45 45 46 46 47 47 48 48 49 49 75 50 76 51 85 52 77 53 78 54
REMARK SMILES IDX 84 55 86 56 79 57 80 58 81 59 82 60 83 61 59 62 60 63 69 64
REMARK SMILES IDX 61 65 62 66 68 67 70 68 63 69 64 70 65 71 66 72 67 73 6 74
REMARK SMILES IDX 7 75 8 76 9 77 10 78 29 79 26 80 28 81 30 82 27 83 31 84
REMARK SMILES IDX 11 85 12 86 13 87 14 89 15 90 25 91 16 92 24 93 17 94 18 95
REMARK SMILES IDX 19 96 20 97 23 98 21 99 22 100
REMARK H PARENT 91 23 57 34 13 88
REMARK Flexibility Score: inf
ROOT
ATOM      1  C   UNL     1       3.442   1.330   0.761  1.00  0.00     0.274 C 
ENDROOT
BRANCH   1   2
ATOM      2  C   UNL     1       3.815   1.377  -0.721  1.00  0.00     0.275 C 
BRANCH   2   3
ATOM      3  O   UNL     1       2.759   1.061  -1.650  1.00  0.00    -0.458 OA
BRANCH   3   4
ATOM      4  C   UNL     1       1.688   0.405  -1.158  1.00  0.00     0.338 C 
ATOM      5  O   UNL     1       0.770   0.939  -0.546  1.00  0.00    -0.246 OA
BRANCH   4   6
ATOM      6  C   UNL     1       1.736  -1.038  -1.478  1.00  0.00     0.060 A 
ATOM      7  C   UNL     1       2.901  -1.658  -1.957  1.00  0.00     0.016 A 
ATOM      8  C   UNL     1       0.568  -1.782  -1.274  1.00  0.00     0.016 A 
ATOM      9  C   UNL     1       2.869  -2.994  -2.324  1.00  0.00     0.010 A 
ATOM     10  C   UNL     1       0.536  -3.116  -1.644  1.00  0.00     0.010 A 
ATOM     11  C   UNL     1       1.670  -3.699  -2.216  1.00  0.00    -0.014 A 
BRANCH  11  12
ATOM     12  C   UNL     1       1.619  -5.062  -2.726  1.00  0.00     0.031 A 
ATOM     13  C   UNL     1       2.342  -6.095  -1.922  1.00  0.00     0.074 A 
ATOM     14  C   UNL     1       0.819  -5.365  -3.770  1.00  0.00     0.049 A 
ATOM     15  N   UNL     1       3.323  -6.865  -2.268  1.00  0.00    -0.248 NA
ATOM     16  C   UNL     1       1.990  -6.207  -0.498  1.00  0.00     0.031 C 
ATOM     17  C   UNL     1      -0.159  -4.506  -4.449  1.00  0.00     0.029 A 
ATOM     18  N   UNL     1       0.637  -6.563  -4.381  1.00  0.00    -0.354 N 
ATOM     19  C   UNL     1       3.570  -7.707  -1.178  1.00  0.00     0.074 A 
ATOM     20  C   UNL     1       2.832  -7.151  -0.076  1.00  0.00     0.031 C 
ATOM     21  C   UNL     1      -0.985  -5.271  -5.197  1.00  0.00     0.029 A 
ATOM     22  C   UNL     1      -0.507  -6.640  -5.168  1.00  0.00     0.049 A 
ATOM     23  H   UNL     1       1.264  -7.316  -4.277  1.00  0.00     0.167 HD
ATOM     24  C   UNL     1       4.208  -8.908  -1.315  1.00  0.00     0.037 A 
ATOM     25  C   UNL     1      -1.051  -7.779  -5.670  1.00  0.00     0.037 A 
ATOM     26  C   UNL     1       4.930  -8.967  -2.558  1.00  0.00     0.049 A 
ATOM     27  C   UNL     1       0.028  -8.807  -5.659  1.00  0.00     0.074 A 
ATOM     28  C   UNL     1       5.974  -8.250  -3.110  1.00  0.00     0.029 A 
ATOM     29  N   UNL     1       4.360  -9.650  -3.606  1.00  0.00    -0.354 N 
ATOM     30  N   UNL     1       1.115  -8.715  -6.382  1.00  0.00    -0.248 NA
ATOM     31  C   UNL     1       0.134  -9.656  -4.480  1.00  0.00     0.031 C 
ATOM     32  C   UNL     1       5.628  -8.114  -4.486  1.00  0.00     0.029 A 
ATOM     33  C   UNL     1       4.446  -8.825  -4.698  1.00  0.00     0.049 A 
ATOM     34  H   UNL     1       3.968 -10.553  -3.578  1.00  0.00     0.167 HD
ATOM     35  C   UNL     1       2.138  -9.159  -5.556  1.00  0.00     0.074 A 
ATOM     36  C   UNL     1       1.463  -9.767  -4.409  1.00  0.00     0.031 C 
ATOM     37  C   UNL     1       3.430  -8.746  -5.723  1.00  0.00     0.037 A 
BRANCH  24  38
ATOM     38  C   UNL     1       3.914 -10.162  -0.511  1.00  0.00     0.058 A 
ATOM     39  C   UNL     1       4.683 -11.326  -0.746  1.00  0.00     0.135 A 
ATOM     40  C   UNL     1       2.737 -10.364   0.241  1.00  0.00     0.135 A 
ATOM     41  F   UNL     1       5.841 -11.259  -1.423  1.00  0.00    -0.206 F 
ATOM     42  C   UNL     1       4.254 -12.601  -0.372  1.00  0.00     0.059 A 
ATOM     43  C   UNL     1       2.315 -11.622   0.665  1.00  0.00     0.059 A 
ATOM     44  F   UNL     1       1.891  -9.370   0.529  1.00  0.00    -0.206 F 
ATOM     45  C   UNL     1       3.051 -12.740   0.310  1.00  0.00     0.060 A 
BRANCH  45  46
ATOM     46  S   UNL     1       2.425 -14.391   0.669  1.00  0.00     0.124 S 
ATOM     47  O   UNL     1       2.122 -14.884  -0.669  1.00  0.00    -0.237 OA
ATOM     48  O   UNL     1       3.567 -15.007   1.335  1.00  0.00    -0.237 OA
ATOM     49  O   UNL     1       1.271 -14.132   1.525  1.00  0.00    -0.744 OA
ENDBRANCH  45  46
ENDBRANCH  24  38
BRANCH  25  50
ATOM     50  C   UNL     1      -2.503  -8.113  -5.708  1.00  0.00     0.058 A 
ATOM     51  C   UNL     1      -3.007  -9.161  -6.498  1.00  0.00     0.135 A 
ATOM     52  C   UNL     1      -3.398  -7.565  -4.765  1.00  0.00     0.135 A 
ATOM     53  F   UNL     1      -2.216  -9.766  -7.397  1.00  0.00    -0.206 F 
ATOM     54  C   UNL     1      -4.314  -9.650  -6.346  1.00  0.00     0.059 A 
ATOM     55  C   UNL     1      -4.703  -8.027  -4.602  1.00  0.00     0.059 A 
ATOM     56  F   UNL     1      -3.001  -6.613  -3.907  1.00  0.00    -0.206 F 
ATOM     57  C   UNL     1      -5.151  -9.084  -5.383  1.00  0.00     0.060 A 
BRANCH  57  58
ATOM     58  S   UNL     1      -6.786  -9.798  -5.079  1.00  0.00     0.124 S 
ATOM     59  O   UNL     1      -7.498  -9.457  -6.306  1.00  0.00    -0.237 OA
ATOM     60  O   UNL     1      -6.476 -11.211  -4.893  1.00  0.00    -0.237 OA
ATOM     61  O   UNL     1      -7.243  -9.100  -3.880  1.00  0.00    -0.744 OA
ENDBRANCH  57  58
ENDBRANCH  25  50
BRANCH  37  62
ATOM     62  C   UNL     1       3.791  -7.941  -6.944  1.00  0.00     0.058 A 
ATOM     63  C   UNL     1       3.338  -6.631  -7.184  1.00  0.00     0.135 A 
ATOM     64  C   UNL     1       4.809  -8.427  -7.776  1.00  0.00     0.135 A 
ATOM     65  F   UNL     1       2.445  -6.053  -6.371  1.00  0.00    -0.206 F 
ATOM     66  C   UNL     1       3.858  -5.849  -8.217  1.00  0.00     0.059 A 
ATOM     67  C   UNL     1       5.364  -7.656  -8.793  1.00  0.00     0.059 A 
ATOM     68  F   UNL     1       5.333  -9.644  -7.553  1.00  0.00    -0.206 F 
ATOM     69  C   UNL     1       4.879  -6.368  -9.013  1.00  0.00     0.060 A 
BRANCH  69  70
ATOM     70  S   UNL     1       5.627  -5.322 -10.281  1.00  0.00     0.124 S 
ATOM     71  O   UNL     1       4.563  -5.239 -11.276  1.00  0.00    -0.237 OA
ATOM     72  O   UNL     1       5.910  -4.089  -9.551  1.00  0.00    -0.237 OA
ATOM     73  O   UNL     1       6.809  -6.076 -10.692  1.00  0.00    -0.744 OA
ENDBRANCH  69  70
ENDBRANCH  37  62
ENDBRANCH  11  12
ENDBRANCH   4   6
ENDBRANCH   3   4
ENDBRANCH   2   3
ENDBRANCH   1   2
BRANCH   1  74
ATOM     74  O   UNL     1       3.083  -0.029   1.103  1.00  0.00    -0.462 OA
BRANCH  74  75
ATOM     75  C   UNL     1       2.367  -0.195   2.228  1.00  0.00     0.310 C 
ATOM     76  O   UNL     1       1.830   0.726   2.834  1.00  0.00    -0.252 OA
BRANCH  75  77
ATOM     77  C   UNL     1       2.386  -1.610   2.785  1.00  0.00     0.119 C 
ATOM     78  C   UNL     1       3.255  -1.706   4.057  1.00  0.00     0.100 C 
ATOM     79  C   UNL     1       2.537  -2.933   1.959  1.00  0.00     0.026 C 
ATOM     80  C   UNL     1       3.663  -3.183   4.306  1.00  0.00     0.025 C 
ATOM     81  C   UNL     1       3.936  -3.525   1.958  1.00  0.00    -0.027 C 
ATOM     82  C   UNL     1       1.779  -4.020   2.781  1.00  0.00     0.009 C 
ATOM     83  C   UNL     1       4.512  -3.663   3.164  1.00  0.00    -0.027 C 
ATOM     84  C   UNL     1       2.382  -4.075   4.222  1.00  0.00     0.009 C 
BRANCH  78  85
ATOM     85  C   UNL     1       4.337  -0.632   4.329  1.00  0.00     0.228 C 
ATOM     86  O   UNL     1       4.074   0.239   5.176  1.00  0.00    -0.274 OA
ATOM     87  N   UNL     1       5.614  -0.582   3.856  1.00  0.00    -0.326 N 
ATOM     88  H   UNL     1       6.186   0.004   4.402  1.00  0.00     0.169 HD
BRANCH  87  89
ATOM     89  C   UNL     1       6.317  -1.154   2.786  1.00  0.00     0.041 A 
ATOM     90  C   UNL     1       7.646  -1.528   2.966  1.00  0.00     0.026 A 
ATOM     91  C   UNL     1       5.780  -1.326   1.526  1.00  0.00     0.026 A 
ATOM     92  C   UNL     1       8.315  -2.260   1.968  1.00  0.00     0.008 A 
ATOM     93  C   UNL     1       6.445  -1.989   0.501  1.00  0.00     0.008 A 
ATOM     94  C   UNL     1       7.687  -2.551   0.748  1.00  0.00    -0.026 A 
BRANCH  94  95
ATOM     95  C   UNL     1       8.269  -3.475  -0.287  1.00  0.00     0.181 C 
BRANCH  95  96
ATOM     96  N   UNL     1       9.067  -2.752  -1.249  1.00  0.00    -0.249 N 
ATOM     97  C   UNL     1      10.318  -2.253  -1.072  1.00  0.00     0.220 A 
ATOM     98  N   UNL     1       8.627  -2.522  -2.499  1.00  0.00    -0.160 NA
ATOM     99  N   UNL     1      10.734  -1.701  -2.187  1.00  0.00    -0.224 NA
ATOM    100  C   UNL     1       9.678  -1.901  -3.037  1.00  0.00     0.246 A 
ENDBRANCH  95  96
ENDBRANCH  94  95
ENDBRANCH  87  89
ENDBRANCH  78  85
ENDBRANCH  75  77
ENDBRANCH  74  75
ENDBRANCH   1  74
TORSDOF 18
