REMARK SMILES NS(=O)(=O)c1ccc(-n2nc(C(F)(F)F)cc2-c2ccc(C(=O)OCCOC(=O)c3ccc(-c4c5nc(c(-c6c(F)cc(S(=O)(=O)[O-])cc6F)c6ccc([nH]6)c(-c6c(F)cc(S(=O)(=O)[O-])cc6F)c6nc(c(-c7c(F)cc(S(=O)(=O)[O-])cc7F)c7ccc4[nH]7)C=C6)C=C5)cc3)cc2)cc1
REMARK SMILES IDX 25 1 24 2 22 3 23 4 21 5 18 6 19 7 97 8 20 9 96 10 17 11
REMARK SMILES IDX 9 12 10 13 11 14 16 15 8 16 5 17 6 18 99 19 7 20 98 21 2 22
REMARK SMILES IDX 3 23 4 24 1 25 12 28 13 29 14 30 15 31 26 32 27 33 28 34
REMARK SMILES IDX 29 35 30 36 31 37 95 38 32 39 94 40 33 41 34 42 35 43 88 44
REMARK SMILES IDX 36 45 93 46 87 47 89 48 37 49 92 50 86 51 85 52 38 54 72 55
REMARK SMILES IDX 51 56 71 57 52 58 55 59 70 60 90 61 53 62 54 63 69 65 91 66
REMARK SMILES IDX 56 67 39 68 40 69 49 70 41 71 42 72 48 73 50 74 43 75 44 76
REMARK SMILES IDX 45 77 46 78 47 79 73 80 74 81 83 82 75 83 76 84 82 85 84 86
REMARK SMILES IDX 77 87 78 88 79 89 80 90 81 91 57 92 58 93 67 94 59 95 60 96
REMARK SMILES IDX 66 97 68 98 61 99 62 100 63 101 64 102 65 103
REMARK H PARENT 1 26 1 27 89 53 55 64
REMARK Flexibility Score: inf
ROOT
ATOM      1  C   UNL     1       4.301   2.892 -10.739  1.00  0.00     0.275 C 
ENDROOT
BRANCH   1   2
ATOM      2  O   UNL     1       4.247   3.678  -9.537  1.00  0.00    -0.458 OA
BRANCH   2   3
ATOM      3  C   UNL     1       3.002   4.060  -9.150  1.00  0.00     0.338 C 
ATOM      4  O   UNL     1       1.978   3.964  -9.809  1.00  0.00    -0.246 OA
BRANCH   3   5
ATOM      5  C   UNL     1       3.017   4.555  -7.752  1.00  0.00     0.060 A 
ATOM      6  C   UNL     1       2.898   5.646  -5.171  1.00  0.00     0.000 A 
ATOM      7  C   UNL     1       1.759   5.064  -5.746  1.00  0.00     0.011 A 
ATOM      8  C   UNL     1       4.110   5.619  -5.873  1.00  0.00     0.011 A 
ATOM      9  C   UNL     1       1.818   4.522  -7.030  1.00  0.00     0.016 A 
ATOM     10  C   UNL     1       4.173   5.067  -7.155  1.00  0.00     0.016 A 
BRANCH   6  11
ATOM     11  C   UNL     1       2.793   6.385  -3.913  1.00  0.00     0.075 A 
ATOM     12  N   UNL     1       2.179   5.947  -2.747  1.00  0.00    -0.233 N 
ATOM     13  N   UNL     1       1.928   6.976  -1.893  1.00  0.00    -0.163 NA
ATOM     14  C   UNL     1       2.562   8.037  -2.428  1.00  0.00     0.167 A 
ATOM     15  C   UNL     1       3.095   7.714  -3.696  1.00  0.00     0.064 A 
BRANCH  12  16
ATOM     16  C   UNL     1       1.809   4.622  -2.402  1.00  0.00     0.065 A 
ATOM     17  C   UNL     1       1.001   2.017  -1.863  1.00  0.00     0.082 A 
ATOM     18  C   UNL     1       2.238   2.243  -2.474  1.00  0.00     0.024 A 
ATOM     19  C   UNL     1       0.172   3.085  -1.504  1.00  0.00     0.024 A 
ATOM     20  C   UNL     1       2.639   3.548  -2.755  1.00  0.00     0.030 A 
ATOM     21  C   UNL     1       0.593   4.396  -1.743  1.00  0.00     0.030 A 
BRANCH  17  22
ATOM     22  S   UNL     1       0.451   0.344  -1.654  1.00  0.00     0.238 S 
ATOM     23  O   UNL     1       1.080  -0.467  -2.661  1.00  0.00    -0.207 OA
ATOM     24  O   UNL     1      -0.982   0.361  -1.437  1.00  0.00    -0.207 OA
BRANCH  22  25
ATOM     25  N   UNL     1       1.145  -0.068  -0.182  1.00  0.00    -0.225 NA
ATOM     26  H   UNL     1       0.897  -1.028   0.054  1.00  0.00     0.137 HD
ATOM     27  H   UNL     1       0.801   0.561   0.544  1.00  0.00     0.137 HD
ENDBRANCH  22  25
ENDBRANCH  17  22
ENDBRANCH  12  16
BRANCH  14  28
ATOM     28  C   UNL     1       2.637   9.382  -1.760  1.00  0.00     0.435 C 
ATOM     29  F   UNL     1       1.451   9.795  -1.243  1.00  0.00    -0.164 F 
ATOM     30  F   UNL     1       3.544   9.401  -0.746  1.00  0.00    -0.164 F 
ATOM     31  F   UNL     1       3.031  10.353  -2.633  1.00  0.00    -0.164 F 
ENDBRANCH  14  28
ENDBRANCH   6  11
ENDBRANCH   3   5
ENDBRANCH   2   3
ENDBRANCH   1   2
BRANCH   1  32
ATOM     32  C   UNL     1       4.147   1.410 -10.431  1.00  0.00     0.275 C 
BRANCH  32  33
ATOM     33  O   UNL     1       2.828   1.108  -9.983  1.00  0.00    -0.458 OA
BRANCH  33  34
ATOM     34  C   UNL     1       2.682   1.055  -8.639  1.00  0.00     0.338 C 
ATOM     35  O   UNL     1       3.402   1.563  -7.796  1.00  0.00    -0.246 OA
BRANCH  34  36
ATOM     36  C   UNL     1       1.662   0.057  -8.316  1.00  0.00     0.060 A 
ATOM     37  C   UNL     1       1.277  -0.066  -6.978  1.00  0.00     0.016 A 
ATOM     38  C   UNL     1       1.375  -0.930  -9.270  1.00  0.00     0.016 A 
ATOM     39  C   UNL     1       0.765  -1.274  -6.556  1.00  0.00     0.010 A 
ATOM     40  C   UNL     1       0.885  -2.136  -8.844  1.00  0.00     0.010 A 
ATOM     41  C   UNL     1       0.661  -2.318  -7.482  1.00  0.00    -0.014 A 
BRANCH  41  42
ATOM     42  C   UNL     1       0.134  -3.594  -7.050  1.00  0.00     0.031 A 
ATOM     43  C   UNL     1      -1.315  -3.507  -6.753  1.00  0.00     0.074 A 
ATOM     44  C   UNL     1       0.868  -4.723  -7.102  1.00  0.00     0.049 A 
ATOM     45  N   UNL     1      -1.883  -3.634  -5.603  1.00  0.00    -0.248 NA
ATOM     46  C   UNL     1      -2.212  -2.988  -7.804  1.00  0.00     0.031 C 
ATOM     47  C   UNL     1       2.231  -4.896  -7.611  1.00  0.00     0.029 A 
ATOM     48  N   UNL     1       0.493  -5.999  -6.810  1.00  0.00    -0.354 N 
ATOM     49  C   UNL     1      -3.242  -3.482  -5.847  1.00  0.00     0.074 A 
ATOM     50  C   UNL     1      -3.355  -2.850  -7.132  1.00  0.00     0.031 C 
ATOM     51  C   UNL     1       2.471  -6.212  -7.814  1.00  0.00     0.029 A 
ATOM     52  C   UNL     1       1.332  -6.980  -7.346  1.00  0.00     0.049 A 
ATOM     53  H   UNL     1      -0.301  -6.212  -6.269  1.00  0.00     0.167 HD
ATOM     54  C   UNL     1      -4.153  -4.180  -5.117  1.00  0.00     0.037 A 
ATOM     55  C   UNL     1       1.023  -8.300  -7.469  1.00  0.00     0.037 A 
ATOM     56  C   UNL     1      -3.570  -4.645  -3.881  1.00  0.00     0.049 A 
ATOM     57  C   UNL     1      -0.068  -8.568  -6.483  1.00  0.00     0.074 A 
ATOM     58  C   UNL     1      -2.937  -4.014  -2.825  1.00  0.00     0.029 A 
ATOM     59  N   UNL     1      -3.200  -5.968  -3.807  1.00  0.00    -0.354 N 
ATOM     60  N   UNL     1       0.106  -8.488  -5.189  1.00  0.00    -0.248 NA
ATOM     61  C   UNL     1      -1.440  -8.386  -6.940  1.00  0.00     0.031 C 
ATOM     62  C   UNL     1      -1.846  -4.868  -2.488  1.00  0.00     0.029 A 
ATOM     63  C   UNL     1      -1.933  -6.014  -3.280  1.00  0.00     0.049 A 
ATOM     64  H   UNL     1      -3.745  -6.740  -4.082  1.00  0.00     0.167 HD
ATOM     65  C   UNL     1      -1.017  -7.817  -4.723  1.00  0.00     0.074 A 
ATOM     66  C   UNL     1      -1.957  -7.821  -5.845  1.00  0.00     0.031 C 
ATOM     67  C   UNL     1      -0.975  -7.052  -3.592  1.00  0.00     0.037 A 
BRANCH  54  68
ATOM     68  C   UNL     1      -5.399  -4.790  -5.712  1.00  0.00     0.058 A 
ATOM     69  C   UNL     1      -6.335  -5.397  -4.853  1.00  0.00     0.135 A 
ATOM     70  C   UNL     1      -5.577  -5.059  -7.090  1.00  0.00     0.135 A 
ATOM     71  F   UNL     1      -6.257  -5.220  -3.524  1.00  0.00    -0.206 F 
ATOM     72  C   UNL     1      -7.322  -6.265  -5.319  1.00  0.00     0.059 A 
ATOM     73  C   UNL     1      -6.586  -5.875  -7.580  1.00  0.00     0.059 A 
ATOM     74  F   UNL     1      -4.729  -4.626  -8.030  1.00  0.00    -0.206 F 
ATOM     75  C   UNL     1      -7.430  -6.506  -6.685  1.00  0.00     0.060 A 
BRANCH  75  76
ATOM     76  S   UNL     1      -8.649  -7.686  -7.282  1.00  0.00     0.124 S 
ATOM     77  O   UNL     1      -8.120  -8.941  -6.762  1.00  0.00    -0.237 OA
ATOM     78  O   UNL     1      -9.871  -7.195  -6.654  1.00  0.00    -0.237 OA
ATOM     79  O   UNL     1      -8.589  -7.526  -8.732  1.00  0.00    -0.744 OA
ENDBRANCH  75  76
ENDBRANCH  54  68
BRANCH  55  80
ATOM     80  C   UNL     1       1.286  -9.189  -8.644  1.00  0.00     0.058 A 
ATOM     81  C   UNL     1       0.974 -10.564  -8.612  1.00  0.00     0.135 A 
ATOM     82  C   UNL     1       1.583  -8.665  -9.919  1.00  0.00     0.135 A 
ATOM     83  F   UNL     1       0.671 -11.159  -7.448  1.00  0.00    -0.206 F 
ATOM     84  C   UNL     1       0.894 -11.347  -9.775  1.00  0.00     0.059 A 
ATOM     85  C   UNL     1       1.520  -9.425 -11.086  1.00  0.00     0.059 A 
ATOM     86  F   UNL     1       1.855  -7.364 -10.093  1.00  0.00    -0.206 F 
ATOM     87  C   UNL     1       1.143 -10.759 -11.014  1.00  0.00     0.060 A 
BRANCH  87  88
ATOM     88  S   UNL     1       0.843 -11.689 -12.538  1.00  0.00     0.124 S 
ATOM     89  O   UNL     1       1.935 -12.656 -12.524  1.00  0.00    -0.237 OA
ATOM     90  O   UNL     1      -0.492 -12.231 -12.313  1.00  0.00    -0.237 OA
ATOM     91  O   UNL     1       0.929 -10.668 -13.580  1.00  0.00    -0.744 OA
ENDBRANCH  87  88
ENDBRANCH  55  80
BRANCH  67  92
ATOM     92  C   UNL     1       0.239  -7.131  -2.701  1.00  0.00     0.058 A 
ATOM     93  C   UNL     1       1.541  -6.750  -3.077  1.00  0.00     0.135 A 
ATOM     94  C   UNL     1       0.032  -7.438  -1.348  1.00  0.00     0.135 A 
ATOM     95  F   UNL     1       1.806  -6.340  -4.325  1.00  0.00    -0.206 F 
ATOM     96  C   UNL     1       2.593  -6.713  -2.156  1.00  0.00     0.059 A 
ATOM     97  C   UNL     1       1.056  -7.377  -0.408  1.00  0.00     0.059 A 
ATOM     98  F   UNL     1      -1.200  -7.747  -0.910  1.00  0.00    -0.206 F 
ATOM     99  C   UNL     1       2.338  -7.026  -0.821  1.00  0.00     0.060 A 
BRANCH  99 100
ATOM    100  S   UNL     1       3.676  -6.914   0.388  1.00  0.00     0.124 S 
ATOM    101  O   UNL     1       4.538  -8.023  -0.004  1.00  0.00    -0.237 OA
ATOM    102  O   UNL     1       4.210  -5.576   0.146  1.00  0.00    -0.237 OA
ATOM    103  O   UNL     1       2.993  -7.077   1.669  1.00  0.00    -0.744 OA
ENDBRANCH  99 100
ENDBRANCH  67  92
ENDBRANCH  41  42
ENDBRANCH  34  36
ENDBRANCH  33  34
ENDBRANCH  32  33
ENDBRANCH   1  32
TORSDOF 19
