REMARK SMILES O=C(OCCOC(=O)c1ccccc1/C=N\NC(=S)NCc1ccccc1)c1ccc(-c2c3nc(c(-c4c(F)cc(S(=O)(=O)[O-])cc4F)c4ccc([nH]4)c(-c4c(F)cc(S(=O)(=O)[O-])cc4F)c4nc(c(-c5c(F)cc(S(=O)(=O)[O-])cc5F)c5ccc2[nH]5)C=C4)C=C3)cc1
REMARK SMILES IDX 6 1 5 2 4 3 3 4 2 5 1 6 28 7 29 8 93 9 30 10 92 11 31 12
REMARK SMILES IDX 32 13 33 14 86 15 34 16 91 17 85 18 87 19 35 20 90 21 84 22
REMARK SMILES IDX 83 23 36 25 70 26 49 27 69 28 50 29 53 30 68 31 88 32 51 33
REMARK SMILES IDX 52 34 67 36 89 37 54 38 37 39 38 40 47 41 39 42 40 43 46 44
REMARK SMILES IDX 48 45 41 46 42 47 43 48 44 49 45 50 71 51 72 52 81 53 73 54
REMARK SMILES IDX 74 55 80 56 82 57 75 58 76 59 77 60 78 61 79 62 55 63 56 64
REMARK SMILES IDX 65 65 57 66 58 67 64 68 66 69 59 70 60 71 61 72 62 73 63 74
REMARK SMILES IDX 7 75 8 76 9 77 10 78 14 79 11 80 13 81 12 82 15 83 16 84
REMARK SMILES IDX 17 85 18 87 19 88 20 89 21 91 22 92 23 93 27 94 24 95 26 96
REMARK SMILES IDX 25 97
REMARK H PARENT 87 24 53 35 17 86 20 90
REMARK Flexibility Score: inf
ROOT
ATOM      1  O   UNL     1       3.322  -2.025   1.607  1.00  0.00    -0.458 OA
ENDROOT
BRANCH   1   2
ATOM      2  C   UNL     1       3.768  -0.867   2.380  1.00  0.00     0.275 C 
BRANCH   2   3
ATOM      3  C   UNL     1       3.800   0.506   1.651  1.00  0.00     0.275 C 
BRANCH   3   4
ATOM      4  O   UNL     1       2.532   0.872   1.106  1.00  0.00    -0.458 OA
BRANCH   4   5
ATOM      5  C   UNL     1       2.083   0.499  -0.111  1.00  0.00     0.338 C 
ATOM      6  O   UNL     1       0.989   0.883  -0.514  1.00  0.00    -0.246 OA
BRANCH   5   7
ATOM      7  C   UNL     1       2.856  -0.403  -1.010  1.00  0.00     0.060 A 
ATOM      8  C   UNL     1       4.455  -1.196  -0.646  1.00  0.00     0.016 A 
ATOM      9  C   UNL     1       2.038  -0.843  -2.626  1.00  0.00     0.016 A 
ATOM     10  C   UNL     1       5.253  -2.373  -1.756  1.00  0.00     0.010 A 
ATOM     11  C   UNL     1       2.923  -1.922  -3.846  1.00  0.00     0.010 A 
ATOM     12  C   UNL     1       4.492  -2.754  -3.360  1.00  0.00    -0.014 A 
BRANCH  12  13
ATOM     13  C   UNL     1       5.288  -3.673  -4.242  1.00  0.00     0.031 A 
ATOM     14  C   UNL     1       5.773  -3.183  -5.568  1.00  0.00     0.074 A 
ATOM     15  C   UNL     1       5.803  -4.861  -3.810  1.00  0.00     0.049 A 
ATOM     16  N   UNL     1       6.584  -3.822  -6.359  1.00  0.00    -0.248 NA
ATOM     17  C   UNL     1       5.549  -1.784  -5.962  1.00  0.00     0.031 C 
ATOM     18  C   UNL     1       5.963  -5.374  -2.439  1.00  0.00     0.029 A 
ATOM     19  N   UNL     1       5.997  -6.008  -4.550  1.00  0.00    -0.354 N 
ATOM     20  C   UNL     1       7.074  -2.877  -7.234  1.00  0.00     0.074 A 
ATOM     21  C   UNL     1       6.486  -1.610  -6.888  1.00  0.00     0.031 C 
ATOM     22  C   UNL     1       5.844  -6.715  -2.431  1.00  0.00     0.029 A 
ATOM     23  C   UNL     1       5.761  -7.156  -3.798  1.00  0.00     0.049 A 
ATOM     24  H   UNL     1       6.269  -6.015  -5.496  1.00  0.00     0.167 HD
ATOM     25  C   UNL     1       7.923  -3.107  -8.253  1.00  0.00     0.037 A 
ATOM     26  C   UNL     1       5.463  -8.404  -4.205  1.00  0.00     0.037 A 
ATOM     27  C   UNL     1       8.259  -4.447  -8.657  1.00  0.00     0.049 A 
ATOM     28  C   UNL     1       5.957  -8.681  -5.583  1.00  0.00     0.074 A 
ATOM     29  C   UNL     1       8.976  -4.856  -9.761  1.00  0.00     0.029 A 
ATOM     30  N   UNL     1       7.798  -5.599  -8.022  1.00  0.00    -0.354 N 
ATOM     31  N   UNL     1       6.443  -7.803  -6.427  1.00  0.00    -0.248 NA
ATOM     32  C   UNL     1       6.065 -10.075  -6.008  1.00  0.00     0.031 C 
ATOM     33  C   UNL     1       8.829  -6.242  -9.869  1.00  0.00     0.029 A 
ATOM     34  C   UNL     1       8.114  -6.712  -8.776  1.00  0.00     0.049 A 
ATOM     35  H   UNL     1       7.318  -5.617  -7.162  1.00  0.00     0.167 HD
ATOM     36  C   UNL     1       7.042  -8.533  -7.422  1.00  0.00     0.074 A 
ATOM     37  C   UNL     1       6.799  -9.934  -7.105  1.00  0.00     0.031 C 
ATOM     38  C   UNL     1       7.775  -8.081  -8.465  1.00  0.00     0.037 A 
BRANCH  25  39
ATOM     39  C   UNL     1       8.348  -1.944  -9.088  1.00  0.00     0.058 A 
ATOM     40  C   UNL     1       9.320  -1.024  -8.668  1.00  0.00     0.135 A 
ATOM     41  C   UNL     1       7.793  -1.782 -10.365  1.00  0.00     0.135 A 
ATOM     42  F   UNL     1       9.842  -1.098  -7.433  1.00  0.00    -0.206 F 
ATOM     43  C   UNL     1       9.761  -0.007  -9.512  1.00  0.00     0.059 A 
ATOM     44  C   UNL     1       8.231  -0.790 -11.230  1.00  0.00     0.059 A 
ATOM     45  F   UNL     1       6.820  -2.606 -10.785  1.00  0.00    -0.206 F 
ATOM     46  C   UNL     1       9.227   0.083 -10.801  1.00  0.00     0.060 A 
BRANCH  46  47
ATOM     47  S   UNL     1       9.889   1.328 -11.927  1.00  0.00     0.124 S 
ATOM     48  O   UNL     1       9.465   2.567 -11.282  1.00  0.00    -0.237 OA
ATOM     49  O   UNL     1      11.320   1.048 -11.882  1.00  0.00    -0.237 OA
ATOM     50  O   UNL     1       9.232   1.025 -13.194  1.00  0.00    -0.744 OA
ENDBRANCH  46  47
ENDBRANCH  25  39
BRANCH  26  51
ATOM     51  C   UNL     1       4.849  -9.449  -3.337  1.00  0.00     0.058 A 
ATOM     52  C   UNL     1       5.576 -10.528  -2.818  1.00  0.00     0.135 A 
ATOM     53  C   UNL     1       3.465  -9.431  -3.079  1.00  0.00     0.135 A 
ATOM     54  F   UNL     1       6.900 -10.597  -3.019  1.00  0.00    -0.206 F 
ATOM     55  C   UNL     1       4.957 -11.574  -2.130  1.00  0.00     0.059 A 
ATOM     56  C   UNL     1       2.821 -10.460  -2.384  1.00  0.00     0.059 A 
ATOM     57  F   UNL     1       2.712  -8.413  -3.527  1.00  0.00    -0.206 F 
ATOM     58  C   UNL     1       3.575 -11.540  -1.930  1.00  0.00     0.060 A 
BRANCH  58  59
ATOM     59  S   UNL     1       2.785 -12.933  -1.084  1.00  0.00     0.124 S 
ATOM     60  O   UNL     1       3.031 -14.028  -2.017  1.00  0.00    -0.237 OA
ATOM     61  O   UNL     1       3.528 -12.987   0.170  1.00  0.00    -0.237 OA
ATOM     62  O   UNL     1       1.392 -12.513  -0.965  1.00  0.00    -0.744 OA
ENDBRANCH  58  59
ENDBRANCH  26  51
BRANCH  38  63
ATOM     63  C   UNL     1       8.283  -9.133  -9.385  1.00  0.00     0.058 A 
ATOM     64  C   UNL     1       7.392  -9.867 -10.179  1.00  0.00     0.135 A 
ATOM     65  C   UNL     1       9.659  -9.359  -9.517  1.00  0.00     0.135 A 
ATOM     66  F   UNL     1       6.067  -9.686 -10.062  1.00  0.00    -0.206 F 
ATOM     67  C   UNL     1       7.853 -10.816 -11.069  1.00  0.00     0.059 A 
ATOM     68  C   UNL     1      10.145 -10.266 -10.444  1.00  0.00     0.059 A 
ATOM     69  F   UNL     1      10.539  -8.671  -8.772  1.00  0.00    -0.206 F 
ATOM     70  C   UNL     1       9.231 -10.991 -11.209  1.00  0.00     0.060 A 
BRANCH  70  71
ATOM     71  S   UNL     1       9.802 -12.151 -12.456  1.00  0.00     0.124 S 
ATOM     72  O   UNL     1       9.367 -13.425 -11.892  1.00  0.00    -0.237 OA
ATOM     73  O   UNL     1       9.080 -11.700 -13.642  1.00  0.00    -0.237 OA
ATOM     74  O   UNL     1      11.245 -11.936 -12.485  1.00  0.00    -0.744 OA
ENDBRANCH  70  71
ENDBRANCH  38  63
ENDBRANCH  12  13
ENDBRANCH   5   7
ENDBRANCH   4   5
ENDBRANCH   3   4
ENDBRANCH   2   3
ENDBRANCH   1   2
BRANCH   1  75
ATOM     75  C   UNL     1       1.998  -2.329   1.492  1.00  0.00     0.338 C 
ATOM     76  O   UNL     1       1.089  -1.778   2.085  1.00  0.00    -0.246 OA
BRANCH  75  77
ATOM     77  C   UNL     1       1.817  -3.168   0.265  1.00  0.00     0.068 A 
ATOM     78  C   UNL     1       0.649  -2.473  -0.976  1.00  0.00     0.016 A 
ATOM     79  C   UNL     1       3.160  -4.272  -0.294  1.00  0.00     0.009 A 
ATOM     80  C   UNL     1       0.773  -2.929  -2.761  1.00  0.00     0.001 A 
ATOM     81  C   UNL     1       3.299  -4.731  -2.107  1.00  0.00     0.010 A 
ATOM     82  C   UNL     1       2.072  -4.094  -3.322  1.00  0.00     0.001 A 
BRANCH  79  83
ATOM     83  C   UNL     1       3.629  -5.274   0.596  1.00  0.00     0.142 C 
ATOM     84  N   UNL     1       3.209  -6.461   0.358  1.00  0.00    -0.181 NA
BRANCH  84  85
ATOM     85  N   UNL     1       2.225  -6.570  -0.614  1.00  0.00    -0.254 N 
ATOM     86  H   UNL     1       2.132  -7.476  -0.989  1.00  0.00     0.193 HD
BRANCH  85  87
ATOM     87  C   UNL     1       1.341  -5.639  -1.161  1.00  0.00     0.187 C 
ATOM     88  S   UNL     1      -0.153  -6.255  -1.665  1.00  0.00    -0.039 S 
BRANCH  87  89
ATOM     89  N   UNL     1       1.631  -4.135  -1.457  1.00  0.00    -0.357 N 
ATOM     90  H   UNL     1       0.740  -3.721  -1.505  1.00  0.00     0.163 HD
BRANCH  89  91
ATOM     91  C   UNL     1       2.981  -2.522  -1.812  1.00  0.00     0.151 C 
BRANCH  91  92
ATOM     92  C   UNL     1       4.062  -0.810  -2.658  1.00  0.00    -0.029 A 
ATOM     93  C   UNL     1       5.546  -0.580  -3.148  1.00  0.00     0.005 A 
ATOM     94  C   UNL     1       3.632   0.744  -2.895  1.00  0.00     0.005 A 
ATOM     95  C   UNL     1       6.262   0.595  -3.567  1.00  0.00     0.000 A 
ATOM     96  C   UNL     1       4.354   1.911  -3.282  1.00  0.00     0.000 A 
ATOM     97  C   UNL     1       5.675   1.832  -3.614  1.00  0.00     0.000 A 
ENDBRANCH  91  92
ENDBRANCH  89  91
ENDBRANCH  87  89
ENDBRANCH  85  87
ENDBRANCH  84  85
ENDBRANCH  79  83
ENDBRANCH  75  77
ENDBRANCH   1  75
TORSDOF 20
