REMARK SMILES C[C@H]1N=N[C@H](S/C(=C/c2ccc(-c3cccc(Cl)c3)o2)C(=O)OCCOC(=O)c2ccc(-c3c4nc(c(-c5c(F)cc(S(=O)(=O)[O-])cc5F)c5ccc([nH]5)c(-c5c(F)cc(S(=O)(=O)[O-])cc5F)c5nc(c(-c6c(F)cc(S(=O)(=O)[O-])cc6F)c6ccc3[nH]6)C=C5)C=C4)cc2)[NH2+]1
REMARK SMILES IDX 25 1 24 2 23 3 21 4 22 5 7 6 8 7 6 8 5 9 1 10 2 11 3 12
REMARK SMILES IDX 95 13 4 14 9 17 10 18 20 19 11 20 12 21 13 22 14 23 19 24
REMARK SMILES IDX 15 25 17 26 16 27 18 28 26 29 27 30 28 31 29 32 30 33 94 34
REMARK SMILES IDX 31 35 93 36 32 37 33 38 34 39 87 40 35 41 92 42 86 43 88 44
REMARK SMILES IDX 36 45 91 46 85 47 84 48 37 50 71 51 50 52 70 53 51 54 54 55
REMARK SMILES IDX 69 56 89 57 52 58 53 59 68 61 90 62 55 63 38 64 39 65 48 66
REMARK SMILES IDX 40 67 41 68 47 69 49 70 42 71 43 72 44 73 45 74 46 75 72 76
REMARK SMILES IDX 73 77 82 78 74 79 75 80 81 81 83 82 76 83 77 84 78 85 79 86
REMARK SMILES IDX 80 87 56 88 57 89 66 90 58 91 59 92 65 93 67 94 60 95 61 96
REMARK SMILES IDX 62 97 63 98 64 99
REMARK H PARENT 95 15 95 16 88 49 54 60
REMARK Flexibility Score: inf
ROOT
ATOM      1  C   UNL     1      -4.621  -8.326   1.371  1.00  0.00     0.275 C 
ENDROOT
BRANCH   1   2
ATOM      2  C   UNL     1      -3.826  -8.335   0.072  1.00  0.00     0.275 C 
BRANCH   2   3
ATOM      3  O   UNL     1      -2.530  -7.755   0.311  1.00  0.00    -0.458 OA
BRANCH   3   4
ATOM      4  C   UNL     1      -2.132  -6.755  -0.519  1.00  0.00     0.345 C 
ATOM      5  O   UNL     1      -2.774  -6.270  -1.437  1.00  0.00    -0.246 OA
BRANCH   4   6
ATOM      6  C   UNL     1      -0.745  -6.343  -0.159  1.00  0.00     0.104 C 
ATOM      7  C   UNL     1       0.289  -7.186  -0.318  1.00  0.00     0.070 C 
BRANCH   6   8
ATOM      8  S   UNL     1      -0.638  -4.846   0.704  1.00  0.00    -0.028 SA
BRANCH   8   9
ATOM      9  C   UNL     1       0.777  -3.971  -0.024  1.00  0.00     0.393 C 
ATOM     10  C   UNL     1       1.100  -0.428  -0.165  1.00  0.00     0.106 C 
ATOM     11  C   UNL     1       0.399  -1.776  -0.227  1.00  0.00     0.324 C 
ATOM     12  N   UNL     1       0.540  -2.369  -1.569  1.00  0.00    -0.126 NA
ATOM     13  N   UNL     1       0.972  -2.728   0.725  1.00  0.00    -0.293 N 
ATOM     14  N   UNL     1       0.701  -3.612  -1.454  1.00  0.00    -0.115 NA
ATOM     15  H   UNL     1       0.464  -2.733   1.609  1.00  0.00     0.350 HD
ATOM     16  H   UNL     1       1.935  -2.536   1.002  1.00  0.00     0.350 HD
ENDBRANCH   8   9
ENDBRANCH   6   8
BRANCH   7  17
ATOM     17  C   UNL     1       0.162  -8.500  -0.846  1.00  0.00     0.128 A 
ATOM     18  C   UNL     1      -0.545  -9.001  -1.935  1.00  0.00     0.051 A 
ATOM     19  O   UNL     1       0.783  -9.563  -0.237  1.00  0.00    -0.457 OA
ATOM     20  C   UNL     1      -0.381 -10.409  -1.948  1.00  0.00     0.051 A 
ATOM     21  C   UNL     1       0.432 -10.707  -0.880  1.00  0.00     0.134 A 
BRANCH  21  22
ATOM     22  C   UNL     1       0.989 -11.929  -0.326  1.00  0.00     0.019 A 
ATOM     23  C   UNL     1       1.432 -12.953  -1.173  1.00  0.00     0.012 A 
ATOM     24  C   UNL     1       1.096 -12.098   1.062  1.00  0.00     0.032 A 
ATOM     25  C   UNL     1       1.987 -14.120  -0.645  1.00  0.00     0.002 A 
ATOM     26  C   UNL     1       1.640 -13.270   1.584  1.00  0.00     0.041 A 
ATOM     27  C   UNL     1       2.091 -14.279   0.736  1.00  0.00     0.020 A 
ATOM     28  Cl  UNL     1       1.757 -13.476   3.288  1.00  0.00    -0.084 Cl
ENDBRANCH  21  22
ENDBRANCH   7  17
ENDBRANCH   4   6
ENDBRANCH   3   4
ENDBRANCH   2   3
ENDBRANCH   1   2
BRANCH   1  29
ATOM     29  O   UNL     1      -4.924  -6.958   1.687  1.00  0.00    -0.458 OA
BRANCH  29  30
ATOM     30  C   UNL     1      -4.316  -6.456   2.783  1.00  0.00     0.338 C 
ATOM     31  O   UNL     1      -3.685  -7.064   3.635  1.00  0.00    -0.246 OA
BRANCH  30  32
ATOM     32  C   UNL     1      -4.501  -5.000   2.785  1.00  0.00     0.060 A 
ATOM     33  C   UNL     1      -3.940  -4.244   1.756  1.00  0.00     0.016 A 
ATOM     34  C   UNL     1      -5.143  -4.377   3.852  1.00  0.00     0.016 A 
ATOM     35  C   UNL     1      -3.923  -2.855   1.844  1.00  0.00     0.010 A 
ATOM     36  C   UNL     1      -5.220  -2.982   3.881  1.00  0.00     0.010 A 
ATOM     37  C   UNL     1      -4.574  -2.204   2.901  1.00  0.00    -0.014 A 
BRANCH  37  38
ATOM     38  C   UNL     1      -4.542  -0.720   3.018  1.00  0.00     0.031 A 
ATOM     39  C   UNL     1      -3.972  -0.079   4.258  1.00  0.00     0.074 A 
ATOM     40  C   UNL     1      -5.021   0.060   2.028  1.00  0.00     0.049 A 
ATOM     41  N   UNL     1      -4.047   1.165   4.656  1.00  0.00    -0.248 NA
ATOM     42  C   UNL     1      -3.239  -0.961   5.180  1.00  0.00     0.031 C 
ATOM     43  C   UNL     1      -5.556  -0.416   0.751  1.00  0.00     0.029 A 
ATOM     44  N   UNL     1      -5.130   1.427   1.941  1.00  0.00    -0.354 N 
ATOM     45  C   UNL     1      -3.443   1.199   5.909  1.00  0.00     0.074 A 
ATOM     46  C   UNL     1      -2.995  -0.147   6.197  1.00  0.00     0.031 C 
ATOM     47  C   UNL     1      -5.895   0.638  -0.006  1.00  0.00     0.029 A 
ATOM     48  C   UNL     1      -5.686   1.861   0.761  1.00  0.00     0.049 A 
ATOM     49  H   UNL     1      -4.838   2.037   2.656  1.00  0.00     0.167 HD
ATOM     50  C   UNL     1      -3.286   2.254   6.743  1.00  0.00     0.037 A 
ATOM     51  C   UNL     1      -6.028   3.098   0.354  1.00  0.00     0.037 A 
ATOM     52  C   UNL     1      -3.662   3.605   6.416  1.00  0.00     0.049 A 
ATOM     53  C   UNL     1      -5.837   4.257   1.290  1.00  0.00     0.074 A 
ATOM     54  C   UNL     1      -3.517   4.750   7.180  1.00  0.00     0.029 A 
ATOM     55  N   UNL     1      -4.236   3.996   5.215  1.00  0.00    -0.354 N 
ATOM     56  N   UNL     1      -5.334   4.263   2.501  1.00  0.00    -0.248 NA
ATOM     57  C   UNL     1      -6.287   5.573   0.816  1.00  0.00     0.031 C 
ATOM     58  C   UNL     1      -4.022   5.832   6.447  1.00  0.00     0.029 A 
ATOM     59  C   UNL     1      -4.455   5.363   5.217  1.00  0.00     0.049 A 
ATOM     60  H   UNL     1      -4.454   3.390   4.470  1.00  0.00     0.167 HD
ATOM     61  C   UNL     1      -5.404   5.581   2.934  1.00  0.00     0.074 A 
ATOM     62  C   UNL     1      -5.982   6.348   1.848  1.00  0.00     0.031 C 
ATOM     63  C   UNL     1      -5.030   6.107   4.126  1.00  0.00     0.037 A 
BRANCH  50  64
ATOM     64  C   UNL     1      -2.721   1.979   8.108  1.00  0.00     0.058 A 
ATOM     65  C   UNL     1      -1.359   1.712   8.314  1.00  0.00     0.135 A 
ATOM     66  C   UNL     1      -3.565   1.987   9.231  1.00  0.00     0.135 A 
ATOM     67  F   UNL     1      -0.513   1.675   7.272  1.00  0.00    -0.206 F 
ATOM     68  C   UNL     1      -0.858   1.429   9.581  1.00  0.00     0.059 A 
ATOM     69  C   UNL     1      -3.082   1.729  10.510  1.00  0.00     0.059 A 
ATOM     70  F   UNL     1      -4.876   2.238   9.089  1.00  0.00    -0.206 F 
ATOM     71  C   UNL     1      -1.730   1.432  10.673  1.00  0.00     0.060 A 
BRANCH  71  72
ATOM     72  S   UNL     1      -1.078   1.048  12.312  1.00  0.00     0.124 S 
ATOM     73  O   UNL     1      -1.000  -0.408  12.259  1.00  0.00    -0.237 OA
ATOM     74  O   UNL     1       0.202   1.750  12.318  1.00  0.00    -0.237 OA
ATOM     75  O   UNL     1      -2.089   1.592  13.214  1.00  0.00    -0.744 OA
ENDBRANCH  71  72
ENDBRANCH  50  64
BRANCH  51  76
ATOM     76  C   UNL     1      -6.612   3.293  -0.998  1.00  0.00     0.058 A 
ATOM     77  C   UNL     1      -5.862   3.888  -2.022  1.00  0.00     0.135 A 
ATOM     78  C   UNL     1      -7.908   2.851  -1.305  1.00  0.00     0.135 A 
ATOM     79  F   UNL     1      -4.622   4.337  -1.772  1.00  0.00    -0.206 F 
ATOM     80  C   UNL     1      -6.374   4.034  -3.308  1.00  0.00     0.059 A 
ATOM     81  C   UNL     1      -8.433   2.966  -2.588  1.00  0.00     0.059 A 
ATOM     82  F   UNL     1      -8.660   2.265  -0.360  1.00  0.00    -0.206 F 
ATOM     83  C   UNL     1      -7.659   3.563  -3.582  1.00  0.00     0.060 A 
BRANCH  83  84
ATOM     84  S   UNL     1      -8.288   3.678  -5.272  1.00  0.00     0.124 S 
ATOM     85  O   UNL     1      -8.700   5.075  -5.337  1.00  0.00    -0.237 OA
ATOM     86  O   UNL     1      -7.117   3.320  -6.066  1.00  0.00    -0.237 OA
ATOM     87  O   UNL     1      -9.369   2.697  -5.291  1.00  0.00    -0.744 OA
ENDBRANCH  83  84
ENDBRANCH  51  76
BRANCH  63  88
ATOM     88  C   UNL     1      -5.217   7.585   4.307  1.00  0.00     0.058 A 
ATOM     89  C   UNL     1      -6.478   8.133   4.587  1.00  0.00     0.135 A 
ATOM     90  C   UNL     1      -4.119   8.455   4.238  1.00  0.00     0.135 A 
ATOM     91  F   UNL     1      -7.559   7.340   4.655  1.00  0.00    -0.206 F 
ATOM     92  C   UNL     1      -6.647   9.500   4.775  1.00  0.00     0.059 A 
ATOM     93  C   UNL     1      -4.262   9.824   4.439  1.00  0.00     0.059 A 
ATOM     94  F   UNL     1      -2.892   7.976   3.979  1.00  0.00    -0.206 F 
ATOM     95  C   UNL     1      -5.533  10.338   4.697  1.00  0.00     0.060 A 
BRANCH  95  96
ATOM     96  S   UNL     1      -5.754  12.109   4.970  1.00  0.00     0.124 S 
ATOM     97  O   UNL     1      -6.280  12.541   3.679  1.00  0.00    -0.237 OA
ATOM     98  O   UNL     1      -6.698  12.144   6.083  1.00  0.00    -0.237 OA
ATOM     99  O   UNL     1      -4.406  12.572   5.287  1.00  0.00    -0.744 OA
ENDBRANCH  95  96
ENDBRANCH  63  88
ENDBRANCH  37  38
ENDBRANCH  30  32
ENDBRANCH  29  30
ENDBRANCH   1  29
TORSDOF 18
