REMARK SMILES O=C(OCCOC(=O)c1cc(S(=O)(=O)Nc2cc(F)ccc2F)cc2c1OCCO2)c1ccc(-c2c3nc(c(-c4c(F)cc(S(=O)(=O)[O-])cc4F)c4ccc([nH]4)c(-c4c(F)cc(S(=O)(=O)[O-])cc4F)c4nc(c(-c5c(F)cc(S(=O)(=O)[O-])cc5F)c5ccc2[nH]5)C=C4)C=C3)cc1
REMARK SMILES IDX 4 1 3 2 2 3 1 4 31 5 32 6 96 7 33 8 95 9 34 10 35 11 36 12
REMARK SMILES IDX 89 13 37 14 94 15 88 16 90 17 38 18 93 19 87 20 86 21 39 23
REMARK SMILES IDX 73 24 52 25 72 26 53 27 56 28 71 29 91 30 54 31 55 32 70 34
REMARK SMILES IDX 92 35 57 36 40 37 41 38 50 39 42 40 43 41 49 42 51 43 44 44
REMARK SMILES IDX 45 45 46 46 47 47 48 48 74 49 75 50 84 51 76 52 77 53 83 54
REMARK SMILES IDX 85 55 78 56 79 57 80 58 81 59 82 60 58 61 59 62 68 63 60 64
REMARK SMILES IDX 61 65 67 66 69 67 62 68 63 69 64 70 65 71 66 72 5 73 6 74
REMARK SMILES IDX 7 75 8 76 9 77 10 78 26 79 11 80 25 81 27 82 24 83 30 84
REMARK SMILES IDX 28 85 29 86 12 87 13 88 14 89 15 90 16 92 17 93 22 94 18 95
REMARK SMILES IDX 21 96 23 97 19 98 20 99
REMARK H PARENT 90 22 56 33 15 91
REMARK Flexibility Score: inf
ROOT
ATOM      1  C   UNL     1       4.563   1.440  -0.872  1.00  0.00     0.275 C 
ENDROOT
BRANCH   1   2
ATOM      2  O   UNL     1       3.853   0.247  -1.257  1.00  0.00    -0.458 OA
BRANCH   2   3
ATOM      3  C   UNL     1       3.173  -0.508  -0.369  1.00  0.00     0.338 C 
ATOM      4  O   UNL     1       1.959  -0.644  -0.462  1.00  0.00    -0.246 OA
BRANCH   3   5
ATOM      5  C   UNL     1       3.947  -1.296   0.638  1.00  0.00     0.060 A 
ATOM      6  C   UNL     1       5.223  -0.967   1.091  1.00  0.00     0.016 A 
ATOM      7  C   UNL     1       3.298  -2.393   1.226  1.00  0.00     0.016 A 
ATOM      8  C   UNL     1       5.826  -1.704   2.104  1.00  0.00     0.010 A 
ATOM      9  C   UNL     1       3.876  -3.111   2.272  1.00  0.00     0.010 A 
ATOM     10  C   UNL     1       5.152  -2.770   2.709  1.00  0.00    -0.014 A 
BRANCH  10  11
ATOM     11  C   UNL     1       5.841  -3.511   3.782  1.00  0.00     0.031 A 
ATOM     12  C   UNL     1       6.409  -4.858   3.490  1.00  0.00     0.074 A 
ATOM     13  C   UNL     1       6.054  -2.894   4.958  1.00  0.00     0.049 A 
ATOM     14  N   UNL     1       7.229  -5.567   4.214  1.00  0.00    -0.248 NA
ATOM     15  C   UNL     1       6.021  -5.485   2.216  1.00  0.00     0.031 C 
ATOM     16  C   UNL     1       5.509  -1.584   5.301  1.00  0.00     0.029 A 
ATOM     17  N   UNL     1       6.794  -3.239   6.055  1.00  0.00    -0.354 N 
ATOM     18  C   UNL     1       7.489  -6.706   3.468  1.00  0.00     0.074 A 
ATOM     19  C   UNL     1       6.687  -6.629   2.268  1.00  0.00     0.031 C 
ATOM     20  C   UNL     1       5.960  -1.216   6.508  1.00  0.00     0.029 A 
ATOM     21  C   UNL     1       6.805  -2.272   7.035  1.00  0.00     0.049 A 
ATOM     22  H   UNL     1       7.272  -4.096   6.136  1.00  0.00     0.167 HD
ATOM     23  C   UNL     1       8.351  -7.705   3.757  1.00  0.00     0.037 A 
ATOM     24  C   UNL     1       7.437  -2.235   8.223  1.00  0.00     0.037 A 
ATOM     25  C   UNL     1       9.101  -7.764   4.984  1.00  0.00     0.049 A 
ATOM     26  C   UNL     1       8.355  -3.377   8.538  1.00  0.00     0.074 A 
ATOM     27  C   UNL     1       9.968  -8.746   5.423  1.00  0.00     0.029 A 
ATOM     28  N   UNL     1       9.059  -6.791   5.978  1.00  0.00    -0.354 N 
ATOM     29  N   UNL     1       8.618  -4.436   7.806  1.00  0.00    -0.248 NA
ATOM     30  C   UNL     1       9.079  -3.321   9.810  1.00  0.00     0.031 C 
ATOM     31  C   UNL     1      10.422  -8.383   6.697  1.00  0.00     0.029 A 
ATOM     32  C   UNL     1       9.877  -7.153   7.034  1.00  0.00     0.049 A 
ATOM     33  H   UNL     1       8.525  -5.965   5.936  1.00  0.00     0.167 HD
ATOM     34  C   UNL     1       9.542  -5.175   8.525  1.00  0.00     0.074 A 
ATOM     35  C   UNL     1       9.822  -4.417   9.733  1.00  0.00     0.031 C 
ATOM     36  C   UNL     1      10.104  -6.372   8.226  1.00  0.00     0.037 A 
BRANCH  23  37
ATOM     37  C   UNL     1       8.498  -8.791   2.732  1.00  0.00     0.058 A 
ATOM     38  C   UNL     1       9.136  -8.553   1.502  1.00  0.00     0.135 A 
ATOM     39  C   UNL     1       7.970 -10.071   2.957  1.00  0.00     0.135 A 
ATOM     40  F   UNL     1       9.629  -7.336   1.220  1.00  0.00    -0.206 F 
ATOM     41  C   UNL     1       9.226  -9.538   0.525  1.00  0.00     0.059 A 
ATOM     42  C   UNL     1       8.069 -11.079   2.002  1.00  0.00     0.059 A 
ATOM     43  F   UNL     1       7.335 -10.347   4.107  1.00  0.00    -0.206 F 
ATOM     44  C   UNL     1       8.688 -10.799   0.784  1.00  0.00     0.060 A 
BRANCH  44  45
ATOM     45  S   UNL     1       8.817 -12.068  -0.494  1.00  0.00     0.124 S 
ATOM     46  O   UNL     1       7.865 -11.580  -1.488  1.00  0.00    -0.237 OA
ATOM     47  O   UNL     1      10.224 -11.986  -0.872  1.00  0.00    -0.237 OA
ATOM     48  O   UNL     1       8.427 -13.291   0.200  1.00  0.00    -0.744 OA
ENDBRANCH  44  45
ENDBRANCH  23  37
BRANCH  24  49
ATOM     49  C   UNL     1       7.227  -1.095   9.159  1.00  0.00     0.058 A 
ATOM     50  C   UNL     1       8.252  -0.192   9.476  1.00  0.00     0.135 A 
ATOM     51  C   UNL     1       5.967  -0.870   9.742  1.00  0.00     0.135 A 
ATOM     52  F   UNL     1       9.473  -0.348   8.942  1.00  0.00    -0.206 F 
ATOM     53  C   UNL     1       8.047   0.874  10.352  1.00  0.00     0.059 A 
ATOM     54  C   UNL     1       5.729   0.203  10.596  1.00  0.00     0.059 A 
ATOM     55  F   UNL     1       4.939  -1.684   9.455  1.00  0.00    -0.206 F 
ATOM     56  C   UNL     1       6.779   1.062  10.907  1.00  0.00     0.060 A 
BRANCH  56  57
ATOM     57  S   UNL     1       6.508   2.470  12.007  1.00  0.00     0.124 S 
ATOM     58  O   UNL     1       7.203   2.039  13.214  1.00  0.00    -0.237 OA
ATOM     59  O   UNL     1       7.130   3.561  11.264  1.00  0.00    -0.237 OA
ATOM     60  O   UNL     1       5.053   2.542  12.104  1.00  0.00    -0.744 OA
ENDBRANCH  56  57
ENDBRANCH  24  49
BRANCH  36  61
ATOM     61  C   UNL     1      11.069  -6.913   9.237  1.00  0.00     0.058 A 
ATOM     62  C   UNL     1      10.629  -7.410  10.474  1.00  0.00     0.135 A 
ATOM     63  C   UNL     1      12.445  -6.934   8.963  1.00  0.00     0.135 A 
ATOM     64  F   UNL     1       9.323  -7.398  10.782  1.00  0.00    -0.206 F 
ATOM     65  C   UNL     1      11.528  -7.871  11.425  1.00  0.00     0.059 A 
ATOM     66  C   UNL     1      13.359  -7.421   9.888  1.00  0.00     0.059 A 
ATOM     67  F   UNL     1      12.909  -6.478   7.789  1.00  0.00    -0.206 F 
ATOM     68  C   UNL     1      12.892  -7.869  11.124  1.00  0.00     0.060 A 
BRANCH  68  69
ATOM     69  S   UNL     1      14.050  -8.469  12.368  1.00  0.00     0.124 S 
ATOM     70  O   UNL     1      14.075  -7.351  13.306  1.00  0.00    -0.237 OA
ATOM     71  O   UNL     1      13.397  -9.684  12.844  1.00  0.00    -0.237 OA
ATOM     72  O   UNL     1      15.280  -8.681  11.610  1.00  0.00    -0.744 OA
ENDBRANCH  68  69
ENDBRANCH  36  61
ENDBRANCH  10  11
ENDBRANCH   3   5
ENDBRANCH   2   3
ENDBRANCH   1   2
BRANCH   1  73
ATOM     73  C   UNL     1       3.947   2.337   0.213  1.00  0.00     0.275 C 
BRANCH  73  74
ATOM     74  O   UNL     1       3.492   1.621   1.371  1.00  0.00    -0.458 OA
BRANCH  74  75
ATOM     75  C   UNL     1       2.169   1.733   1.674  1.00  0.00     0.342 C 
ATOM     76  O   UNL     1       1.327   2.374   1.067  1.00  0.00    -0.246 OA
BRANCH  75  77
ATOM     77  C   UNL     1       1.847   0.820   2.791  1.00  0.00     0.107 A 
ATOM     78  C   UNL     1       0.915  -0.215   2.564  1.00  0.00     0.042 A 
ATOM     79  C   UNL     1       2.482   0.961   4.029  1.00  0.00     0.175 A 
ATOM     80  C   UNL     1       0.691  -1.167   3.559  1.00  0.00     0.092 A 
ATOM     81  C   UNL     1       2.200   0.036   5.037  1.00  0.00     0.163 A 
ATOM     82  O   UNL     1       3.331   2.022   4.217  1.00  0.00    -0.485 OA
ATOM     83  C   UNL     1       1.337  -1.037   4.797  1.00  0.00     0.072 A 
ATOM     84  O   UNL     1       2.756   0.093   6.287  1.00  0.00    -0.486 OA
ATOM     85  C   UNL     1       4.145   1.880   5.387  1.00  0.00     0.271 C 
ATOM     86  C   UNL     1       3.332   1.372   6.566  1.00  0.00     0.271 C 
BRANCH  80  87
ATOM     87  S   UNL     1      -0.352  -2.601   3.362  1.00  0.00     0.262 S 
ATOM     88  O   UNL     1       0.525  -3.716   3.081  1.00  0.00    -0.201 OA
ATOM     89  O   UNL     1      -1.232  -2.613   4.514  1.00  0.00    -0.201 OA
BRANCH  87  90
ATOM     90  N   UNL     1      -1.379  -2.363   2.069  1.00  0.00    -0.277 N 
ATOM     91  H   UNL     1      -2.331  -2.222   2.276  1.00  0.00     0.180 HD
BRANCH  90  92
ATOM     92  C   UNL     1      -1.009  -2.344   0.695  1.00  0.00     0.087 A 
ATOM     93  C   UNL     1      -0.105  -3.241   0.134  1.00  0.00     0.069 A 
ATOM     94  C   UNL     1      -1.632  -1.405  -0.138  1.00  0.00     0.147 A 
ATOM     95  C   UNL     1       0.252  -3.105  -1.208  1.00  0.00     0.125 A 
ATOM     96  C   UNL     1      -1.284  -1.278  -1.481  1.00  0.00     0.044 A 
ATOM     97  F   UNL     1      -2.569  -0.589   0.369  1.00  0.00    -0.205 F 
ATOM     98  F   UNL     1       1.191  -3.912  -1.720  1.00  0.00    -0.207 F 
ATOM     99  C   UNL     1      -0.315  -2.123  -2.015  1.00  0.00     0.042 A 
ENDBRANCH  90  92
ENDBRANCH  87  90
ENDBRANCH  80  87
ENDBRANCH  75  77
ENDBRANCH  74  75
ENDBRANCH  73  74
ENDBRANCH   1  73
TORSDOF 17
