REMARK SMILES O=C(OCCOC(=O)c1ccccc1-c1ccc(/C=C2/SC(=S)N(Cc3ccccc3)C2=O)o1)c1ccc(-c2c3nc(c(-c4c(F)cc(S(=O)(=O)[O-])cc4F)c4ccc([nH]4)c(-c4c(F)cc(S(=O)(=O)[O-])cc4F)c4nc(c(-c5c(F)cc(S(=O)(=O)[O-])cc5F)c5ccc2[nH]5)C=C4)C=C3)cc1
REMARK SMILES IDX 5 1 4 2 3 3 2 4 1 5 35 6 36 7 100 8 37 9 99 10 38 11 39 12
REMARK SMILES IDX 40 13 93 14 41 15 98 16 92 17 94 18 42 19 97 20 91 21 90 22
REMARK SMILES IDX 43 24 77 25 56 26 76 27 57 28 60 29 75 30 95 31 58 32 59 33
REMARK SMILES IDX 74 35 96 36 61 37 44 38 45 39 54 40 46 41 47 42 53 43 55 44
REMARK SMILES IDX 48 45 49 46 50 47 51 48 52 49 78 50 79 51 88 52 80 53 81 54
REMARK SMILES IDX 87 55 89 56 82 57 83 58 84 59 85 60 86 61 62 62 63 63 72 64
REMARK SMILES IDX 64 65 65 66 71 67 73 68 66 69 67 70 68 71 69 72 70 73 6 74
REMARK SMILES IDX 7 75 8 76 9 77 10 78 14 79 11 80 13 81 12 82 15 83 16 84
REMARK SMILES IDX 34 85 17 86 18 87 19 88 20 89 21 90 32 91 22 92 24 93 33 94
REMARK SMILES IDX 23 95 25 96 26 97 27 98 31 99 28 100 30 101 29 102
REMARK H PARENT 94 23 60 34
REMARK Flexibility Score: inf
ROOT
ATOM      1  C   UNL     1       4.081   1.951  -0.182  1.00  0.00     0.275 C 
ENDROOT
BRANCH   1   2
ATOM      2  C   UNL     1       4.176   0.877  -1.264  1.00  0.00     0.275 C 
BRANCH   2   3
ATOM      3  O   UNL     1       3.020   0.021  -1.322  1.00  0.00    -0.458 OA
BRANCH   3   4
ATOM      4  C   UNL     1       2.669  -1.065  -0.593  1.00  0.00     0.338 C 
ATOM      5  O   UNL     1       1.592  -1.601  -0.863  1.00  0.00    -0.246 OA
BRANCH   4   6
ATOM      6  C   UNL     1       3.458  -1.653   0.549  1.00  0.00     0.060 A 
ATOM      7  C   UNL     1       4.753  -1.304   0.931  1.00  0.00     0.016 A 
ATOM      8  C   UNL     1       2.808  -2.647   1.317  1.00  0.00     0.016 A 
ATOM      9  C   UNL     1       5.370  -1.898   2.034  1.00  0.00     0.010 A 
ATOM     10  C   UNL     1       3.421  -3.247   2.427  1.00  0.00     0.010 A 
ATOM     11  C   UNL     1       4.717  -2.880   2.783  1.00  0.00    -0.014 A 
BRANCH  11  12
ATOM     12  C   UNL     1       5.489  -3.552   3.856  1.00  0.00     0.031 A 
ATOM     13  C   UNL     1       6.192  -4.823   3.535  1.00  0.00     0.074 A 
ATOM     14  C   UNL     1       5.691  -2.935   5.034  1.00  0.00     0.049 A 
ATOM     15  N   UNL     1       7.074  -5.465   4.247  1.00  0.00    -0.248 NA
ATOM     16  C   UNL     1       5.864  -5.454   2.247  1.00  0.00     0.031 C 
ATOM     17  C   UNL     1       5.019  -1.708   5.406  1.00  0.00     0.029 A 
ATOM     18  N   UNL     1       6.519  -3.181   6.097  1.00  0.00    -0.354 N 
ATOM     19  C   UNL     1       7.410  -6.580   3.498  1.00  0.00     0.074 A 
ATOM     20  C   UNL     1       6.622  -6.539   2.285  1.00  0.00     0.031 C 
ATOM     21  C   UNL     1       5.513  -1.238   6.559  1.00  0.00     0.029 A 
ATOM     22  C   UNL     1       6.510  -2.176   7.046  1.00  0.00     0.049 A 
ATOM     23  H   UNL     1       7.067  -3.995   6.178  1.00  0.00     0.167 HD
ATOM     24  C   UNL     1       8.298  -7.547   3.813  1.00  0.00     0.037 A 
ATOM     25  C   UNL     1       7.234  -2.029   8.174  1.00  0.00     0.037 A 
ATOM     26  C   UNL     1       9.030  -7.574   5.052  1.00  0.00     0.049 A 
ATOM     27  C   UNL     1       8.218  -3.122   8.490  1.00  0.00     0.074 A 
ATOM     28  C   UNL     1       9.887  -8.547   5.527  1.00  0.00     0.029 A 
ATOM     29  N   UNL     1       8.982  -6.574   6.018  1.00  0.00    -0.354 N 
ATOM     30  N   UNL     1       8.516  -4.184   7.776  1.00  0.00    -0.248 NA
ATOM     31  C   UNL     1       8.947  -3.022   9.758  1.00  0.00     0.031 C 
ATOM     32  C   UNL     1      10.329  -8.154   6.795  1.00  0.00     0.029 A 
ATOM     33  C   UNL     1       9.791  -6.910   7.090  1.00  0.00     0.049 A 
ATOM     34  H   UNL     1       8.450  -5.749   5.950  1.00  0.00     0.167 HD
ATOM     35  C   UNL     1       9.452  -4.889   8.516  1.00  0.00     0.074 A 
ATOM     36  C   UNL     1       9.719  -4.099   9.704  1.00  0.00     0.031 C 
ATOM     37  C   UNL     1      10.019  -6.094   8.258  1.00  0.00     0.037 A 
BRANCH  24  38
ATOM     38  C   UNL     1       8.460  -8.659   2.822  1.00  0.00     0.058 A 
ATOM     39  C   UNL     1       9.101  -8.458   1.589  1.00  0.00     0.135 A 
ATOM     40  C   UNL     1       7.931  -9.931   3.088  1.00  0.00     0.135 A 
ATOM     41  F   UNL     1       9.587  -7.248   1.268  1.00  0.00    -0.206 F 
ATOM     42  C   UNL     1       9.195  -9.475   0.646  1.00  0.00     0.059 A 
ATOM     43  C   UNL     1       8.035 -10.970   2.170  1.00  0.00     0.059 A 
ATOM     44  F   UNL     1       7.287 -10.167   4.242  1.00  0.00    -0.206 F 
ATOM     45  C   UNL     1       8.659 -10.729   0.947  1.00  0.00     0.060 A 
BRANCH  45  46
ATOM     46  S   UNL     1       8.793 -12.039  -0.287  1.00  0.00     0.124 S 
ATOM     47  O   UNL     1       7.847 -11.584  -1.301  1.00  0.00    -0.237 OA
ATOM     48  O   UNL     1      10.203 -11.970  -0.658  1.00  0.00    -0.237 OA
ATOM     49  O   UNL     1       8.398 -13.238   0.446  1.00  0.00    -0.744 OA
ENDBRANCH  45  46
ENDBRANCH  24  38
BRANCH  25  50
ATOM     50  C   UNL     1       7.052  -0.849   9.074  1.00  0.00     0.058 A 
ATOM     51  C   UNL     1       8.108   0.032   9.354  1.00  0.00     0.135 A 
ATOM     52  C   UNL     1       5.820  -0.583   9.696  1.00  0.00     0.135 A 
ATOM     53  F   UNL     1       9.314  -0.166   8.800  1.00  0.00    -0.206 F 
ATOM     54  C   UNL     1       7.961   1.111  10.223  1.00  0.00     0.059 A 
ATOM     55  C   UNL     1       5.635   0.512  10.538  1.00  0.00     0.059 A 
ATOM     56  F   UNL     1       4.768  -1.388   9.479  1.00  0.00    -0.206 F 
ATOM     57  C   UNL     1       6.717   1.346  10.808  1.00  0.00     0.060 A 
BRANCH  57  58
ATOM     58  S   UNL     1       6.530   2.772  11.899  1.00  0.00     0.124 S 
ATOM     59  O   UNL     1       7.266   2.338  13.080  1.00  0.00    -0.237 OA
ATOM     60  O   UNL     1       7.155   3.835  11.115  1.00  0.00    -0.237 OA
ATOM     61  O   UNL     1       5.084   2.889  12.061  1.00  0.00    -0.744 OA
ENDBRANCH  57  58
ENDBRANCH  25  50
BRANCH  37  62
ATOM     62  C   UNL     1      10.976  -6.613   9.291  1.00  0.00     0.058 A 
ATOM     63  C   UNL     1      10.529  -7.069  10.541  1.00  0.00     0.135 A 
ATOM     64  C   UNL     1      12.350  -6.676   9.016  1.00  0.00     0.135 A 
ATOM     65  F   UNL     1       9.223  -7.022  10.851  1.00  0.00    -0.206 F 
ATOM     66  C   UNL     1      11.418  -7.536  11.500  1.00  0.00     0.059 A 
ATOM     67  C   UNL     1      13.254  -7.169   9.948  1.00  0.00     0.059 A 
ATOM     68  F   UNL     1      12.823  -6.261   7.830  1.00  0.00    -0.206 F 
ATOM     69  C   UNL     1      12.780  -7.580  11.194  1.00  0.00     0.060 A 
BRANCH  69  70
ATOM     70  S   UNL     1      13.924  -8.200  12.443  1.00  0.00     0.124 S 
ATOM     71  O   UNL     1      13.964  -7.083  13.381  1.00  0.00    -0.237 OA
ATOM     72  O   UNL     1      13.248  -9.403  12.916  1.00  0.00    -0.237 OA
ATOM     73  O   UNL     1      15.153  -8.433  11.690  1.00  0.00    -0.744 OA
ENDBRANCH  69  70
ENDBRANCH  37  62
ENDBRANCH  11  12
ENDBRANCH   4   6
ENDBRANCH   3   4
ENDBRANCH   2   3
ENDBRANCH   1   2
BRANCH   1  74
ATOM     74  O   UNL     1       3.648   1.404   1.067  1.00  0.00    -0.458 OA
BRANCH  74  75
ATOM     75  C   UNL     1       2.352   1.611   1.400  1.00  0.00     0.338 C 
ATOM     76  O   UNL     1       1.521   2.221   0.746  1.00  0.00    -0.246 OA
BRANCH  75  77
ATOM     77  C   UNL     1       2.027   0.891   2.648  1.00  0.00     0.071 A 
ATOM     78  C   UNL     1       0.895   0.057   2.616  1.00  0.00     0.016 A 
ATOM     79  C   UNL     1       2.795   1.004   3.816  1.00  0.00     0.032 A 
ATOM     80  C   UNL     1       0.526  -0.674   3.745  1.00  0.00     0.001 A 
ATOM     81  C   UNL     1       2.347   0.334   4.969  1.00  0.00     0.013 A 
ATOM     82  C   UNL     1       1.241  -0.521   4.927  1.00  0.00     0.001 A 
BRANCH  79  83
ATOM     83  C   UNL     1       4.073   1.701   3.852  1.00  0.00     0.135 A 
ATOM     84  C   UNL     1       4.513   2.964   3.534  1.00  0.00     0.051 A 
ATOM     85  O   UNL     1       5.138   0.922   4.186  1.00  0.00    -0.457 OA
ATOM     86  C   UNL     1       5.921   2.938   3.690  1.00  0.00     0.051 A 
ATOM     87  C   UNL     1       6.278   1.676   4.151  1.00  0.00     0.128 A 
BRANCH  87  88
ATOM     88  C   UNL     1       7.558   1.214   4.566  1.00  0.00     0.068 C 
ATOM     89  C   UNL     1       8.095   1.674   5.704  1.00  0.00     0.084 C 
ATOM     90  S   UNL     1       9.770   1.650   6.084  1.00  0.00    -0.054 SA
ATOM     91  C   UNL     1       7.384   2.506   6.706  1.00  0.00     0.266 C 
ATOM     92  C   UNL     1       9.608   3.080   7.125  1.00  0.00     0.148 C 
ATOM     93  N   UNL     1       8.275   3.378   7.295  1.00  0.00    -0.288 N 
ATOM     94  O   UNL     1       6.190   2.404   6.948  1.00  0.00    -0.268 OA
ATOM     95  S   UNL     1      10.942   3.901   7.701  1.00  0.00    -0.052 S 
BRANCH  93  96
ATOM     96  C   UNL     1       7.728   4.516   8.038  1.00  0.00     0.163 C 
BRANCH  96  97
ATOM     97  C   UNL     1       7.365   5.657   7.092  1.00  0.00    -0.028 A 
ATOM     98  C   UNL     1       8.112   6.841   7.068  1.00  0.00     0.005 A 
ATOM     99  C   UNL     1       6.269   5.545   6.220  1.00  0.00     0.005 A 
ATOM    100  C   UNL     1       7.773   7.878   6.191  1.00  0.00     0.000 A 
ATOM    101  C   UNL     1       5.946   6.568   5.327  1.00  0.00     0.000 A 
ATOM    102  C   UNL     1       6.698   7.738   5.315  1.00  0.00     0.000 A 
ENDBRANCH  96  97
ENDBRANCH  93  96
ENDBRANCH  87  88
ENDBRANCH  79  83
ENDBRANCH  75  77
ENDBRANCH  74  75
ENDBRANCH   1  74
TORSDOF 18
