REMARK SMILES Cc1nn(-c2ccccc2)c(C)c1CNC(=O)[C@@H]1[C@@H](C(=O)OCCOC(=O)c2ccc(-c3c4nc(c(-c5c(F)cc(S(=O)(=O)[O-])cc5F)c5ccc([nH]5)c(-c5c(F)cc(S(=O)(=O)[O-])cc5F)c5nc(c(-c6c(F)cc(S(=O)(=O)[O-])cc6F)c6ccc3[nH]6)C=C5)C=C4)cc2)[C@@H]2C=C[C@H]1C2
REMARK SMILES IDX 23 1 22 2 20 3 21 4 19 5 18 6 97 7 94 8 96 9 98 10 95 11
REMARK SMILES IDX 16 12 15 13 17 15 14 16 13 17 1 18 2 19 3 20 4 21 11 22
REMARK SMILES IDX 12 23 5 24 6 25 10 26 7 27 9 28 8 29 24 30 25 31 26 32 27 33
REMARK SMILES IDX 28 34 29 35 93 36 30 37 92 38 31 39 32 40 33 41 86 42 34 43
REMARK SMILES IDX 91 44 85 45 87 46 35 47 90 48 84 49 83 50 36 52 70 53 49 54
REMARK SMILES IDX 69 55 50 56 53 57 68 58 88 59 51 60 52 61 67 63 89 64 54 65
REMARK SMILES IDX 37 66 38 67 47 68 39 69 40 70 46 71 48 72 41 73 42 74 43 75
REMARK SMILES IDX 44 76 45 77 71 78 72 79 81 80 73 81 74 82 80 83 82 84 75 85
REMARK SMILES IDX 76 86 77 87 78 88 79 89 55 90 56 91 65 92 57 93 58 94 64 95
REMARK SMILES IDX 66 96 59 97 60 98 61 99 62 100 63 101
REMARK H PARENT 15 14 87 51 53 62
REMARK Flexibility Score: inf
ROOT
ATOM      1  C   UNL     1       3.854   8.110   2.349  1.00  0.00     0.274 C 
ENDROOT
BRANCH   1   2
ATOM      2  O   UNL     1       3.156   6.960   2.866  1.00  0.00    -0.462 OA
BRANCH   2   3
ATOM      3  C   UNL     1       2.552   6.161   1.954  1.00  0.00     0.310 C 
ATOM      4  O   UNL     1       2.477   6.410   0.753  1.00  0.00    -0.252 OA
BRANCH   3   5
ATOM      5  C   UNL     1       1.942   4.905   2.543  1.00  0.00     0.119 C 
ATOM      6  C   UNL     1       0.574   5.165   3.206  1.00  0.00     0.100 C 
ATOM      7  C   UNL     1       0.722   4.510   4.614  1.00  0.00     0.025 C 
ATOM      8  C   UNL     1       2.740   4.268   3.705  1.00  0.00     0.027 C 
ATOM      9  C   UNL     1       1.007   3.034   4.526  1.00  0.00    -0.027 C 
ATOM     10  C   UNL     1       2.151   4.939   4.951  1.00  0.00     0.017 C 
ATOM     11  C   UNL     1       2.197   2.879   3.934  1.00  0.00    -0.027 C 
BRANCH   6  12
ATOM     12  C   UNL     1      -0.712   4.847   2.455  1.00  0.00     0.224 C 
ATOM     13  N   UNL     1      -0.995   3.742   1.732  1.00  0.00    -0.352 N 
ATOM     14  H   UNL     1      -1.918   3.749   1.388  1.00  0.00     0.163 HD
ATOM     15  O   UNL     1      -1.646   5.660   2.545  1.00  0.00    -0.275 OA
BRANCH  13  16
ATOM     16  C   UNL     1      -0.276   2.552   1.339  1.00  0.00     0.155 C 
BRANCH  16  17
ATOM     17  C   UNL     1      -0.628   1.336   2.134  1.00  0.00     0.016 A 
ATOM     18  C   UNL     1       0.776  -0.383   0.730  1.00  0.00     0.069 C 
ATOM     19  C   UNL     1      -0.083   0.048   1.865  1.00  0.00     0.065 A 
ATOM     20  N   UNL     1      -0.373  -0.828   2.823  1.00  0.00    -0.173 NA
ATOM     21  N   UNL     1      -1.139  -0.155   3.711  1.00  0.00    -0.237 N 
ATOM     22  C   UNL     1      -1.408   1.146   3.276  1.00  0.00     0.046 A 
ATOM     23  C   UNL     1      -2.205   2.115   4.083  1.00  0.00     0.067 C 
BRANCH  21  24
ATOM     24  C   UNL     1      -1.467  -0.763   4.956  1.00  0.00     0.065 A 
ATOM     25  C   UNL     1      -0.526  -1.609   5.563  1.00  0.00     0.028 A 
ATOM     26  C   UNL     1      -2.663  -0.471   5.622  1.00  0.00     0.028 A 
ATOM     27  C   UNL     1      -0.747  -2.077   6.860  1.00  0.00     0.002 A 
ATOM     28  C   UNL     1      -2.884  -0.953   6.913  1.00  0.00     0.002 A 
ATOM     29  C   UNL     1      -1.918  -1.738   7.538  1.00  0.00     0.000 A 
ENDBRANCH  21  24
ENDBRANCH  16  17
ENDBRANCH  13  16
ENDBRANCH   6  12
ENDBRANCH   3   5
ENDBRANCH   2   3
ENDBRANCH   1   2
BRANCH   1  30
ATOM     30  C   UNL     1       5.368   7.896   2.326  1.00  0.00     0.275 C 
BRANCH  30  31
ATOM     31  O   UNL     1       5.723   6.673   1.664  1.00  0.00    -0.458 OA
BRANCH  31  32
ATOM     32  C   UNL     1       5.869   5.666   2.547  1.00  0.00     0.338 C 
ATOM     33  O   UNL     1       5.714   5.726   3.758  1.00  0.00    -0.246 OA
BRANCH  32  34
ATOM     34  C   UNL     1       6.303   4.417   1.922  1.00  0.00     0.060 A 
ATOM     35  C   UNL     1       5.350   3.403   1.796  1.00  0.00     0.016 A 
ATOM     36  C   UNL     1       7.652   4.130   2.119  1.00  0.00     0.016 A 
ATOM     37  C   UNL     1       5.699   2.120   2.179  1.00  0.00     0.010 A 
ATOM     38  C   UNL     1       8.012   2.830   2.416  1.00  0.00     0.010 A 
ATOM     39  C   UNL     1       7.015   1.861   2.579  1.00  0.00    -0.014 A 
BRANCH  39  40
ATOM     40  C   UNL     1       7.340   0.531   3.103  1.00  0.00     0.031 A 
ATOM     41  C   UNL     1       7.048  -0.596   2.170  1.00  0.00     0.074 A 
ATOM     42  C   UNL     1       8.030   0.365   4.254  1.00  0.00     0.049 A 
ATOM     43  N   UNL     1       6.453  -1.722   2.400  1.00  0.00    -0.248 NA
ATOM     44  C   UNL     1       7.386  -0.379   0.750  1.00  0.00     0.031 C 
ATOM     45  C   UNL     1       8.575   1.416   5.124  1.00  0.00     0.029 A 
ATOM     46  N   UNL     1       8.544  -0.773   4.803  1.00  0.00    -0.354 N 
ATOM     47  C   UNL     1       6.528  -2.436   1.204  1.00  0.00     0.074 A 
ATOM     48  C   UNL     1       6.956  -1.507   0.193  1.00  0.00     0.031 C 
ATOM     49  C   UNL     1       9.557   0.893   5.887  1.00  0.00     0.029 A 
ATOM     50  C   UNL     1       9.624  -0.538   5.650  1.00  0.00     0.049 A 
ATOM     51  H   UNL     1       8.187  -1.672   4.619  1.00  0.00     0.167 HD
ATOM     52  C   UNL     1       6.468  -3.794   1.154  1.00  0.00     0.037 A 
ATOM     53  C   UNL     1      10.573  -1.430   6.033  1.00  0.00     0.037 A 
ATOM     54  C   UNL     1       5.816  -4.351   2.306  1.00  0.00     0.049 A 
ATOM     55  C   UNL     1      10.037  -2.791   5.784  1.00  0.00     0.074 A 
ATOM     56  C   UNL     1       4.567  -4.200   2.877  1.00  0.00     0.029 A 
ATOM     57  N   UNL     1       6.581  -4.982   3.256  1.00  0.00    -0.354 N 
ATOM     58  N   UNL     1       9.044  -3.326   6.440  1.00  0.00    -0.248 NA
ATOM     59  C   UNL     1      10.352  -3.421   4.510  1.00  0.00     0.031 C 
ATOM     60  C   UNL     1       4.783  -4.298   4.281  1.00  0.00     0.029 A 
ATOM     61  C   UNL     1       6.143  -4.538   4.478  1.00  0.00     0.049 A 
ATOM     62  H   UNL     1       7.305  -5.628   3.091  1.00  0.00     0.167 HD
ATOM     63  C   UNL     1       8.353  -4.067   5.493  1.00  0.00     0.074 A 
ATOM     64  C   UNL     1       9.261  -4.173   4.355  1.00  0.00     0.031 C 
ATOM     65  C   UNL     1       7.011  -4.288   5.606  1.00  0.00     0.037 A 
BRANCH  52  66
ATOM     66  C   UNL     1       7.316  -4.610   0.206  1.00  0.00     0.058 A 
ATOM     67  C   UNL     1       7.061  -5.984   0.035  1.00  0.00     0.135 A 
ATOM     68  C   UNL     1       8.539  -4.145  -0.333  1.00  0.00     0.135 A 
ATOM     69  F   UNL     1       5.941  -6.537   0.528  1.00  0.00    -0.206 F 
ATOM     70  C   UNL     1       7.979  -6.841  -0.575  1.00  0.00     0.059 A 
ATOM     71  C   UNL     1       9.438  -4.968  -0.996  1.00  0.00     0.059 A 
ATOM     72  F   UNL     1       8.968  -2.889  -0.153  1.00  0.00    -0.206 F 
ATOM     73  C   UNL     1       9.172  -6.324  -1.072  1.00  0.00     0.060 A 
BRANCH  73  74
ATOM     74  S   UNL     1      10.417  -7.437  -1.747  1.00  0.00     0.124 S 
ATOM     75  O   UNL     1      10.905  -8.089  -0.537  1.00  0.00    -0.237 OA
ATOM     76  O   UNL     1       9.627  -8.267  -2.650  1.00  0.00    -0.237 OA
ATOM     77  O   UNL     1      11.357  -6.530  -2.401  1.00  0.00    -0.744 OA
ENDBRANCH  73  74
ENDBRANCH  52  66
BRANCH  53  78
ATOM     78  C   UNL     1      12.022  -1.176   6.272  1.00  0.00     0.058 A 
ATOM     79  C   UNL     1      12.834  -2.133   6.907  1.00  0.00     0.135 A 
ATOM     80  C   UNL     1      12.701  -0.106   5.651  1.00  0.00     0.135 A 
ATOM     81  F   UNL     1      12.279  -3.201   7.500  1.00  0.00    -0.206 F 
ATOM     82  C   UNL     1      14.232  -2.056   6.894  1.00  0.00     0.059 A 
ATOM     83  C   UNL     1      14.091   0.002   5.642  1.00  0.00     0.059 A 
ATOM     84  F   UNL     1      12.040   0.825   4.948  1.00  0.00    -0.206 F 
ATOM     85  C   UNL     1      14.852  -0.990   6.243  1.00  0.00     0.060 A 
BRANCH  85  86
ATOM     86  S   UNL     1      16.652  -0.972   6.073  1.00  0.00     0.124 S 
ATOM     87  O   UNL     1      17.082  -0.713   7.443  1.00  0.00    -0.237 OA
ATOM     88  O   UNL     1      16.928  -2.310   5.560  1.00  0.00    -0.237 OA
ATOM     89  O   UNL     1      16.892   0.116   5.128  1.00  0.00    -0.744 OA
ENDBRANCH  85  86
ENDBRANCH  53  78
BRANCH  65  90
ATOM     90  C   UNL     1       6.342  -3.989   6.923  1.00  0.00     0.058 A 
ATOM     91  C   UNL     1       6.260  -2.706   7.493  1.00  0.00     0.135 A 
ATOM     92  C   UNL     1       5.620  -5.015   7.551  1.00  0.00     0.135 A 
ATOM     93  F   UNL     1       6.831  -1.649   6.899  1.00  0.00    -0.206 F 
ATOM     94  C   UNL     1       5.528  -2.463   8.656  1.00  0.00     0.059 A 
ATOM     95  C   UNL     1       4.856  -4.789   8.694  1.00  0.00     0.059 A 
ATOM     96  F   UNL     1       5.605  -6.249   7.021  1.00  0.00    -0.206 F 
ATOM     97  C   UNL     1       4.825  -3.511   9.248  1.00  0.00     0.060 A 
BRANCH  97  98
ATOM     98  S   UNL     1       3.801  -3.175  10.698  1.00  0.00     0.124 S 
ATOM     99  O   UNL     1       4.800  -2.992  11.745  1.00  0.00    -0.237 OA
ATOM    100  O   UNL     1       3.070  -1.974  10.301  1.00  0.00    -0.237 OA
ATOM    101  O   UNL     1       2.979  -4.377  10.822  1.00  0.00    -0.744 OA
ENDBRANCH  97  98
ENDBRANCH  65  90
ENDBRANCH  39  40
ENDBRANCH  32  34
ENDBRANCH  31  32
ENDBRANCH  30  31
ENDBRANCH   1  30
TORSDOF 18
