REMARK SMILES CC(C)[C@H](NS(=O)(=O)N1C[C@@H](C)O[C@H](C)C1)C(=O)OCCOC(=O)c1ccc(-c2c3nc(c(-c4c(F)cc(S(=O)(=O)[O-])cc4F)c4ccc([nH]4)c(-c4c(F)cc(S(=O)(=O)[O-])cc4F)c4nc(c(-c5c(F)cc(S(=O)(=O)[O-])cc5F)c5ccc2[nH]5)C=C4)C=C3)cc1
REMARK SMILES IDX 20 1 19 2 17 3 18 4 4 5 2 6 1 7 3 8 5 9 6 11 7 12 8 13 9 14
REMARK SMILES IDX 10 15 16 16 11 17 14 18 12 19 13 20 15 21 21 22 22 23 23 24
REMARK SMILES IDX 24 25 25 26 26 27 90 28 27 29 89 30 28 31 29 32 30 33 83 34
REMARK SMILES IDX 31 35 88 36 82 37 84 38 32 39 87 40 81 41 80 42 33 44 67 45
REMARK SMILES IDX 46 46 66 47 47 48 50 49 65 50 85 51 48 52 49 53 64 55 86 56
REMARK SMILES IDX 51 57 34 58 35 59 44 60 36 61 37 62 43 63 45 64 38 65 39 66
REMARK SMILES IDX 40 67 41 68 42 69 68 70 69 71 78 72 70 73 71 74 77 75 79 76
REMARK SMILES IDX 72 77 73 78 74 79 75 80 76 81 52 82 53 83 62 84 54 85 55 86
REMARK SMILES IDX 61 87 63 88 56 89 57 90 58 91 59 92 60 93
REMARK H PARENT 5 10 84 43 50 54
REMARK Flexibility Score: inf
ROOT
ATOM      1  C   UNL     1      -1.488  -4.922  -0.965  1.00  0.00     0.274 C 
ENDROOT
BRANCH   1   2
ATOM      2  O   UNL     1      -0.925  -3.592  -0.971  1.00  0.00    -0.461 OA
BRANCH   2   3
ATOM      3  C   UNL     1      -1.748  -2.595  -0.534  1.00  0.00     0.324 C 
ATOM      4  O   UNL     1      -2.870  -2.789  -0.074  1.00  0.00    -0.250 OA
BRANCH   3   5
ATOM      5  C   UNL     1      -1.177  -1.182  -0.753  1.00  0.00     0.183 C 
BRANCH   5   6
ATOM      6  C   UNL     1      -1.931  -0.509  -1.929  1.00  0.00     0.012 C 
ATOM      7  C   UNL     1      -2.407  -1.476  -3.022  1.00  0.00     0.009 C 
ATOM      8  C   UNL     1      -3.131   0.290  -1.404  1.00  0.00     0.009 C 
ENDBRANCH   5   6
BRANCH   5   9
ATOM      9  N   UNL     1       0.295  -1.183  -0.929  1.00  0.00    -0.188 NA
ATOM     10  H   UNL     1       0.467  -1.615  -1.837  1.00  0.00     0.143 HD
BRANCH   9  11
ATOM     11  S   UNL     1       1.234   0.201  -0.899  1.00  0.00     0.280 S 
ATOM     12  O   UNL     1       2.588  -0.278  -1.020  1.00  0.00    -0.195 OA
ATOM     13  O   UNL     1       0.701   1.179  -1.817  1.00  0.00    -0.195 OA
BRANCH  11  14
ATOM     14  N   UNL     1       1.004   0.760   0.681  1.00  0.00    -0.184 NA
ATOM     15  C   UNL     1       0.001   1.878   0.823  1.00  0.00     0.135 C 
ATOM     16  C   UNL     1       2.271   1.196   1.377  1.00  0.00     0.135 C 
ATOM     17  C   UNL     1      -0.240   2.206   2.308  1.00  0.00     0.130 C 
ATOM     18  C   UNL     1       1.968   1.461   2.864  1.00  0.00     0.130 C 
ATOM     19  C   UNL     1      -1.014   1.104   3.008  1.00  0.00     0.040 C 
ATOM     20  O   UNL     1       0.983   2.498   2.999  1.00  0.00    -0.373 OA
ATOM     21  C   UNL     1       3.207   1.922   3.620  1.00  0.00     0.040 C 
ENDBRANCH  11  14
ENDBRANCH   9  11
ENDBRANCH   5   9
ENDBRANCH   3   5
ENDBRANCH   2   3
ENDBRANCH   1   2
BRANCH   1  22
ATOM     22  C   UNL     1      -1.044  -5.761   0.239  1.00  0.00     0.275 C 
BRANCH  22  23
ATOM     23  O   UNL     1      -1.565  -5.261   1.483  1.00  0.00    -0.458 OA
BRANCH  23  24
ATOM     24  C   UNL     1      -0.797  -4.311   2.063  1.00  0.00     0.338 C 
ATOM     25  O   UNL     1       0.267  -3.874   1.653  1.00  0.00    -0.246 OA
BRANCH  24  26
ATOM     26  C   UNL     1      -1.510  -3.697   3.191  1.00  0.00     0.060 A 
ATOM     27  C   UNL     1      -1.935  -2.388   3.010  1.00  0.00     0.016 A 
ATOM     28  C   UNL     1      -1.629  -4.307   4.440  1.00  0.00     0.016 A 
ATOM     29  C   UNL     1      -2.414  -1.660   4.085  1.00  0.00     0.010 A 
ATOM     30  C   UNL     1      -2.133  -3.565   5.524  1.00  0.00     0.010 A 
ATOM     31  C   UNL     1      -2.484  -2.213   5.366  1.00  0.00    -0.014 A 
BRANCH  31  32
ATOM     32  C   UNL     1      -2.812  -1.295   6.497  1.00  0.00     0.031 A 
ATOM     33  C   UNL     1      -1.795  -1.026   7.579  1.00  0.00     0.074 A 
ATOM     34  C   UNL     1      -3.956  -0.577   6.471  1.00  0.00     0.049 A 
ATOM     35  N   UNL     1      -1.897  -0.267   8.641  1.00  0.00    -0.248 NA
ATOM     36  C   UNL     1      -0.492  -1.698   7.453  1.00  0.00     0.031 C 
ATOM     37  C   UNL     1      -4.990  -0.673   5.436  1.00  0.00     0.029 A 
ATOM     38  N   UNL     1      -4.423   0.405   7.309  1.00  0.00    -0.354 N 
ATOM     39  C   UNL     1      -0.697  -0.407   9.332  1.00  0.00     0.074 A 
ATOM     40  C   UNL     1       0.115  -1.334   8.574  1.00  0.00     0.031 C 
ATOM     41  C   UNL     1      -5.933   0.252   5.667  1.00  0.00     0.029 A 
ATOM     42  C   UNL     1      -5.628   0.940   6.916  1.00  0.00     0.049 A 
ATOM     43  H   UNL     1      -3.940   0.700   8.116  1.00  0.00     0.167 HD
ATOM     44  C   UNL     1      -0.309   0.181  10.490  1.00  0.00     0.037 A 
ATOM     45  C   UNL     1      -6.423   1.853   7.508  1.00  0.00     0.037 A 
ATOM     46  C   UNL     1      -1.106   1.138  11.218  1.00  0.00     0.049 A 
ATOM     47  C   UNL     1      -5.992   2.454   8.816  1.00  0.00     0.074 A 
ATOM     48  C   UNL     1      -0.805   1.784  12.405  1.00  0.00     0.029 A 
ATOM     49  N   UNL     1      -2.354   1.599  10.822  1.00  0.00    -0.354 N 
ATOM     50  N   UNL     1      -4.886   2.254   9.492  1.00  0.00    -0.248 NA
ATOM     51  C   UNL     1      -6.923   3.397   9.449  1.00  0.00     0.031 C 
ATOM     52  C   UNL     1      -1.893   2.592  12.755  1.00  0.00     0.029 A 
ATOM     53  C   UNL     1      -2.844   2.505  11.752  1.00  0.00     0.049 A 
ATOM     54  H   UNL     1      -2.823   1.324  10.002  1.00  0.00     0.167 HD
ATOM     55  C   UNL     1      -4.979   3.062  10.620  1.00  0.00     0.074 A 
ATOM     56  C   UNL     1      -6.239   3.770  10.521  1.00  0.00     0.031 C 
ATOM     57  C   UNL     1      -4.102   3.203  11.646  1.00  0.00     0.037 A 
BRANCH  44  58
ATOM     58  C   UNL     1       1.017  -0.231  11.078  1.00  0.00     0.058 A 
ATOM     59  C   UNL     1       2.244   0.128  10.498  1.00  0.00     0.135 A 
ATOM     60  C   UNL     1       1.055  -0.978  12.268  1.00  0.00     0.135 A 
ATOM     61  F   UNL     1       2.272   0.825   9.351  1.00  0.00    -0.206 F 
ATOM     62  C   UNL     1       3.458  -0.263  11.059  1.00  0.00     0.059 A 
ATOM     63  C   UNL     1       2.256  -1.352  12.864  1.00  0.00     0.059 A 
ATOM     64  F   UNL     1      -0.086  -1.351  12.868  1.00  0.00    -0.206 F 
ATOM     65  C   UNL     1       3.453  -1.003  12.243  1.00  0.00     0.060 A 
BRANCH  65  66
ATOM     66  S   UNL     1       5.034  -1.505  12.957  1.00  0.00     0.124 S 
ATOM     67  O   UNL     1       5.471  -2.525  12.008  1.00  0.00    -0.237 OA
ATOM     68  O   UNL     1       5.792  -0.258  12.942  1.00  0.00    -0.237 OA
ATOM     69  O   UNL     1       4.669  -1.998  14.282  1.00  0.00    -0.744 OA
ENDBRANCH  65  66
ENDBRANCH  44  58
BRANCH  45  70
ATOM     70  C   UNL     1      -7.728   2.216   6.889  1.00  0.00     0.058 A 
ATOM     71  C   UNL     1      -7.972   3.506   6.395  1.00  0.00     0.135 A 
ATOM     72  C   UNL     1      -8.759   1.268   6.771  1.00  0.00     0.135 A 
ATOM     73  F   UNL     1      -7.027   4.452   6.495  1.00  0.00    -0.206 F 
ATOM     74  C   UNL     1      -9.191   3.846   5.816  1.00  0.00     0.059 A 
ATOM     75  C   UNL     1      -9.971   1.573   6.164  1.00  0.00     0.059 A 
ATOM     76  F   UNL     1      -8.576   0.016   7.219  1.00  0.00    -0.206 F 
ATOM     77  C   UNL     1     -10.182   2.869   5.699  1.00  0.00     0.060 A 
BRANCH  77  78
ATOM     78  S   UNL     1     -11.739   3.302   4.892  1.00  0.00     0.124 S 
ATOM     79  O   UNL     1     -12.370   4.143   5.903  1.00  0.00    -0.237 OA
ATOM     80  O   UNL     1     -11.279   3.985   3.687  1.00  0.00    -0.237 OA
ATOM     81  O   UNL     1     -12.370   2.005   4.665  1.00  0.00    -0.744 OA
ENDBRANCH  77  78
ENDBRANCH  45  70
BRANCH  57  82
ATOM     82  C   UNL     1      -4.458   4.197  12.719  1.00  0.00     0.058 A 
ATOM     83  C   UNL     1      -5.520   3.981  13.612  1.00  0.00     0.135 A 
ATOM     84  C   UNL     1      -3.726   5.389  12.850  1.00  0.00     0.135 A 
ATOM     85  F   UNL     1      -6.255   2.861  13.530  1.00  0.00    -0.206 F 
ATOM     86  C   UNL     1      -5.877   4.934  14.562  1.00  0.00     0.059 A 
ATOM     87  C   UNL     1      -4.043   6.340  13.815  1.00  0.00     0.059 A 
ATOM     88  F   UNL     1      -2.691   5.641  12.034  1.00  0.00    -0.206 F 
ATOM     89  C   UNL     1      -5.136   6.114  14.650  1.00  0.00     0.060 A 
BRANCH  89  90
ATOM     90  S   UNL     1      -5.621   7.352  15.870  1.00  0.00     0.124 S 
ATOM     91  O   UNL     1      -6.831   7.901  15.266  1.00  0.00    -0.237 OA
ATOM     92  O   UNL     1      -5.821   6.546  17.071  1.00  0.00    -0.237 OA
ATOM     93  O   UNL     1      -4.475   8.255  15.913  1.00  0.00    -0.744 OA
ENDBRANCH  89  90
ENDBRANCH  57  82
ENDBRANCH  31  32
ENDBRANCH  24  26
ENDBRANCH  23  24
ENDBRANCH  22  23
ENDBRANCH   1  22
TORSDOF 18
