REMARK SMILES CCCCn1cc(C(N)=O)c2cc(C(=O)OCCOC(=O)c3ccc(-c4c5nc(c(-c6c(F)cc(S(=O)(=O)[O-])cc6F)c6ccc([nH]6)c(-c6c(F)cc(S(=O)(=O)[O-])cc6F)c6nc(c(-c7c(F)cc(S(=O)(=O)[O-])cc7F)c7ccc4[nH]7)C=C6)C=C5)cc3)cnc21
REMARK SMILES IDX 17 1 16 2 14 3 15 4 13 5 5 6 6 7 90 8 7 9 11 10 89 11 12 12
REMARK SMILES IDX 88 13 4 14 3 15 2 16 1 17 8 18 9 19 10 20 18 23 19 24 20 25
REMARK SMILES IDX 21 26 22 27 23 28 87 29 24 30 86 31 25 32 26 33 27 34 80 35
REMARK SMILES IDX 28 36 85 37 79 38 81 39 29 40 84 41 78 42 77 43 30 45 64 46
REMARK SMILES IDX 43 47 63 48 44 49 47 50 62 51 82 52 45 53 46 54 61 56 83 57
REMARK SMILES IDX 48 58 31 59 32 60 41 61 33 62 34 63 40 64 42 65 35 66 36 67
REMARK SMILES IDX 37 68 38 69 39 70 65 71 66 72 75 73 67 74 68 75 74 76 76 77
REMARK SMILES IDX 69 78 70 79 71 80 72 81 73 82 49 83 50 84 59 85 51 86 52 87
REMARK SMILES IDX 58 88 60 89 53 90 54 91 55 92 56 93 57 94
REMARK H PARENT 9 21 9 22 81 44 47 55
REMARK Flexibility Score: inf
ROOT
ATOM      1  C   UNL     1      -5.449  -5.406  -7.284  1.00  0.00     0.275 C 
ENDROOT
BRANCH   1   2
ATOM      2  O   UNL     1      -4.378  -4.728  -6.598  1.00  0.00    -0.458 OA
BRANCH   2   3
ATOM      3  C   UNL     1      -4.726  -3.574  -5.976  1.00  0.00     0.339 C 
ATOM      4  O   UNL     1      -5.792  -2.984  -6.106  1.00  0.00    -0.246 OA
BRANCH   3   5
ATOM      5  C   UNL     1      -3.708  -3.149  -4.992  1.00  0.00     0.079 A 
ATOM      6  N   UNL     1      -1.067  -1.848  -2.194  1.00  0.00    -0.332 N 
ATOM      7  C   UNL     1      -1.869  -1.295  -1.236  1.00  0.00     0.102 A 
ATOM      8  C   UNL     1      -1.848  -2.379  -3.188  1.00  0.00     0.140 A 
ATOM      9  C   UNL     1      -3.182  -1.295  -1.681  1.00  0.00     0.066 A 
ATOM     10  C   UNL     1      -3.173  -2.006  -2.929  1.00  0.00     0.033 A 
ATOM     11  N   UNL     1      -1.393  -3.105  -4.234  1.00  0.00    -0.237 NA
ATOM     12  C   UNL     1      -4.124  -2.373  -3.901  1.00  0.00     0.030 A 
ATOM     13  C   UNL     1      -2.372  -3.505  -5.085  1.00  0.00     0.129 A 
BRANCH   6  14
ATOM     14  C   UNL     1       0.385  -1.856  -2.148  1.00  0.00     0.123 C 
BRANCH  14  15
ATOM     15  C   UNL     1       1.023  -0.492  -2.458  1.00  0.00     0.022 C 
BRANCH  15  16
ATOM     16  C   UNL     1       0.789   0.626  -1.433  1.00  0.00    -0.002 C 
ATOM     17  C   UNL     1       1.278   0.298  -0.030  1.00  0.00     0.004 C 
ENDBRANCH  15  16
ENDBRANCH  14  15
ENDBRANCH   6  14
BRANCH   9  18
ATOM     18  C   UNL     1      -4.237  -0.641  -0.916  1.00  0.00     0.250 C 
ATOM     19  N   UNL     1      -5.526  -0.934  -1.241  1.00  0.00    -0.366 N 
ATOM     20  O   UNL     1      -4.007   0.150  -0.005  1.00  0.00    -0.269 OA
ATOM     21  H   UNL     1      -5.718  -1.567  -1.970  1.00  0.00     0.159 HD
ATOM     22  H   UNL     1      -6.266  -0.513  -0.747  1.00  0.00     0.159 HD
ENDBRANCH   9  18
ENDBRANCH   3   5
ENDBRANCH   2   3
ENDBRANCH   1   2
BRANCH   1  23
ATOM     23  C   UNL     1      -6.150  -6.434  -6.397  1.00  0.00     0.275 C 
BRANCH  23  24
ATOM     24  O   UNL     1      -6.852  -5.847  -5.299  1.00  0.00    -0.458 OA
BRANCH  24  25
ATOM     25  C   UNL     1      -6.100  -5.725  -4.182  1.00  0.00     0.338 C 
ATOM     26  O   UNL     1      -4.884  -5.752  -4.104  1.00  0.00    -0.246 OA
BRANCH  25  27
ATOM     27  C   UNL     1      -6.945  -5.750  -2.992  1.00  0.00     0.060 A 
ATOM     28  C   UNL     1      -6.435  -5.175  -1.822  1.00  0.00     0.016 A 
ATOM     29  C   UNL     1      -8.055  -6.602  -2.983  1.00  0.00     0.016 A 
ATOM     30  C   UNL     1      -6.976  -5.554  -0.610  1.00  0.00     0.010 A 
ATOM     31  C   UNL     1      -8.578  -6.994  -1.771  1.00  0.00     0.010 A 
ATOM     32  C   UNL     1      -7.995  -6.511  -0.597  1.00  0.00    -0.014 A 
BRANCH  32  33
ATOM     33  C   UNL     1      -8.487  -6.971   0.689  1.00  0.00     0.031 A 
ATOM     34  C   UNL     1      -9.388  -6.016   1.381  1.00  0.00     0.074 A 
ATOM     35  C   UNL     1      -8.274  -8.232   1.111  1.00  0.00     0.049 A 
ATOM     36  N   UNL     1      -9.270  -5.502   2.561  1.00  0.00    -0.248 NA
ATOM     37  C   UNL     1     -10.520  -5.481   0.604  1.00  0.00     0.031 C 
ATOM     38  C   UNL     1      -7.669  -9.336   0.359  1.00  0.00     0.029 A 
ATOM     39  N   UNL     1      -8.682  -8.830   2.262  1.00  0.00    -0.354 N 
ATOM     40  C   UNL     1     -10.417  -4.735   2.751  1.00  0.00     0.074 A 
ATOM     41  C   UNL     1     -11.061  -4.627   1.469  1.00  0.00     0.031 C 
ATOM     42  C   UNL     1      -7.957 -10.502   0.979  1.00  0.00     0.029 A 
ATOM     43  C   UNL     1      -8.666 -10.217   2.216  1.00  0.00     0.049 A 
ATOM     44  H   UNL     1      -8.964  -8.323   3.058  1.00  0.00     0.167 HD
ATOM     45  C   UNL     1     -10.887  -4.429   3.989  1.00  0.00     0.037 A 
ATOM     46  C   UNL     1      -9.283 -11.058   3.084  1.00  0.00     0.037 A 
ATOM     47  C   UNL     1      -9.880  -4.584   5.002  1.00  0.00     0.049 A 
ATOM     48  C   UNL     1      -9.581 -10.282   4.317  1.00  0.00     0.074 A 
ATOM     49  C   UNL     1      -8.644  -4.013   5.231  1.00  0.00     0.029 A 
ATOM     50  N   UNL     1      -9.931  -5.702   5.798  1.00  0.00    -0.354 N 
ATOM     51  N   UNL     1      -8.675  -9.827   5.139  1.00  0.00    -0.248 NA
ATOM     52  C   UNL     1     -10.888  -9.649   4.425  1.00  0.00     0.031 C 
ATOM     53  C   UNL     1      -7.848  -5.055   5.786  1.00  0.00     0.029 A 
ATOM     54  C   UNL     1      -8.653  -6.190   5.895  1.00  0.00     0.049 A 
ATOM     55  H   UNL     1     -10.735  -6.082   6.221  1.00  0.00     0.167 HD
ATOM     56  C   UNL     1      -9.164  -8.602   5.570  1.00  0.00     0.074 A 
ATOM     57  C   UNL     1     -10.570  -8.596   5.183  1.00  0.00     0.031 C 
ATOM     58  C   UNL     1      -8.321  -7.597   5.952  1.00  0.00     0.037 A 
BRANCH  45  59
ATOM     59  C   UNL     1     -12.356  -4.316   4.307  1.00  0.00     0.058 A 
ATOM     60  C   UNL     1     -12.769  -3.741   5.523  1.00  0.00     0.135 A 
ATOM     61  C   UNL     1     -13.357  -5.001   3.579  1.00  0.00     0.135 A 
ATOM     62  F   UNL     1     -11.892  -3.088   6.302  1.00  0.00    -0.206 F 
ATOM     63  C   UNL     1     -14.069  -3.886   6.009  1.00  0.00     0.059 A 
ATOM     64  C   UNL     1     -14.670  -5.105   4.015  1.00  0.00     0.059 A 
ATOM     65  F   UNL     1     -13.082  -5.687   2.462  1.00  0.00    -0.206 F 
ATOM     66  C   UNL     1     -15.008  -4.584   5.252  1.00  0.00     0.060 A 
BRANCH  66  67
ATOM     67  S   UNL     1     -16.648  -4.886   5.930  1.00  0.00     0.124 S 
ATOM     68  O   UNL     1     -16.351  -5.844   6.989  1.00  0.00    -0.237 OA
ATOM     69  O   UNL     1     -17.048  -3.552   6.365  1.00  0.00    -0.237 OA
ATOM     70  O   UNL     1     -17.390  -5.415   4.789  1.00  0.00    -0.744 OA
ENDBRANCH  66  67
ENDBRANCH  45  59
BRANCH  46  71
ATOM     71  C   UNL     1      -9.913 -12.375   2.795  1.00  0.00     0.058 A 
ATOM     72  C   UNL     1     -10.301 -13.237   3.836  1.00  0.00     0.135 A 
ATOM     73  C   UNL     1     -10.391 -12.704   1.510  1.00  0.00     0.135 A 
ATOM     74  F   UNL     1      -9.914 -12.990   5.097  1.00  0.00    -0.206 F 
ATOM     75  C   UNL     1     -11.149 -14.330   3.624  1.00  0.00     0.059 A 
ATOM     76  C   UNL     1     -11.221 -13.798   1.271  1.00  0.00     0.059 A 
ATOM     77  F   UNL     1     -10.145 -11.918   0.452  1.00  0.00    -0.206 F 
ATOM     78  C   UNL     1     -11.620 -14.590   2.338  1.00  0.00     0.060 A 
BRANCH  78  79
ATOM     79  S   UNL     1     -12.852 -15.889   2.088  1.00  0.00     0.124 S 
ATOM     80  O   UNL     1     -12.089 -17.094   2.397  1.00  0.00    -0.237 OA
ATOM     81  O   UNL     1     -13.884 -15.522   3.051  1.00  0.00    -0.237 OA
ATOM     82  O   UNL     1     -13.229 -15.733   0.685  1.00  0.00    -0.744 OA
ENDBRANCH  78  79
ENDBRANCH  46  71
BRANCH  58  83
ATOM     83  C   UNL     1      -6.873  -7.937   6.193  1.00  0.00     0.058 A 
ATOM     84  C   UNL     1      -5.991  -8.370   5.187  1.00  0.00     0.135 A 
ATOM     85  C   UNL     1      -6.321  -7.653   7.451  1.00  0.00     0.135 A 
ATOM     86  F   UNL     1      -6.418  -8.562   3.932  1.00  0.00    -0.206 F 
ATOM     87  C   UNL     1      -4.628  -8.546   5.431  1.00  0.00     0.059 A 
ATOM     88  C   UNL     1      -4.960  -7.791   7.708  1.00  0.00     0.059 A 
ATOM     89  F   UNL     1      -7.101  -7.176   8.435  1.00  0.00    -0.206 F 
ATOM     90  C   UNL     1      -4.120  -8.248   6.694  1.00  0.00     0.060 A 
BRANCH  90  91
ATOM     91  S   UNL     1      -2.341  -8.382   6.976  1.00  0.00     0.124 S 
ATOM     92  O   UNL     1      -2.137  -9.826   6.978  1.00  0.00    -0.237 OA
ATOM     93  O   UNL     1      -1.783  -7.665   5.831  1.00  0.00    -0.237 OA
ATOM     94  O   UNL     1      -2.148  -7.722   8.265  1.00  0.00    -0.744 OA
ENDBRANCH  90  91
ENDBRANCH  58  83
ENDBRANCH  32  33
ENDBRANCH  25  27
ENDBRANCH  24  25
ENDBRANCH  23  24
ENDBRANCH   1  23
TORSDOF 18
