REMARK SMILES COCC[N@H+](C)[C@H](C(=O)OCCOC(=O)c1ccc(-c2c3nc(c(-c4c(F)cc(S(=O)(=O)[O-])cc4F)c4ccc([nH]4)c(-c4c(F)cc(S(=O)(=O)[O-])cc4F)c4nc(c(-c5c(F)cc(S(=O)(=O)[O-])cc5F)c5ccc2[nH]5)C=C4)C=C3)cc1)c1ccc(OC)nc1
REMARK SMILES IDX 11 1 10 2 8 3 9 4 7 5 5 6 6 7 4 9 3 10 2 11 1 12 82 13 83 14
REMARK SMILES IDX 89 15 84 16 88 17 85 18 86 19 87 20 12 21 13 22 14 23 15 24
REMARK SMILES IDX 16 25 17 26 81 27 18 28 80 29 19 30 20 31 21 32 74 33 22 34
REMARK SMILES IDX 79 35 73 36 75 37 23 38 78 39 72 40 71 41 24 43 58 44 37 45
REMARK SMILES IDX 57 46 38 47 41 48 56 49 76 50 39 51 40 52 55 54 77 55 42 56
REMARK SMILES IDX 25 57 26 58 35 59 27 60 28 61 34 62 36 63 29 64 30 65 31 66
REMARK SMILES IDX 32 67 33 68 59 69 60 70 69 71 61 72 62 73 68 74 70 75 63 76
REMARK SMILES IDX 64 77 65 78 66 79 67 80 43 81 44 82 53 83 45 84 46 85 52 86
REMARK SMILES IDX 54 87 47 88 48 89 49 90 50 91 51 92
REMARK H PARENT 5 8 75 42 41 53
REMARK Flexibility Score: inf
ROOT
ATOM      1  C   UNL     1       0.438   2.009   4.251  1.00  0.00     0.274 C 
ENDROOT
BRANCH   1   2
ATOM      2  O   UNL     1      -0.025   1.122   3.215  1.00  0.00    -0.457 OA
BRANCH   2   3
ATOM      3  C   UNL     1       0.611   1.238   2.010  1.00  0.00     0.370 C 
ATOM      4  O   UNL     1       1.501   2.057   1.802  1.00  0.00    -0.245 OA
BRANCH   3   5
ATOM      5  C   UNL     1       0.153   0.152   0.987  1.00  0.00     0.327 C 
BRANCH   5   6
ATOM      6  N   UNL     1      -1.318  -0.096   1.045  1.00  0.00    -0.320 N 
ATOM      7  C   UNL     1      -2.115   1.043   0.595  1.00  0.00     0.333 C 
ATOM      8  H   UNL     1      -1.490  -0.231   2.041  1.00  0.00     0.348 HD
BRANCH   6   9
ATOM      9  C   UNL     1      -1.761  -1.332   0.364  1.00  0.00     0.291 C 
BRANCH   9  10
ATOM     10  C   UNL     1      -1.203  -2.676   0.883  1.00  0.00     0.221 C 
BRANCH  10  11
ATOM     11  O   UNL     1      -1.793  -3.093   2.116  1.00  0.00    -0.379 OA
ATOM     12  C   UNL     1      -1.177  -2.503   3.253  1.00  0.00     0.195 C 
ENDBRANCH  10  11
ENDBRANCH   9  10
ENDBRANCH   6   9
ENDBRANCH   5   6
BRANCH   5  13
ATOM     13  C   UNL     1       0.714   0.399  -0.410  1.00  0.00     0.039 A 
ATOM     14  C   UNL     1       0.746   1.662  -1.010  1.00  0.00     0.018 A 
ATOM     15  C   UNL     1       1.250  -0.644  -1.157  1.00  0.00     0.125 A 
ATOM     16  C   UNL     1       1.312   1.832  -2.273  1.00  0.00     0.069 A 
ATOM     17  N   UNL     1       1.777  -0.510  -2.394  1.00  0.00    -0.222 NA
ATOM     18  C   UNL     1       1.815   0.724  -2.937  1.00  0.00     0.212 A 
BRANCH  18  19
ATOM     19  O   UNL     1       2.373   0.738  -4.182  1.00  0.00    -0.481 OA
ATOM     20  C   UNL     1       2.544   2.005  -4.800  1.00  0.00     0.280 C 
ENDBRANCH  18  19
ENDBRANCH   5  13
ENDBRANCH   3   5
ENDBRANCH   2   3
ENDBRANCH   1   2
BRANCH   1  21
ATOM     21  C   UNL     1       1.452   1.332   5.181  1.00  0.00     0.275 C 
BRANCH  21  22
ATOM     22  O   UNL     1       2.700   1.037   4.525  1.00  0.00    -0.458 OA
BRANCH  22  23
ATOM     23  C   UNL     1       2.748  -0.164   3.901  1.00  0.00     0.338 C 
ATOM     24  O   UNL     1       1.859  -0.999   3.856  1.00  0.00    -0.246 OA
BRANCH  23  25
ATOM     25  C   UNL     1       3.994  -0.297   3.128  1.00  0.00     0.060 A 
ATOM     26  C   UNL     1       3.888  -0.672   1.785  1.00  0.00     0.016 A 
ATOM     27  C   UNL     1       5.248  -0.137   3.719  1.00  0.00     0.016 A 
ATOM     28  C   UNL     1       5.030  -0.892   1.022  1.00  0.00     0.010 A 
ATOM     29  C   UNL     1       6.396  -0.365   2.954  1.00  0.00     0.010 A 
ATOM     30  C   UNL     1       6.292  -0.753   1.606  1.00  0.00    -0.014 A 
BRANCH  30  31
ATOM     31  C   UNL     1       7.507  -1.064   0.818  1.00  0.00     0.031 A 
ATOM     32  C   UNL     1       8.245  -2.346   1.068  1.00  0.00     0.074 A 
ATOM     33  C   UNL     1       7.944  -0.194  -0.110  1.00  0.00     0.049 A 
ATOM     34  N   UNL     1       9.385  -2.754   0.575  1.00  0.00    -0.248 NA
ATOM     35  C   UNL     1       7.618  -3.293   2.003  1.00  0.00     0.031 C 
ATOM     36  C   UNL     1       7.280   1.061  -0.466  1.00  0.00     0.029 A 
ATOM     37  N   UNL     1       9.059  -0.224  -0.907  1.00  0.00    -0.354 N 
ATOM     38  C   UNL     1       9.626  -3.993   1.154  1.00  0.00     0.074 A 
ATOM     39  C   UNL     1       8.519  -4.265   2.047  1.00  0.00     0.031 C 
ATOM     40  C   UNL     1       8.016   1.694  -1.394  1.00  0.00     0.029 A 
ATOM     41  C   UNL     1       9.220   0.911  -1.664  1.00  0.00     0.049 A 
ATOM     42  H   UNL     1       9.684  -0.984  -0.934  1.00  0.00     0.167 HD
ATOM     43  C   UNL     1      10.678  -4.824   0.958  1.00  0.00     0.037 A 
ATOM     44  C   UNL     1      10.241   1.295  -2.455  1.00  0.00     0.037 A 
ATOM     45  C   UNL     1      11.766  -4.544   0.058  1.00  0.00     0.049 A 
ATOM     46  C   UNL     1      11.422   0.379  -2.622  1.00  0.00     0.074 A 
ATOM     47  C   UNL     1      12.866  -5.332  -0.234  1.00  0.00     0.029 A 
ATOM     48  N   UNL     1      11.897  -3.382  -0.690  1.00  0.00    -0.354 N 
ATOM     49  N   UNL     1      11.636  -0.796  -2.079  1.00  0.00    -0.248 NA
ATOM     50  C   UNL     1      12.503   0.839  -3.505  1.00  0.00     0.031 C 
ATOM     51  C   UNL     1      13.684  -4.627  -1.124  1.00  0.00     0.029 A 
ATOM     52  C   UNL     1      13.072  -3.419  -1.423  1.00  0.00     0.049 A 
ATOM     53  H   UNL     1      11.250  -2.640  -0.698  1.00  0.00     0.167 HD
ATOM     54  C   UNL     1      12.864  -1.225  -2.569  1.00  0.00     0.074 A 
ATOM     55  C   UNL     1      13.344  -0.187  -3.458  1.00  0.00     0.031 C 
ATOM     56  C   UNL     1      13.532  -2.376  -2.307  1.00  0.00     0.037 A 
BRANCH  43  57
ATOM     57  C   UNL     1      10.719  -6.092   1.764  1.00  0.00     0.058 A 
ATOM     58  C   UNL     1       9.855  -7.167   1.504  1.00  0.00     0.135 A 
ATOM     59  C   UNL     1      11.646  -6.235   2.809  1.00  0.00     0.135 A 
ATOM     60  F   UNL     1       8.939  -7.078   0.527  1.00  0.00    -0.206 F 
ATOM     61  C   UNL     1       9.887  -8.327   2.273  1.00  0.00     0.059 A 
ATOM     62  C   UNL     1      11.712  -7.395   3.575  1.00  0.00     0.059 A 
ATOM     63  F   UNL     1      12.495  -5.237   3.101  1.00  0.00    -0.206 F 
ATOM     64  C   UNL     1      10.815  -8.428   3.311  1.00  0.00     0.060 A 
BRANCH  64  65
ATOM     65  S   UNL     1      10.831  -9.928   4.316  1.00  0.00     0.124 S 
ATOM     66  O   UNL     1       9.641  -9.737   5.141  1.00  0.00    -0.237 OA
ATOM     67  O   UNL     1      10.741 -10.982   3.311  1.00  0.00    -0.237 OA
ATOM     68  O   UNL     1      12.104  -9.849   5.025  1.00  0.00    -0.744 OA
ENDBRANCH  64  65
ENDBRANCH  43  57
BRANCH  44  69
ATOM     69  C   UNL     1      10.193   2.624  -3.117  1.00  0.00     0.058 A 
ATOM     70  C   UNL     1       9.993   2.743  -4.499  1.00  0.00     0.135 A 
ATOM     71  C   UNL     1      10.305   3.807  -2.367  1.00  0.00     0.135 A 
ATOM     72  F   UNL     1       9.891   1.642  -5.259  1.00  0.00    -0.206 F 
ATOM     73  C   UNL     1       9.903   3.987  -5.116  1.00  0.00     0.059 A 
ATOM     74  C   UNL     1      10.195   5.061  -2.958  1.00  0.00     0.059 A 
ATOM     75  F   UNL     1      10.487   3.747  -1.039  1.00  0.00    -0.206 F 
ATOM     76  C   UNL     1       9.998   5.141  -4.335  1.00  0.00     0.060 A 
BRANCH  76  77
ATOM     77  S   UNL     1       9.800   6.748  -5.134  1.00  0.00     0.124 S 
ATOM     78  O   UNL     1      11.074   6.890  -5.830  1.00  0.00    -0.237 OA
ATOM     79  O   UNL     1       8.631   6.530  -5.980  1.00  0.00    -0.237 OA
ATOM     80  O   UNL     1       9.589   7.657  -4.012  1.00  0.00    -0.744 OA
ENDBRANCH  76  77
ENDBRANCH  44  69
BRANCH  56  81
ATOM     81  C   UNL     1      14.844  -2.593  -3.007  1.00  0.00     0.058 A 
ATOM     82  C   UNL     1      16.009  -1.920  -2.608  1.00  0.00     0.135 A 
ATOM     83  C   UNL     1      14.952  -3.543  -4.035  1.00  0.00     0.135 A 
ATOM     84  F   UNL     1      15.958  -0.996  -1.636  1.00  0.00    -0.206 F 
ATOM     85  C   UNL     1      17.237  -2.178  -3.211  1.00  0.00     0.059 A 
ATOM     86  C   UNL     1      16.173  -3.833  -4.636  1.00  0.00     0.059 A 
ATOM     87  F   UNL     1      13.867  -4.219  -4.447  1.00  0.00    -0.206 F 
ATOM     88  C   UNL     1      17.309  -3.140  -4.220  1.00  0.00     0.060 A 
BRANCH  88  89
ATOM     89  S   UNL     1      18.918  -3.509  -4.952  1.00  0.00     0.124 S 
ATOM     90  O   UNL     1      19.129  -2.342  -5.803  1.00  0.00    -0.237 OA
ATOM     91  O   UNL     1      19.782  -3.603  -3.780  1.00  0.00    -0.237 OA
ATOM     92  O   UNL     1      18.691  -4.767  -5.657  1.00  0.00    -0.744 OA
ENDBRANCH  88  89
ENDBRANCH  56  81
ENDBRANCH  30  31
ENDBRANCH  23  25
ENDBRANCH  22  23
ENDBRANCH  21  22
ENDBRANCH   1  21
TORSDOF 20
