REMARK SMILES O=C(OCCOC(=O)[C@H]1CCCN(c2cc(-c3ccccn3)nc(-c3ccccc3F)n2)C1)c1ccc(-c2c3nc(c(-c4c(F)cc(S(=O)(=O)[O-])cc4F)c4ccc([nH]4)c(-c4c(F)cc(S(=O)(=O)[O-])cc4F)c4nc(c(-c5c(F)cc(S(=O)(=O)[O-])cc5F)c5ccc2[nH]5)C=C4)C=C3)cc1
REMARK SMILES IDX 4 1 3 2 2 3 1 4 34 5 35 6 99 7 36 8 98 9 37 10 38 11 39 12
REMARK SMILES IDX 92 13 40 14 97 15 91 16 93 17 41 18 96 19 90 20 89 21 42 23
REMARK SMILES IDX 76 24 55 25 75 26 56 27 59 28 74 29 94 30 57 31 58 32 73 34
REMARK SMILES IDX 95 35 60 36 43 37 44 38 53 39 45 40 46 41 52 42 54 43 47 44
REMARK SMILES IDX 48 45 49 46 50 47 51 48 77 49 78 50 87 51 79 52 80 53 86 54
REMARK SMILES IDX 88 55 81 56 82 57 83 58 84 59 85 60 61 61 62 62 71 63 63 64
REMARK SMILES IDX 64 65 70 66 72 67 65 68 66 69 67 70 68 71 69 72 5 73 6 74
REMARK SMILES IDX 7 75 8 76 9 77 10 78 33 79 11 80 13 81 12 82 14 83 15 84
REMARK SMILES IDX 32 85 16 86 24 87 23 88 17 89 18 90 22 91 19 92 21 93 20 94
REMARK SMILES IDX 25 95 26 96 30 97 27 98 29 99 31 100 28 101
REMARK H PARENT 93 22 59 33
REMARK Flexibility Score: inf
ROOT
ATOM      1  C   UNL     1      -1.159   1.220   2.638  1.00  0.00     0.275 C 
ENDROOT
BRANCH   1   2
ATOM      2  O   UNL     1      -0.673   2.187   3.583  1.00  0.00    -0.458 OA
BRANCH   2   3
ATOM      3  C   UNL     1      -0.047   1.836   4.737  1.00  0.00     0.338 C 
ATOM      4  O   UNL     1      -0.176   2.475   5.772  1.00  0.00    -0.246 OA
BRANCH   3   5
ATOM      5  C   UNL     1       1.049   0.853   4.606  1.00  0.00     0.060 A 
ATOM      6  C   UNL     1       0.831  -0.499   4.338  1.00  0.00     0.016 A 
ATOM      7  C   UNL     1       2.352   1.339   4.748  1.00  0.00     0.016 A 
ATOM      8  C   UNL     1       1.915  -1.329   4.051  1.00  0.00     0.010 A 
ATOM      9  C   UNL     1       3.435   0.509   4.465  1.00  0.00     0.010 A 
ATOM     10  C   UNL     1       3.217  -0.818   4.073  1.00  0.00    -0.014 A 
BRANCH  10  11
ATOM     11  C   UNL     1       4.345  -1.651   3.624  1.00  0.00     0.031 A 
ATOM     12  C   UNL     1       5.402  -2.152   4.582  1.00  0.00     0.074 A 
ATOM     13  C   UNL     1       4.518  -1.867   2.308  1.00  0.00     0.049 A 
ATOM     14  N   UNL     1       6.472  -2.878   4.337  1.00  0.00    -0.248 NA
ATOM     15  C   UNL     1       5.234  -1.773   5.985  1.00  0.00     0.031 C 
ATOM     16  C   UNL     1       3.750  -1.399   1.200  1.00  0.00     0.029 A 
ATOM     17  N   UNL     1       5.558  -2.544   1.762  1.00  0.00    -0.354 N 
ATOM     18  C   UNL     1       7.092  -3.086   5.560  1.00  0.00     0.074 A 
ATOM     19  C   UNL     1       6.306  -2.329   6.530  1.00  0.00     0.031 C 
ATOM     20  C   UNL     1       4.424  -1.629   0.061  1.00  0.00     0.029 A 
ATOM     21  C   UNL     1       5.952  -2.318   0.287  1.00  0.00     0.049 A 
ATOM     22  H   UNL     1       6.066  -3.184   2.310  1.00  0.00     0.167 HD
ATOM     23  C   UNL     1       8.150  -3.868   5.909  1.00  0.00     0.037 A 
ATOM     24  C   UNL     1       7.495  -2.638  -0.723  1.00  0.00     0.037 A 
ATOM     25  C   UNL     1       9.090  -4.588   5.067  1.00  0.00     0.049 A 
ATOM     26  C   UNL     1       9.099  -3.450  -0.297  1.00  0.00     0.074 A 
ATOM     27  C   UNL     1       9.980  -5.568   5.487  1.00  0.00     0.029 A 
ATOM     28  N   UNL     1       9.387  -4.364   3.719  1.00  0.00    -0.354 N 
ATOM     29  N   UNL     1       9.565  -3.670   0.921  1.00  0.00    -0.248 NA
ATOM     30  C   UNL     1       9.992  -4.086  -1.294  1.00  0.00     0.031 C 
ATOM     31  C   UNL     1      10.817  -5.918   4.421  1.00  0.00     0.029 A 
ATOM     32  C   UNL     1      10.428  -5.210   3.295  1.00  0.00     0.049 A 
ATOM     33  H   UNL     1       8.931  -3.706   3.146  1.00  0.00     0.167 HD
ATOM     34  C   UNL     1      10.540  -4.615   0.873  1.00  0.00     0.074 A 
ATOM     35  C   UNL     1      10.849  -4.773  -0.527  1.00  0.00     0.031 C 
ATOM     36  C   UNL     1      10.966  -5.338   1.937  1.00  0.00     0.037 A 
BRANCH  23  37
ATOM     37  C   UNL     1       8.240  -4.096   7.402  1.00  0.00     0.058 A 
ATOM     38  C   UNL     1       9.184  -3.439   8.201  1.00  0.00     0.135 A 
ATOM     39  C   UNL     1       7.280  -4.907   8.041  1.00  0.00     0.135 A 
ATOM     40  F   UNL     1      10.110  -2.644   7.644  1.00  0.00    -0.206 F 
ATOM     41  C   UNL     1       9.139  -3.534   9.591  1.00  0.00     0.059 A 
ATOM     42  C   UNL     1       7.207  -4.999   9.425  1.00  0.00     0.059 A 
ATOM     43  F   UNL     1       6.342  -5.540   7.317  1.00  0.00    -0.206 F 
ATOM     44  C   UNL     1       8.134  -4.297  10.193  1.00  0.00     0.060 A 
BRANCH  44  45
ATOM     45  S   UNL     1       7.950  -4.250  11.991  1.00  0.00     0.124 S 
ATOM     46  O   UNL     1       8.927  -5.245  12.418  1.00  0.00    -0.237 OA
ATOM     47  O   UNL     1       8.274  -2.861  12.302  1.00  0.00    -0.237 OA
ATOM     48  O   UNL     1       6.549  -4.611  12.190  1.00  0.00    -0.744 OA
ENDBRANCH  44  45
ENDBRANCH  23  37
BRANCH  24  49
ATOM     49  C   UNL     1       7.965  -2.451  -2.401  1.00  0.00     0.058 A 
ATOM     50  C   UNL     1       8.492  -1.255  -2.928  1.00  0.00     0.135 A 
ATOM     51  C   UNL     1       7.712  -3.494  -3.335  1.00  0.00     0.135 A 
ATOM     52  F   UNL     1       8.904  -0.268  -2.119  1.00  0.00    -0.206 F 
ATOM     53  C   UNL     1       8.503  -1.018  -4.306  1.00  0.00     0.059 A 
ATOM     54  C   UNL     1       7.735  -3.280  -4.708  1.00  0.00     0.059 A 
ATOM     55  F   UNL     1       7.390  -4.727  -2.917  1.00  0.00    -0.206 F 
ATOM     56  C   UNL     1       8.054  -2.013  -5.179  1.00  0.00     0.060 A 
BRANCH  56  57
ATOM     57  S   UNL     1       7.777  -1.602  -6.917  1.00  0.00     0.124 S 
ATOM     58  O   UNL     1       6.680  -0.643  -6.817  1.00  0.00    -0.237 OA
ATOM     59  O   UNL     1       9.067  -1.056  -7.319  1.00  0.00    -0.237 OA
ATOM     60  O   UNL     1       7.423  -2.885  -7.518  1.00  0.00    -0.744 OA
ENDBRANCH  56  57
ENDBRANCH  24  49
BRANCH  36  61
ATOM     61  C   UNL     1      11.971  -6.420   1.671  1.00  0.00     0.058 A 
ATOM     62  C   UNL     1      11.604  -7.773   1.770  1.00  0.00     0.135 A 
ATOM     63  C   UNL     1      13.317  -6.125   1.416  1.00  0.00     0.135 A 
ATOM     64  F   UNL     1      10.326  -8.113   2.003  1.00  0.00    -0.206 F 
ATOM     65  C   UNL     1      12.543  -8.794   1.664  1.00  0.00     0.059 A 
ATOM     66  C   UNL     1      14.272  -7.132   1.288  1.00  0.00     0.059 A 
ATOM     67  F   UNL     1      13.719  -4.850   1.298  1.00  0.00    -0.206 F 
ATOM     68  C   UNL     1      13.879  -8.463   1.438  1.00  0.00     0.060 A 
BRANCH  68  69
ATOM     69  S   UNL     1      15.097  -9.792   1.321  1.00  0.00     0.124 S 
ATOM     70  O   UNL     1      15.308 -10.126   2.725  1.00  0.00    -0.237 OA
ATOM     71  O   UNL     1      14.393 -10.797   0.529  1.00  0.00    -0.237 OA
ATOM     72  O   UNL     1      16.225  -9.156   0.648  1.00  0.00    -0.744 OA
ENDBRANCH  68  69
ENDBRANCH  36  61
ENDBRANCH  10  11
ENDBRANCH   3   5
ENDBRANCH   2   3
ENDBRANCH   1   2
BRANCH   1  73
ATOM     73  C   UNL     1      -0.319   1.053   1.366  1.00  0.00     0.274 C 
BRANCH  73  74
ATOM     74  O   UNL     1       1.031   1.541   1.432  1.00  0.00    -0.462 OA
BRANCH  74  75
ATOM     75  C   UNL     1       1.178   2.831   1.018  1.00  0.00     0.310 C 
ATOM     76  O   UNL     1       0.228   3.576   0.794  1.00  0.00    -0.252 OA
BRANCH  75  77
ATOM     77  C   UNL     1       2.626   3.219   0.731  1.00  0.00     0.118 C 
ATOM     78  C   UNL     1       2.736   4.753   0.826  1.00  0.00     0.019 C 
ATOM     79  C   UNL     1       3.643   2.537   1.650  1.00  0.00     0.133 C 
ATOM     80  C   UNL     1       4.171   5.244   0.677  1.00  0.00     0.022 C 
ATOM     81  N   UNL     1       4.974   3.141   1.533  1.00  0.00    -0.356 N 
ATOM     82  C   UNL     1       5.085   4.578   1.698  1.00  0.00     0.118 C 
BRANCH  81  83
ATOM     83  C   UNL     1       6.094   2.338   1.671  1.00  0.00     0.133 A 
ATOM     84  C   UNL     1       7.029   2.574   2.664  1.00  0.00     0.077 A 
ATOM     85  N   UNL     1       6.244   1.314   0.817  1.00  0.00    -0.211 NA
ATOM     86  C   UNL     1       8.126   1.735   2.728  1.00  0.00     0.095 A 
ATOM     87  C   UNL     1       7.349   0.544   0.941  1.00  0.00     0.165 A 
ATOM     88  N   UNL     1       8.303   0.723   1.861  1.00  0.00    -0.226 NA
BRANCH  86  89
ATOM     89  C   UNL     1       9.113   1.837   3.811  1.00  0.00     0.089 A 
ATOM     90  C   UNL     1       8.838   1.347   5.090  1.00  0.00     0.030 A 
ATOM     91  N   UNL     1      10.298   2.426   3.501  1.00  0.00    -0.255 NA
ATOM     92  C   UNL     1       9.821   1.431   6.074  1.00  0.00     0.004 A 
ATOM     93  C   UNL     1      11.245   2.451   4.464  1.00  0.00     0.112 A 
ATOM     94  C   UNL     1      11.055   1.982   5.753  1.00  0.00     0.020 A 
ENDBRANCH  86  89
BRANCH  87  95
ATOM     95  C   UNL     1       7.323  -0.755   0.257  1.00  0.00     0.055 A 
ATOM     96  C   UNL     1       6.302  -0.983  -1.269  1.00  0.00     0.015 A 
ATOM     97  C   UNL     1       7.739  -2.224   1.288  1.00  0.00     0.134 A 
ATOM     98  C   UNL     1       5.647  -2.676  -1.734  1.00  0.00     0.001 A 
ATOM     99  C   UNL     1       7.087  -3.948   0.828  1.00  0.00     0.040 A 
ATOM    100  F   UNL     1       8.291  -2.042   2.500  1.00  0.00    -0.206 F 
ATOM    101  C   UNL     1       6.040  -4.147  -0.681  1.00  0.00     0.003 A 
ENDBRANCH  87  95
ENDBRANCH  81  83
ENDBRANCH  75  77
ENDBRANCH  74  75
ENDBRANCH  73  74
ENDBRANCH   1  73
TORSDOF 17
