REMARK SMILES COc1c(Cl)cc(C[NH2+][C@@H](Cc2c[nH]c3ccccc23)C(=O)OCCOC(=O)c2ccc(-c3c4nc(c(-c5c(F)cc(S(=O)(=O)[O-])cc5F)c5ccc([nH]5)c(-c5c(F)cc(S(=O)(=O)[O-])cc5F)c5nc(c(-c6c(F)cc(S(=O)(=O)[O-])cc6F)c6ccc3[nH]6)C=C5)C=C4)cc2)cc1Cl
REMARK SMILES IDX 24 1 23 2 21 3 22 4 10 5 9 6 8 9 7 10 3 11 4 12 96 13 5 14
REMARK SMILES IDX 6 15 95 16 97 17 2 18 1 19 11 20 12 21 13 22 20 23 14 24
REMARK SMILES IDX 15 25 19 26 16 28 18 29 17 30 25 31 26 32 27 33 28 34 29 35
REMARK SMILES IDX 30 36 94 37 31 38 93 39 32 40 33 41 34 42 87 43 35 44 92 45
REMARK SMILES IDX 86 46 88 47 36 48 91 49 85 50 84 51 37 53 71 54 50 55 70 56
REMARK SMILES IDX 51 57 54 58 69 59 89 60 52 61 53 62 68 64 90 65 55 66 38 67
REMARK SMILES IDX 39 68 48 69 40 70 41 71 47 72 49 73 42 74 43 75 44 76 45 77
REMARK SMILES IDX 46 78 72 79 73 80 82 81 74 82 75 83 81 84 83 85 76 86 77 87
REMARK SMILES IDX 78 88 79 89 80 90 56 91 57 92 66 93 58 94 59 95 65 96 67 97
REMARK SMILES IDX 60 98 61 99 62 100 63 101 64 102
REMARK H PARENT 9 7 9 8 14 27 88 52 54 63
REMARK Flexibility Score: inf
ROOT
ATOM      1  C   UNL     1       1.250   8.455   6.690  1.00  0.00     0.274 C 
ENDROOT
BRANCH   1   2
ATOM      2  O   UNL     1       1.612   7.086   6.434  1.00  0.00    -0.458 OA
BRANCH   2   3
ATOM      3  C   UNL     1       1.807   6.295   7.527  1.00  0.00     0.365 C 
ATOM      4  O   UNL     1       1.685   6.679   8.687  1.00  0.00    -0.245 OA
BRANCH   3   5
ATOM      5  C   UNL     1       2.295   4.877   7.181  1.00  0.00     0.298 C 
BRANCH   5   6
ATOM      6  N   UNL     1       1.831   4.445   5.837  1.00  0.00    -0.331 N 
ATOM      7  H   UNL     1       0.881   4.790   5.694  1.00  0.00     0.347 HD
ATOM      8  H   UNL     1       2.481   4.828   5.151  1.00  0.00     0.347 HD
BRANCH   6   9
ATOM      9  C   UNL     1       1.829   2.998   5.676  1.00  0.00     0.298 C 
BRANCH   9  10
ATOM     10  C   UNL     1       1.556   2.597   4.243  1.00  0.00     0.009 A 
ATOM     11  C   UNL     1       1.078   1.821   1.568  1.00  0.00     0.156 A 
ATOM     12  C   UNL     1       2.377   1.816   2.083  1.00  0.00     0.085 A 
ATOM     13  C   UNL     1       0.024   2.259   2.382  1.00  0.00     0.085 A 
ATOM     14  Cl  UNL     1       3.745   1.380   1.120  1.00  0.00    -0.080 Cl
ATOM     15  C   UNL     1       2.608   2.186   3.411  1.00  0.00     0.034 A 
ATOM     16  C   UNL     1       0.261   2.645   3.708  1.00  0.00     0.034 A 
ATOM     17  Cl  UNL     1      -1.595   2.327   1.783  1.00  0.00    -0.080 Cl
BRANCH  11  18
ATOM     18  O   UNL     1       0.835   1.482   0.259  1.00  0.00    -0.494 OA
ATOM     19  C   UNL     1       0.729   0.065   0.109  1.00  0.00     0.278 C 
ENDBRANCH  11  18
ENDBRANCH   9  10
ENDBRANCH   6   9
ENDBRANCH   5   6
BRANCH   5  20
ATOM     20  C   UNL     1       3.822   4.821   7.421  1.00  0.00     0.115 C 
BRANCH  20  21
ATOM     21  C   UNL     1       4.628   5.601   6.422  1.00  0.00    -0.016 A 
ATOM     22  C   UNL     1       4.779   6.975   6.388  1.00  0.00     0.087 A 
ATOM     23  C   UNL     1       5.368   5.081   5.312  1.00  0.00     0.003 A 
ATOM     24  N   UNL     1       5.469   7.305   5.255  1.00  0.00    -0.361 N 
ATOM     25  C   UNL     1       5.834   6.169   4.575  1.00  0.00     0.046 A 
ATOM     26  C   UNL     1       5.663   3.784   4.849  1.00  0.00     0.010 A 
ATOM     27  H   UNL     1       5.675   8.225   4.969  1.00  0.00     0.166 HD
ATOM     28  C   UNL     1       6.533   6.026   3.371  1.00  0.00     0.026 A 
ATOM     29  C   UNL     1       6.368   3.621   3.651  1.00  0.00     0.001 A 
ATOM     30  C   UNL     1       6.785   4.728   2.918  1.00  0.00     0.002 A 
ENDBRANCH  20  21
ENDBRANCH   5  20
ENDBRANCH   3   5
ENDBRANCH   2   3
ENDBRANCH   1   2
BRANCH   1  31
ATOM     31  C   UNL     1      -0.238   8.705   6.444  1.00  0.00     0.275 C 
BRANCH  31  32
ATOM     32  O   UNL     1      -1.046   7.951   7.360  1.00  0.00    -0.458 OA
BRANCH  32  33
ATOM     33  C   UNL     1      -1.451   6.748   6.886  1.00  0.00     0.338 C 
ATOM     34  O   UNL     1      -1.289   6.301   5.765  1.00  0.00    -0.246 OA
BRANCH  33  35
ATOM     35  C   UNL     1      -2.038   5.964   7.982  1.00  0.00     0.060 A 
ATOM     36  C   UNL     1      -1.460   4.726   8.279  1.00  0.00     0.016 A 
ATOM     37  C   UNL     1      -3.197   6.389   8.633  1.00  0.00     0.016 A 
ATOM     38  C   UNL     1      -2.057   3.889   9.216  1.00  0.00     0.010 A 
ATOM     39  C   UNL     1      -3.805   5.541   9.562  1.00  0.00     0.010 A 
ATOM     40  C   UNL     1      -3.254   4.276   9.833  1.00  0.00    -0.014 A 
BRANCH  40  41
ATOM     41  C   UNL     1      -4.005   3.287  10.639  1.00  0.00     0.031 A 
ATOM     42  C   UNL     1      -5.159   2.563  10.002  1.00  0.00     0.074 A 
ATOM     43  C   UNL     1      -3.636   3.013  11.902  1.00  0.00     0.049 A 
ATOM     44  N   UNL     1      -5.984   1.695  10.527  1.00  0.00    -0.248 NA
ATOM     45  C   UNL     1      -5.417   2.858   8.582  1.00  0.00     0.031 C 
ATOM     46  C   UNL     1      -2.507   3.623  12.603  1.00  0.00     0.029 A 
ATOM     47  N   UNL     1      -4.176   2.149  12.819  1.00  0.00    -0.354 N 
ATOM     48  C   UNL     1      -6.869   1.354   9.511  1.00  0.00     0.074 A 
ATOM     49  C   UNL     1      -6.491   2.119   8.342  1.00  0.00     0.031 C 
ATOM     50  C   UNL     1      -2.441   3.116  13.847  1.00  0.00     0.029 A 
ATOM     51  C   UNL     1      -3.540   2.171  14.037  1.00  0.00     0.049 A 
ATOM     52  H   UNL     1      -4.947   1.567  12.624  1.00  0.00     0.167 HD
ATOM     53  C   UNL     1      -7.902   0.479   9.550  1.00  0.00     0.037 A 
ATOM     54  C   UNL     1      -3.826   1.515  15.178  1.00  0.00     0.037 A 
ATOM     55  C   UNL     1      -8.264  -0.285  10.714  1.00  0.00     0.049 A 
ATOM     56  C   UNL     1      -4.994   0.564  15.204  1.00  0.00     0.074 A 
ATOM     57  C   UNL     1      -9.300  -1.191  10.864  1.00  0.00     0.029 A 
ATOM     58  N   UNL     1      -7.595  -0.237  11.928  1.00  0.00    -0.354 N 
ATOM     59  N   UNL     1      -5.832   0.262  14.241  1.00  0.00    -0.248 NA
ATOM     60  C   UNL     1      -5.251  -0.139  16.468  1.00  0.00     0.031 C 
ATOM     61  C   UNL     1      -9.271  -1.672  12.179  1.00  0.00     0.029 A 
ATOM     62  C   UNL     1      -8.195  -1.095  12.834  1.00  0.00     0.049 A 
ATOM     63  H   UNL     1      -6.809   0.324  12.118  1.00  0.00     0.167 HD
ATOM     64  C   UNL     1      -6.699  -0.686  14.774  1.00  0.00     0.074 A 
ATOM     65  C   UNL     1      -6.278  -0.912  16.142  1.00  0.00     0.031 C 
ATOM     66  C   UNL     1      -7.747  -1.315  14.186  1.00  0.00     0.037 A 
BRANCH  53  67
ATOM     67  C   UNL     1      -8.727   0.328   8.304  1.00  0.00     0.058 A 
ATOM     68  C   UNL     1      -8.247  -0.361   7.179  1.00  0.00     0.135 A 
ATOM     69  C   UNL     1     -10.022   0.867   8.239  1.00  0.00     0.135 A 
ATOM     70  F   UNL     1      -7.008  -0.877   7.180  1.00  0.00    -0.206 F 
ATOM     71  C   UNL     1      -9.013  -0.490   6.024  1.00  0.00     0.059 A 
ATOM     72  C   UNL     1     -10.814   0.731   7.104  1.00  0.00     0.059 A 
ATOM     73  F   UNL     1     -10.526   1.540   9.286  1.00  0.00    -0.206 F 
ATOM     74  C   UNL     1     -10.295   0.063   5.995  1.00  0.00     0.060 A 
BRANCH  74  75
ATOM     75  S   UNL     1     -11.283  -0.113   4.494  1.00  0.00     0.124 S 
ATOM     76  O   UNL     1     -10.662   0.878   3.620  1.00  0.00    -0.237 OA
ATOM     77  O   UNL     1     -11.057  -1.508   4.130  1.00  0.00    -0.237 OA
ATOM     78  O   UNL     1     -12.636   0.203   4.940  1.00  0.00    -0.744 OA
ENDBRANCH  74  75
ENDBRANCH  53  67
BRANCH  54  79
ATOM     79  C   UNL     1      -2.996   1.737  16.391  1.00  0.00     0.058 A 
ATOM     80  C   UNL     1      -2.131   0.743  16.869  1.00  0.00     0.135 A 
ATOM     81  C   UNL     1      -3.049   2.952  17.092  1.00  0.00     0.135 A 
ATOM     82  F   UNL     1      -2.052  -0.439  16.238  1.00  0.00    -0.206 F 
ATOM     83  C   UNL     1      -1.357   0.938  18.009  1.00  0.00     0.059 A 
ATOM     84  C   UNL     1      -2.267   3.179  18.220  1.00  0.00     0.059 A 
ATOM     85  F   UNL     1      -3.852   3.939  16.667  1.00  0.00    -0.206 F 
ATOM     86  C   UNL     1      -1.432   2.161  18.678  1.00  0.00     0.060 A 
BRANCH  86  87
ATOM     87  S   UNL     1      -0.388   2.426  20.128  1.00  0.00     0.124 S 
ATOM     88  O   UNL     1      -1.104   1.668  21.147  1.00  0.00    -0.237 OA
ATOM     89  O   UNL     1       0.890   1.868  19.696  1.00  0.00    -0.237 OA
ATOM     90  O   UNL     1      -0.405   3.877  20.290  1.00  0.00    -0.744 OA
ENDBRANCH  86  87
ENDBRANCH  54  79
BRANCH  66  91
ATOM     91  C   UNL     1      -8.477  -2.344  15.002  1.00  0.00     0.058 A 
ATOM     92  C   UNL     1      -9.363  -1.980  16.027  1.00  0.00     0.135 A 
ATOM     93  C   UNL     1      -8.316  -3.710  14.724  1.00  0.00     0.135 A 
ATOM     94  F   UNL     1      -9.548  -0.686  16.333  1.00  0.00    -0.206 F 
ATOM     95  C   UNL     1     -10.046  -2.939  16.768  1.00  0.00     0.059 A 
ATOM     96  C   UNL     1      -9.006  -4.685  15.437  1.00  0.00     0.059 A 
ATOM     97  F   UNL     1      -7.489  -4.109  13.744  1.00  0.00    -0.206 F 
ATOM     98  C   UNL     1      -9.857  -4.290  16.468  1.00  0.00     0.060 A 
BRANCH  98  99
ATOM     99  S   UNL     1     -10.761  -5.528  17.422  1.00  0.00     0.124 S 
ATOM    100  O   UNL     1      -9.981  -5.575  18.654  1.00  0.00    -0.237 OA
ATOM    101  O   UNL     1     -12.089  -4.933  17.535  1.00  0.00    -0.237 OA
ATOM    102  O   UNL     1     -10.687  -6.721  16.583  1.00  0.00    -0.744 OA
ENDBRANCH  98  99
ENDBRANCH  66  91
ENDBRANCH  40  41
ENDBRANCH  33  35
ENDBRANCH  32  33
ENDBRANCH  31  32
ENDBRANCH   1  31
TORSDOF 20
