REMARK SMILES CC(=O)N[C@H]1[C@@H](Oc2ccc(C)c(C)c2)O[C@H]2CO[C@H](c3ccco3)O[C@@H]2[C@H]1OCC(=O)OCCOC(=O)c1ccc(-c2c3nc(c(-c4c(F)cc(S(=O)(=O)[O-])cc4F)c4ccc([nH]4)c(-c4c(F)cc(S(=O)(=O)[O-])cc4F)c4nc(c(-c5c(F)cc(S(=O)(=O)[O-])cc5F)c5ccc2[nH]5)C=C4)C=C3)cc1
REMARK SMILES IDX 34 1 33 2 31 3 32 4 30 5 29 6 28 7 5 8 6 9 16 10 27 11 17 12
REMARK SMILES IDX 26 13 18 14 20 15 19 16 4 17 1 18 2 19 3 20 7 22 8 23 9 24
REMARK SMILES IDX 15 25 10 26 13 27 11 28 14 29 12 30 21 31 22 32 25 33 23 34
REMARK SMILES IDX 24 35 35 36 36 37 37 38 38 39 39 40 40 41 104 42 41 43
REMARK SMILES IDX 103 44 42 45 43 46 44 47 97 48 45 49 102 50 96 51 98 52
REMARK SMILES IDX 46 53 101 54 95 55 94 56 47 58 81 59 60 60 80 61 61 62 64 63
REMARK SMILES IDX 79 64 99 65 62 66 63 67 78 69 100 70 65 71 48 72 49 73 58 74
REMARK SMILES IDX 50 75 51 76 57 77 59 78 52 79 53 80 54 81 55 82 56 83 82 84
REMARK SMILES IDX 83 85 92 86 84 87 85 88 91 89 93 90 86 91 87 92 88 93 89 94
REMARK SMILES IDX 90 95 66 96 67 97 76 98 68 99 69 100 75 101 77 102 70 103
REMARK SMILES IDX 71 104 72 105 73 106 74 107
REMARK H PARENT 4 21 98 57 64 68
REMARK Flexibility Score: inf
ROOT
ATOM      1  C   UNL     1       6.173   4.316   5.406  1.00  0.00     0.274 C 
ENDROOT
BRANCH   1   2
ATOM      2  O   UNL     1       4.941   3.929   4.741  1.00  0.00    -0.460 OA
BRANCH   2   3
ATOM      3  C   UNL     1       4.524   4.761   3.751  1.00  0.00     0.332 C 
ATOM      4  O   UNL     1       5.061   5.833   3.482  1.00  0.00    -0.250 OA
BRANCH   3   5
ATOM      5  C   UNL     1       3.261   4.290   2.998  1.00  0.00     0.283 C 
BRANCH   5   6
ATOM      6  O   UNL     1       2.531   3.135   3.288  1.00  0.00    -0.361 OA
BRANCH   6   7
ATOM      7  C   UNL     1       2.779   1.875   2.652  1.00  0.00     0.179 C 
ATOM      8  C   UNL     1       1.363   1.373   2.281  1.00  0.00     0.182 C 
ATOM      9  C   UNL     1       1.399  -0.158   2.107  1.00  0.00     0.333 C 
ATOM     10  O   UNL     1       2.335  -0.520   1.063  1.00  0.00    -0.332 OA
ATOM     11  C   UNL     1       3.577   1.635   1.352  1.00  0.00     0.184 C 
ATOM     12  C   UNL     1       3.635   0.109   1.180  1.00  0.00     0.180 C 
ATOM     13  O   UNL     1       4.864   2.181   1.390  1.00  0.00    -0.337 OA
ATOM     14  C   UNL     1       4.470  -0.156  -0.060  1.00  0.00     0.199 C 
ATOM     15  C   UNL     1       5.702   2.056   0.003  1.00  0.00     0.319 C 
ATOM     16  O   UNL     1       5.757   0.475  -0.003  1.00  0.00    -0.343 OA
BRANCH   8  17
ATOM     17  N   UNL     1       0.890   2.242   1.132  1.00  0.00    -0.345 N 
ATOM     18  C   UNL     1       0.910   0.883  -1.017  1.00  0.00     0.114 C 
ATOM     19  C   UNL     1       0.793   2.159  -0.225  1.00  0.00     0.217 C 
ATOM     20  O   UNL     1       0.622   3.229  -0.818  1.00  0.00    -0.275 OA
ATOM     21  H   UNL     1       0.559   3.111   1.457  1.00  0.00     0.164 HD
ENDBRANCH   8  17
BRANCH   9  22
ATOM     22  O   UNL     1       0.132  -0.891   2.112  1.00  0.00    -0.463 OA
BRANCH  22  23
ATOM     23  C   UNL     1      -1.007  -0.452   1.501  1.00  0.00     0.123 A 
ATOM     24  C   UNL     1      -1.453   0.855   1.478  1.00  0.00     0.047 A 
ATOM     25  C   UNL     1      -1.854  -1.392   0.914  1.00  0.00     0.050 A 
ATOM     26  C   UNL     1      -2.347   1.287   0.504  1.00  0.00     0.007 A 
ATOM     27  C   UNL     1      -2.938  -0.984   0.099  1.00  0.00    -0.045 A 
ATOM     28  C   UNL     1      -3.044   0.366  -0.263  1.00  0.00    -0.048 A 
ATOM     29  C   UNL     1      -4.011  -1.973  -0.257  1.00  0.00     0.045 C 
ATOM     30  C   UNL     1      -3.910   0.882  -1.373  1.00  0.00     0.044 C 
ENDBRANCH  22  23
ENDBRANCH   9  22
BRANCH  15  31
ATOM     31  C   UNL     1       7.393   3.342  -0.412  1.00  0.00     0.159 A 
ATOM     32  C   UNL     1       8.419   3.622  -1.460  1.00  0.00     0.051 A 
ATOM     33  O   UNL     1       7.915   4.434   0.552  1.00  0.00    -0.464 OA
ATOM     34  C   UNL     1       9.279   4.718  -1.165  1.00  0.00     0.042 A 
ATOM     35  C   UNL     1       8.919   5.165   0.059  1.00  0.00     0.195 A 
ENDBRANCH  15  31
ENDBRANCH   6   7
ENDBRANCH   5   6
ENDBRANCH   3   5
ENDBRANCH   2   3
ENDBRANCH   1   2
BRANCH   1  36
ATOM     36  C   UNL     1       7.282   3.316   5.096  1.00  0.00     0.275 C 
BRANCH  36  37
ATOM     37  O   UNL     1       7.559   3.398   3.691  1.00  0.00    -0.458 OA
BRANCH  37  38
ATOM     38  C   UNL     1       6.928   2.443   2.986  1.00  0.00     0.338 C 
ATOM     39  O   UNL     1       6.369   1.451   3.433  1.00  0.00    -0.246 OA
BRANCH  38  40
ATOM     40  C   UNL     1       6.952   2.749   1.549  1.00  0.00     0.060 A 
ATOM     41  C   UNL     1       5.815   4.003   0.777  1.00  0.00     0.016 A 
ATOM     42  C   UNL     1       7.710   1.495   0.501  1.00  0.00     0.016 A 
ATOM     43  C   UNL     1       5.449   3.930  -0.995  1.00  0.00     0.010 A 
ATOM     44  C   UNL     1       7.305   1.421  -1.276  1.00  0.00     0.010 A 
ATOM     45  C   UNL     1       6.163   2.617  -2.033  1.00  0.00    -0.014 A 
BRANCH  45  46
ATOM     46  C   UNL     1       5.926   2.572  -3.520  1.00  0.00     0.031 A 
ATOM     47  C   UNL     1       5.578   1.282  -4.244  1.00  0.00     0.074 A 
ATOM     48  C   UNL     1       6.133   3.691  -4.247  1.00  0.00     0.049 A 
ATOM     49  N   UNL     1       5.402   1.054  -5.524  1.00  0.00    -0.248 NA
ATOM     50  C   UNL     1       5.368   0.087  -3.422  1.00  0.00     0.031 C 
ATOM     51  C   UNL     1       6.471   5.013  -3.715  1.00  0.00     0.029 A 
ATOM     52  N   UNL     1       6.161   3.883  -5.610  1.00  0.00    -0.354 N 
ATOM     53  C   UNL     1       5.018  -0.285  -5.639  1.00  0.00     0.074 A 
ATOM     54  C   UNL     1       5.006  -0.831  -4.306  1.00  0.00     0.031 C 
ATOM     55  C   UNL     1       6.723   5.857  -4.722  1.00  0.00     0.029 A 
ATOM     56  C   UNL     1       6.615   5.131  -5.974  1.00  0.00     0.049 A 
ATOM     57  H   UNL     1       5.884   3.196  -6.259  1.00  0.00     0.167 HD
ATOM     58  C   UNL     1       4.730  -1.008  -6.749  1.00  0.00     0.037 A 
ATOM     59  C   UNL     1       6.964   5.637  -7.171  1.00  0.00     0.037 A 
ATOM     60  C   UNL     1       4.876  -0.492  -8.086  1.00  0.00     0.049 A 
ATOM     61  C   UNL     1       6.780   4.789  -8.390  1.00  0.00     0.074 A 
ATOM     62  C   UNL     1       4.635  -1.129  -9.291  1.00  0.00     0.029 A 
ATOM     63  N   UNL     1       5.356   0.774  -8.392  1.00  0.00    -0.354 N 
ATOM     64  N   UNL     1       6.353   3.551  -8.470  1.00  0.00    -0.248 NA
ATOM     65  C   UNL     1       7.096   5.409  -9.681  1.00  0.00     0.031 C 
ATOM     66  C   UNL     1       5.053  -0.280 -10.321  1.00  0.00     0.029 A 
ATOM     67  C   UNL     1       5.466   0.920  -9.763  1.00  0.00     0.049 A 
ATOM     68  H   UNL     1       5.584   1.466  -7.730  1.00  0.00     0.167 HD
ATOM     69  C   UNL     1       6.305   3.258  -9.826  1.00  0.00     0.074 A 
ATOM     70  C   UNL     1       6.742   4.450 -10.525  1.00  0.00     0.031 C 
ATOM     71  C   UNL     1       5.920   2.111 -10.438  1.00  0.00     0.037 A 
BRANCH  58  72
ATOM     72  C   UNL     1       4.289  -2.448  -6.584  1.00  0.00     0.058 A 
ATOM     73  C   UNL     1       3.039  -2.784  -6.035  1.00  0.00     0.135 A 
ATOM     74  C   UNL     1       5.096  -3.505  -7.041  1.00  0.00     0.135 A 
ATOM     75  F   UNL     1       2.227  -1.825  -5.566  1.00  0.00    -0.206 F 
ATOM     76  C   UNL     1       2.613  -4.109  -5.936  1.00  0.00     0.059 A 
ATOM     77  C   UNL     1       4.679  -4.835  -6.977  1.00  0.00     0.059 A 
ATOM     78  F   UNL     1       6.303  -3.253  -7.569  1.00  0.00    -0.206 F 
ATOM     79  C   UNL     1       3.438  -5.128  -6.415  1.00  0.00     0.060 A 
BRANCH  79  80
ATOM     80  S   UNL     1       2.863  -6.838  -6.295  1.00  0.00     0.124 S 
ATOM     81  O   UNL     1       2.872  -7.051  -4.851  1.00  0.00    -0.237 OA
ATOM     82  O   UNL     1       1.545  -6.766  -6.916  1.00  0.00    -0.237 OA
ATOM     83  O   UNL     1       3.866  -7.590  -7.043  1.00  0.00    -0.744 OA
ENDBRANCH  79  80
ENDBRANCH  58  72
BRANCH  59  84
ATOM     84  C   UNL     1       7.515   7.017  -7.248  1.00  0.00     0.058 A 
ATOM     85  C   UNL     1       6.771   8.062  -7.812  1.00  0.00     0.135 A 
ATOM     86  C   UNL     1       8.769   7.333  -6.695  1.00  0.00     0.135 A 
ATOM     87  F   UNL     1       5.567   7.812  -8.349  1.00  0.00    -0.206 F 
ATOM     88  C   UNL     1       7.252   9.366  -7.840  1.00  0.00     0.059 A 
ATOM     89  C   UNL     1       9.258   8.635  -6.682  1.00  0.00     0.059 A 
ATOM     90  F   UNL     1       9.511   6.375  -6.117  1.00  0.00    -0.206 F 
ATOM     91  C   UNL     1       8.494   9.644  -7.266  1.00  0.00     0.060 A 
BRANCH  91  92
ATOM     92  S   UNL     1       9.080  11.352  -7.267  1.00  0.00     0.124 S 
ATOM     93  O   UNL     1       9.341  11.571  -8.685  1.00  0.00    -0.237 OA
ATOM     94  O   UNL     1       7.936  12.066  -6.709  1.00  0.00    -0.237 OA
ATOM     95  O   UNL     1      10.260  11.304  -6.408  1.00  0.00    -0.744 OA
ENDBRANCH  91  92
ENDBRANCH  59  84
BRANCH  71  96
ATOM     96  C   UNL     1       5.923   2.106 -11.939  1.00  0.00     0.058 A 
ATOM     97  C   UNL     1       7.115   2.143 -12.678  1.00  0.00     0.135 A 
ATOM     98  C   UNL     1       4.711   2.037 -12.645  1.00  0.00     0.135 A 
ATOM     99  F   UNL     1       8.300   2.220 -12.050  1.00  0.00    -0.206 F 
ATOM    100  C   UNL     1       7.104   2.149 -14.067  1.00  0.00     0.059 A 
ATOM    101  C   UNL     1       4.678   1.999 -14.033  1.00  0.00     0.059 A 
ATOM    102  F   UNL     1       3.543   1.991 -11.984  1.00  0.00    -0.206 F 
ATOM    103  C   UNL     1       5.880   2.071 -14.735  1.00  0.00     0.060 A 
BRANCH 103 104
ATOM    104  S   UNL     1       5.885   2.048 -16.538  1.00  0.00     0.124 S 
ATOM    105  O   UNL     1       6.288   3.415 -16.848  1.00  0.00    -0.237 OA
ATOM    106  O   UNL     1       6.873   1.013 -16.829  1.00  0.00    -0.237 OA
ATOM    107  O   UNL     1       4.508   1.706 -16.878  1.00  0.00    -0.744 OA
ENDBRANCH 103 104
ENDBRANCH  71  96
ENDBRANCH  45  46
ENDBRANCH  38  40
ENDBRANCH  37  38
ENDBRANCH  36  37
ENDBRANCH   1  36
TORSDOF 20
