REMARK SMILES O=C(OCCOC(=O)c1ccc(-n2cc(CSc3nc4ccccc4c(=O)n3-c3ccc(Cl)cc3)nn2)cc1)c1ccc(-c2c3nc(c(-c4c(F)cc(S(=O)(=O)[O-])cc4F)c4ccc([nH]4)c(-c4c(F)cc(S(=O)(=O)[O-])cc4F)c4nc(c(-c5c(F)cc(S(=O)(=O)[O-])cc5F)c5ccc2[nH]5)C=C4)C=C3)cc1
REMARK SMILES IDX 5 1 4 2 3 3 2 4 1 5 40 6 41 7 105 8 42 9 104 10 43 11 44 12
REMARK SMILES IDX 45 13 98 14 46 15 103 16 97 17 99 18 47 19 102 20 96 21
REMARK SMILES IDX 95 22 48 24 82 25 61 26 81 27 62 28 65 29 80 30 100 31 63 32
REMARK SMILES IDX 64 33 79 35 101 36 66 37 49 38 50 39 59 40 51 41 52 42 58 43
REMARK SMILES IDX 60 44 53 45 54 46 55 47 56 48 57 49 83 50 84 51 93 52 85 53
REMARK SMILES IDX 86 54 92 55 94 56 87 57 88 58 89 59 90 60 91 61 67 62 68 63
REMARK SMILES IDX 77 64 69 65 70 66 76 67 78 68 71 69 72 70 73 71 74 72 75 73
REMARK SMILES IDX 6 74 7 75 8 76 9 77 10 78 39 79 11 80 38 81 12 82 13 83
REMARK SMILES IDX 14 84 37 85 15 86 36 87 16 88 17 89 18 90 19 91 28 92 20 93
REMARK SMILES IDX 26 94 21 95 25 96 27 97 22 98 24 99 23 100 29 101 30 102
REMARK SMILES IDX 35 103 31 104 34 105 32 106 33 107
REMARK H PARENT 99 23 65 34
REMARK Flexibility Score: inf
ROOT
ATOM      1  C   UNL     1       4.570   0.559  -1.360  1.00  0.00     0.275 C 
ENDROOT
BRANCH   1   2
ATOM      2  C   UNL     1       4.375  -0.831  -0.740  1.00  0.00     0.275 C 
BRANCH   2   3
ATOM      3  O   UNL     1       3.007  -1.195  -0.647  1.00  0.00    -0.458 OA
BRANCH   3   4
ATOM      4  C   UNL     1       2.078  -0.632   0.174  1.00  0.00     0.338 C 
ATOM      5  O   UNL     1       0.969  -0.531  -0.209  1.00  0.00    -0.246 OA
BRANCH   4   6
ATOM      6  C   UNL     1       2.377  -0.348   1.625  1.00  0.00     0.060 A 
ATOM      7  C   UNL     1       3.535  -0.113   2.372  1.00  0.00     0.016 A 
ATOM      8  C   UNL     1       1.173  -0.281   2.322  1.00  0.00     0.016 A 
ATOM      9  C   UNL     1       3.436  -0.292   3.785  1.00  0.00     0.010 A 
ATOM     10  C   UNL     1       1.182   0.019   3.644  1.00  0.00     0.010 A 
ATOM     11  C   UNL     1       2.165  -0.601   4.355  1.00  0.00    -0.014 A 
BRANCH  11  12
ATOM     12  C   UNL     1       1.694  -0.700   5.793  1.00  0.00     0.031 A 
ATOM     13  C   UNL     1       2.340   0.671   6.367  1.00  0.00     0.074 A 
ATOM     14  C   UNL     1       0.785  -1.688   6.335  1.00  0.00     0.049 A 
ATOM     15  N   UNL     1       3.557   0.760   6.834  1.00  0.00    -0.248 NA
ATOM     16  C   UNL     1       1.972   2.088   5.940  1.00  0.00     0.031 C 
ATOM     17  C   UNL     1       0.020  -2.920   5.802  1.00  0.00     0.029 A 
ATOM     18  N   UNL     1       0.322  -1.877   7.662  1.00  0.00    -0.354 N 
ATOM     19  C   UNL     1       3.674   2.057   7.357  1.00  0.00     0.074 A 
ATOM     20  C   UNL     1       2.898   2.876   6.510  1.00  0.00     0.031 C 
ATOM     21  C   UNL     1      -0.988  -3.353   6.650  1.00  0.00     0.029 A 
ATOM     22  C   UNL     1      -0.916  -2.626   7.902  1.00  0.00     0.049 A 
ATOM     23  H   UNL     1       0.829  -1.505   8.420  1.00  0.00     0.167 HD
ATOM     24  C   UNL     1       3.940   2.183   8.686  1.00  0.00     0.037 A 
ATOM     25  C   UNL     1      -1.620  -2.814   9.112  1.00  0.00     0.037 A 
ATOM     26  C   UNL     1       4.408   0.890   9.138  1.00  0.00     0.049 A 
ATOM     27  C   UNL     1      -0.676  -2.302  10.153  1.00  0.00     0.074 A 
ATOM     28  C   UNL     1       5.455   0.060   8.793  1.00  0.00     0.029 A 
ATOM     29  N   UNL     1       3.373   0.090   9.538  1.00  0.00    -0.354 N 
ATOM     30  N   UNL     1       0.457  -2.917  10.392  1.00  0.00    -0.248 NA
ATOM     31  C   UNL     1      -0.687  -0.841  10.253  1.00  0.00     0.031 C 
ATOM     32  C   UNL     1       4.910  -1.261   8.765  1.00  0.00     0.029 A 
ATOM     33  C   UNL     1       3.625  -1.226   9.298  1.00  0.00     0.049 A 
ATOM     34  H   UNL     1       2.545   0.426   9.950  1.00  0.00     0.167 HD
ATOM     35  C   UNL     1       1.411  -1.939  10.151  1.00  0.00     0.074 A 
ATOM     36  C   UNL     1       0.629  -0.670  10.056  1.00  0.00     0.031 C 
ATOM     37  C   UNL     1       2.651  -2.239   9.627  1.00  0.00     0.037 A 
BRANCH  24  38
ATOM     38  C   UNL     1       3.239   3.129   9.656  1.00  0.00     0.058 A 
ATOM     39  C   UNL     1       3.671   3.066  10.996  1.00  0.00     0.135 A 
ATOM     40  C   UNL     1       2.031   3.841   9.445  1.00  0.00     0.135 A 
ATOM     41  F   UNL     1       4.818   2.444  11.311  1.00  0.00    -0.206 F 
ATOM     42  C   UNL     1       2.933   3.588  12.052  1.00  0.00     0.059 A 
ATOM     43  C   UNL     1       1.303   4.426  10.488  1.00  0.00     0.059 A 
ATOM     44  F   UNL     1       1.474   3.963   8.235  1.00  0.00    -0.206 F 
ATOM     45  C   UNL     1       1.756   4.277  11.790  1.00  0.00     0.060 A 
BRANCH  45  46
ATOM     46  S   UNL     1       0.896   5.027  13.184  1.00  0.00     0.124 S 
ATOM     47  O   UNL     1       0.509   3.859  13.965  1.00  0.00    -0.237 OA
ATOM     48  O   UNL     1       1.952   5.856  13.760  1.00  0.00    -0.237 OA
ATOM     49  O   UNL     1      -0.195   5.765  12.556  1.00  0.00    -0.744 OA
ENDBRANCH  45  46
ENDBRANCH  24  38
BRANCH  25  50
ATOM     50  C   UNL     1      -3.151  -2.817   9.418  1.00  0.00     0.058 A 
ATOM     51  C   UNL     1      -3.870  -3.095  10.637  1.00  0.00     0.135 A 
ATOM     52  C   UNL     1      -3.940  -2.177   8.457  1.00  0.00     0.135 A 
ATOM     53  F   UNL     1      -3.268  -3.701  11.677  1.00  0.00    -0.206 F 
ATOM     54  C   UNL     1      -5.246  -2.726  10.849  1.00  0.00     0.059 A 
ATOM     55  C   UNL     1      -5.271  -1.787   8.651  1.00  0.00     0.059 A 
ATOM     56  F   UNL     1      -3.392  -1.812   7.293  1.00  0.00    -0.206 F 
ATOM     57  C   UNL     1      -5.926  -2.034   9.847  1.00  0.00     0.060 A 
BRANCH  57  58
ATOM     58  S   UNL     1      -7.597  -1.330  10.086  1.00  0.00     0.124 S 
ATOM     59  O   UNL     1      -8.431  -2.518  10.232  1.00  0.00    -0.237 OA
ATOM     60  O   UNL     1      -7.436  -0.516  11.285  1.00  0.00    -0.237 OA
ATOM     61  O   UNL     1      -7.821  -0.573   8.855  1.00  0.00    -0.744 OA
ENDBRANCH  57  58
ENDBRANCH  25  50
BRANCH  37  62
ATOM     62  C   UNL     1       3.109  -3.680   9.452  1.00  0.00     0.058 A 
ATOM     63  C   UNL     1       2.770  -4.596   8.427  1.00  0.00     0.135 A 
ATOM     64  C   UNL     1       4.144  -4.079  10.302  1.00  0.00     0.135 A 
ATOM     65  F   UNL     1       1.944  -4.247   7.431  1.00  0.00    -0.206 F 
ATOM     66  C   UNL     1       3.347  -5.877   8.337  1.00  0.00     0.059 A 
ATOM     67  C   UNL     1       4.763  -5.319  10.206  1.00  0.00     0.059 A 
ATOM     68  F   UNL     1       4.632  -3.211  11.201  1.00  0.00    -0.206 F 
ATOM     69  C   UNL     1       4.338  -6.233   9.250  1.00  0.00     0.060 A 
BRANCH  69  70
ATOM     70  S   UNL     1       5.114  -7.865   9.168  1.00  0.00     0.124 S 
ATOM     71  O   UNL     1       4.004  -8.754   9.496  1.00  0.00    -0.237 OA
ATOM     72  O   UNL     1       5.584  -7.924   7.787  1.00  0.00    -0.237 OA
ATOM     73  O   UNL     1       6.170  -7.791  10.175  1.00  0.00    -0.744 OA
ENDBRANCH  69  70
ENDBRANCH  37  62
ENDBRANCH  11  12
ENDBRANCH   4   6
ENDBRANCH   3   4
ENDBRANCH   2   3
ENDBRANCH   1   2
BRANCH   1  74
ATOM     74  O   UNL     1       4.007   1.614  -0.535  1.00  0.00    -0.458 OA
BRANCH  74  75
ATOM     75  C   UNL     1       2.764   2.084  -0.867  1.00  0.00     0.338 C 
ATOM     76  O   UNL     1       2.119   1.771  -1.847  1.00  0.00    -0.246 OA
BRANCH  75  77
ATOM     77  C   UNL     1       2.246   2.945   0.248  1.00  0.00     0.060 A 
ATOM     78  C   UNL     1       1.036   2.634   0.886  1.00  0.00     0.018 A 
ATOM     79  C   UNL     1       2.937   4.082   0.669  1.00  0.00     0.018 A 
ATOM     80  C   UNL     1       0.602   3.337   2.031  1.00  0.00     0.029 A 
ATOM     81  C   UNL     1       2.455   4.849   1.758  1.00  0.00     0.029 A 
ATOM     82  C   UNL     1       1.330   4.431   2.500  1.00  0.00     0.066 A 
BRANCH  82  83
ATOM     83  N   UNL     1       0.736   5.277   3.484  1.00  0.00    -0.220 N 
ATOM     84  C   UNL     1      -0.016   6.376   3.163  1.00  0.00     0.141 A 
ATOM     85  N   UNL     1       0.534   5.016   4.788  1.00  0.00    -0.062 NA
ATOM     86  C   UNL     1      -0.552   6.899   4.325  1.00  0.00     0.093 A 
ATOM     87  N   UNL     1      -0.148   6.042   5.326  1.00  0.00    -0.134 NA
BRANCH  86  88
ATOM     88  C   UNL     1      -1.295   8.202   4.624  1.00  0.00     0.138 C 
BRANCH  88  89
ATOM     89  S   UNL     1      -3.086   8.436   4.179  1.00  0.00    -0.081 SA
BRANCH  89  90
ATOM     90  C   UNL     1      -3.693   7.843   2.600  1.00  0.00     0.176 A 
ATOM     91  N   UNL     1      -5.003   7.747   2.576  1.00  0.00    -0.223 NA
ATOM     92  N   UNL     1      -2.968   7.366   1.501  1.00  0.00    -0.255 N 
ATOM     93  C   UNL     1      -5.569   6.915   1.581  1.00  0.00     0.079 A 
ATOM     94  C   UNL     1      -3.333   6.053   1.272  1.00  0.00     0.266 A 
ATOM     95  C   UNL     1      -6.898   7.000   1.161  1.00  0.00     0.029 A 
ATOM     96  C   UNL     1      -4.787   5.873   1.078  1.00  0.00     0.066 A 
ATOM     97  O   UNL     1      -2.581   5.088   1.346  1.00  0.00    -0.268 OA
ATOM     98  C   UNL     1      -7.417   6.041   0.271  1.00  0.00     0.002 A 
ATOM     99  C   UNL     1      -5.320   4.839   0.311  1.00  0.00     0.016 A 
ATOM    100  C   UNL     1      -6.642   4.941  -0.116  1.00  0.00     0.001 A 
BRANCH  92 101
ATOM    101  C   UNL     1      -1.794   7.950   0.861  1.00  0.00     0.051 A 
ATOM    102  C   UNL     1      -1.253   7.766  -0.410  1.00  0.00     0.028 A 
ATOM    103  C   UNL     1      -0.982   8.697   1.669  1.00  0.00     0.028 A 
ATOM    104  C   UNL     1       0.115   8.135  -0.671  1.00  0.00     0.022 A 
ATOM    105  C   UNL     1       0.374   8.963   1.526  1.00  0.00     0.022 A 
ATOM    106  C   UNL     1       0.945   8.636   0.336  1.00  0.00     0.041 A 
ATOM    107  Cl  UNL     1       2.653   8.719   0.203  1.00  0.00    -0.084 Cl
ENDBRANCH  92 101
ENDBRANCH  89  90
ENDBRANCH  88  89
ENDBRANCH  86  88
ENDBRANCH  82  83
ENDBRANCH  75  77
ENDBRANCH  74  75
ENDBRANCH   1  74
TORSDOF 19
