REMARK SMILES Cc1cc(Br)cc2c1O[C@H](C(F)(F)F)C(C(=O)OCCOC(=O)c1ccc(-c3c4nc(c(-c5c(F)cc(S(=O)(=O)[O-])cc5F)c5ccc([nH]5)c(-c5c(F)cc(S(=O)(=O)[O-])cc5F)c5nc(c(-c6c(F)cc(S(=O)(=O)[O-])cc6F)c6ccc3[nH]6)C=C5)C=C4)cc1)=C2
REMARK SMILES IDX 20 1 19 2 18 3 16 4 17 5 15 6 1 7 2 8 3 9 8 10 4 11 7 12
REMARK SMILES IDX 9 13 5 14 6 15 90 16 10 17 11 18 12 19 13 20 14 21 21 22
REMARK SMILES IDX 22 23 23 24 24 25 25 26 89 27 26 28 88 29 27 30 28 31 29 32
REMARK SMILES IDX 82 33 30 34 87 35 81 36 83 37 31 38 86 39 80 40 79 41 32 43
REMARK SMILES IDX 66 44 45 45 65 46 46 47 49 48 64 49 84 50 47 51 48 52 63 54
REMARK SMILES IDX 85 55 50 56 33 57 34 58 43 59 35 60 36 61 42 62 44 63 37 64
REMARK SMILES IDX 38 65 39 66 40 67 41 68 67 69 68 70 77 71 69 72 70 73 76 74
REMARK SMILES IDX 78 75 71 76 72 77 73 78 74 79 75 80 51 81 52 82 61 83 53 84
REMARK SMILES IDX 54 85 60 86 62 87 55 88 56 89 57 90 58 91 59 92
REMARK H PARENT 83 42 49 53
REMARK Flexibility Score: inf
ROOT
ATOM      1  C   UNL     1       1.839  -8.139   4.026  1.00  0.00     0.275 C 
ENDROOT
BRANCH   1   2
ATOM      2  C   UNL     1       1.032  -7.848   2.760  1.00  0.00     0.275 C 
BRANCH   2   3
ATOM      3  O   UNL     1       1.140  -6.461   2.372  1.00  0.00    -0.459 OA
BRANCH   3   4
ATOM      4  C   UNL     1       0.062  -5.692   2.653  1.00  0.00     0.338 C 
ATOM      5  O   UNL     1      -0.983  -6.067   3.161  1.00  0.00    -0.246 OA
BRANCH   4   6
ATOM      6  C   UNL     1       0.308  -4.289   2.270  1.00  0.00     0.087 C 
ATOM      7  C   UNL     1       1.014   0.080  -0.338  1.00  0.00     0.048 C 
ATOM      8  C   UNL     1       0.554  -0.294   1.041  1.00  0.00    -0.007 A 
ATOM      9  C   UNL     1       0.164   0.714   1.939  1.00  0.00     0.023 A 
ATOM     10  C   UNL     1       0.534  -1.633   1.460  1.00  0.00     0.130 A 
ATOM     11  C   UNL     1      -0.247   0.388   3.229  1.00  0.00     0.019 A 
ATOM     12  C   UNL     1       0.103  -1.949   2.750  1.00  0.00     0.019 A 
ATOM     13  O   UNL     1       0.966  -2.582   0.572  1.00  0.00    -0.475 OA
ATOM     14  Br  UNL     1      -0.781   1.753   4.422  1.00  0.00    -0.051 Br
ATOM     15  C   UNL     1      -0.279  -0.939   3.641  1.00  0.00     0.027 A 
ATOM     16  C   UNL     1       0.013  -3.335   3.159  1.00  0.00     0.027 C 
ATOM     17  C   UNL     1       0.730  -3.989   0.864  1.00  0.00     0.316 C 
BRANCH  17  18
ATOM     18  C   UNL     1      -0.282  -4.543  -0.152  1.00  0.00     0.430 C 
ATOM     19  F   UNL     1       0.088  -4.254  -1.423  1.00  0.00    -0.167 F 
ATOM     20  F   UNL     1      -0.371  -5.894  -0.079  1.00  0.00    -0.167 F 
ATOM     21  F   UNL     1      -1.524  -4.044   0.032  1.00  0.00    -0.167 F 
ENDBRANCH  17  18
ENDBRANCH   4   6
ENDBRANCH   3   4
ENDBRANCH   2   3
ENDBRANCH   1   2
BRANCH   1  22
ATOM     22  O   UNL     1       1.252  -7.483   5.164  1.00  0.00    -0.458 OA
BRANCH  22  23
ATOM     23  C   UNL     1       1.875  -6.349   5.559  1.00  0.00     0.338 C 
ATOM     24  O   UNL     1       2.882  -5.854   5.084  1.00  0.00    -0.246 OA
BRANCH  23  25
ATOM     25  C   UNL     1       1.098  -5.703   6.625  1.00  0.00     0.060 A 
ATOM     26  C   UNL     1      -0.071  -5.044   6.270  1.00  0.00     0.016 A 
ATOM     27  C   UNL     1       1.591  -5.596   7.922  1.00  0.00     0.016 A 
ATOM     28  C   UNL     1      -0.665  -4.151   7.151  1.00  0.00     0.010 A 
ATOM     29  C   UNL     1       0.891  -4.825   8.861  1.00  0.00     0.010 A 
ATOM     30  C   UNL     1      -0.224  -4.056   8.477  1.00  0.00    -0.014 A 
BRANCH  30  31
ATOM     31  C   UNL     1      -0.945  -3.161   9.430  1.00  0.00     0.031 A 
ATOM     32  C   UNL     1      -0.207  -2.088  10.192  1.00  0.00     0.074 A 
ATOM     33  C   UNL     1      -2.284  -3.283   9.576  1.00  0.00     0.049 A 
ATOM     34  N   UNL     1      -0.653  -1.286  11.125  1.00  0.00    -0.248 NA
ATOM     35  C   UNL     1       1.220  -1.898   9.880  1.00  0.00     0.031 C 
ATOM     36  C   UNL     1      -3.125  -4.261   8.877  1.00  0.00     0.029 A 
ATOM     37  N   UNL     1      -3.183  -2.570  10.331  1.00  0.00    -0.354 N 
ATOM     38  C   UNL     1       0.440  -0.530  11.538  1.00  0.00     0.074 A 
ATOM     39  C   UNL     1       1.579  -0.987  10.774  1.00  0.00     0.031 C 
ATOM     40  C   UNL     1      -4.412  -4.029   9.164  1.00  0.00     0.029 A 
ATOM     41  C   UNL     1      -4.490  -2.966  10.156  1.00  0.00     0.049 A 
ATOM     42  H   UNL     1      -2.917  -1.842  10.939  1.00  0.00     0.167 HD
ATOM     43  C   UNL     1       0.484   0.461  12.461  1.00  0.00     0.037 A 
ATOM     44  C   UNL     1      -5.628  -2.552  10.748  1.00  0.00     0.037 A 
ATOM     45  C   UNL     1      -0.669   0.941  13.179  1.00  0.00     0.049 A 
ATOM     46  C   UNL     1      -5.544  -1.487  11.804  1.00  0.00     0.074 A 
ATOM     47  C   UNL     1      -0.729   1.940  14.135  1.00  0.00     0.029 A 
ATOM     48  N   UNL     1      -1.963   0.472  13.009  1.00  0.00    -0.354 N 
ATOM     49  N   UNL     1      -4.492  -0.822  12.214  1.00  0.00    -0.248 NA
ATOM     50  C   UNL     1      -6.790  -1.134  12.497  1.00  0.00     0.031 C 
ATOM     51  C   UNL     1      -2.052   2.045  14.574  1.00  0.00     0.029 A 
ATOM     52  C   UNL     1      -2.826   1.149  13.853  1.00  0.00     0.049 A 
ATOM     53  H   UNL     1      -2.229  -0.238  12.381  1.00  0.00     0.167 HD
ATOM     54  C   UNL     1      -4.950   0.042  13.200  1.00  0.00     0.074 A 
ATOM     55  C   UNL     1      -6.378  -0.177  13.318  1.00  0.00     0.031 C 
ATOM     56  C   UNL     1      -4.249   0.932  13.942  1.00  0.00     0.037 A 
BRANCH  43  57
ATOM     57  C   UNL     1       1.817   1.094  12.761  1.00  0.00     0.058 A 
ATOM     58  C   UNL     1       2.456   1.947  11.848  1.00  0.00     0.135 A 
ATOM     59  C   UNL     1       2.435   0.893  14.008  1.00  0.00     0.135 A 
ATOM     60  F   UNL     1       1.920   2.163  10.637  1.00  0.00    -0.206 F 
ATOM     61  C   UNL     1       3.668   2.561  12.151  1.00  0.00     0.059 A 
ATOM     62  C   UNL     1       3.633   1.520  14.343  1.00  0.00     0.059 A 
ATOM     63  F   UNL     1       1.869   0.089  14.921  1.00  0.00    -0.206 F 
ATOM     64  C   UNL     1       4.247   2.345  13.402  1.00  0.00     0.060 A 
BRANCH  64  65
ATOM     65  S   UNL     1       5.813   3.161  13.779  1.00  0.00     0.124 S 
ATOM     66  O   UNL     1       6.731   2.457  12.888  1.00  0.00    -0.237 OA
ATOM     67  O   UNL     1       5.532   4.549  13.430  1.00  0.00    -0.237 OA
ATOM     68  O   UNL     1       6.002   2.900  15.203  1.00  0.00    -0.744 OA
ENDBRANCH  64  65
ENDBRANCH  43  57
BRANCH  44  69
ATOM     69  C   UNL     1      -6.931  -3.163  10.366  1.00  0.00     0.058 A 
ATOM     70  C   UNL     1      -7.908  -2.417   9.691  1.00  0.00     0.135 A 
ATOM     71  C   UNL     1      -7.212  -4.515  10.628  1.00  0.00     0.135 A 
ATOM     72  F   UNL     1      -7.694  -1.119   9.425  1.00  0.00    -0.206 F 
ATOM     73  C   UNL     1      -9.114  -2.984   9.292  1.00  0.00     0.059 A 
ATOM     74  C   UNL     1      -8.397  -5.113  10.211  1.00  0.00     0.059 A 
ATOM     75  F   UNL     1      -6.308  -5.280  11.260  1.00  0.00    -0.206 F 
ATOM     76  C   UNL     1      -9.346  -4.337   9.550  1.00  0.00     0.060 A 
BRANCH  76  77
ATOM     77  S   UNL     1     -10.891  -5.075   8.978  1.00  0.00     0.124 S 
ATOM     78  O   UNL     1     -11.863  -4.449   9.867  1.00  0.00    -0.237 OA
ATOM     79  O   UNL     1     -10.935  -4.650   7.582  1.00  0.00    -0.237 OA
ATOM     80  O   UNL     1     -10.678  -6.505   9.184  1.00  0.00    -0.744 OA
ENDBRANCH  76  77
ENDBRANCH  44  69
BRANCH  56  81
ATOM     81  C   UNL     1      -5.005   1.771  14.932  1.00  0.00     0.058 A 
ATOM     82  C   UNL     1      -5.444   1.242  16.154  1.00  0.00     0.135 A 
ATOM     83  C   UNL     1      -5.178   3.146  14.707  1.00  0.00     0.135 A 
ATOM     84  F   UNL     1      -5.312  -0.069  16.411  1.00  0.00    -0.206 F 
ATOM     85  C   UNL     1      -6.018   2.052  17.127  1.00  0.00     0.059 A 
ATOM     86  C   UNL     1      -5.727   3.979  15.675  1.00  0.00     0.059 A 
ATOM     87  F   UNL     1      -4.770   3.698  13.553  1.00  0.00    -0.206 F 
ATOM     88  C   UNL     1      -6.140   3.423  16.885  1.00  0.00     0.060 A 
BRANCH  88  89
ATOM     89  S   UNL     1      -6.795   4.473  18.198  1.00  0.00     0.124 S 
ATOM     90  O   UNL     1      -8.194   4.061  18.237  1.00  0.00    -0.237 OA
ATOM     91  O   UNL     1      -5.985   4.074  19.345  1.00  0.00    -0.237 OA
ATOM     92  O   UNL     1      -6.553   5.826  17.707  1.00  0.00    -0.744 OA
ENDBRANCH  88  89
ENDBRANCH  56  81
ENDBRANCH  30  31
ENDBRANCH  23  25
ENDBRANCH  22  23
ENDBRANCH   1  22
TORSDOF 15
