REMARK SMILES O=C(OCCOC(=O)[C@]12C[NH2+]C[C@H]1CN(C(=O)c1ccccc1-n1cncn1)C2)c1ccc(-c2c3nc(c(-c4c(F)cc(S(=O)(=O)[O-])cc4F)c4ccc([nH]4)c(-c4c(F)cc(S(=O)(=O)[O-])cc4F)c4nc(c(-c5c(F)cc(S(=O)(=O)[O-])cc5F)c5ccc2[nH]5)C=C4)C=C3)cc1
REMARK SMILES IDX 4 1 3 2 2 3 1 4 30 5 31 6 95 7 32 8 94 9 33 10 34 11 35 12
REMARK SMILES IDX 88 13 36 14 93 15 87 16 89 17 37 18 92 19 86 20 85 21 38 23
REMARK SMILES IDX 72 24 51 25 71 26 52 27 55 28 70 29 90 30 53 31 54 32 69 34
REMARK SMILES IDX 91 35 56 36 39 37 40 38 49 39 41 40 42 41 48 42 50 43 43 44
REMARK SMILES IDX 44 45 45 46 46 47 47 48 73 49 74 50 83 51 75 52 76 53 82 54
REMARK SMILES IDX 84 55 77 56 78 57 79 58 80 59 81 60 57 61 58 62 67 63 59 64
REMARK SMILES IDX 60 65 66 66 68 67 61 68 62 69 63 70 64 71 65 72 5 73 6 74
REMARK SMILES IDX 7 75 8 76 9 77 10 78 13 79 29 80 11 81 12 82 14 83 15 84
REMARK SMILES IDX 16 87 17 88 18 89 19 90 23 91 20 92 22 93 21 94 24 95 25 96
REMARK SMILES IDX 28 97 26 98 27 99
REMARK H PARENT 89 22 55 33 11 85 11 86
REMARK Flexibility Score: inf
ROOT
ATOM      1  C   UNL     1       5.045   0.605  -1.220  1.00  0.00     0.275 C 
ENDROOT
BRANCH   1   2
ATOM      2  O   UNL     1       3.909   0.196  -2.010  1.00  0.00    -0.458 OA
BRANCH   2   3
ATOM      3  C   UNL     1       2.716  -0.173  -1.498  1.00  0.00     0.338 C 
ATOM      4  O   UNL     1       1.685   0.411  -1.812  1.00  0.00    -0.246 OA
BRANCH   3   5
ATOM      5  C   UNL     1       2.668  -1.453  -0.736  1.00  0.00     0.060 A 
ATOM      6  C   UNL     1       3.780  -2.270  -0.480  1.00  0.00     0.016 A 
ATOM      7  C   UNL     1       1.405  -1.849  -0.267  1.00  0.00     0.016 A 
ATOM      8  C   UNL     1       3.638  -3.461   0.232  1.00  0.00     0.010 A 
ATOM      9  C   UNL     1       1.262  -3.031   0.443  1.00  0.00     0.010 A 
ATOM     10  C   UNL     1       2.371  -3.858   0.650  1.00  0.00    -0.014 A 
BRANCH  10  11
ATOM     11  C   UNL     1       2.179  -5.192   1.214  1.00  0.00     0.031 A 
ATOM     12  C   UNL     1       2.649  -5.447   2.612  1.00  0.00     0.074 A 
ATOM     13  C   UNL     1       1.373  -6.055   0.562  1.00  0.00     0.049 A 
ATOM     14  N   UNL     1       3.530  -6.291   3.054  1.00  0.00    -0.248 NA
ATOM     15  C   UNL     1       2.116  -4.567   3.659  1.00  0.00     0.031 C 
ATOM     16  C   UNL     1       0.592  -5.822  -0.660  1.00  0.00     0.029 A 
ATOM     17  N   UNL     1       0.972  -7.294   0.940  1.00  0.00    -0.354 N 
ATOM     18  C   UNL     1       3.511  -6.181   4.452  1.00  0.00     0.074 A 
ATOM     19  C   UNL     1       2.789  -4.972   4.736  1.00  0.00     0.031 C 
ATOM     20  C   UNL     1      -0.365  -6.768  -0.767  1.00  0.00     0.029 A 
ATOM     21  C   UNL     1      -0.155  -7.753   0.274  1.00  0.00     0.049 A 
ATOM     22  H   UNL     1       1.440  -7.821   1.627  1.00  0.00     0.167 HD
ATOM     23  C   UNL     1       3.890  -7.195   5.287  1.00  0.00     0.037 A 
ATOM     24  C   UNL     1      -0.902  -8.826   0.627  1.00  0.00     0.037 A 
ATOM     25  C   UNL     1       4.632  -8.204   4.576  1.00  0.00     0.049 A 
ATOM     26  C   UNL     1      -0.041  -9.675   1.497  1.00  0.00     0.074 A 
ATOM     27  C   UNL     1       5.821  -8.233   3.873  1.00  0.00     0.029 A 
ATOM     28  N   UNL     1       3.973  -9.357   4.221  1.00  0.00    -0.354 N 
ATOM     29  N   UNL     1       1.064 -10.242   1.082  1.00  0.00    -0.248 NA
ATOM     30  C   UNL     1      -0.138  -9.491   2.938  1.00  0.00     0.031 C 
ATOM     31  C   UNL     1       5.562  -9.090   2.762  1.00  0.00     0.029 A 
ATOM     32  C   UNL     1       4.261  -9.578   2.898  1.00  0.00     0.049 A 
ATOM     33  H   UNL     1       3.406  -9.914   4.801  1.00  0.00     0.167 HD
ATOM     34  C   UNL     1       1.955 -10.130   2.141  1.00  0.00     0.074 A 
ATOM     35  C   UNL     1       1.134  -9.716   3.280  1.00  0.00     0.031 C 
ATOM     36  C   UNL     1       3.309 -10.102   1.943  1.00  0.00     0.037 A 
BRANCH  23  37
ATOM     37  C   UNL     1       3.305  -7.471   6.668  1.00  0.00     0.058 A 
ATOM     38  C   UNL     1       3.846  -8.517   7.453  1.00  0.00     0.135 A 
ATOM     39  C   UNL     1       2.070  -6.962   7.128  1.00  0.00     0.135 A 
ATOM     40  F   UNL     1       5.030  -9.068   7.140  1.00  0.00    -0.206 F 
ATOM     41  C   UNL     1       3.159  -9.087   8.529  1.00  0.00     0.059 A 
ATOM     42  C   UNL     1       1.394  -7.480   8.230  1.00  0.00     0.059 A 
ATOM     43  F   UNL     1       1.402  -6.000   6.485  1.00  0.00    -0.206 F 
ATOM     44  C   UNL     1       1.917  -8.579   8.890  1.00  0.00     0.060 A 
BRANCH  44  45
ATOM     45  S   UNL     1       0.949  -9.409  10.163  1.00  0.00     0.124 S 
ATOM     46  O   UNL     1       0.616 -10.665   9.500  1.00  0.00    -0.237 OA
ATOM     47  O   UNL     1       1.906  -9.500  11.261  1.00  0.00    -0.237 OA
ATOM     48  O   UNL     1      -0.167  -8.496  10.386  1.00  0.00    -0.744 OA
ENDBRANCH  44  45
ENDBRANCH  23  37
BRANCH  24  49
ATOM     49  C   UNL     1      -2.389  -8.877   0.612  1.00  0.00     0.058 A 
ATOM     50  C   UNL     1      -3.088 -10.092   0.665  1.00  0.00     0.135 A 
ATOM     51  C   UNL     1      -3.162  -7.707   0.779  1.00  0.00     0.135 A 
ATOM     52  F   UNL     1      -2.427 -11.254   0.546  1.00  0.00    -0.206 F 
ATOM     53  C   UNL     1      -4.470 -10.146   0.889  1.00  0.00     0.059 A 
ATOM     54  C   UNL     1      -4.539  -7.734   0.993  1.00  0.00     0.059 A 
ATOM     55  F   UNL     1      -2.586  -6.496   0.821  1.00  0.00    -0.206 F 
ATOM     56  C   UNL     1      -5.186  -8.960   1.066  1.00  0.00     0.060 A 
BRANCH  56  57
ATOM     57  S   UNL     1      -6.941  -9.029   1.496  1.00  0.00     0.124 S 
ATOM     58  O   UNL     1      -7.534  -9.538   0.264  1.00  0.00    -0.237 OA
ATOM     59  O   UNL     1      -6.944  -9.946   2.631  1.00  0.00    -0.237 OA
ATOM     60  O   UNL     1      -7.268  -7.642   1.818  1.00  0.00    -0.744 OA
ENDBRANCH  56  57
ENDBRANCH  24  49
BRANCH  36  61
ATOM     61  C   UNL     1       3.844 -10.378   0.557  1.00  0.00     0.058 A 
ATOM     62  C   UNL     1       3.651  -9.514  -0.537  1.00  0.00     0.135 A 
ATOM     63  C   UNL     1       4.755 -11.427   0.377  1.00  0.00     0.135 A 
ATOM     64  F   UNL     1       2.896  -8.418  -0.418  1.00  0.00    -0.206 F 
ATOM     65  C   UNL     1       4.298  -9.700  -1.759  1.00  0.00     0.059 A 
ATOM     66  C   UNL     1       5.439 -11.616  -0.825  1.00  0.00     0.059 A 
ATOM     67  F   UNL     1       5.048 -12.244   1.402  1.00  0.00    -0.206 F 
ATOM     68  C   UNL     1       5.198 -10.753  -1.893  1.00  0.00     0.060 A 
BRANCH  68  69
ATOM     69  S   UNL     1       6.116 -10.925  -3.439  1.00  0.00     0.124 S 
ATOM     70  O   UNL     1       5.083 -11.387  -4.359  1.00  0.00    -0.237 OA
ATOM     71  O   UNL     1       6.609  -9.569  -3.669  1.00  0.00    -0.237 OA
ATOM     72  O   UNL     1       7.149 -11.906  -3.115  1.00  0.00    -0.744 OA
ENDBRANCH  68  69
ENDBRANCH  36  61
ENDBRANCH  10  11
ENDBRANCH   3   5
ENDBRANCH   2   3
ENDBRANCH   1   2
BRANCH   1  73
ATOM     73  C   UNL     1       4.800   1.614  -0.101  1.00  0.00     0.274 C 
BRANCH  73  74
ATOM     74  O   UNL     1       4.508   0.999   1.172  1.00  0.00    -0.461 OA
BRANCH  74  75
ATOM     75  C   UNL     1       3.224   1.142   1.629  1.00  0.00     0.320 C 
ATOM     76  O   UNL     1       2.297   1.539   0.935  1.00  0.00    -0.251 OA
BRANCH  75  77
ATOM     77  C   UNL     1       3.175   0.804   3.150  1.00  0.00     0.144 C 
ATOM     78  C   UNL     1       2.507  -0.543   2.677  1.00  0.00     0.281 C 
ATOM     79  C   UNL     1       2.391   0.579   4.508  1.00  0.00     0.088 C 
ATOM     80  C   UNL     1       2.806   2.353   3.293  1.00  0.00     0.145 C 
ATOM     81  N   UNL     1       2.723  -1.544   3.723  1.00  0.00    -0.345 N 
ATOM     82  C   UNL     1       2.573  -0.844   4.973  1.00  0.00     0.267 C 
ATOM     83  C   UNL     1       2.929   1.575   5.506  1.00  0.00     0.130 C 
ATOM     84  N   UNL     1       3.034   2.737   4.681  1.00  0.00    -0.337 N 
ATOM     85  H   UNL     1       3.660  -1.940   3.648  1.00  0.00     0.346 HD
ATOM     86  H   UNL     1       2.063  -2.318   3.644  1.00  0.00     0.346 HD
BRANCH  84  87
ATOM     87  C   UNL     1       3.307   3.984   5.190  1.00  0.00     0.256 C 
ATOM     88  O   UNL     1       3.583   4.204   6.366  1.00  0.00    -0.269 OA
BRANCH  87  89
ATOM     89  C   UNL     1       3.263   5.125   4.253  1.00  0.00     0.065 A 
ATOM     90  C   UNL     1       4.502   5.723   3.972  1.00  0.00     0.016 A 
ATOM     91  C   UNL     1       2.115   5.508   3.540  1.00  0.00     0.079 A 
ATOM     92  C   UNL     1       4.606   6.682   2.966  1.00  0.00     0.001 A 
ATOM     93  C   UNL     1       2.241   6.454   2.508  1.00  0.00     0.029 A 
ATOM     94  C   UNL     1       3.478   7.042   2.232  1.00  0.00     0.002 A 
BRANCH  91  95
ATOM     95  N   UNL     1       0.841   4.926   3.766  1.00  0.00    -0.220 N 
ATOM     96  C   UNL     1       0.330   4.302   4.879  1.00  0.00     0.225 A 
ATOM     97  N   UNL     1      -0.069   4.840   2.761  1.00  0.00    -0.155 NA
ATOM     98  N   UNL     1      -0.785   3.675   4.581  1.00  0.00    -0.223 NA
ATOM     99  C   UNL     1      -0.969   3.998   3.271  1.00  0.00     0.246 A 
ENDBRANCH  91  95
ENDBRANCH  87  89
ENDBRANCH  84  87
ENDBRANCH  75  77
ENDBRANCH  74  75
ENDBRANCH  73  74
ENDBRANCH   1  73
TORSDOF 17
