REMARK SMILES Cc1ccc(NC(=O)c2ccccc2NC(=O)[C@H]2CCCC[C@H]2C(=O)OCCOC(=O)c2ccc(-c3c4nc(c(-c5c(F)cc(S(=O)(=O)[O-])cc5F)c5ccc([nH]5)c(-c5c(F)cc(S(=O)(=O)[O-])cc5F)c5nc(c(-c6c(F)cc(S(=O)(=O)[O-])cc6F)c6ccc3[nH]6)C=C5)C=C4)cc2)cc1
REMARK SMILES IDX 27 1 26 2 24 3 25 4 23 5 18 6 19 7 20 8 22 9 21 10 16 11
REMARK SMILES IDX 15 12 17 14 14 15 9 16 10 17 11 18 13 19 12 20 7 21 6 22
REMARK SMILES IDX 8 24 5 25 1 26 2 27 3 28 99 29 4 30 98 31 28 32 29 33 30 34
REMARK SMILES IDX 31 35 32 36 33 37 97 38 34 39 96 40 35 41 36 42 37 43 90 44
REMARK SMILES IDX 38 45 95 46 89 47 91 48 39 49 94 50 88 51 87 52 40 54 74 55
REMARK SMILES IDX 53 56 73 57 54 58 57 59 72 60 92 61 55 62 56 63 71 65 93 66
REMARK SMILES IDX 58 67 41 68 42 69 51 70 43 71 44 72 50 73 52 74 45 75 46 76
REMARK SMILES IDX 47 77 48 78 49 79 75 80 76 81 85 82 77 83 78 84 84 85 86 86
REMARK SMILES IDX 79 87 80 88 81 89 82 90 83 91 59 92 60 93 69 94 61 95 62 96
REMARK SMILES IDX 68 97 70 98 63 99 64 100 65 101 66 102 67 103
REMARK H PARENT 15 13 6 23 91 53 57 64
REMARK Flexibility Score: inf
ROOT
ATOM      1  C   UNL     1      -0.703   2.306   7.164  1.00  0.00     0.274 C 
ENDROOT
BRANCH   1   2
ATOM      2  O   UNL     1      -0.556   0.882   7.039  1.00  0.00    -0.462 OA
BRANCH   2   3
ATOM      3  C   UNL     1      -1.597   0.177   6.288  1.00  0.00     0.309 C 
ATOM      4  O   UNL     1      -2.641   0.848   6.529  1.00  0.00    -0.252 OA
BRANCH   3   5
ATOM      5  C   UNL     1      -1.259  -1.645   5.096  1.00  0.00     0.111 C 
ATOM      6  C   UNL     1      -0.224  -1.976   3.693  1.00  0.00     0.093 C 
ATOM      7  C   UNL     1      -0.372  -3.321   2.945  1.00  0.00     0.014 C 
ATOM      8  C   UNL     1      -0.253  -4.545   3.822  1.00  0.00     0.001 C 
ATOM      9  C   UNL     1      -1.453  -3.374   5.657  1.00  0.00     0.016 C 
ATOM     10  C   UNL     1      -1.463  -4.558   4.702  1.00  0.00     0.001 C 
BRANCH   6  11
ATOM     11  C   UNL     1       1.270  -1.837   3.891  1.00  0.00     0.228 C 
ATOM     12  N   UNL     1       1.962  -0.851   3.255  1.00  0.00    -0.325 N 
ATOM     13  H   UNL     1       2.859  -0.738   3.645  1.00  0.00     0.169 HD
ATOM     14  O   UNL     1       1.865  -2.502   4.744  1.00  0.00    -0.274 OA
BRANCH  12  15
ATOM     15  C   UNL     1       1.752   0.054   2.193  1.00  0.00     0.054 A 
ATOM     16  C   UNL     1       2.603   1.180   2.066  1.00  0.00     0.063 A 
ATOM     17  C   UNL     1       2.252   2.202   1.158  1.00  0.00     0.016 A 
ATOM     18  C   UNL     1       1.133   2.089   0.337  1.00  0.00     0.001 A 
ATOM     19  C   UNL     1       0.712  -0.096   1.265  1.00  0.00     0.027 A 
ATOM     20  C   UNL     1       0.384   0.924   0.368  1.00  0.00     0.002 A 
BRANCH  16  21
ATOM     21  C   UNL     1       3.787   1.499   2.930  1.00  0.00     0.257 C 
ATOM     22  N   UNL     1       4.659   0.577   3.478  1.00  0.00    -0.322 N 
ATOM     23  H   UNL     1       5.255   0.966   4.158  1.00  0.00     0.170 HD
ATOM     24  O   UNL     1       3.965   2.680   3.249  1.00  0.00    -0.269 OA
BRANCH  22  25
ATOM     25  C   UNL     1       4.879  -0.796   3.273  1.00  0.00     0.041 A 
ATOM     26  C   UNL     1       4.080  -5.003   3.379  1.00  0.00     0.044 C 
ATOM     27  C   UNL     1       4.540  -3.576   3.294  1.00  0.00    -0.051 A 
ATOM     28  C   UNL     1       4.367  -2.849   2.109  1.00  0.00     0.005 A 
ATOM     29  C   UNL     1       5.012  -2.917   4.434  1.00  0.00     0.005 A 
ATOM     30  C   UNL     1       4.556  -1.462   2.091  1.00  0.00     0.026 A 
ATOM     31  C   UNL     1       5.206  -1.534   4.418  1.00  0.00     0.026 A 
ENDBRANCH  22  25
ENDBRANCH  16  21
ENDBRANCH  12  15
ENDBRANCH   6  11
ENDBRANCH   3   5
ENDBRANCH   2   3
ENDBRANCH   1   2
BRANCH   1  32
ATOM     32  C   UNL     1      -0.324   2.957   5.829  1.00  0.00     0.275 C 
BRANCH  32  33
ATOM     33  O   UNL     1      -1.307   2.805   4.765  1.00  0.00    -0.458 OA
BRANCH  33  34
ATOM     34  C   UNL     1      -1.276   1.847   3.793  1.00  0.00     0.338 C 
ATOM     35  O   UNL     1      -1.318   2.091   2.599  1.00  0.00    -0.246 OA
BRANCH  34  36
ATOM     36  C   UNL     1      -1.300   0.443   4.282  1.00  0.00     0.060 A 
ATOM     37  C   UNL     1      -2.891  -0.261   4.706  1.00  0.00     0.016 A 
ATOM     38  C   UNL     1       0.158  -0.026   5.194  1.00  0.00     0.016 A 
ATOM     39  C   UNL     1      -3.030  -1.305   6.195  1.00  0.00     0.010 A 
ATOM     40  C   UNL     1       0.059  -1.114   6.617  1.00  0.00     0.010 A 
ATOM     41  C   UNL     1      -1.555  -1.622   7.208  1.00  0.00    -0.014 A 
BRANCH  41  42
ATOM     42  C   UNL     1      -1.558  -1.808   8.649  1.00  0.00     0.031 A 
ATOM     43  C   UNL     1      -0.802  -2.931   9.232  1.00  0.00     0.074 A 
ATOM     44  C   UNL     1      -2.093  -0.811   9.389  1.00  0.00     0.049 A 
ATOM     45  N   UNL     1      -1.169  -3.562  10.293  1.00  0.00    -0.248 NA
ATOM     46  C   UNL     1       0.379  -3.533   8.610  1.00  0.00     0.031 C 
ATOM     47  C   UNL     1      -2.009  -0.605  10.825  1.00  0.00     0.029 A 
ATOM     48  N   UNL     1      -2.967   0.197   8.988  1.00  0.00    -0.354 N 
ATOM     49  C   UNL     1      -0.126  -4.396  10.648  1.00  0.00     0.074 A 
ATOM     50  C   UNL     1       0.665  -4.516   9.461  1.00  0.00     0.031 C 
ATOM     51  C   UNL     1      -3.032   0.192  11.198  1.00  0.00     0.029 A 
ATOM     52  C   UNL     1      -3.855   0.447  10.019  1.00  0.00     0.049 A 
ATOM     53  H   UNL     1      -2.955   0.655   8.117  1.00  0.00     0.167 HD
ATOM     54  C   UNL     1       0.072  -4.693  11.965  1.00  0.00     0.037 A 
ATOM     55  C   UNL     1      -5.186   0.183   9.871  1.00  0.00     0.037 A 
ATOM     56  C   UNL     1      -1.001  -4.079  12.756  1.00  0.00     0.049 A 
ATOM     57  C   UNL     1      -5.562  -0.982  10.770  1.00  0.00     0.074 A 
ATOM     58  C   UNL     1      -1.061  -2.901  13.486  1.00  0.00     0.029 A 
ATOM     59  N   UNL     1      -2.322  -4.458  12.524  1.00  0.00    -0.354 N 
ATOM     60  N   UNL     1      -4.696  -1.836  11.254  1.00  0.00    -0.248 NA
ATOM     61  C   UNL     1      -6.914  -1.237  11.249  1.00  0.00     0.031 C 
ATOM     62  C   UNL     1      -2.429  -2.524  13.596  1.00  0.00     0.029 A 
ATOM     63  C   UNL     1      -3.202  -3.482  12.959  1.00  0.00     0.049 A 
ATOM     64  H   UNL     1      -2.592  -5.308  12.107  1.00  0.00     0.167 HD
ATOM     65  C   UNL     1      -5.317  -2.695  12.118  1.00  0.00     0.074 A 
ATOM     66  C   UNL     1      -6.710  -2.280  12.075  1.00  0.00     0.031 C 
ATOM     67  C   UNL     1      -4.644  -3.664  12.812  1.00  0.00     0.037 A 
BRANCH  54  68
ATOM     68  C   UNL     1       1.379  -5.224  12.554  1.00  0.00     0.058 A 
ATOM     69  C   UNL     1       1.660  -5.063  13.930  1.00  0.00     0.135 A 
ATOM     70  C   UNL     1       2.415  -5.866  11.837  1.00  0.00     0.135 A 
ATOM     71  F   UNL     1       0.757  -4.535  14.768  1.00  0.00    -0.206 F 
ATOM     72  C   UNL     1       2.874  -5.440  14.520  1.00  0.00     0.059 A 
ATOM     73  C   UNL     1       3.653  -6.210  12.391  1.00  0.00     0.059 A 
ATOM     74  F   UNL     1       2.271  -6.261  10.571  1.00  0.00    -0.206 F 
ATOM     75  C   UNL     1       3.876  -5.998  13.738  1.00  0.00     0.060 A 
BRANCH  75  76
ATOM     76  S   UNL     1       5.429  -6.498  14.502  1.00  0.00     0.124 S 
ATOM     77  O   UNL     1       5.924  -5.237  15.045  1.00  0.00    -0.237 OA
ATOM     78  O   UNL     1       4.983  -7.483  15.482  1.00  0.00    -0.237 OA
ATOM     79  O   UNL     1       6.201  -7.037  13.386  1.00  0.00    -0.744 OA
ENDBRANCH  75  76
ENDBRANCH  54  68
BRANCH  55  80
ATOM     80  C   UNL     1      -5.784   0.546   8.538  1.00  0.00     0.058 A 
ATOM     81  C   UNL     1      -5.731   1.902   8.141  1.00  0.00     0.135 A 
ATOM     82  C   UNL     1      -6.125  -0.371   7.534  1.00  0.00     0.135 A 
ATOM     83  F   UNL     1      -5.468   2.851   9.055  1.00  0.00    -0.206 F 
ATOM     84  C   UNL     1      -5.867   2.312   6.811  1.00  0.00     0.059 A 
ATOM     85  C   UNL     1      -6.278   0.018   6.186  1.00  0.00     0.059 A 
ATOM     86  F   UNL     1      -6.189  -1.682   7.812  1.00  0.00    -0.206 F 
ATOM     87  C   UNL     1      -6.103   1.357   5.828  1.00  0.00     0.060 A 
BRANCH  87  88
ATOM     88  S   UNL     1      -6.015   1.873   4.087  1.00  0.00     0.124 S 
ATOM     89  O   UNL     1      -7.234   2.659   3.936  1.00  0.00    -0.237 OA
ATOM     90  O   UNL     1      -4.766   2.627   4.048  1.00  0.00    -0.237 OA
ATOM     91  O   UNL     1      -5.989   0.606   3.359  1.00  0.00    -0.744 OA
ENDBRANCH  87  88
ENDBRANCH  55  80
BRANCH  67  92
ATOM     92  C   UNL     1      -5.291  -4.842  13.509  1.00  0.00     0.058 A 
ATOM     93  C   UNL     1      -6.542  -5.370  13.152  1.00  0.00     0.135 A 
ATOM     94  C   UNL     1      -4.574  -5.589  14.480  1.00  0.00     0.135 A 
ATOM     95  F   UNL     1      -7.267  -4.848  12.152  1.00  0.00    -0.206 F 
ATOM     96  C   UNL     1      -7.086  -6.492  13.775  1.00  0.00     0.059 A 
ATOM     97  C   UNL     1      -5.062  -6.757  15.053  1.00  0.00     0.059 A 
ATOM     98  F   UNL     1      -3.355  -5.220  14.900  1.00  0.00    -0.206 F 
ATOM     99  C   UNL     1      -6.340  -7.178  14.727  1.00  0.00     0.060 A 
BRANCH  99 100
ATOM    100  S   UNL     1      -7.031  -8.638  15.515  1.00  0.00     0.124 S 
ATOM    101  O   UNL     1      -7.781  -8.040  16.615  1.00  0.00    -0.237 OA
ATOM    102  O   UNL     1      -7.836  -9.228  14.449  1.00  0.00    -0.237 OA
ATOM    103  O   UNL     1      -5.850  -9.405  15.896  1.00  0.00    -0.744 OA
ENDBRANCH  99 100
ENDBRANCH  67  92
ENDBRANCH  41  42
ENDBRANCH  34  36
ENDBRANCH  33  34
ENDBRANCH  32  33
ENDBRANCH   1  32
TORSDOF 18
