REMARK SMILES C[C@H]1CCC[C@]1(C(=O)OCCOC(=O)c1ccc(-c2c3nc(c(-c4c(F)cc(S(=O)(=O)[O-])cc4F)c4ccc([nH]4)c(-c4c(F)cc(S(=O)(=O)[O-])cc4F)c4nc(c(-c5c(F)cc(S(=O)(=O)[O-])cc5F)c5ccc2[nH]5)C=C4)C=C3)cc1)c1ccc2c(c1)OCO2
REMARK SMILES IDX 11 1 10 2 9 3 7 4 8 5 6 6 1 7 2 8 3 9 4 10 5 11 81 12 82 13
REMARK SMILES IDX 86 14 83 15 85 16 84 17 87 18 89 19 88 20 12 21 13 22 14 23
REMARK SMILES IDX 15 24 16 25 80 26 17 27 79 28 18 29 19 30 20 31 73 32 21 33
REMARK SMILES IDX 78 34 72 35 74 36 22 37 77 38 71 39 70 40 23 42 57 43 36 44
REMARK SMILES IDX 56 45 37 46 40 47 55 48 75 49 38 50 39 51 54 53 76 54 41 55
REMARK SMILES IDX 24 56 25 57 34 58 26 59 27 60 33 61 35 62 28 63 29 64 30 65
REMARK SMILES IDX 31 66 32 67 58 68 59 69 68 70 60 71 61 72 67 73 69 74 62 75
REMARK SMILES IDX 63 76 64 77 65 78 66 79 42 80 43 81 52 82 44 83 45 84 51 85
REMARK SMILES IDX 53 86 46 87 47 88 48 89 49 90 50 91
REMARK H PARENT 74 41 40 52
REMARK Flexibility Score: inf
ROOT
ATOM      1  C   UNL     1      -0.600   1.094   4.818  1.00  0.00     0.275 C 
ENDROOT
BRANCH   1   2
ATOM      2  C   UNL     1      -1.661   0.700   3.796  1.00  0.00     0.274 C 
BRANCH   2   3
ATOM      3  O   UNL     1      -1.039   0.410   2.526  1.00  0.00    -0.461 OA
BRANCH   3   4
ATOM      4  C   UNL     1      -1.185   1.319   1.520  1.00  0.00     0.316 C 
ATOM      5  O   UNL     1      -1.863   2.333   1.649  1.00  0.00    -0.251 OA
BRANCH   4   6
ATOM      6  C   UNL     1      -0.564   0.824   0.174  1.00  0.00     0.096 C 
ATOM      7  C   UNL     1       1.613  -0.056   1.399  1.00  0.00     0.009 C 
ATOM      8  C   UNL     1       0.531  -0.293   0.351  1.00  0.00     0.008 C 
ATOM      9  C   UNL     1      -0.252  -1.593   0.516  1.00  0.00     0.005 C 
ATOM     10  C   UNL     1      -1.393  -1.433  -0.478  1.00  0.00     0.002 C 
ATOM     11  C   UNL     1      -1.734   0.059  -0.519  1.00  0.00     0.024 C 
BRANCH   6  12
ATOM     12  C   UNL     1      -0.029   1.945  -0.770  1.00  0.00    -0.027 A 
ATOM     13  C   UNL     1      -0.140   3.329  -0.490  1.00  0.00     0.009 A 
ATOM     14  C   UNL     1       0.628   1.596  -1.975  1.00  0.00     0.055 A 
ATOM     15  C   UNL     1       0.450   4.312  -1.303  1.00  0.00     0.051 A 
ATOM     16  C   UNL     1       1.234   2.576  -2.738  1.00  0.00     0.166 A 
ATOM     17  C   UNL     1       1.159   3.900  -2.402  1.00  0.00     0.165 A 
ATOM     18  O   UNL     1       1.971   2.369  -3.863  1.00  0.00    -0.454 OA
ATOM     19  O   UNL     1       1.842   4.697  -3.261  1.00  0.00    -0.454 OA
ATOM     20  C   UNL     1       2.457   3.708  -4.110  1.00  0.00     0.468 C 
ENDBRANCH   6  12
ENDBRANCH   4   6
ENDBRANCH   3   4
ENDBRANCH   2   3
ENDBRANCH   1   2
BRANCH   1  21
ATOM     21  O   UNL     1       0.002   2.323   4.388  1.00  0.00    -0.458 OA
BRANCH  21  22
ATOM     22  C   UNL     1       1.319   2.471   4.653  1.00  0.00     0.338 C 
ATOM     23  O   UNL     1       2.021   1.715   5.311  1.00  0.00    -0.246 OA
BRANCH  22  24
ATOM     24  C   UNL     1       1.806   3.713   4.015  1.00  0.00     0.060 A 
ATOM     25  C   UNL     1       1.284   4.132   2.790  1.00  0.00     0.016 A 
ATOM     26  C   UNL     1       2.838   4.441   4.608  1.00  0.00     0.016 A 
ATOM     27  C   UNL     1       1.821   5.240   2.135  1.00  0.00     0.010 A 
ATOM     28  C   UNL     1       3.324   5.597   3.982  1.00  0.00     0.010 A 
ATOM     29  C   UNL     1       2.840   5.999   2.723  1.00  0.00    -0.014 A 
BRANCH  29  30
ATOM     30  C   UNL     1       3.459   7.152   2.002  1.00  0.00     0.031 A 
ATOM     31  C   UNL     1       4.946   7.158   1.756  1.00  0.00     0.074 A 
ATOM     32  C   UNL     1       2.723   8.185   1.541  1.00  0.00     0.049 A 
ATOM     33  N   UNL     1       5.730   8.151   1.425  1.00  0.00    -0.248 NA
ATOM     34  C   UNL     1       5.645   5.873   1.923  1.00  0.00     0.031 C 
ATOM     35  C   UNL     1       1.265   8.296   1.609  1.00  0.00     0.029 A 
ATOM     36  N   UNL     1       3.110   9.347   0.913  1.00  0.00    -0.354 N 
ATOM     37  C   UNL     1       7.020   7.634   1.428  1.00  0.00     0.074 A 
ATOM     38  C   UNL     1       6.912   6.232   1.771  1.00  0.00     0.031 C 
ATOM     39  C   UNL     1       0.880   9.433   1.009  1.00  0.00     0.029 A 
ATOM     40  C   UNL     1       2.064  10.188   0.611  1.00  0.00     0.049 A 
ATOM     41  H   UNL     1       4.048   9.557   0.701  1.00  0.00     0.167 HD
ATOM     42  C   UNL     1       8.188   8.275   1.184  1.00  0.00     0.037 A 
ATOM     43  C   UNL     1       2.054  11.446   0.124  1.00  0.00     0.037 A 
ATOM     44  C   UNL     1       8.284   9.650   0.769  1.00  0.00     0.049 A 
ATOM     45  C   UNL     1       3.361  12.151  -0.124  1.00  0.00     0.074 A 
ATOM     46  C   UNL     1       9.420  10.403   0.529  1.00  0.00     0.029 A 
ATOM     47  N   UNL     1       7.198  10.470   0.499  1.00  0.00    -0.354 N 
ATOM     48  N   UNL     1       4.583  11.699   0.022  1.00  0.00    -0.248 NA
ATOM     49  C   UNL     1       3.287  13.553  -0.565  1.00  0.00     0.031 C 
ATOM     50  C   UNL     1       9.021  11.685   0.131  1.00  0.00     0.029 A 
ATOM     51  C   UNL     1       7.637  11.718   0.091  1.00  0.00     0.049 A 
ATOM     52  H   UNL     1       6.254  10.204   0.586  1.00  0.00     0.167 HD
ATOM     53  C   UNL     1       5.422  12.757  -0.310  1.00  0.00     0.074 A 
ATOM     54  C   UNL     1       4.571  13.866  -0.685  1.00  0.00     0.031 C 
ATOM     55  C   UNL     1       6.777  12.808  -0.292  1.00  0.00     0.037 A 
BRANCH  42  56
ATOM     56  C   UNL     1       9.461   7.511   1.415  1.00  0.00     0.058 A 
ATOM     57  C   UNL     1       9.914   6.522   0.530  1.00  0.00     0.135 A 
ATOM     58  C   UNL     1      10.249   7.792   2.545  1.00  0.00     0.135 A 
ATOM     59  F   UNL     1       9.189   6.201  -0.553  1.00  0.00    -0.206 F 
ATOM     60  C   UNL     1      11.091   5.818   0.770  1.00  0.00     0.059 A 
ATOM     61  C   UNL     1      11.440   7.117   2.792  1.00  0.00     0.059 A 
ATOM     62  F   UNL     1       9.860   8.729   3.424  1.00  0.00    -0.206 F 
ATOM     63  C   UNL     1      11.844   6.119   1.907  1.00  0.00     0.060 A 
BRANCH  63  64
ATOM     64  S   UNL     1      13.363   5.193   2.216  1.00  0.00     0.124 S 
ATOM     65  O   UNL     1      12.833   3.925   2.710  1.00  0.00    -0.237 OA
ATOM     66  O   UNL     1      13.980   5.149   0.894  1.00  0.00    -0.237 OA
ATOM     67  O   UNL     1      14.063   6.008   3.204  1.00  0.00    -0.744 OA
ENDBRANCH  63  64
ENDBRANCH  42  56
BRANCH  43  68
ATOM     68  C   UNL     1       0.761  12.150  -0.096  1.00  0.00     0.058 A 
ATOM     69  C   UNL     1       0.313  12.454  -1.389  1.00  0.00     0.135 A 
ATOM     70  C   UNL     1      -0.057  12.524   0.983  1.00  0.00     0.135 A 
ATOM     71  F   UNL     1       1.068  12.136  -2.452  1.00  0.00    -0.206 F 
ATOM     72  C   UNL     1      -0.898  13.105  -1.608  1.00  0.00     0.059 A 
ATOM     73  C   UNL     1      -1.284  13.149   0.789  1.00  0.00     0.059 A 
ATOM     74  F   UNL     1       0.323  12.254   2.241  1.00  0.00    -0.206 F 
ATOM     75  C   UNL     1      -1.692  13.444  -0.511  1.00  0.00     0.060 A 
BRANCH  75  76
ATOM     76  S   UNL     1      -3.294  14.228  -0.798  1.00  0.00     0.124 S 
ATOM     77  O   UNL     1      -2.903  15.610  -1.049  1.00  0.00    -0.237 OA
ATOM     78  O   UNL     1      -3.802  13.489  -1.950  1.00  0.00    -0.237 OA
ATOM     79  O   UNL     1      -4.009  13.989   0.453  1.00  0.00    -0.744 OA
ENDBRANCH  75  76
ENDBRANCH  43  68
BRANCH  55  80
ATOM     80  C   UNL     1       7.426  14.093  -0.719  1.00  0.00     0.058 A 
ATOM     81  C   UNL     1       7.473  15.209   0.130  1.00  0.00     0.135 A 
ATOM     82  C   UNL     1       8.058  14.189  -1.969  1.00  0.00     0.135 A 
ATOM     83  F   UNL     1       6.878  15.169   1.333  1.00  0.00    -0.206 F 
ATOM     84  C   UNL     1       8.114  16.384  -0.251  1.00  0.00     0.059 A 
ATOM     85  C   UNL     1       8.720  15.348  -2.363  1.00  0.00     0.059 A 
ATOM     86  F   UNL     1       8.047  13.146  -2.813  1.00  0.00    -0.206 F 
ATOM     87  C   UNL     1       8.735  16.443  -1.500  1.00  0.00     0.060 A 
BRANCH  87  88
ATOM     88  S   UNL     1       9.600  17.957  -1.970  1.00  0.00     0.124 S 
ATOM     89  O   UNL     1       8.488  18.832  -2.326  1.00  0.00    -0.237 OA
ATOM     90  O   UNL     1      10.314  18.306  -0.745  1.00  0.00    -0.237 OA
ATOM     91  O   UNL     1      10.447  17.533  -3.081  1.00  0.00    -0.744 OA
ENDBRANCH  87  88
ENDBRANCH  55  80
ENDBRANCH  29  30
ENDBRANCH  22  24
ENDBRANCH  21  22
ENDBRANCH   1  21
TORSDOF 15
