REMARK SMILES [NH3+]Cc1ccc(C(=O)N2[C@@H](C(=O)OCCOC(=O)c3ccc(-c4c5nc(c(-c6c(F)cc(S(=O)(=O)[O-])cc6F)c6ccc([nH]6)c(-c6c(F)cc(S(=O)(=O)[O-])cc6F)c6nc(c(-c7c(F)cc(S(=O)(=O)[O-])cc7F)c7ccc4[nH]7)C=C6)C=C5)cc3)C[C@H]3CCCC[C@@H]32)o1
REMARK SMILES IDX 14 1 13 2 11 3 12 4 10 5 9 6 91 7 85 8 86 9 90 10 87 11
REMARK SMILES IDX 89 12 88 13 7 14 8 15 6 16 3 17 4 18 92 19 5 20 2 21 1 22
REMARK SMILES IDX 15 26 16 27 17 28 18 29 19 30 20 31 84 32 21 33 83 34 22 35
REMARK SMILES IDX 23 36 24 37 77 38 25 39 82 40 76 41 78 42 26 43 81 44 75 45
REMARK SMILES IDX 74 46 27 48 61 49 40 50 60 51 41 52 44 53 59 54 79 55 42 56
REMARK SMILES IDX 43 57 58 59 80 60 45 61 28 62 29 63 38 64 30 65 31 66 37 67
REMARK SMILES IDX 39 68 32 69 33 70 34 71 35 72 36 73 62 74 63 75 72 76 64 77
REMARK SMILES IDX 65 78 71 79 73 80 66 81 67 82 68 83 69 84 70 85 46 86 47 87
REMARK SMILES IDX 56 88 48 89 49 90 55 91 57 92 50 93 51 94 52 95 53 96 54 97
REMARK H PARENT 1 23 1 24 1 25 78 47 44 58
REMARK Flexibility Score: inf
ROOT
ATOM      1  C   UNL     1       6.307   5.321  -6.616  1.00  0.00     0.274 C 
ENDROOT
BRANCH   1   2
ATOM      2  O   UNL     1       5.016   5.548  -6.011  1.00  0.00    -0.461 OA
BRANCH   2   3
ATOM      3  C   UNL     1       4.066   4.588  -6.228  1.00  0.00     0.329 C 
ATOM      4  O   UNL     1       4.247   3.577  -6.891  1.00  0.00    -0.250 OA
BRANCH   3   5
ATOM      5  C   UNL     1       2.724   4.992  -5.563  1.00  0.00     0.196 C 
ATOM      6  N   UNL     1       1.706   3.922  -5.672  1.00  0.00    -0.319 N 
ATOM      7  C   UNL     1       1.045   4.052  -6.952  1.00  0.00     0.089 C 
ATOM      8  C   UNL     1       2.125   6.144  -6.397  1.00  0.00     0.043 C 
ATOM      9  C   UNL     1       0.819   5.566  -6.954  1.00  0.00     0.014 C 
ATOM     10  C   UNL     1      -0.282   3.346  -7.215  1.00  0.00     0.025 C 
ATOM     11  C   UNL     1       0.362   6.043  -8.319  1.00  0.00     0.006 C 
ATOM     12  C   UNL     1      -0.854   3.807  -8.561  1.00  0.00     0.002 C 
ATOM     13  C   UNL     1      -0.947   5.333  -8.684  1.00  0.00     0.000 C 
BRANCH   6  14
ATOM     14  C   UNL     1       1.455   2.856  -4.824  1.00  0.00     0.290 C 
ATOM     15  O   UNL     1       1.215   1.746  -5.299  1.00  0.00    -0.265 OA
BRANCH  14  16
ATOM     16  C   UNL     1       1.346   3.113  -3.393  1.00  0.00     0.192 A 
ATOM     17  C   UNL     1       0.827   2.482  -1.324  1.00  0.00     0.159 A 
ATOM     18  C   UNL     1       1.074   3.836  -1.270  1.00  0.00     0.052 A 
ATOM     19  O   UNL     1       1.018   2.037  -2.599  1.00  0.00    -0.450 OA
ATOM     20  C   UNL     1       1.380   4.243  -2.594  1.00  0.00     0.057 A 
BRANCH  17  21
ATOM     21  C   UNL     1       0.315   1.513  -0.310  1.00  0.00     0.335 C 
BRANCH  21  22
ATOM     22  N   UNL     1       0.481   0.121  -0.693  1.00  0.00    -0.351 N 
ATOM     23  H   UNL     1       0.111  -0.481   0.042  1.00  0.00     0.344 HD
ATOM     24  H   UNL     1       1.472  -0.078  -0.829  1.00  0.00     0.344 HD
ATOM     25  H   UNL     1      -0.024  -0.055  -1.562  1.00  0.00     0.344 HD
ENDBRANCH  21  22
ENDBRANCH  17  21
ENDBRANCH  14  16
ENDBRANCH   6  14
ENDBRANCH   3   5
ENDBRANCH   2   3
ENDBRANCH   1   2
BRANCH   1  26
ATOM     26  C   UNL     1       7.370   5.002  -5.562  1.00  0.00     0.275 C 
BRANCH  26  27
ATOM     27  O   UNL     1       7.119   3.727  -4.948  1.00  0.00    -0.458 OA
BRANCH  27  28
ATOM     28  C   UNL     1       6.394   3.781  -3.806  1.00  0.00     0.338 C 
ATOM     29  O   UNL     1       6.000   4.778  -3.226  1.00  0.00    -0.246 OA
BRANCH  28  30
ATOM     30  C   UNL     1       5.968   2.425  -3.441  1.00  0.00     0.060 A 
ATOM     31  C   UNL     1       4.694   2.039  -3.842  1.00  0.00     0.016 A 
ATOM     32  C   UNL     1       6.732   1.594  -2.626  1.00  0.00     0.016 A 
ATOM     33  C   UNL     1       4.141   0.854  -3.383  1.00  0.00     0.010 A 
ATOM     34  C   UNL     1       6.191   0.371  -2.201  1.00  0.00     0.010 A 
ATOM     35  C   UNL     1       4.877   0.006  -2.553  1.00  0.00    -0.014 A 
BRANCH  35  36
ATOM     36  C   UNL     1       4.215  -1.205  -2.002  1.00  0.00     0.031 A 
ATOM     37  C   UNL     1       3.949  -1.302  -0.525  1.00  0.00     0.074 A 
ATOM     38  C   UNL     1       3.751  -2.163  -2.830  1.00  0.00     0.049 A 
ATOM     39  N   UNL     1       3.457  -2.300   0.161  1.00  0.00    -0.248 NA
ATOM     40  C   UNL     1       4.257  -0.112   0.286  1.00  0.00     0.031 C 
ATOM     41  C   UNL     1       3.846  -2.137  -4.292  1.00  0.00     0.029 A 
ATOM     42  N   UNL     1       3.082  -3.332  -2.564  1.00  0.00    -0.354 N 
ATOM     43  C   UNL     1       3.432  -1.878   1.485  1.00  0.00     0.074 A 
ATOM     44  C   UNL     1       3.958  -0.530   1.508  1.00  0.00     0.031 C 
ATOM     45  C   UNL     1       3.226  -3.216  -4.793  1.00  0.00     0.029 A 
ATOM     46  C   UNL     1       2.761  -4.052  -3.692  1.00  0.00     0.049 A 
ATOM     47  H   UNL     1       2.853  -3.627  -1.653  1.00  0.00     0.167 HD
ATOM     48  C   UNL     1       3.008  -2.554   2.579  1.00  0.00     0.037 A 
ATOM     49  C   UNL     1       2.190  -5.265  -3.825  1.00  0.00     0.037 A 
ATOM     50  C   UNL     1       2.454  -3.883   2.545  1.00  0.00     0.049 A 
ATOM     51  C   UNL     1       1.812  -6.033  -2.590  1.00  0.00     0.074 A 
ATOM     52  C   UNL     1       2.033  -4.668   3.604  1.00  0.00     0.029 A 
ATOM     53  N   UNL     1       2.224  -4.615   1.390  1.00  0.00    -0.354 N 
ATOM     54  N   UNL     1       1.891  -5.663  -1.334  1.00  0.00    -0.248 NA
ATOM     55  C   UNL     1       1.296  -7.395  -2.785  1.00  0.00     0.031 C 
ATOM     56  C   UNL     1       1.582  -5.890   3.092  1.00  0.00     0.029 A 
ATOM     57  C   UNL     1       1.687  -5.851   1.711  1.00  0.00     0.049 A 
ATOM     58  H   UNL     1       2.414  -4.303   0.476  1.00  0.00     0.167 HD
ATOM     59  C   UNL     1       1.428  -6.742  -0.590  1.00  0.00     0.074 A 
ATOM     60  C   UNL     1       1.055  -7.773  -1.537  1.00  0.00     0.031 C 
ATOM     61  C   UNL     1       1.326  -6.868   0.756  1.00  0.00     0.037 A 
BRANCH  48  62
ATOM     62  C   UNL     1       3.173  -1.885   3.913  1.00  0.00     0.058 A 
ATOM     63  C   UNL     1       2.323  -0.853   4.337  1.00  0.00     0.135 A 
ATOM     64  C   UNL     1       4.187  -2.303   4.790  1.00  0.00     0.135 A 
ATOM     65  F   UNL     1       1.356  -0.396   3.527  1.00  0.00    -0.206 F 
ATOM     66  C   UNL     1       2.484  -0.246   5.580  1.00  0.00     0.059 A 
ATOM     67  C   UNL     1       4.354  -1.724   6.044  1.00  0.00     0.059 A 
ATOM     68  F   UNL     1       5.032  -3.282   4.428  1.00  0.00    -0.206 F 
ATOM     69  C   UNL     1       3.505  -0.687   6.425  1.00  0.00     0.060 A 
BRANCH  69  70
ATOM     70  S   UNL     1       3.707   0.114   8.030  1.00  0.00     0.124 S 
ATOM     71  O   UNL     1       4.300   1.391   7.645  1.00  0.00    -0.237 OA
ATOM     72  O   UNL     1       2.336   0.177   8.525  1.00  0.00    -0.237 OA
ATOM     73  O   UNL     1       4.591  -0.794   8.755  1.00  0.00    -0.744 OA
ENDBRANCH  69  70
ENDBRANCH  48  62
BRANCH  49  74
ATOM     74  C   UNL     1       2.002  -5.853  -5.179  1.00  0.00     0.058 A 
ATOM     75  C   UNL     1       0.724  -6.040  -5.723  1.00  0.00     0.135 A 
ATOM     76  C   UNL     1       3.106  -6.237  -5.958  1.00  0.00     0.135 A 
ATOM     77  F   UNL     1      -0.364  -5.706  -5.010  1.00  0.00    -0.206 F 
ATOM     78  C   UNL     1       0.543  -6.590  -6.989  1.00  0.00     0.059 A 
ATOM     79  C   UNL     1       2.952  -6.765  -7.236  1.00  0.00     0.059 A 
ATOM     80  F   UNL     1       4.352  -6.078  -5.486  1.00  0.00    -0.206 F 
ATOM     81  C   UNL     1       1.665  -6.948  -7.739  1.00  0.00     0.060 A 
BRANCH  81  82
ATOM     82  S   UNL     1       1.433  -7.619  -9.400  1.00  0.00     0.124 S 
ATOM     83  O   UNL     1       1.061  -8.999  -9.109  1.00  0.00    -0.237 OA
ATOM     84  O   UNL     1       0.372  -6.772  -9.935  1.00  0.00    -0.237 OA
ATOM     85  O   UNL     1       2.742  -7.435 -10.020  1.00  0.00    -0.744 OA
ENDBRANCH  81  82
ENDBRANCH  49  74
BRANCH  61  86
ATOM     86  C   UNL     1       0.782  -8.164   1.283  1.00  0.00     0.058 A 
ATOM     87  C   UNL     1       1.567  -9.328   1.312  1.00  0.00     0.135 A 
ATOM     88  C   UNL     1      -0.518  -8.233   1.807  1.00  0.00     0.135 A 
ATOM     89  F   UNL     1       2.814  -9.314   0.817  1.00  0.00    -0.206 F 
ATOM     90  C   UNL     1       1.074 -10.522   1.827  1.00  0.00     0.059 A 
ATOM     91  C   UNL     1      -1.024  -9.412   2.346  1.00  0.00     0.059 A 
ATOM     92  F   UNL     1      -1.304  -7.146   1.810  1.00  0.00    -0.206 F 
ATOM     93  C   UNL     1      -0.224 -10.554   2.342  1.00  0.00     0.060 A 
BRANCH  93  94
ATOM     94  S   UNL     1      -0.842 -12.100   3.042  1.00  0.00     0.124 S 
ATOM     95  O   UNL     1      -1.161 -12.861   1.839  1.00  0.00    -0.237 OA
ATOM     96  O   UNL     1       0.303 -12.579   3.810  1.00  0.00    -0.237 OA
ATOM     97  O   UNL     1      -1.989 -11.675   3.840  1.00  0.00    -0.744 OA
ENDBRANCH  93  94
ENDBRANCH  61  86
ENDBRANCH  35  36
ENDBRANCH  28  30
ENDBRANCH  27  28
ENDBRANCH  26  27
ENDBRANCH   1  26
TORSDOF 18
