REMARK SMILES CC1(C)Cc2c(c(N3CCOCC3)nc3sc(C(=O)OCCOC(=O)c4ccc(-c5c6nc(c(-c7c(F)cc(S(=O)(=O)[O-])cc7F)c7ccc([nH]7)c(-c7c(F)cc(S(=O)(=O)[O-])cc7F)c7nc(c(-c8c(F)cc(S(=O)(=O)[O-])cc8F)c8ccc5[nH]8)C=C7)C=C6)cc4)c(N)c23)CS1
REMARK SMILES IDX 22 1 21 2 20 3 18 4 19 5 17 6 1 7 2 8 3 9 4 10 96 11 5 12
REMARK SMILES IDX 95 13 6 14 94 15 7 16 15 17 92 18 14 19 16 20 8 21 9 22
REMARK SMILES IDX 13 23 10 24 12 25 11 26 93 27 23 30 24 31 25 32 26 33 27 34
REMARK SMILES IDX 91 35 28 36 90 37 29 38 30 39 31 40 84 41 32 42 89 43 83 44
REMARK SMILES IDX 85 45 33 46 88 47 82 48 81 49 34 51 68 52 47 53 67 54 48 55
REMARK SMILES IDX 51 56 66 57 86 58 49 59 50 60 65 62 87 63 52 64 35 65 36 66
REMARK SMILES IDX 45 67 37 68 38 69 44 70 46 71 39 72 40 73 41 74 42 75 43 76
REMARK SMILES IDX 69 77 70 78 79 79 71 80 72 81 78 82 80 83 73 84 74 85 75 86
REMARK SMILES IDX 76 87 77 88 53 89 54 90 63 91 55 92 56 93 62 94 64 95 57 96
REMARK SMILES IDX 58 97 59 98 60 99 61 100
REMARK H PARENT 93 28 93 29 85 50 51 61
REMARK Flexibility Score: inf
ROOT
ATOM      1  C   UNL     1      -4.604  -5.313  -7.178  1.00  0.00     0.275 C 
ENDROOT
BRANCH   1   2
ATOM      2  C   UNL     1      -5.666  -4.375  -6.614  1.00  0.00     0.275 C 
BRANCH   2   3
ATOM      3  O   UNL     1      -5.105  -3.109  -6.221  1.00  0.00    -0.458 OA
BRANCH   3   4
ATOM      4  C   UNL     1      -4.637  -3.018  -4.936  1.00  0.00     0.350 C 
ATOM      5  O   UNL     1      -4.848  -3.874  -4.077  1.00  0.00    -0.245 OA
BRANCH   4   6
ATOM      6  C   UNL     1      -3.801  -1.844  -4.739  1.00  0.00     0.138 A 
ATOM      7  C   UNL     1       0.970  -0.239   0.169  1.00  0.00     0.023 C 
ATOM      8  C   UNL     1       0.608   0.419  -1.172  1.00  0.00     0.015 C 
ATOM      9  C   UNL     1       1.830   0.338  -2.103  1.00  0.00     0.023 C 
ATOM     10  C   UNL     1      -0.636  -0.261  -1.781  1.00  0.00     0.054 C 
ATOM     11  S   UNL     1       0.166   2.147  -0.797  1.00  0.00    -0.150 SA
ATOM     12  C   UNL     1      -1.281   0.380  -2.998  1.00  0.00    -0.027 A 
ATOM     13  C   UNL     1      -0.213   2.673  -2.473  1.00  0.00     0.109 C 
ATOM     14  C   UNL     1      -1.013   1.731  -3.348  1.00  0.00     0.009 A 
ATOM     15  C   UNL     1      -2.240  -0.316  -3.804  1.00  0.00     0.039 A 
ATOM     16  C   UNL     1      -1.551   2.265  -4.538  1.00  0.00     0.134 A 
ATOM     17  C   UNL     1      -2.707   0.351  -4.931  1.00  0.00     0.128 A 
ATOM     18  C   UNL     1      -2.909  -1.600  -3.704  1.00  0.00     0.067 A 
ATOM     19  N   UNL     1      -2.390   1.592  -5.332  1.00  0.00    -0.220 NA
ATOM     20  S   UNL     1      -3.819  -0.547  -5.848  1.00  0.00    -0.106 S 
BRANCH  16  21
ATOM     21  N   UNL     1      -1.302   3.577  -4.872  1.00  0.00    -0.352 N 
ATOM     22  C   UNL     1       0.003   4.021  -5.359  1.00  0.00     0.146 C 
ATOM     23  C   UNL     1      -2.408   4.430  -5.293  1.00  0.00     0.146 C 
ATOM     24  C   UNL     1       0.232   5.443  -4.811  1.00  0.00     0.181 C 
ATOM     25  C   UNL     1      -2.116   5.835  -4.736  1.00  0.00     0.181 C 
ATOM     26  O   UNL     1      -0.839   6.337  -5.184  1.00  0.00    -0.378 OA
ENDBRANCH  16  21
BRANCH  18  27
ATOM     27  N   UNL     1      -2.728  -2.487  -2.697  1.00  0.00    -0.397 N 
ATOM     28  H   UNL     1      -3.219  -3.340  -2.698  1.00  0.00     0.156 HD
ATOM     29  H   UNL     1      -2.105  -2.278  -1.963  1.00  0.00     0.156 HD
ENDBRANCH  18  27
ENDBRANCH   4   6
ENDBRANCH   3   4
ENDBRANCH   2   3
ENDBRANCH   1   2
BRANCH   1  30
ATOM     30  O   UNL     1      -3.715  -5.750  -6.153  1.00  0.00    -0.458 OA
BRANCH  30  31
ATOM     31  C   UNL     1      -2.606  -4.992  -6.001  1.00  0.00     0.338 C 
ATOM     32  O   UNL     1      -2.378  -3.913  -6.521  1.00  0.00    -0.246 OA
BRANCH  31  33
ATOM     33  C   UNL     1      -1.623  -5.725  -5.202  1.00  0.00     0.060 A 
ATOM     34  C   UNL     1      -0.475  -5.033  -4.797  1.00  0.00     0.016 A 
ATOM     35  C   UNL     1      -1.721  -7.120  -5.116  1.00  0.00     0.016 A 
ATOM     36  C   UNL     1       0.655  -5.758  -4.486  1.00  0.00     0.010 A 
ATOM     37  C   UNL     1      -0.594  -7.840  -4.815  1.00  0.00     0.010 A 
ATOM     38  C   UNL     1       0.597  -7.149  -4.593  1.00  0.00    -0.014 A 
BRANCH  38  39
ATOM     39  C   UNL     1       1.831  -7.901  -4.534  1.00  0.00     0.031 A 
ATOM     40  C   UNL     1       2.353  -8.148  -3.170  1.00  0.00     0.074 A 
ATOM     41  C   UNL     1       2.319  -8.463  -5.657  1.00  0.00     0.049 A 
ATOM     42  N   UNL     1       3.506  -7.835  -2.680  1.00  0.00    -0.248 NA
ATOM     43  C   UNL     1       1.414  -8.712  -2.184  1.00  0.00     0.031 C 
ATOM     44  C   UNL     1       1.708  -8.504  -6.991  1.00  0.00     0.029 A 
ATOM     45  N   UNL     1       3.424  -9.234  -5.808  1.00  0.00    -0.354 N 
ATOM     46  C   UNL     1       3.509  -8.327  -1.379  1.00  0.00     0.074 A 
ATOM     47  C   UNL     1       2.154  -8.708  -1.077  1.00  0.00     0.031 C 
ATOM     48  C   UNL     1       2.335  -9.440  -7.738  1.00  0.00     0.029 A 
ATOM     49  C   UNL     1       3.448  -9.979  -6.978  1.00  0.00     0.049 A 
ATOM     50  H   UNL     1       4.150  -9.262  -5.143  1.00  0.00     0.167 HD
ATOM     51  C   UNL     1       4.657  -8.578  -0.693  1.00  0.00     0.037 A 
ATOM     52  C   UNL     1       4.267 -11.031  -7.229  1.00  0.00     0.037 A 
ATOM     53  C   UNL     1       5.792  -7.925  -1.284  1.00  0.00     0.049 A 
ATOM     54  C   UNL     1       5.407 -10.928  -6.273  1.00  0.00     0.074 A 
ATOM     55  C   UNL     1       6.131  -6.601  -1.488  1.00  0.00     0.029 A 
ATOM     56  N   UNL     1       6.597  -8.651  -2.130  1.00  0.00    -0.354 N 
ATOM     57  N   UNL     1       6.292  -9.966  -6.302  1.00  0.00    -0.248 NA
ATOM     58  C   UNL     1       5.289 -11.615  -4.993  1.00  0.00     0.031 C 
ATOM     59  C   UNL     1       6.761  -6.570  -2.767  1.00  0.00     0.029 A 
ATOM     60  C   UNL     1       6.816  -7.879  -3.248  1.00  0.00     0.049 A 
ATOM     61  H   UNL     1       6.950  -9.555  -1.966  1.00  0.00     0.167 HD
ATOM     62  C   UNL     1       6.544  -9.659  -4.970  1.00  0.00     0.074 A 
ATOM     63  C   UNL     1       5.959 -10.762  -4.212  1.00  0.00     0.031 C 
ATOM     64  C   UNL     1       6.947  -8.408  -4.590  1.00  0.00     0.037 A 
BRANCH  51  65
ATOM     65  C   UNL     1       4.758  -9.643   0.362  1.00  0.00     0.058 A 
ATOM     66  C   UNL     1       5.797  -9.622   1.308  1.00  0.00     0.135 A 
ATOM     67  C   UNL     1       3.971 -10.818   0.335  1.00  0.00     0.135 A 
ATOM     68  F   UNL     1       6.623  -8.568   1.390  1.00  0.00    -0.206 F 
ATOM     69  C   UNL     1       6.046 -10.702   2.159  1.00  0.00     0.059 A 
ATOM     70  C   UNL     1       4.162 -11.878   1.211  1.00  0.00     0.059 A 
ATOM     71  F   UNL     1       3.037 -11.020  -0.605  1.00  0.00    -0.206 F 
ATOM     72  C   UNL     1       5.225 -11.827   2.097  1.00  0.00     0.060 A 
BRANCH  72  73
ATOM     73  S   UNL     1       5.596 -13.257   3.129  1.00  0.00     0.124 S 
ATOM     74  O   UNL     1       6.835 -13.737   2.526  1.00  0.00    -0.237 OA
ATOM     75  O   UNL     1       5.720 -12.653   4.452  1.00  0.00    -0.237 OA
ATOM     76  O   UNL     1       4.431 -14.117   2.946  1.00  0.00    -0.744 OA
ENDBRANCH  72  73
ENDBRANCH  51  65
BRANCH  52  77
ATOM     77  C   UNL     1       3.916 -12.279  -7.962  1.00  0.00     0.058 A 
ATOM     78  C   UNL     1       4.901 -13.203  -8.347  1.00  0.00     0.135 A 
ATOM     79  C   UNL     1       2.579 -12.717  -8.082  1.00  0.00     0.135 A 
ATOM     80  F   UNL     1       6.201 -12.887  -8.240  1.00  0.00    -0.206 F 
ATOM     81  C   UNL     1       4.583 -14.495  -8.787  1.00  0.00     0.059 A 
ATOM     82  C   UNL     1       2.237 -13.990  -8.533  1.00  0.00     0.059 A 
ATOM     83  F   UNL     1       1.554 -11.955  -7.675  1.00  0.00    -0.206 F 
ATOM     84  C   UNL     1       3.246 -14.885  -8.859  1.00  0.00     0.060 A 
BRANCH  84  85
ATOM     85  S   UNL     1       2.832 -16.599  -9.257  1.00  0.00     0.124 S 
ATOM     86  O   UNL     1       3.267 -16.702 -10.645  1.00  0.00    -0.237 OA
ATOM     87  O   UNL     1       3.626 -17.338  -8.281  1.00  0.00    -0.237 OA
ATOM     88  O   UNL     1       1.387 -16.657  -9.050  1.00  0.00    -0.744 OA
ENDBRANCH  84  85
ENDBRANCH  52  77
BRANCH  64  89
ATOM     89  C   UNL     1       7.307  -7.428  -5.684  1.00  0.00     0.058 A 
ATOM     90  C   UNL     1       6.386  -6.954  -6.638  1.00  0.00     0.135 A 
ATOM     91  C   UNL     1       8.581  -6.844  -5.696  1.00  0.00     0.135 A 
ATOM     92  F   UNL     1       5.111  -7.356  -6.617  1.00  0.00    -0.206 F 
ATOM     93  C   UNL     1       6.730  -6.003  -7.599  1.00  0.00     0.059 A 
ATOM     94  C   UNL     1       8.938  -5.865  -6.624  1.00  0.00     0.059 A 
ATOM     95  F   UNL     1       9.486  -7.188  -4.764  1.00  0.00    -0.206 F 
ATOM     96  C   UNL     1       8.014  -5.466  -7.588  1.00  0.00     0.060 A 
BRANCH  96  97
ATOM     97  S   UNL     1       8.440  -4.198  -8.801  1.00  0.00     0.124 S 
ATOM     98  O   UNL     1       8.540  -4.973 -10.033  1.00  0.00    -0.237 OA
ATOM     99  O   UNL     1       7.304  -3.283  -8.718  1.00  0.00    -0.237 OA
ATOM    100  O   UNL     1       9.700  -3.657  -8.299  1.00  0.00    -0.744 OA
ENDBRANCH  96  97
ENDBRANCH  64  89
ENDBRANCH  38  39
ENDBRANCH  31  33
ENDBRANCH  30  31
ENDBRANCH   1  30
TORSDOF 16
