REMARK SMILES CC(C)C[C@H](NC(=O)[C@H]1CCCCC[C@H]1[NH3+])C(=O)OCCOC(=O)c1ccc(-c2c3nc(c(-c4c(F)cc(S(=O)(=O)[O-])cc4F)c4ccc([nH]4)c(-c4c(F)cc(S(=O)(=O)[O-])cc4F)c4nc(c(-c5c(F)cc(S(=O)(=O)[O-])cc5F)c5ccc2[nH]5)C=C4)C=C3)cc1
REMARK SMILES IDX 19 1 17 2 18 3 5 4 4 5 2 6 1 7 3 8 6 9 7 10 8 12 9 13 10 14
REMARK SMILES IDX 11 15 15 17 14 18 13 19 12 20 16 22 20 26 21 27 22 28 23 29
REMARK SMILES IDX 24 30 25 31 26 32 90 33 27 34 89 35 28 36 29 37 30 38 83 39
REMARK SMILES IDX 31 40 88 41 82 42 84 43 32 44 87 45 81 46 80 47 33 49 67 50
REMARK SMILES IDX 46 51 66 52 47 53 50 54 65 55 85 56 48 57 49 58 64 60 86 61
REMARK SMILES IDX 51 62 34 63 35 64 44 65 36 66 37 67 43 68 45 69 38 70 39 71
REMARK SMILES IDX 40 72 41 73 42 74 68 75 69 76 78 77 70 78 71 79 77 80 79 81
REMARK SMILES IDX 72 82 73 83 74 84 75 85 76 86 52 87 53 88 62 89 54 90 55 91
REMARK SMILES IDX 61 92 63 93 56 94 57 95 58 96 59 97 60 98
REMARK H PARENT 6 11 16 23 16 24 16 25 84 48 50 59
REMARK Flexibility Score: 90.00
ROOT
ATOM      1  O   UNL     1      -5.040   0.432   2.533  1.00  0.00    -0.461 OA
ENDROOT
BRANCH   1   2
ATOM      2  C   UNL     1      -5.483   1.068   3.800  1.00  0.00     0.328 C 
ATOM      3  O   UNL     1      -4.863   1.930   4.429  1.00  0.00    -0.250 OA
BRANCH   2   4
ATOM      4  C   UNL     1      -6.969   0.859   4.203  1.00  0.00     0.192 C 
BRANCH   4   5
ATOM      5  C   UNL     1      -7.296   1.470   5.603  1.00  0.00     0.040 C 
BRANCH   5   6
ATOM      6  C   UNL     1      -7.585   0.601   6.835  1.00  0.00    -0.015 C 
ATOM      7  C   UNL     1      -8.495  -0.597   6.602  1.00  0.00     0.007 C 
ATOM      8  C   UNL     1      -6.308   0.187   7.558  1.00  0.00     0.007 C 
ENDBRANCH   5   6
ENDBRANCH   4   5
BRANCH   4   9
ATOM      9  N   UNL     1      -7.728  -0.315   3.865  1.00  0.00    -0.342 N 
ATOM     10  C   UNL     1      -7.296  -1.464   3.297  1.00  0.00     0.229 C 
ATOM     11  H   UNL     1      -8.689  -0.277   4.074  1.00  0.00     0.164 HD
ATOM     12  O   UNL     1      -7.987  -2.476   3.390  1.00  0.00    -0.275 OA
BRANCH  10  13
ATOM     13  C   UNL     1      -6.070  -1.388   2.424  1.00  0.00     0.136 C 
BRANCH  13  14
ATOM     14  C   UNL     1      -6.582  -0.142   1.254  1.00  0.00     0.020 C 
BRANCH  14  15
ATOM     15  C   UNL     1      -6.092   1.626   1.353  1.00  0.00     0.001 CG0
ATOM     16  G   UNL     1      -4.380   2.316   1.960  1.00  0.00     0.000 G0
ENDBRANCH  14  15
ENDBRANCH  13  14
BRANCH  13  17
ATOM     17  C   UNL     1      -4.502  -1.495   3.300  1.00  0.00     0.193 C 
BRANCH  17  18
ATOM     18  C   UNL     1      -3.297  -0.218   3.665  1.00  0.00     0.066 C 
BRANCH  18  19
ATOM     19  C   UNL     1      -3.079   1.384   2.897  1.00  0.00     0.006 C 
BRANCH  19  20
ATOM     20  C   UNL     1      -4.380   2.316   1.960  1.00  0.00     0.000 CG0
ATOM     21  G   UNL     1      -6.092   1.626   1.353  1.00  0.00     0.000 G0
ENDBRANCH  19  20
ENDBRANCH  18  19
ENDBRANCH  17  18
BRANCH  17  22
ATOM     22  N   UNL     1      -4.665  -2.287   4.537  1.00  0.00    -0.354 N 
ATOM     23  H   UNL     1      -5.160  -1.731   5.235  1.00  0.00     0.344 HD
ATOM     24  H   UNL     1      -3.747  -2.547   4.898  1.00  0.00     0.344 HD
ATOM     25  H   UNL     1      -5.201  -3.131   4.333  1.00  0.00     0.344 HD
ENDBRANCH  17  22
ENDBRANCH  13  17
ENDBRANCH  10  13
ENDBRANCH   4   9
ENDBRANCH   2   4
ENDBRANCH   1   2
BRANCH   1  26
ATOM     26  C   UNL     1      -4.096   0.176   0.963  1.00  0.00     0.274 C 
BRANCH  26  27
ATOM     27  C   UNL     1      -4.378   1.051  -0.548  1.00  0.00     0.275 C 
BRANCH  27  28
ATOM     28  O   UNL     1      -4.613   2.550  -0.577  1.00  0.00    -0.458 OA
BRANCH  28  29
ATOM     29  C   UNL     1      -5.625   3.174  -1.280  1.00  0.00     0.338 C 
ATOM     30  O   UNL     1      -6.140   2.684  -2.279  1.00  0.00    -0.246 OA
BRANCH  29  31
ATOM     31  C   UNL     1      -6.214   4.456  -0.622  1.00  0.00     0.060 A 
ATOM     32  C   UNL     1      -6.387   4.624   0.761  1.00  0.00     0.016 A 
ATOM     33  C   UNL     1      -6.810   5.457  -1.394  1.00  0.00     0.016 A 
ATOM     34  C   UNL     1      -7.112   5.673   1.367  1.00  0.00     0.010 A 
ATOM     35  C   UNL     1      -7.478   6.572  -0.794  1.00  0.00     0.010 A 
ATOM     36  C   UNL     1      -7.639   6.701   0.600  1.00  0.00    -0.014 A 
BRANCH  36  37
ATOM     37  C   UNL     1      -8.312   7.888   1.235  1.00  0.00     0.031 A 
ATOM     38  C   UNL     1      -9.754   8.219   0.929  1.00  0.00     0.074 A 
ATOM     39  C   UNL     1      -7.645   8.715   2.074  1.00  0.00     0.049 A 
ATOM     40  N   UNL     1     -10.414   9.334   1.132  1.00  0.00    -0.248 NA
ATOM     41  C   UNL     1     -10.560   7.148   0.327  1.00  0.00     0.031 C 
ATOM     42  C   UNL     1      -6.289   8.505   2.584  1.00  0.00     0.029 A 
ATOM     43  N   UNL     1      -8.010   9.931   2.619  1.00  0.00    -0.354 N 
ATOM     44  C   UNL     1     -11.695   9.122   0.630  1.00  0.00     0.074 A 
ATOM     45  C   UNL     1     -11.723   7.760   0.133  1.00  0.00     0.031 C 
ATOM     46  C   UNL     1      -5.922   9.566   3.321  1.00  0.00     0.029 A 
ATOM     47  C   UNL     1      -6.982  10.569   3.282  1.00  0.00     0.049 A 
ATOM     48  H   UNL     1      -8.916  10.307   2.541  1.00  0.00     0.167 HD
ATOM     49  C   UNL     1     -12.743   9.983   0.575  1.00  0.00     0.037 A 
ATOM     50  C   UNL     1      -6.865  11.833   3.746  1.00  0.00     0.037 A 
ATOM     51  C   UNL     1     -12.735  11.330   1.095  1.00  0.00     0.049 A 
ATOM     52  C   UNL     1      -8.001  12.810   3.580  1.00  0.00     0.074 A 
ATOM     53  C   UNL     1     -13.760  12.264   1.079  1.00  0.00     0.029 A 
ATOM     54  N   UNL     1     -11.662  11.937   1.728  1.00  0.00    -0.354 N 
ATOM     55  N   UNL     1      -9.182  12.620   3.046  1.00  0.00    -0.248 NA
ATOM     56  C   UNL     1      -7.781  14.182   4.069  1.00  0.00     0.031 C 
ATOM     57  C   UNL     1     -13.291  13.449   1.654  1.00  0.00     0.029 A 
ATOM     58  C   UNL     1     -11.992  13.238   2.081  1.00  0.00     0.049 A 
ATOM     59  H   UNL     1     -10.793  11.508   1.901  1.00  0.00     0.167 HD
ATOM     60  C   UNL     1      -9.854  13.835   3.162  1.00  0.00     0.074 A 
ATOM     61  C   UNL     1      -8.953  14.752   3.824  1.00  0.00     0.031 C 
ATOM     62  C   UNL     1     -11.107  14.155   2.755  1.00  0.00     0.037 A 
BRANCH  49  63
ATOM     63  C   UNL     1     -13.997   9.525  -0.123  1.00  0.00     0.058 A 
ATOM     64  C   UNL     1     -14.887   8.612   0.463  1.00  0.00     0.135 A 
ATOM     65  C   UNL     1     -14.351  10.078  -1.366  1.00  0.00     0.135 A 
ATOM     66  F   UNL     1     -14.595   8.047   1.644  1.00  0.00    -0.206 F 
ATOM     67  C   UNL     1     -16.075   8.250  -0.168  1.00  0.00     0.059 A 
ATOM     68  C   UNL     1     -15.545   9.749  -2.002  1.00  0.00     0.059 A 
ATOM     69  F   UNL     1     -13.539  10.962  -1.968  1.00  0.00    -0.206 F 
ATOM     70  C   UNL     1     -16.395   8.826  -1.400  1.00  0.00     0.060 A 
BRANCH  70  71
ATOM     71  S   UNL     1     -17.951   8.357  -2.188  1.00  0.00     0.124 S 
ATOM     72  O   UNL     1     -17.649   6.995  -2.634  1.00  0.00    -0.237 OA
ATOM     73  O   UNL     1     -18.904   8.475  -1.107  1.00  0.00    -0.237 OA
ATOM     74  O   UNL     1     -18.093   9.342  -3.267  1.00  0.00    -0.744 OA
ENDBRANCH  70  71
ENDBRANCH  49  63
BRANCH  50  75
ATOM     75  C   UNL     1      -5.584  12.289   4.361  1.00  0.00     0.058 A 
ATOM     76  C   UNL     1      -5.507  12.615   5.723  1.00  0.00     0.135 A 
ATOM     77  C   UNL     1      -4.419  12.438   3.589  1.00  0.00     0.135 A 
ATOM     78  F   UNL     1      -6.598  12.514   6.498  1.00  0.00    -0.206 F 
ATOM     79  C   UNL     1      -4.329  13.085   6.296  1.00  0.00     0.059 A 
ATOM     80  C   UNL     1      -3.222  12.877   4.146  1.00  0.00     0.059 A 
ATOM     81  F   UNL     1      -4.436  12.141   2.281  1.00  0.00    -0.206 F 
ATOM     82  C   UNL     1      -3.190  13.209   5.500  1.00  0.00     0.060 A 
BRANCH  82  83
ATOM     83  S   UNL     1      -1.653  13.774   6.263  1.00  0.00     0.124 S 
ATOM     84  O   UNL     1      -1.916  15.198   6.435  1.00  0.00    -0.237 OA
ATOM     85  O   UNL     1      -1.607  12.979   7.486  1.00  0.00    -0.237 OA
ATOM     86  O   UNL     1      -0.640  13.434   5.267  1.00  0.00    -0.744 OA
ENDBRANCH  82  83
ENDBRANCH  50  75
BRANCH  62  87
ATOM     87  C   UNL     1     -11.613  15.542   3.055  1.00  0.00     0.058 A 
ATOM     88  C   UNL     1     -11.144  16.671   2.364  1.00  0.00     0.135 A 
ATOM     89  C   UNL     1     -12.614  15.740   4.021  1.00  0.00     0.135 A 
ATOM     90  F   UNL     1     -10.183  16.543   1.436  1.00  0.00    -0.206 F 
ATOM     91  C   UNL     1     -11.634  17.947   2.634  1.00  0.00     0.059 A 
ATOM     92  C   UNL     1     -13.137  17.003   4.289  1.00  0.00     0.059 A 
ATOM     93  F   UNL     1     -13.106  14.696   4.707  1.00  0.00    -0.206 F 
ATOM     94  C   UNL     1     -12.631  18.103   3.598  1.00  0.00     0.060 A 
BRANCH  94  95
ATOM     95  S   UNL     1     -13.280  19.759   3.918  1.00  0.00     0.124 S 
ATOM     96  O   UNL     1     -12.183  20.365   4.665  1.00  0.00    -0.237 OA
ATOM     97  O   UNL     1     -13.492  20.278   2.571  1.00  0.00    -0.237 OA
ATOM     98  O   UNL     1     -14.496  19.506   4.685  1.00  0.00    -0.744 OA
ENDBRANCH  94  95
ENDBRANCH  62  87
ENDBRANCH  36  37
ENDBRANCH  29  31
ENDBRANCH  28  29
ENDBRANCH  27  28
ENDBRANCH  26  27
ENDBRANCH   1  26
TORSDOF 19
