REMARK SMILES CC(C)[C@@H](CO)Nc1ccc(C(=O)OCCOC(=O)c2ccc(-c3c4nc(c(-c5c(F)cc(S(=O)(=O)[O-])cc5F)c5ccc([nH]5)c(-c5c(F)cc(S(=O)(=O)[O-])cc5F)c5nc(c(-c6c(F)cc(S(=O)(=O)[O-])cc6F)c6ccc3[nH]6)C=C5)C=C4)cc2)nn1
REMARK SMILES IDX 15 1 14 2 12 3 13 4 11 5 8 6 9 7 87 8 10 9 86 10 7 11 4 13
REMARK SMILES IDX 2 14 1 15 3 16 5 17 6 18 16 20 17 21 18 22 19 23 20 24 21 25
REMARK SMILES IDX 85 26 22 27 84 28 23 29 24 30 25 31 78 32 26 33 83 34 77 35
REMARK SMILES IDX 79 36 27 37 82 38 76 39 75 40 28 42 62 43 41 44 61 45 42 46
REMARK SMILES IDX 45 47 60 48 80 49 43 50 44 51 59 53 81 54 46 55 29 56 30 57
REMARK SMILES IDX 39 58 31 59 32 60 38 61 40 62 33 63 34 64 35 65 36 66 37 67
REMARK SMILES IDX 63 68 64 69 73 70 65 71 66 72 72 73 74 74 67 75 68 76 69 77
REMARK SMILES IDX 70 78 71 79 47 80 48 81 57 82 49 83 50 84 56 85 58 86 51 87
REMARK SMILES IDX 52 88 53 89 54 90 55 91
REMARK H PARENT 7 12 6 19 79 41 45 52
REMARK Flexibility Score: inf
ROOT
ATOM      1  C   UNL     1      -6.411  -1.501  -7.147  1.00  0.00     0.275 C 
ENDROOT
BRANCH   1   2
ATOM      2  O   UNL     1      -5.667  -1.176  -5.956  1.00  0.00    -0.457 OA
BRANCH   2   3
ATOM      3  C   UNL     1      -4.320  -1.076  -6.121  1.00  0.00     0.358 C 
ATOM      4  O   UNL     1      -3.712  -1.363  -7.142  1.00  0.00    -0.244 OA
BRANCH   3   5
ATOM      5  C   UNL     1      -3.677  -0.479  -4.920  1.00  0.00     0.171 A 
ATOM      6  C   UNL     1      -2.361   0.840  -2.914  1.00  0.00     0.148 A 
ATOM      7  C   UNL     1      -3.533   0.156  -2.624  1.00  0.00     0.051 A 
ATOM      8  N   UNL     1      -1.867   0.831  -4.165  1.00  0.00    -0.132 NA
ATOM      9  C   UNL     1      -4.226  -0.494  -3.650  1.00  0.00     0.042 A 
ATOM     10  N   UNL     1      -2.495   0.126  -5.160  1.00  0.00    -0.141 NA
BRANCH   6  11
ATOM     11  N   UNL     1      -1.644   1.534  -1.953  1.00  0.00    -0.363 N 
ATOM     12  H   UNL     1      -1.541   2.512  -2.006  1.00  0.00     0.162 HD
BRANCH  11  13
ATOM     13  C   UNL     1      -1.044   0.770  -0.855  1.00  0.00     0.108 C 
BRANCH  13  14
ATOM     14  C   UNL     1       0.511   0.793  -0.988  1.00  0.00     0.007 C 
ATOM     15  C   UNL     1       1.188   0.005   0.138  1.00  0.00     0.009 C 
ATOM     16  C   UNL     1       0.988   0.223  -2.334  1.00  0.00     0.009 C 
ENDBRANCH  13  14
BRANCH  13  17
ATOM     17  C   UNL     1      -1.565   1.343   0.490  1.00  0.00     0.181 C 
BRANCH  17  18
ATOM     18  O   UNL     1      -1.164   2.684   0.758  1.00  0.00    -0.394 OA
ATOM     19  H   UNL     1      -0.197   2.724   0.830  1.00  0.00     0.210 HD
ENDBRANCH  17  18
ENDBRANCH  13  17
ENDBRANCH  11  13
ENDBRANCH   6  11
ENDBRANCH   3   5
ENDBRANCH   2   3
ENDBRANCH   1   2
BRANCH   1  20
ATOM     20  C   UNL     1      -7.061  -0.259  -7.771  1.00  0.00     0.275 C 
BRANCH  20  21
ATOM     21  O   UNL     1      -6.098   0.641  -8.352  1.00  0.00    -0.458 OA
BRANCH  21  22
ATOM     22  C   UNL     1      -5.626   1.594  -7.511  1.00  0.00     0.338 C 
ATOM     23  O   UNL     1      -5.931   1.744  -6.339  1.00  0.00    -0.246 OA
BRANCH  22  24
ATOM     24  C   UNL     1      -4.578   2.390  -8.176  1.00  0.00     0.060 A 
ATOM     25  C   UNL     1      -3.312   2.410  -7.591  1.00  0.00     0.016 A 
ATOM     26  C   UNL     1      -4.846   3.182  -9.294  1.00  0.00     0.016 A 
ATOM     27  C   UNL     1      -2.307   3.223  -8.105  1.00  0.00     0.010 A 
ATOM     28  C   UNL     1      -3.833   4.001  -9.814  1.00  0.00     0.010 A 
ATOM     29  C   UNL     1      -2.561   4.037  -9.214  1.00  0.00    -0.014 A 
BRANCH  29  30
ATOM     30  C   UNL     1      -1.510   4.971  -9.688  1.00  0.00     0.031 A 
ATOM     31  C   UNL     1      -1.648   6.444  -9.424  1.00  0.00     0.074 A 
ATOM     32  C   UNL     1      -0.410   4.496 -10.303  1.00  0.00     0.049 A 
ATOM     33  N   UNL     1      -0.887   7.432  -9.820  1.00  0.00    -0.248 NA
ATOM     34  C   UNL     1      -2.795   6.859  -8.601  1.00  0.00     0.031 C 
ATOM     35  C   UNL     1      -0.125   3.081 -10.548  1.00  0.00     0.029 A 
ATOM     36  N   UNL     1       0.677   5.151 -10.825  1.00  0.00    -0.354 N 
ATOM     37  C   UNL     1      -1.474   8.587  -9.316  1.00  0.00     0.074 A 
ATOM     38  C   UNL     1      -2.663   8.178  -8.598  1.00  0.00     0.031 C 
ATOM     39  C   UNL     1       1.066   2.974 -11.160  1.00  0.00     0.029 A 
ATOM     40  C   UNL     1       1.603   4.311 -11.398  1.00  0.00     0.049 A 
ATOM     41  H   UNL     1       0.783   6.129 -10.793  1.00  0.00     0.167 HD
ATOM     42  C   UNL     1      -1.057   9.870  -9.441  1.00  0.00     0.037 A 
ATOM     43  C   UNL     1       2.743   4.591 -12.060  1.00  0.00     0.037 A 
ATOM     44  C   UNL     1       0.136  10.267 -10.142  1.00  0.00     0.049 A 
ATOM     45  C   UNL     1       3.150   6.027 -12.247  1.00  0.00     0.074 A 
ATOM     46  C   UNL     1       0.635  11.542 -10.345  1.00  0.00     0.029 A 
ATOM     47  N   UNL     1       1.024   9.391 -10.750  1.00  0.00    -0.354 N 
ATOM     48  N   UNL     1       2.559   7.114 -11.810  1.00  0.00    -0.248 NA
ATOM     49  C   UNL     1       4.370   6.277 -13.027  1.00  0.00     0.031 C 
ATOM     50  C   UNL     1       1.808  11.439 -11.102  1.00  0.00     0.029 A 
ATOM     51  C   UNL     1       2.062  10.097 -11.337  1.00  0.00     0.049 A 
ATOM     52  H   UNL     1       0.930   8.411 -10.762  1.00  0.00     0.167 HD
ATOM     53  C   UNL     1       3.349   8.175 -12.240  1.00  0.00     0.074 A 
ATOM     54  C   UNL     1       4.461   7.599 -12.969  1.00  0.00     0.031 C 
ATOM     55  C   UNL     1       3.169   9.505 -12.046  1.00  0.00     0.037 A 
BRANCH  42  56
ATOM     56  C   UNL     1      -1.925  10.938  -8.834  1.00  0.00     0.058 A 
ATOM     57  C   UNL     1      -1.998  11.134  -7.446  1.00  0.00     0.135 A 
ATOM     58  C   UNL     1      -2.699  11.774  -9.655  1.00  0.00     0.135 A 
ATOM     59  F   UNL     1      -1.291  10.352  -6.615  1.00  0.00    -0.206 F 
ATOM     60  C   UNL     1      -2.837  12.096  -6.891  1.00  0.00     0.059 A 
ATOM     61  C   UNL     1      -3.526  12.759  -9.124  1.00  0.00     0.059 A 
ATOM     62  F   UNL     1      -2.665  11.630 -10.990  1.00  0.00    -0.206 F 
ATOM     63  C   UNL     1      -3.604  12.898  -7.739  1.00  0.00     0.060 A 
BRANCH  63  64
ATOM     64  S   UNL     1      -4.713  14.122  -7.009  1.00  0.00     0.124 S 
ATOM     65  O   UNL     1      -5.815  13.280  -6.554  1.00  0.00    -0.237 OA
ATOM     66  O   UNL     1      -3.889  14.709  -5.957  1.00  0.00    -0.237 OA
ATOM     67  O   UNL     1      -5.021  15.009  -8.126  1.00  0.00    -0.744 OA
ENDBRANCH  63  64
ENDBRANCH  42  56
BRANCH  43  68
ATOM     68  C   UNL     1       3.571   3.484 -12.608  1.00  0.00     0.058 A 
ATOM     69  C   UNL     1       4.817   3.169 -12.047  1.00  0.00     0.135 A 
ATOM     70  C   UNL     1       3.126   2.709 -13.691  1.00  0.00     0.135 A 
ATOM     71  F   UNL     1       5.291   3.889 -11.019  1.00  0.00    -0.206 F 
ATOM     72  C   UNL     1       5.596   2.127 -12.542  1.00  0.00     0.059 A 
ATOM     73  C   UNL     1       3.876   1.648 -14.188  1.00  0.00     0.059 A 
ATOM     74  F   UNL     1       1.937   2.966 -14.258  1.00  0.00    -0.206 F 
ATOM     75  C   UNL     1       5.114   1.370 -13.612  1.00  0.00     0.060 A 
BRANCH  75  76
ATOM     76  S   UNL     1       6.106  -0.015 -14.212  1.00  0.00     0.124 S 
ATOM     77  O   UNL     1       7.151   0.674 -14.960  1.00  0.00    -0.237 OA
ATOM     78  O   UNL     1       6.527  -0.656 -12.970  1.00  0.00    -0.237 OA
ATOM     79  O   UNL     1       5.158  -0.783 -15.014  1.00  0.00    -0.744 OA
ENDBRANCH  75  76
ENDBRANCH  43  68
BRANCH  55  80
ATOM     80  C   UNL     1       4.218  10.431 -12.593  1.00  0.00     0.058 A 
ATOM     81  C   UNL     1       4.293  10.735 -13.960  1.00  0.00     0.135 A 
ATOM     82  C   UNL     1       5.119  11.070 -11.726  1.00  0.00     0.135 A 
ATOM     83  F   UNL     1       3.459  10.145 -14.830  1.00  0.00    -0.206 F 
ATOM     84  C   UNL     1       5.234  11.633 -14.453  1.00  0.00     0.059 A 
ATOM     85  C   UNL     1       6.055  11.987 -12.194  1.00  0.00     0.059 A 
ATOM     86  F   UNL     1       5.083  10.818 -10.408  1.00  0.00    -0.206 F 
ATOM     87  C   UNL     1       6.110  12.257 -13.561  1.00  0.00     0.060 A 
BRANCH  87  88
ATOM     88  S   UNL     1       7.295  13.458 -14.203  1.00  0.00     0.124 S 
ATOM     89  O   UNL     1       8.298  12.588 -14.808  1.00  0.00    -0.237 OA
ATOM     90  O   UNL     1       6.483  14.233 -15.136  1.00  0.00    -0.237 OA
ATOM     91  O   UNL     1       7.726  14.180 -13.010  1.00  0.00    -0.744 OA
ENDBRANCH  87  88
ENDBRANCH  55  80
ENDBRANCH  29  30
ENDBRANCH  22  24
ENDBRANCH  21  22
ENDBRANCH  20  21
ENDBRANCH   1  20
TORSDOF 19
