REMARK SMILES O=C(OCCOC(=O)[C@@H]1[C@@H](C(=O)Nc2cccc(C(F)(F)F)c2)[C@@H]2C=C[C@H]1O2)c1ccc(-c2c3nc(c(-c4c(F)cc(S(=O)(=O)[O-])cc4F)c4ccc([nH]4)c(-c4c(F)cc(S(=O)(=O)[O-])cc4F)c4nc(c(-c5c(F)cc(S(=O)(=O)[O-])cc5F)c5ccc2[nH]5)C=C4)C=C3)cc1
REMARK SMILES IDX 4 1 3 2 2 3 1 4 29 5 30 6 94 7 31 8 93 9 32 10 33 11 34 12
REMARK SMILES IDX 87 13 35 14 92 15 86 16 88 17 36 18 91 19 85 20 84 21 37 23
REMARK SMILES IDX 71 24 50 25 70 26 51 27 54 28 69 29 89 30 52 31 53 32 68 34
REMARK SMILES IDX 90 35 55 36 38 37 39 38 48 39 40 40 41 41 47 42 49 43 42 44
REMARK SMILES IDX 43 45 44 46 45 47 46 48 72 49 73 50 82 51 74 52 75 53 81 54
REMARK SMILES IDX 83 55 76 56 77 57 78 58 79 59 80 60 56 61 57 62 66 63 58 64
REMARK SMILES IDX 59 65 65 66 67 67 60 68 61 69 62 70 63 71 64 72 5 73 6 74
REMARK SMILES IDX 7 75 8 76 9 77 10 78 27 79 24 80 26 81 28 82 25 83 11 84
REMARK SMILES IDX 12 85 13 86 14 88 15 89 23 90 16 91 18 92 17 93 19 94 20 95
REMARK SMILES IDX 21 96 22 97
REMARK H PARENT 88 22 54 33 13 87
REMARK Flexibility Score: inf
ROOT
ATOM      1  C   UNL     1       4.099   1.042   1.424  1.00  0.00     0.275 C 
ENDROOT
BRANCH   1   2
ATOM      2  O   UNL     1       2.929   1.302   0.601  1.00  0.00    -0.458 OA
BRANCH   2   3
ATOM      3  C   UNL     1       2.766   1.187  -0.756  1.00  0.00     0.338 C 
ATOM      4  O   UNL     1       1.789   1.690  -1.302  1.00  0.00    -0.246 OA
BRANCH   3   5
ATOM      5  C   UNL     1       3.619   0.245  -1.572  1.00  0.00     0.060 A 
ATOM      6  C   UNL     1       4.340  -0.806  -0.664  1.00  0.00     0.016 A 
ATOM      7  C   UNL     1       3.107  -0.109  -3.158  1.00  0.00     0.016 A 
ATOM      8  C   UNL     1       4.374  -2.459  -1.098  1.00  0.00     0.010 A 
ATOM      9  C   UNL     1       3.199  -1.622  -3.939  1.00  0.00     0.010 A 
ATOM     10  C   UNL     1       3.842  -2.968  -3.036  1.00  0.00    -0.014 A 
BRANCH  10  11
ATOM     11  C   UNL     1       4.412  -4.177  -4.202  1.00  0.00     0.031 A 
ATOM     12  C   UNL     1       5.475  -3.682  -5.253  1.00  0.00     0.074 A 
ATOM     13  C   UNL     1       4.817  -5.480  -3.993  1.00  0.00     0.049 A 
ATOM     14  N   UNL     1       6.302  -4.459  -5.923  1.00  0.00    -0.248 NA
ATOM     15  C   UNL     1       5.702  -2.256  -5.552  1.00  0.00     0.031 C 
ATOM     16  C   UNL     1       5.805  -5.979  -3.032  1.00  0.00     0.029 A 
ATOM     17  N   UNL     1       4.326  -6.677  -4.546  1.00  0.00    -0.354 N 
ATOM     18  C   UNL     1       7.090  -3.644  -6.714  1.00  0.00     0.074 A 
ATOM     19  C   UNL     1       6.714  -2.288  -6.415  1.00  0.00     0.031 C 
ATOM     20  C   UNL     1       5.575  -7.275  -2.787  1.00  0.00     0.029 A 
ATOM     21  C   UNL     1       4.535  -7.785  -3.681  1.00  0.00     0.049 A 
ATOM     22  H   UNL     1       3.890  -6.740  -5.427  1.00  0.00     0.167 HD
ATOM     23  C   UNL     1       7.992  -4.028  -7.645  1.00  0.00     0.037 A 
ATOM     24  C   UNL     1       4.599  -9.122  -3.924  1.00  0.00     0.037 A 
ATOM     25  C   UNL     1       8.338  -5.406  -7.907  1.00  0.00     0.049 A 
ATOM     26  C   UNL     1       5.708  -9.440  -4.886  1.00  0.00     0.074 A 
ATOM     27  C   UNL     1       9.116  -5.904  -8.938  1.00  0.00     0.029 A 
ATOM     28  N   UNL     1       7.919  -6.500  -7.156  1.00  0.00    -0.354 N 
ATOM     29  N   UNL     1       6.467  -8.585  -5.528  1.00  0.00    -0.248 NA
ATOM     30  C   UNL     1       6.059 -10.848  -5.090  1.00  0.00     0.031 C 
ATOM     31  C   UNL     1       9.084  -7.297  -8.876  1.00  0.00     0.029 A 
ATOM     32  C   UNL     1       8.370  -7.671  -7.751  1.00  0.00     0.049 A 
ATOM     33  H   UNL     1       7.385  -6.452  -6.330  1.00  0.00     0.167 HD
ATOM     34  C   UNL     1       7.359  -9.359  -6.231  1.00  0.00     0.074 A 
ATOM     35  C   UNL     1       7.183 -10.724  -5.777  1.00  0.00     0.031 C 
ATOM     36  C   UNL     1       8.143  -9.005  -7.271  1.00  0.00     0.037 A 
BRANCH  23  37
ATOM     37  C   UNL     1       8.490  -2.987  -8.609  1.00  0.00     0.058 A 
ATOM     38  C   UNL     1       9.504  -2.065  -8.323  1.00  0.00     0.135 A 
ATOM     39  C   UNL     1       7.959  -2.995  -9.912  1.00  0.00     0.135 A 
ATOM     40  F   UNL     1      10.027  -1.989  -7.089  1.00  0.00    -0.206 F 
ATOM     41  C   UNL     1       9.987  -1.198  -9.304  1.00  0.00     0.059 A 
ATOM     42  C   UNL     1       8.443  -2.164 -10.911  1.00  0.00     0.059 A 
ATOM     43  F   UNL     1       6.973  -3.850 -10.231  1.00  0.00    -0.206 F 
ATOM     44  C   UNL     1       9.461  -1.269 -10.599  1.00  0.00     0.060 A 
BRANCH  44  45
ATOM     45  S   UNL     1      10.146  -0.199 -11.881  1.00  0.00     0.124 S 
ATOM     46  O   UNL     1       9.720   1.120 -11.423  1.00  0.00    -0.237 OA
ATOM     47  O   UNL     1      11.576  -0.475 -11.779  1.00  0.00    -0.237 OA
ATOM     48  O   UNL     1       9.504  -0.674 -13.103  1.00  0.00    -0.744 OA
ENDBRANCH  44  45
ENDBRANCH  23  37
BRANCH  24  49
ATOM     49  C   UNL     1       4.151 -10.140  -2.887  1.00  0.00     0.058 A 
ATOM     50  C   UNL     1       4.997 -11.088  -2.266  1.00  0.00     0.135 A 
ATOM     51  C   UNL     1       2.803 -10.197  -2.488  1.00  0.00     0.135 A 
ATOM     52  F   UNL     1       6.323 -11.056  -2.475  1.00  0.00    -0.206 F 
ATOM     53  C   UNL     1       4.548 -12.021  -1.320  1.00  0.00     0.059 A 
ATOM     54  C   UNL     1       2.333 -11.094  -1.510  1.00  0.00     0.059 A 
ATOM     55  F   UNL     1       1.918  -9.332  -3.005  1.00  0.00    -0.206 F 
ATOM     56  C   UNL     1       3.219 -11.991  -0.918  1.00  0.00     0.060 A 
BRANCH  56  57
ATOM     57  S   UNL     1       2.726 -13.025   0.487  1.00  0.00     0.124 S 
ATOM     58  O   UNL     1       2.951 -14.369  -0.031  1.00  0.00    -0.237 OA
ATOM     59  O   UNL     1       3.655 -12.579   1.522  1.00  0.00    -0.237 OA
ATOM     60  O   UNL     1       1.331 -12.655   0.704  1.00  0.00    -0.744 OA
ENDBRANCH  56  57
ENDBRANCH  24  49
BRANCH  36  61
ATOM     61  C   UNL     1       8.669 -10.159  -8.065  1.00  0.00     0.058 A 
ATOM     62  C   UNL     1       7.768 -11.005  -8.742  1.00  0.00     0.135 A 
ATOM     63  C   UNL     1      10.037 -10.425  -8.166  1.00  0.00     0.135 A 
ATOM     64  F   UNL     1       6.443 -10.795  -8.658  1.00  0.00    -0.206 F 
ATOM     65  C   UNL     1       8.207 -12.101  -9.459  1.00  0.00     0.059 A 
ATOM     66  C   UNL     1      10.502 -11.492  -8.924  1.00  0.00     0.059 A 
ATOM     67  F   UNL     1      10.930  -9.646  -7.534  1.00  0.00    -0.206 F 
ATOM     68  C   UNL     1       9.578 -12.326  -9.558  1.00  0.00     0.060 A 
BRANCH  68  69
ATOM     69  S   UNL     1      10.128 -13.706 -10.575  1.00  0.00     0.124 S 
ATOM     70  O   UNL     1       9.680 -14.849  -9.787  1.00  0.00    -0.237 OA
ATOM     71  O   UNL     1       9.405 -13.471 -11.821  1.00  0.00    -0.237 OA
ATOM     72  O   UNL     1      11.573 -13.518 -10.646  1.00  0.00    -0.744 OA
ENDBRANCH  68  69
ENDBRANCH  36  61
ENDBRANCH  10  11
ENDBRANCH   3   5
ENDBRANCH   2   3
ENDBRANCH   1   2
BRANCH   1  73
ATOM     73  C   UNL     1       4.083  -0.281   2.273  1.00  0.00     0.274 C 
BRANCH  73  74
ATOM     74  O   UNL     1       3.732  -1.523   1.603  1.00  0.00    -0.462 OA
BRANCH  74  75
ATOM     75  C   UNL     1       2.467  -1.659   1.102  1.00  0.00     0.312 C 
ATOM     76  O   UNL     1       1.519  -1.018   1.536  1.00  0.00    -0.252 OA
BRANCH  75  77
ATOM     77  C   UNL     1       2.395  -2.597  -0.125  1.00  0.00     0.147 C 
ATOM     78  C   UNL     1       3.325  -4.090   0.083  1.00  0.00     0.129 C 
ATOM     79  C   UNL     1       2.863  -1.939  -1.819  1.00  0.00     0.157 C 
ATOM     80  C   UNL     1       4.244  -4.382  -1.433  1.00  0.00     0.155 C 
ATOM     81  C   UNL     1       4.936  -1.630  -2.559  1.00  0.00     0.004 C 
ATOM     82  O   UNL     1       2.612  -3.775  -1.908  1.00  0.00    -0.365 OA
ATOM     83  C   UNL     1       5.675  -3.163  -2.277  1.00  0.00     0.004 C 
BRANCH  78  84
ATOM     84  C   UNL     1       2.367  -5.256   0.293  1.00  0.00     0.231 C 
ATOM     85  O   UNL     1       1.146  -5.098   0.388  1.00  0.00    -0.274 OA
ATOM     86  N   UNL     1       2.841  -6.529   0.397  1.00  0.00    -0.326 N 
ATOM     87  H   UNL     1       2.135  -7.215   0.387  1.00  0.00     0.169 HD
BRANCH  86  88
ATOM     88  C   UNL     1       4.135  -7.057   0.513  1.00  0.00     0.041 A 
ATOM     89  C   UNL     1       4.277  -8.396   0.178  1.00  0.00     0.026 A 
ATOM     90  C   UNL     1       5.273  -6.354   0.905  1.00  0.00     0.039 A 
ATOM     91  C   UNL     1       5.536  -8.993   0.155  1.00  0.00     0.003 A 
ATOM     92  C   UNL     1       6.555  -6.920   0.785  1.00  0.00     0.058 A 
ATOM     93  C   UNL     1       6.676  -8.251   0.402  1.00  0.00     0.013 A 
BRANCH  92  94
ATOM     94  C   UNL     1       7.798  -6.095   0.944  1.00  0.00     0.416 C 
ATOM     95  F   UNL     1       8.797  -6.745   1.598  1.00  0.00    -0.166 F 
ATOM     96  F   UNL     1       8.310  -5.725  -0.263  1.00  0.00    -0.166 F 
ATOM     97  F   UNL     1       7.592  -4.933   1.626  1.00  0.00    -0.166 F 
ENDBRANCH  92  94
ENDBRANCH  86  88
ENDBRANCH  78  84
ENDBRANCH  75  77
ENDBRANCH  74  75
ENDBRANCH  73  74
ENDBRANCH   1  73
TORSDOF 17
