REMARK SMILES Cc1ccc2[nH]cc([C@@H](C(=O)OCCOC(=O)c3ccc(-c4c5nc(c(-c6c(F)cc(S(=O)(=O)[O-])cc6F)c6ccc([nH]6)c(-c6c(F)cc(S(=O)(=O)[O-])cc6F)c6nc(c(-c7c(F)cc(S(=O)(=O)[O-])cc7F)c7ccc4[nH]7)C=C6)C=C5)cc3)[NH+]3CCN(c4ccc(F)cc4)CC3)c2c1
REMARK SMILES IDX 14 1 13 2 12 3 10 4 11 5 9 6 8 7 1 8 2 9 3 10 98 11 4 12
REMARK SMILES IDX 97 13 5 14 6 15 7 16 84 18 85 19 96 20 86 22 95 23 87 24
REMARK SMILES IDX 88 25 89 26 94 27 90 28 93 29 91 30 92 31 15 32 16 33 17 34
REMARK SMILES IDX 18 35 19 36 83 37 20 38 82 39 21 40 22 41 23 42 76 43 24 44
REMARK SMILES IDX 81 45 75 46 77 47 25 48 80 49 74 50 73 51 26 53 60 54 39 55
REMARK SMILES IDX 59 56 40 57 43 58 58 59 78 60 41 61 42 62 57 64 79 65 44 66
REMARK SMILES IDX 27 67 28 68 37 69 29 70 30 71 36 72 38 73 31 74 32 75 33 76
REMARK SMILES IDX 34 77 35 78 61 79 62 80 71 81 63 82 64 83 70 84 72 85 65 86
REMARK SMILES IDX 66 87 67 88 68 89 69 90 45 91 46 92 55 93 47 94 48 95 54 96
REMARK SMILES IDX 56 97 49 98 50 99 51 100 52 101 53 102
REMARK H PARENT 6 17 84 21 77 52 43 63
REMARK Flexibility Score: inf
ROOT
ATOM      1  C   UNL     1      -4.269  -3.130   3.719  1.00  0.00     0.275 C 
ENDROOT
BRANCH   1   2
ATOM      2  C   UNL     1      -2.791  -3.470   3.546  1.00  0.00     0.274 C 
BRANCH   2   3
ATOM      3  O   UNL     1      -2.224  -2.716   2.456  1.00  0.00    -0.457 OA
BRANCH   3   4
ATOM      4  C   UNL     1      -2.125  -3.360   1.257  1.00  0.00     0.370 C 
ATOM      5  O   UNL     1      -2.451  -4.535   1.098  1.00  0.00    -0.245 OA
BRANCH   4   6
ATOM      6  C   UNL     1      -1.478  -2.499   0.144  1.00  0.00     0.328 C 
BRANCH   6   7
ATOM      7  C   UNL     1      -1.230  -1.052   0.475  1.00  0.00     0.046 A 
ATOM      8  C   UNL     1       3.789  -0.410  -0.279  1.00  0.00     0.044 C 
ATOM      9  C   UNL     1       2.399   0.090  -0.015  1.00  0.00    -0.050 A 
ATOM     10  C   UNL     1       2.142   1.449   0.182  1.00  0.00     0.005 A 
ATOM     11  C   UNL     1       1.344  -0.832   0.056  1.00  0.00     0.014 A 
ATOM     12  C   UNL     1       0.857   1.912   0.492  1.00  0.00     0.027 A 
ATOM     13  C   UNL     1       0.040  -0.393   0.367  1.00  0.00     0.009 A 
ATOM     14  C   UNL     1      -0.165   0.964   0.605  1.00  0.00     0.046 A 
ATOM     15  N   UNL     1      -1.488   1.119   0.938  1.00  0.00    -0.361 N 
ATOM     16  C   UNL     1      -2.122  -0.094   0.926  1.00  0.00     0.094 A 
ATOM     17  H   UNL     1      -1.919   1.978   1.155  1.00  0.00     0.166 HD
ENDBRANCH   6   7
BRANCH   6  18
ATOM     18  N   UNL     1      -2.182  -2.670  -1.145  1.00  0.00    -0.316 N 
ATOM     19  C   UNL     1      -3.551  -2.155  -1.249  1.00  0.00     0.284 C 
ATOM     20  C   UNL     1      -1.407  -2.403  -2.366  1.00  0.00     0.284 C 
ATOM     21  H   UNL     1      -2.291  -3.683  -1.098  1.00  0.00     0.349 HD
ATOM     22  C   UNL     1      -3.775  -0.779  -1.906  1.00  0.00     0.178 C 
ATOM     23  C   UNL     1      -1.573  -1.004  -3.013  1.00  0.00     0.178 C 
ATOM     24  N   UNL     1      -2.994  -0.652  -3.134  1.00  0.00    -0.360 N 
BRANCH  24  25
ATOM     25  C   UNL     1      -3.321   0.401  -3.980  1.00  0.00     0.037 A 
ATOM     26  C   UNL     1      -3.540   1.704  -3.509  1.00  0.00     0.029 A 
ATOM     27  C   UNL     1      -3.489   0.151  -5.349  1.00  0.00     0.029 A 
ATOM     28  C   UNL     1      -3.943   2.722  -4.375  1.00  0.00     0.041 A 
ATOM     29  C   UNL     1      -3.899   1.164  -6.218  1.00  0.00     0.041 A 
ATOM     30  C   UNL     1      -4.124   2.441  -5.722  1.00  0.00     0.123 A 
ATOM     31  F   UNL     1      -4.515   3.416  -6.551  1.00  0.00    -0.207 F 
ENDBRANCH  24  25
ENDBRANCH   6  18
ENDBRANCH   4   6
ENDBRANCH   3   4
ENDBRANCH   2   3
ENDBRANCH   1   2
BRANCH   1  32
ATOM     32  O   UNL     1      -5.004  -3.616   2.583  1.00  0.00    -0.458 OA
BRANCH  32  33
ATOM     33  C   UNL     1      -5.929  -2.780   2.062  1.00  0.00     0.338 C 
ATOM     34  O   UNL     1      -6.251  -1.685   2.509  1.00  0.00    -0.246 OA
BRANCH  33  35
ATOM     35  C   UNL     1      -6.497  -3.344   0.815  1.00  0.00     0.060 A 
ATOM     36  C   UNL     1      -5.745  -4.184  -0.007  1.00  0.00     0.016 A 
ATOM     37  C   UNL     1      -7.760  -2.924   0.391  1.00  0.00     0.016 A 
ATOM     38  C   UNL     1      -6.202  -4.503  -1.288  1.00  0.00     0.010 A 
ATOM     39  C   UNL     1      -8.261  -3.343  -0.848  1.00  0.00     0.010 A 
ATOM     40  C   UNL     1      -7.476  -4.113  -1.723  1.00  0.00    -0.014 A 
BRANCH  40  41
ATOM     41  C   UNL     1      -7.994  -4.492  -3.072  1.00  0.00     0.031 A 
ATOM     42  C   UNL     1      -8.567  -3.442  -3.994  1.00  0.00     0.074 A 
ATOM     43  C   UNL     1      -7.991  -5.779  -3.479  1.00  0.00     0.049 A 
ATOM     44  N   UNL     1      -9.361  -3.589  -5.024  1.00  0.00    -0.248 NA
ATOM     45  C   UNL     1      -8.216  -2.042  -3.705  1.00  0.00     0.031 C 
ATOM     46  C   UNL     1      -7.417  -6.908  -2.744  1.00  0.00     0.029 A 
ATOM     47  N   UNL     1      -8.501  -6.359  -4.617  1.00  0.00    -0.354 N 
ATOM     48  C   UNL     1      -9.670  -2.303  -5.456  1.00  0.00     0.074 A 
ATOM     49  C   UNL     1      -8.958  -1.387  -4.589  1.00  0.00     0.031 C 
ATOM     50  C   UNL     1      -7.573  -8.030  -3.459  1.00  0.00     0.029 A 
ATOM     51  C   UNL     1      -8.364  -7.727  -4.644  1.00  0.00     0.049 A 
ATOM     52  H   UNL     1      -8.923  -5.844  -5.343  1.00  0.00     0.167 HD
ATOM     53  C   UNL     1     -10.484  -1.927  -6.473  1.00  0.00     0.037 A 
ATOM     54  C   UNL     1      -8.876  -8.654  -5.476  1.00  0.00     0.037 A 
ATOM     55  C   UNL     1     -11.123  -2.848  -7.381  1.00  0.00     0.049 A 
ATOM     56  C   UNL     1      -9.790  -8.224  -6.584  1.00  0.00     0.074 A 
ATOM     57  C   UNL     1     -11.965  -2.568  -8.444  1.00  0.00     0.029 A 
ATOM     58  N   UNL     1     -10.963  -4.225  -7.353  1.00  0.00    -0.354 N 
ATOM     59  N   UNL     1     -10.183  -7.014  -6.901  1.00  0.00    -0.248 NA
ATOM     60  C   UNL     1     -10.359  -9.286  -7.424  1.00  0.00     0.031 C 
ATOM     61  C   UNL     1     -12.331  -3.777  -9.047  1.00  0.00     0.029 A 
ATOM     62  C   UNL     1     -11.690  -4.808  -8.379  1.00  0.00     0.049 A 
ATOM     63  H   UNL     1     -10.415  -4.717  -6.700  1.00  0.00     0.167 HD
ATOM     64  C   UNL     1     -11.047  -7.168  -7.977  1.00  0.00     0.074 A 
ATOM     65  C   UNL     1     -11.105  -8.587  -8.269  1.00  0.00     0.031 C 
ATOM     66  C   UNL     1     -11.738  -6.220  -8.656  1.00  0.00     0.037 A 
BRANCH  53  67
ATOM     67  C   UNL     1     -10.773  -0.460  -6.643  1.00  0.00     0.058 A 
ATOM     68  C   UNL     1      -9.841   0.428  -7.198  1.00  0.00     0.135 A 
ATOM     69  C   UNL     1     -12.036   0.049  -6.296  1.00  0.00     0.135 A 
ATOM     70  F   UNL     1      -8.615  -0.002  -7.535  1.00  0.00    -0.206 F 
ATOM     71  C   UNL     1     -10.144   1.775  -7.389  1.00  0.00     0.059 A 
ATOM     72  C   UNL     1     -12.369   1.385  -6.499  1.00  0.00     0.059 A 
ATOM     73  F   UNL     1     -12.967  -0.758  -5.763  1.00  0.00    -0.206 F 
ATOM     74  C   UNL     1     -11.411   2.244  -7.035  1.00  0.00     0.060 A 
BRANCH  74  75
ATOM     75  S   UNL     1     -11.806   3.986  -7.305  1.00  0.00     0.124 S 
ATOM     76  O   UNL     1     -11.119   4.618  -6.182  1.00  0.00    -0.237 OA
ATOM     77  O   UNL     1     -11.233   4.242  -8.623  1.00  0.00    -0.237 OA
ATOM     78  O   UNL     1     -13.264   4.017  -7.245  1.00  0.00    -0.744 OA
ENDBRANCH  74  75
ENDBRANCH  53  67
BRANCH  54  79
ATOM     79  C   UNL     1      -8.587 -10.091  -5.234  1.00  0.00     0.058 A 
ATOM     80  C   UNL     1      -7.722 -10.805  -6.074  1.00  0.00     0.135 A 
ATOM     81  C   UNL     1      -9.125 -10.762  -4.123  1.00  0.00     0.135 A 
ATOM     82  F   UNL     1      -7.195 -10.210  -7.155  1.00  0.00    -0.206 F 
ATOM     83  C   UNL     1      -7.392 -12.132  -5.818  1.00  0.00     0.059 A 
ATOM     84  C   UNL     1      -8.789 -12.079  -3.832  1.00  0.00     0.059 A 
ATOM     85  F   UNL     1      -9.949 -10.117  -3.282  1.00  0.00    -0.206 F 
ATOM     86  C   UNL     1      -7.924 -12.757  -4.689  1.00  0.00     0.060 A 
BRANCH  86  87
ATOM     87  S   UNL     1      -7.421 -14.449  -4.305  1.00  0.00     0.124 S 
ATOM     88  O   UNL     1      -8.283 -15.219  -5.194  1.00  0.00    -0.237 OA
ATOM     89  O   UNL     1      -6.001 -14.438  -4.645  1.00  0.00    -0.237 OA
ATOM     90  O   UNL     1      -7.713 -14.566  -2.880  1.00  0.00    -0.744 OA
ENDBRANCH  86  87
ENDBRANCH  54  79
BRANCH  66  91
ATOM     91  C   UNL     1     -12.594  -6.686  -9.796  1.00  0.00     0.058 A 
ATOM     92  C   UNL     1     -13.844  -7.284  -9.575  1.00  0.00     0.135 A 
ATOM     93  C   UNL     1     -12.172  -6.507 -11.123  1.00  0.00     0.135 A 
ATOM     94  F   UNL     1     -14.285  -7.486  -8.324  1.00  0.00    -0.206 F 
ATOM     95  C   UNL     1     -14.641  -7.706 -10.634  1.00  0.00     0.059 A 
ATOM     96  C   UNL     1     -12.961  -6.905 -12.197  1.00  0.00     0.059 A 
ATOM     97  F   UNL     1     -10.986  -5.936 -11.383  1.00  0.00    -0.206 F 
ATOM     98  C   UNL     1     -14.190  -7.514 -11.942  1.00  0.00     0.060 A 
BRANCH  98  99
ATOM     99  S   UNL     1     -15.241  -8.044 -13.310  1.00  0.00     0.124 S 
ATOM    100  O   UNL     1     -15.019  -9.486 -13.309  1.00  0.00    -0.237 OA
ATOM    101  O   UNL     1     -16.566  -7.607 -12.880  1.00  0.00    -0.237 OA
ATOM    102  O   UNL     1     -14.693  -7.324 -14.456  1.00  0.00    -0.744 OA
ENDBRANCH  98  99
ENDBRANCH  66  91
ENDBRANCH  40  41
ENDBRANCH  33  35
ENDBRANCH  32  33
ENDBRANCH   1  32
TORSDOF 17
