REMARK SMILES CCC([NH3+])(CC)C(=O)N1CCC[N@@H+](CC(=O)OCCOC(=O)c2ccc(-c3c4nc(c(-c5c(F)cc(S(=O)(=O)[O-])cc5F)c5ccc([nH]5)c(-c5c(F)cc(S(=O)(=O)[O-])cc5F)c5nc(c(-c6c(F)cc(S(=O)(=O)[O-])cc6F)c6ccc3[nH]6)C=C5)C=C4)cc2)CC1
REMARK SMILES IDX 15 1 16 2 14 3 13 4 12 6 11 7 10 8 9 9 7 10 8 11 3 12 2 13
REMARK SMILES IDX 1 14 4 15 5 19 6 20 90 21 89 23 17 25 18 26 19 27 20 28
REMARK SMILES IDX 21 29 22 30 23 31 24 32 88 33 25 34 87 35 26 36 27 37 28 38
REMARK SMILES IDX 81 39 29 40 86 41 80 42 82 43 30 44 85 45 79 46 78 47 31 49
REMARK SMILES IDX 65 50 44 51 64 52 45 53 48 54 63 55 83 56 46 57 47 58 62 60
REMARK SMILES IDX 84 61 49 62 32 63 33 64 42 65 34 66 35 67 41 68 43 69 36 70
REMARK SMILES IDX 37 71 38 72 39 73 40 74 66 75 67 76 76 77 68 78 69 79 75 80
REMARK SMILES IDX 77 81 70 82 71 83 72 84 73 85 74 86 50 87 51 88 60 89 52 90
REMARK SMILES IDX 53 91 59 92 61 93 54 94 55 95 56 96 57 97 58 98
REMARK H PARENT 13 5 4 16 4 17 4 18 82 48 48 59
REMARK Flexibility Score: 80.00
ROOT
ATOM      1  C   UNL     1       4.170  -5.418  -3.542  1.00  0.00     0.361 C 
ATOM      2  O   UNL     1       3.985  -6.440  -4.192  1.00  0.00    -0.245 OA
ENDROOT
BRANCH   1   3
ATOM      3  C   UNL     1       5.486  -4.635  -3.572  1.00  0.00     0.386 C 
BRANCH   3   4
ATOM      4  N   UNL     1       5.230  -3.202  -3.542  1.00  0.00    -0.324 N 
ATOM      5  H   UNL     1       4.258  -3.240  -3.236  1.00  0.00     0.348 HD
BRANCH   4   6
ATOM      6  C   UNL     1       5.157  -2.537  -4.828  1.00  0.00     0.264 C 
BRANCH   6   7
ATOM      7  C   UNL     1       4.522  -1.157  -4.698  1.00  0.00     0.083 C 
BRANCH   7   8
ATOM      8  C   UNL     1       3.333  -1.174  -3.740  1.00  0.00     0.126 C 
BRANCH   8   9
ATOM      9  N   UNL     1       3.647  -0.890  -2.345  1.00  0.00    -0.331 N 
BRANCH   9  10
ATOM     10  C   UNL     1       2.835  -0.091  -1.531  1.00  0.00     0.284 C 
ATOM     11  O   UNL     1       3.363   0.529  -0.597  1.00  0.00    -0.268 OA
BRANCH  10  12
ATOM     12  C   UNL     1       1.236  -0.261  -1.565  1.00  0.00     0.173 C 
BRANCH  12  13
ATOM     13  C   UNL     1       0.567   0.835  -0.675  1.00  0.00     0.075 C 
ATOM     14  C   UNL     1       0.657   0.665   0.839  1.00  0.00     0.011 C 
ENDBRANCH  12  13
BRANCH  12  15
ATOM     15  N   UNL     1       0.960  -1.615  -0.993  1.00  0.00    -0.345 N 
ATOM     16  H   UNL     1      -0.046  -1.783  -0.987  1.00  0.00     0.345 HD
ATOM     17  H   UNL     1       1.317  -1.659  -0.038  1.00  0.00     0.345 HD
ATOM     18  H   UNL     1       1.420  -2.325  -1.562  1.00  0.00     0.345 HD
ENDBRANCH  12  15
BRANCH  12  19
ATOM     19  C   UNL     1       0.500  -0.234  -2.926  1.00  0.00     0.075 C 
ATOM     20  C   UNL     1       0.601   1.076  -3.700  1.00  0.00     0.011 C 
ENDBRANCH  12  19
ENDBRANCH  10  12
ENDBRANCH   9  10
BRANCH   9  21
ATOM     21  C   UNL     1       4.651  -1.713  -1.642  1.00  0.00     0.181 CG0
ATOM     22  G   UNL     1       5.772  -2.409  -2.451  1.00  0.00     0.000 G0
ENDBRANCH   9  21
ENDBRANCH   8   9
ENDBRANCH   7   8
ENDBRANCH   6   7
ENDBRANCH   4   6
BRANCH   4  23
ATOM     23  C   UNL     1       5.772  -2.409  -2.451  1.00  0.00     0.284 CG0
ATOM     24  G   UNL     1       4.651  -1.713  -1.642  1.00  0.00     0.000 G0
ENDBRANCH   4  23
ENDBRANCH   3   4
ENDBRANCH   1   3
BRANCH   1  25
ATOM     25  O   UNL     1       3.282  -4.889  -2.647  1.00  0.00    -0.458 OA
BRANCH  25  26
ATOM     26  C   UNL     1       2.037  -5.592  -2.482  1.00  0.00     0.274 C 
BRANCH  26  27
ATOM     27  C   UNL     1       0.940  -4.986  -3.350  1.00  0.00     0.275 C 
BRANCH  27  28
ATOM     28  O   UNL     1       1.259  -5.174  -4.739  1.00  0.00    -0.458 OA
BRANCH  28  29
ATOM     29  C   UNL     1       1.347  -4.041  -5.461  1.00  0.00     0.338 C 
ATOM     30  O   UNL     1       1.165  -2.893  -5.081  1.00  0.00    -0.246 OA
BRANCH  29  31
ATOM     31  C   UNL     1       1.566  -4.326  -6.872  1.00  0.00     0.060 A 
ATOM     32  C   UNL     1       2.729  -4.946  -7.338  1.00  0.00     0.016 A 
ATOM     33  C   UNL     1       0.585  -3.855  -7.748  1.00  0.00     0.016 A 
ATOM     34  C   UNL     1       2.901  -5.103  -8.712  1.00  0.00     0.010 A 
ATOM     35  C   UNL     1       0.742  -4.043  -9.109  1.00  0.00     0.010 A 
ATOM     36  C   UNL     1       1.892  -4.680  -9.594  1.00  0.00    -0.014 A 
BRANCH  36  37
ATOM     37  C   UNL     1       1.899  -5.078 -11.014  1.00  0.00     0.031 A 
ATOM     38  C   UNL     1       2.142  -4.074 -12.095  1.00  0.00     0.074 A 
ATOM     39  C   UNL     1       1.510  -6.339 -11.277  1.00  0.00     0.049 A 
ATOM     40  N   UNL     1       2.013  -4.217 -13.386  1.00  0.00    -0.248 NA
ATOM     41  C   UNL     1       2.565  -2.728 -11.675  1.00  0.00     0.031 C 
ATOM     42  C   UNL     1       1.194  -7.347 -10.256  1.00  0.00     0.029 A 
ATOM     43  N   UNL     1       1.263  -6.978 -12.460  1.00  0.00    -0.354 N 
ATOM     44  C   UNL     1       2.325  -2.981 -13.938  1.00  0.00     0.074 A 
ATOM     45  C   UNL     1       2.644  -2.094 -12.839  1.00  0.00     0.031 C 
ATOM     46  C   UNL     1       0.774  -8.468 -10.857  1.00  0.00     0.029 A 
ATOM     47  C   UNL     1       0.758  -8.246 -12.296  1.00  0.00     0.049 A 
ATOM     48  H   UNL     1       1.431  -6.571 -13.341  1.00  0.00     0.167 HD
ATOM     49  C   UNL     1       2.331  -2.634 -15.248  1.00  0.00     0.037 A 
ATOM     50  C   UNL     1       0.301  -9.121 -13.207  1.00  0.00     0.037 A 
ATOM     51  C   UNL     1       1.996  -3.550 -16.309  1.00  0.00     0.049 A 
ATOM     52  C   UNL     1       0.349  -8.720 -14.649  1.00  0.00     0.074 A 
ATOM     53  C   UNL     1       2.018  -3.337 -17.675  1.00  0.00     0.029 A 
ATOM     54  N   UNL     1       1.564  -4.857 -16.114  1.00  0.00    -0.354 N 
ATOM     55  N   UNL     1       0.718  -7.571 -15.164  1.00  0.00    -0.248 NA
ATOM     56  C   UNL     1      -0.069  -9.723 -15.633  1.00  0.00     0.031 C 
ATOM     57  C   UNL     1       1.571  -4.506 -18.305  1.00  0.00     0.029 A 
ATOM     58  C   UNL     1       1.300  -5.457 -17.333  1.00  0.00     0.049 A 
ATOM     59  H   UNL     1       1.460  -5.292 -15.237  1.00  0.00     0.167 HD
ATOM     60  C   UNL     1       0.588  -7.712 -16.536  1.00  0.00     0.074 A 
ATOM     61  C   UNL     1       0.118  -9.066 -16.770  1.00  0.00     0.031 C 
ATOM     62  C   UNL     1       0.832  -6.809 -17.516  1.00  0.00     0.037 A 
BRANCH  49  63
ATOM     63  C   UNL     1       2.694  -1.220 -15.605  1.00  0.00     0.058 A 
ATOM     64  C   UNL     1       4.021  -0.763 -15.552  1.00  0.00     0.135 A 
ATOM     65  C   UNL     1       1.713  -0.322 -16.057  1.00  0.00     0.135 A 
ATOM     66  F   UNL     1       4.997  -1.575 -15.116  1.00  0.00    -0.206 F 
ATOM     67  C   UNL     1       4.360   0.537 -15.918  1.00  0.00     0.059 A 
ATOM     68  C   UNL     1       2.032   0.978 -16.444  1.00  0.00     0.059 A 
ATOM     69  F   UNL     1       0.428  -0.704 -16.125  1.00  0.00    -0.206 F 
ATOM     70  C   UNL     1       3.358   1.402 -16.361  1.00  0.00     0.060 A 
BRANCH  70  71
ATOM     71  S   UNL     1       3.812   3.083 -16.842  1.00  0.00     0.124 S 
ATOM     72  O   UNL     1       4.010   3.714 -15.541  1.00  0.00    -0.237 OA
ATOM     73  O   UNL     1       5.021   2.870 -17.632  1.00  0.00    -0.237 OA
ATOM     74  O   UNL     1       2.651   3.547 -17.595  1.00  0.00    -0.744 OA
ENDBRANCH  70  71
ENDBRANCH  49  63
BRANCH  50  75
ATOM     75  C   UNL     1      -0.220 -10.436 -12.761  1.00  0.00     0.058 A 
ATOM     76  C   UNL     1       0.540 -11.602 -12.921  1.00  0.00     0.135 A 
ATOM     77  C   UNL     1      -1.445 -10.539 -12.082  1.00  0.00     0.135 A 
ATOM     78  F   UNL     1       1.722 -11.549 -13.554  1.00  0.00    -0.206 F 
ATOM     79  C   UNL     1       0.104 -12.828 -12.430  1.00  0.00     0.059 A 
ATOM     80  C   UNL     1      -1.893 -11.750 -11.565  1.00  0.00     0.059 A 
ATOM     81  F   UNL     1      -2.193  -9.444 -11.875  1.00  0.00    -0.206 F 
ATOM     82  C   UNL     1      -1.114 -12.891 -11.751  1.00  0.00     0.060 A 
BRANCH  82  83
ATOM     83  S   UNL     1      -1.643 -14.471 -11.052  1.00  0.00     0.124 S 
ATOM     84  O   UNL     1      -2.179 -15.145 -12.229  1.00  0.00    -0.237 OA
ATOM     85  O   UNL     1      -0.395 -15.011 -10.520  1.00  0.00    -0.237 OA
ATOM     86  O   UNL     1      -2.623 -14.078 -10.045  1.00  0.00    -0.744 OA
ENDBRANCH  82  83
ENDBRANCH  50  75
BRANCH  62  87
ATOM     87  C   UNL     1       0.602  -7.272 -18.921  1.00  0.00     0.058 A 
ATOM     88  C   UNL     1      -0.691  -7.335 -19.461  1.00  0.00     0.135 A 
ATOM     89  C   UNL     1       1.686  -7.612 -19.743  1.00  0.00     0.135 A 
ATOM     90  F   UNL     1      -1.756  -7.030 -18.703  1.00  0.00    -0.206 F 
ATOM     91  C   UNL     1      -0.903  -7.732 -20.775  1.00  0.00     0.059 A 
ATOM     92  C   UNL     1       1.498  -7.995 -21.065  1.00  0.00     0.059 A 
ATOM     93  F   UNL     1       2.939  -7.562 -19.265  1.00  0.00    -0.206 F 
ATOM     94  C   UNL     1       0.198  -8.059 -21.569  1.00  0.00     0.060 A 
BRANCH  94  95
ATOM     95  S   UNL     1      -0.081  -8.531 -23.288  1.00  0.00     0.124 S 
ATOM     96  O   UNL     1      -0.503  -9.920 -23.144  1.00  0.00    -0.237 OA
ATOM     97  O   UNL     1      -1.118  -7.594 -23.709  1.00  0.00    -0.237 OA
ATOM     98  O   UNL     1       1.225  -8.330 -23.908  1.00  0.00    -0.744 OA
ENDBRANCH  94  95
ENDBRANCH  62  87
ENDBRANCH  36  37
ENDBRANCH  29  31
ENDBRANCH  28  29
ENDBRANCH  27  28
ENDBRANCH  26  27
ENDBRANCH  25  26
ENDBRANCH   1  25
TORSDOF 20
