REMARK SMILES CCCc1cc(-n2ccc(C(=O)OCCOC(=O)c3ccc(-c4c5nc(c(-c6c(F)cc(S(=O)(=O)[O-])cc6F)c6ccc([nH]6)c(-c6c(F)cc(S(=O)(=O)[O-])cc6F)c6nc(c(-c7c(F)cc(S(=O)(=O)[O-])cc7F)c7ccc4[nH]7)C=C6)C=C5)cc3)n2)nc(-c2ccc(C(F)(F)F)cc2)n1
REMARK SMILES IDX 14 1 13 2 11 3 12 4 10 5 7 6 8 7 85 8 9 9 6 10 4 11 5 12
REMARK SMILES IDX 98 13 87 14 86 15 3 16 2 17 1 18 88 19 89 20 97 21 90 22
REMARK SMILES IDX 96 23 91 24 92 25 93 26 94 27 95 28 15 29 16 30 17 31 18 32
REMARK SMILES IDX 19 33 20 34 84 35 21 36 83 37 22 38 23 39 24 40 77 41 25 42
REMARK SMILES IDX 82 43 76 44 78 45 26 46 81 47 75 48 74 49 27 51 61 52 40 53
REMARK SMILES IDX 60 54 41 55 44 56 59 57 79 58 42 59 43 60 58 62 80 63 45 64
REMARK SMILES IDX 28 65 29 66 38 67 30 68 31 69 37 70 39 71 32 72 33 73 34 74
REMARK SMILES IDX 35 75 36 76 62 77 63 78 72 79 64 80 65 81 71 82 73 83 66 84
REMARK SMILES IDX 67 85 68 86 69 87 70 88 46 89 47 90 56 91 48 92 49 93 55 94
REMARK SMILES IDX 57 95 50 96 51 97 52 98 53 99 54 100
REMARK H PARENT 78 50 44 61
REMARK Flexibility Score: inf
ROOT
ATOM      1  C   UNL     1       3.451  -4.857  -7.698  1.00  0.00     0.275 C 
ENDROOT
BRANCH   1   2
ATOM      2  O   UNL     1       2.547  -3.980  -7.003  1.00  0.00    -0.457 OA
BRANCH   2   3
ATOM      3  C   UNL     1       1.573  -4.581  -6.251  1.00  0.00     0.358 C 
ATOM      4  O   UNL     1       1.287  -5.776  -6.317  1.00  0.00    -0.244 OA
BRANCH   3   5
ATOM      5  C   UNL     1       1.032  -3.696  -5.213  1.00  0.00     0.170 A 
ATOM      6  N   UNL     1       0.632  -1.896  -4.133  1.00  0.00    -0.222 N 
ATOM      7  C   UNL     1       0.483  -2.908  -3.213  1.00  0.00     0.118 A 
ATOM      8  N   UNL     1       0.871  -2.371  -5.380  1.00  0.00    -0.159 NA
ATOM      9  C   UNL     1       0.676  -4.084  -3.893  1.00  0.00     0.058 A 
BRANCH   6  10
ATOM     10  C   UNL     1       0.507  -0.502  -3.890  1.00  0.00     0.157 A 
ATOM     11  C   UNL     1       0.697   1.362  -2.469  1.00  0.00     0.047 A 
ATOM     12  C   UNL     1       0.903   0.011  -2.671  1.00  0.00     0.073 A 
ATOM     13  N   UNL     1       0.150   2.150  -3.425  1.00  0.00    -0.233 NA
ATOM     14  C   UNL     1      -0.184   1.556  -4.588  1.00  0.00     0.161 A 
ATOM     15  N   UNL     1      -0.021   0.259  -4.866  1.00  0.00    -0.209 NA
BRANCH  11  16
ATOM     16  C   UNL     1       1.145   2.035  -1.192  1.00  0.00     0.056 C 
BRANCH  16  17
ATOM     17  C   UNL     1       0.483   1.545   0.105  1.00  0.00     0.003 C 
ATOM     18  C   UNL     1       0.938   0.171   0.581  1.00  0.00     0.004 C 
ENDBRANCH  16  17
ENDBRANCH  11  16
BRANCH  14  19
ATOM     19  C   UNL     1      -0.783   2.353  -5.656  1.00  0.00     0.019 A 
ATOM     20  C   UNL     1      -0.097   3.429  -6.234  1.00  0.00     0.012 A 
ATOM     21  C   UNL     1      -2.026   1.986  -6.202  1.00  0.00     0.012 A 
ATOM     22  C   UNL     1      -0.619   4.093  -7.350  1.00  0.00     0.014 A 
ATOM     23  C   UNL     1      -2.559   2.656  -7.306  1.00  0.00     0.014 A 
ATOM     24  C   UNL     1      -1.851   3.708  -7.902  1.00  0.00     0.056 A 
BRANCH  24  25
ATOM     25  C   UNL     1      -2.378   4.400  -9.133  1.00  0.00     0.416 C 
ATOM     26  F   UNL     1      -2.518   5.744  -8.958  1.00  0.00    -0.166 F 
ATOM     27  F   UNL     1      -1.558   4.249 -10.210  1.00  0.00    -0.166 F 
ATOM     28  F   UNL     1      -3.602   3.951  -9.534  1.00  0.00    -0.166 F 
ENDBRANCH  24  25
ENDBRANCH  14  19
ENDBRANCH   6  10
ENDBRANCH   3   5
ENDBRANCH   2   3
ENDBRANCH   1   2
BRANCH   1  29
ATOM     29  C   UNL     1       4.621  -5.279  -6.816  1.00  0.00     0.275 C 
BRANCH  29  30
ATOM     30  O   UNL     1       4.190  -6.166  -5.786  1.00  0.00    -0.458 OA
BRANCH  30  31
ATOM     31  C   UNL     1       3.928  -5.578  -4.598  1.00  0.00     0.338 C 
ATOM     32  O   UNL     1       3.786  -4.386  -4.386  1.00  0.00    -0.246 OA
BRANCH  31  33
ATOM     33  C   UNL     1       4.057  -6.568  -3.526  1.00  0.00     0.060 A 
ATOM     34  C   UNL     1       3.916  -6.090  -2.218  1.00  0.00     0.016 A 
ATOM     35  C   UNL     1       4.664  -7.796  -3.813  1.00  0.00     0.016 A 
ATOM     36  C   UNL     1       4.596  -6.736  -1.212  1.00  0.00     0.010 A 
ATOM     37  C   UNL     1       5.374  -8.415  -2.817  1.00  0.00     0.010 A 
ATOM     38  C   UNL     1       5.395  -7.828  -1.552  1.00  0.00    -0.014 A 
BRANCH  38  39
ATOM     39  C   UNL     1       6.243  -8.399  -0.530  1.00  0.00     0.031 A 
ATOM     40  C   UNL     1       5.519  -9.326   0.369  1.00  0.00     0.074 A 
ATOM     41  C   UNL     1       7.577  -8.223  -0.566  1.00  0.00     0.049 A 
ATOM     42  N   UNL     1       5.299  -9.214   1.636  1.00  0.00    -0.248 NA
ATOM     43  C   UNL     1       4.777 -10.427  -0.273  1.00  0.00     0.031 C 
ATOM     44  C   UNL     1       8.374  -7.613  -1.636  1.00  0.00     0.029 A 
ATOM     45  N   UNL     1       8.525  -8.694   0.280  1.00  0.00    -0.354 N 
ATOM     46  C   UNL     1       4.593 -10.364   1.983  1.00  0.00     0.074 A 
ATOM     47  C   UNL     1       4.091 -10.917   0.757  1.00  0.00     0.031 C 
ATOM     48  C   UNL     1       9.665  -7.989  -1.490  1.00  0.00     0.029 A 
ATOM     49  C   UNL     1       9.795  -8.775  -0.275  1.00  0.00     0.049 A 
ATOM     50  H   UNL     1       8.330  -8.956   1.209  1.00  0.00     0.167 HD
ATOM     51  C   UNL     1       4.726 -10.939   3.209  1.00  0.00     0.037 A 
ATOM     52  C   UNL     1      10.805  -9.559   0.184  1.00  0.00     0.037 A 
ATOM     53  C   UNL     1       5.273 -10.006   4.163  1.00  0.00     0.049 A 
ATOM     54  C   UNL     1      10.441  -9.967   1.575  1.00  0.00     0.074 A 
ATOM     55  C   UNL     1       4.904  -8.746   4.598  1.00  0.00     0.029 A 
ATOM     56  N   UNL     1       6.588 -10.159   4.539  1.00  0.00    -0.354 N 
ATOM     57  N   UNL     1      10.372  -9.145   2.588  1.00  0.00    -0.248 NA
ATOM     58  C   UNL     1       9.695 -11.209   1.736  1.00  0.00     0.031 C 
ATOM     59  C   UNL     1       6.129  -8.036   4.755  1.00  0.00     0.029 A 
ATOM     60  C   UNL     1       7.171  -8.918   4.469  1.00  0.00     0.049 A 
ATOM     61  H   UNL     1       7.026 -10.998   4.807  1.00  0.00     0.167 HD
ATOM     62  C   UNL     1       9.271  -9.568   3.323  1.00  0.00     0.074 A 
ATOM     63  C   UNL     1       8.938 -10.886   2.788  1.00  0.00     0.031 C 
ATOM     64  C   UNL     1       8.550  -8.701   4.095  1.00  0.00     0.037 A 
BRANCH  51  65
ATOM     65  C   UNL     1       4.729 -12.438   3.432  1.00  0.00     0.058 A 
ATOM     66  C   UNL     1       4.769 -12.928   4.753  1.00  0.00     0.135 A 
ATOM     67  C   UNL     1       4.977 -13.401   2.424  1.00  0.00     0.135 A 
ATOM     68  F   UNL     1       4.543 -12.108   5.793  1.00  0.00    -0.206 F 
ATOM     69  C   UNL     1       5.125 -14.243   5.052  1.00  0.00     0.059 A 
ATOM     70  C   UNL     1       5.271 -14.729   2.698  1.00  0.00     0.059 A 
ATOM     71  F   UNL     1       5.048 -13.096   1.125  1.00  0.00    -0.206 F 
ATOM     72  C   UNL     1       5.396 -15.129   4.015  1.00  0.00     0.060 A 
BRANCH  72  73
ATOM     73  S   UNL     1       5.990 -16.785   4.389  1.00  0.00     0.124 S 
ATOM     74  O   UNL     1       7.330 -16.501   4.890  1.00  0.00    -0.237 OA
ATOM     75  O   UNL     1       5.018 -17.238   5.378  1.00  0.00    -0.237 OA
ATOM     76  O   UNL     1       5.927 -17.463   3.098  1.00  0.00    -0.744 OA
ENDBRANCH  72  73
ENDBRANCH  51  65
BRANCH  52  77
ATOM     77  C   UNL     1      11.825 -10.295  -0.619  1.00  0.00     0.058 A 
ATOM     78  C   UNL     1      12.911 -10.932   0.009  1.00  0.00     0.135 A 
ATOM     79  C   UNL     1      11.621 -10.623  -1.976  1.00  0.00     0.135 A 
ATOM     80  F   UNL     1      13.174 -10.694   1.303  1.00  0.00    -0.206 F 
ATOM     81  C   UNL     1      13.706 -11.878  -0.648  1.00  0.00     0.059 A 
ATOM     82  C   UNL     1      12.412 -11.547  -2.657  1.00  0.00     0.059 A 
ATOM     83  F   UNL     1      10.585 -10.131  -2.669  1.00  0.00    -0.206 F 
ATOM     84  C   UNL     1      13.434 -12.196  -1.978  1.00  0.00     0.060 A 
BRANCH  84  85
ATOM     85  S   UNL     1      14.325 -13.551  -2.776  1.00  0.00     0.124 S 
ATOM     86  O   UNL     1      15.662 -12.988  -2.925  1.00  0.00    -0.237 OA
ATOM     87  O   UNL     1      14.189 -14.626  -1.800  1.00  0.00    -0.237 OA
ATOM     88  O   UNL     1      13.590 -13.751  -4.024  1.00  0.00    -0.744 OA
ENDBRANCH  84  85
ENDBRANCH  52  77
BRANCH  64  89
ATOM     89  C   UNL     1       9.120  -7.336   4.378  1.00  0.00     0.058 A 
ATOM     90  C   UNL     1       9.412  -6.377   3.393  1.00  0.00     0.135 A 
ATOM     91  C   UNL     1       9.224  -6.929   5.718  1.00  0.00     0.135 A 
ATOM     92  F   UNL     1       9.223  -6.643   2.093  1.00  0.00    -0.206 F 
ATOM     93  C   UNL     1       9.839  -5.090   3.724  1.00  0.00     0.059 A 
ATOM     94  C   UNL     1       9.613  -5.641   6.071  1.00  0.00     0.059 A 
ATOM     95  F   UNL     1       8.893  -7.776   6.706  1.00  0.00    -0.206 F 
ATOM     96  C   UNL     1       9.936  -4.730   5.068  1.00  0.00     0.060 A 
BRANCH  96  97
ATOM     97  S   UNL     1      10.418  -3.043   5.494  1.00  0.00     0.124 S 
ATOM     98  O   UNL     1      11.835  -3.033   5.146  1.00  0.00    -0.237 OA
ATOM     99  O   UNL     1       9.549  -2.239   4.640  1.00  0.00    -0.237 OA
ATOM    100  O   UNL     1      10.125  -2.955   6.923  1.00  0.00    -0.744 OA
ENDBRANCH  96  97
ENDBRANCH  64  89
ENDBRANCH  38  39
ENDBRANCH  31  33
ENDBRANCH  30  31
ENDBRANCH  29  30
ENDBRANCH   1  29
TORSDOF 19
