REMARK SMILES CCOC(=O)c1c(NC(=O)c2ncccc2C(=O)OCCOC(=O)c2ccc(-c3c4nc(c(-c5c(F)cc(S(=O)(=O)[O-])cc5F)c5ccc([nH]5)c(-c5c(F)cc(S(=O)(=O)[O-])cc5F)c5nc(c(-c6c(F)cc(S(=O)(=O)[O-])cc6F)c6ccc3[nH]6)C=C5)C=C4)cc2)sc2c1CC[C@H](C)C2
REMARK SMILES IDX 20 1 19 2 17 3 18 4 16 5 11 6 12 7 13 8 15 9 14 10 9 11 8 12
REMARK SMILES IDX 10 14 7 15 6 16 93 17 91 18 92 19 94 20 98 21 95 22 96 23
REMARK SMILES IDX 97 24 4 25 5 26 3 27 2 28 1 29 21 30 22 31 23 32 24 33 25 34
REMARK SMILES IDX 26 35 90 36 27 37 89 38 28 39 29 40 30 41 83 42 31 43 88 44
REMARK SMILES IDX 82 45 84 46 32 47 87 48 81 49 80 50 33 52 67 53 46 54 66 55
REMARK SMILES IDX 47 56 50 57 65 58 85 59 48 60 49 61 64 63 86 64 51 65 34 66
REMARK SMILES IDX 35 67 44 68 36 69 37 70 43 71 45 72 38 73 39 74 40 75 41 76
REMARK SMILES IDX 42 77 68 78 69 79 78 80 70 81 71 82 77 83 79 84 72 85 73 86
REMARK SMILES IDX 74 87 75 88 76 89 52 90 53 91 62 92 54 93 55 94 61 95 63 96
REMARK SMILES IDX 56 97 57 98 58 99 59 100 60 101
REMARK H PARENT 8 13 84 51 50 62
REMARK Flexibility Score: inf
ROOT
ATOM      1  C   UNL     1       5.827   5.247  -0.488  1.00  0.00     0.275 C 
ENDROOT
BRANCH   1   2
ATOM      2  O   UNL     1       4.753   4.306  -0.263  1.00  0.00    -0.458 OA
BRANCH   2   3
ATOM      3  C   UNL     1       3.638   4.802   0.338  1.00  0.00     0.340 C 
ATOM      4  O   UNL     1       3.475   5.934   0.764  1.00  0.00    -0.246 OA
BRANCH   3   5
ATOM      5  C   UNL     1       2.698   3.717   0.628  1.00  0.00     0.091 A 
ATOM      6  C   UNL     1       1.354   3.710   0.274  1.00  0.00     0.142 A 
ATOM      7  N   UNL     1       0.431   2.979   0.977  1.00  0.00    -0.250 NA
ATOM      8  C   UNL     1       0.869   2.219   2.000  1.00  0.00     0.112 A 
ATOM      9  C   UNL     1       3.131   2.811   1.608  1.00  0.00     0.020 A 
ATOM     10  C   UNL     1       2.203   2.046   2.303  1.00  0.00     0.021 A 
BRANCH   6  11
ATOM     11  C   UNL     1       0.705   4.528  -0.781  1.00  0.00     0.275 C 
ATOM     12  N   UNL     1       0.687   4.198  -2.127  1.00  0.00    -0.311 N 
ATOM     13  H   UNL     1      -0.085   4.550  -2.626  1.00  0.00     0.171 HD
ATOM     14  O   UNL     1       0.033   5.499  -0.414  1.00  0.00    -0.267 OA
BRANCH  12  15
ATOM     15  C   UNL     1       1.570   3.459  -2.880  1.00  0.00     0.110 A 
ATOM     16  C   UNL     1       2.390   2.358  -2.736  1.00  0.00     0.098 A 
ATOM     17  C   UNL     1       3.448   2.400  -3.736  1.00  0.00    -0.017 A 
ATOM     18  S   UNL     1       1.692   4.107  -4.458  1.00  0.00    -0.122 S 
ATOM     19  C   UNL     1       3.214   3.400  -4.664  1.00  0.00     0.011 A 
ATOM     20  C   UNL     1       4.620   1.472  -3.890  1.00  0.00     0.038 C 
ATOM     21  C   UNL     1       4.119   3.791  -5.785  1.00  0.00     0.050 C 
ATOM     22  C   UNL     1       5.637   1.947  -4.956  1.00  0.00     0.008 C 
ATOM     23  C   UNL     1       4.972   2.581  -6.200  1.00  0.00    -0.009 C 
ATOM     24  C   UNL     1       6.011   3.002  -7.240  1.00  0.00     0.008 C 
BRANCH  16  25
ATOM     25  C   UNL     1       2.161   1.315  -1.748  1.00  0.00     0.341 C 
ATOM     26  O   UNL     1       3.032   0.811  -1.065  1.00  0.00    -0.246 OA
BRANCH  25  27
ATOM     27  O   UNL     1       0.838   0.976  -1.730  1.00  0.00    -0.462 OA
BRANCH  27  28
ATOM     28  C   UNL     1       0.334   0.089  -0.729  1.00  0.00     0.230 C 
ATOM     29  C   UNL     1       0.894  -1.313  -0.788  1.00  0.00     0.049 C 
ENDBRANCH  27  28
ENDBRANCH  25  27
ENDBRANCH  16  25
ENDBRANCH  12  15
ENDBRANCH   6  11
ENDBRANCH   3   5
ENDBRANCH   2   3
ENDBRANCH   1   2
BRANCH   1  30
ATOM     30  C   UNL     1       5.864   5.772  -1.925  1.00  0.00     0.275 C 
BRANCH  30  31
ATOM     31  O   UNL     1       5.077   6.959  -2.118  1.00  0.00    -0.458 OA
BRANCH  31  32
ATOM     32  C   UNL     1       3.762   6.689  -2.252  1.00  0.00     0.338 C 
ATOM     33  O   UNL     1       3.225   5.633  -1.965  1.00  0.00    -0.246 OA
BRANCH  32  34
ATOM     34  C   UNL     1       3.042   7.649  -3.088  1.00  0.00     0.060 A 
ATOM     35  C   UNL     1       1.674   7.396  -3.211  1.00  0.00     0.016 A 
ATOM     36  C   UNL     1       3.743   8.358  -4.060  1.00  0.00     0.016 A 
ATOM     37  C   UNL     1       1.097   7.528  -4.453  1.00  0.00     0.010 A 
ATOM     38  C   UNL     1       3.117   8.601  -5.266  1.00  0.00     0.010 A 
ATOM     39  C   UNL     1       1.856   8.046  -5.508  1.00  0.00    -0.014 A 
BRANCH  39  40
ATOM     40  C   UNL     1       1.260   8.028  -6.846  1.00  0.00     0.031 A 
ATOM     41  C   UNL     1      -0.144   8.545  -6.904  1.00  0.00     0.074 A 
ATOM     42  C   UNL     1       1.975   7.697  -7.943  1.00  0.00     0.049 A 
ATOM     43  N   UNL     1      -1.193   8.006  -7.440  1.00  0.00    -0.248 NA
ATOM     44  C   UNL     1      -0.437   9.757  -6.112  1.00  0.00     0.031 C 
ATOM     45  C   UNL     1       3.399   7.348  -8.034  1.00  0.00     0.029 A 
ATOM     46  N   UNL     1       1.614   7.767  -9.251  1.00  0.00    -0.354 N 
ATOM     47  C   UNL     1      -2.241   8.893  -7.197  1.00  0.00     0.074 A 
ATOM     48  C   UNL     1      -1.757   9.857  -6.245  1.00  0.00     0.031 C 
ATOM     49  C   UNL     1       3.828   7.563  -9.296  1.00  0.00     0.029 A 
ATOM     50  C   UNL     1       2.688   7.925 -10.116  1.00  0.00     0.049 A 
ATOM     51  H   UNL     1       0.679   7.711  -9.556  1.00  0.00     0.167 HD
ATOM     52  C   UNL     1      -3.387   8.915  -7.929  1.00  0.00     0.037 A 
ATOM     53  C   UNL     1       2.641   8.457 -11.363  1.00  0.00     0.037 A 
ATOM     54  C   UNL     1      -3.589   7.703  -8.669  1.00  0.00     0.049 A 
ATOM     55  C   UNL     1       1.228   8.368 -11.820  1.00  0.00     0.074 A 
ATOM     56  C   UNL     1      -3.819   6.387  -8.322  1.00  0.00     0.029 A 
ATOM     57  N   UNL     1      -3.227   7.684  -9.993  1.00  0.00    -0.354 N 
ATOM     58  N   UNL     1       0.613   7.237 -12.045  1.00  0.00    -0.248 NA
ATOM     59  C   UNL     1       0.355   9.507 -11.569  1.00  0.00     0.031 C 
ATOM     60  C   UNL     1      -3.126   5.618  -9.301  1.00  0.00     0.029 A 
ATOM     61  C   UNL     1      -2.547   6.510 -10.204  1.00  0.00     0.049 A 
ATOM     62  H   UNL     1      -3.418   8.380 -10.664  1.00  0.00     0.167 HD
ATOM     63  C   UNL     1      -0.677   7.425 -11.565  1.00  0.00     0.074 A 
ATOM     64  C   UNL     1      -0.799   8.867 -11.359  1.00  0.00     0.031 C 
ATOM     65  C   UNL     1      -1.426   6.377 -11.107  1.00  0.00     0.037 A 
BRANCH  52  66
ATOM     66  C   UNL     1      -4.156  10.179  -8.202  1.00  0.00     0.058 A 
ATOM     67  C   UNL     1      -5.483  10.123  -8.663  1.00  0.00     0.135 A 
ATOM     68  C   UNL     1      -3.529  11.444  -8.273  1.00  0.00     0.135 A 
ATOM     69  F   UNL     1      -6.160   8.964  -8.656  1.00  0.00    -0.206 F 
ATOM     70  C   UNL     1      -6.125  11.238  -9.207  1.00  0.00     0.059 A 
ATOM     71  C   UNL     1      -4.167  12.578  -8.756  1.00  0.00     0.059 A 
ATOM     72  F   UNL     1      -2.235  11.611  -7.970  1.00  0.00    -0.206 F 
ATOM     73  C   UNL     1      -5.449  12.456  -9.264  1.00  0.00     0.060 A 
BRANCH  73  74
ATOM     74  S   UNL     1      -6.217  13.862 -10.089  1.00  0.00     0.124 S 
ATOM     75  O   UNL     1      -6.198  13.426 -11.480  1.00  0.00    -0.237 OA
ATOM     76  O   UNL     1      -7.528  13.912  -9.450  1.00  0.00    -0.237 OA
ATOM     77  O   UNL     1      -5.325  14.971  -9.764  1.00  0.00    -0.744 OA
ENDBRANCH  73  74
ENDBRANCH  52  66
BRANCH  53  78
ATOM     78  C   UNL     1       3.644   9.389 -11.951  1.00  0.00     0.058 A 
ATOM     79  C   UNL     1       3.666   9.678 -13.325  1.00  0.00     0.135 A 
ATOM     80  C   UNL     1       4.461  10.205 -11.136  1.00  0.00     0.135 A 
ATOM     81  F   UNL     1       2.894   8.980 -14.172  1.00  0.00    -0.206 F 
ATOM     82  C   UNL     1       4.434  10.724 -13.856  1.00  0.00     0.059 A 
ATOM     83  C   UNL     1       5.246  11.238 -11.643  1.00  0.00     0.059 A 
ATOM     84  F   UNL     1       4.459  10.082  -9.801  1.00  0.00    -0.206 F 
ATOM     85  C   UNL     1       5.213  11.507 -13.003  1.00  0.00     0.060 A 
BRANCH  85  86
ATOM     86  S   UNL     1       6.089  12.949 -13.653  1.00  0.00     0.124 S 
ATOM     87  O   UNL     1       7.127  12.329 -14.469  1.00  0.00    -0.237 OA
ATOM     88  O   UNL     1       5.034  13.647 -14.381  1.00  0.00    -0.237 OA
ATOM     89  O   UNL     1       6.565  13.629 -12.450  1.00  0.00    -0.744 OA
ENDBRANCH  85  86
ENDBRANCH  53  78
BRANCH  65  90
ATOM     90  C   UNL     1      -0.896   4.983 -11.328  1.00  0.00     0.058 A 
ATOM     91  C   UNL     1       0.268   4.489 -10.711  1.00  0.00     0.135 A 
ATOM     92  C   UNL     1      -1.670   4.066 -12.050  1.00  0.00     0.135 A 
ATOM     93  F   UNL     1       0.999   5.266  -9.903  1.00  0.00    -0.206 F 
ATOM     94  C   UNL     1       0.674   3.162 -10.848  1.00  0.00     0.059 A 
ATOM     95  C   UNL     1      -1.302   2.727 -12.176  1.00  0.00     0.059 A 
ATOM     96  F   UNL     1      -2.833   4.455 -12.600  1.00  0.00    -0.206 F 
ATOM     97  C   UNL     1      -0.119   2.286 -11.585  1.00  0.00     0.060 A 
BRANCH  97  98
ATOM     98  S   UNL     1       0.371   0.552 -11.698  1.00  0.00     0.124 S 
ATOM     99  O   UNL     1       1.497   0.611 -12.624  1.00  0.00    -0.237 OA
ATOM    100  O   UNL     1       0.707   0.222 -10.316  1.00  0.00    -0.237 OA
ATOM    101  O   UNL     1      -0.827  -0.107 -12.212  1.00  0.00    -0.744 OA
ENDBRANCH  97  98
ENDBRANCH  65  90
ENDBRANCH  39  40
ENDBRANCH  32  34
ENDBRANCH  31  32
ENDBRANCH  30  31
ENDBRANCH   1  30
TORSDOF 19
