REMARK SMILES O=C(OCCOC(=O)[C@H]1CS[C@H](c2cc(F)ccc2F)[NH2+]1)c1ccc(-c2c3nc(c(-c4c(F)cc(S(=O)(=O)[O-])cc4F)c4ccc([nH]4)c(-c4c(F)cc(S(=O)(=O)[O-])cc4F)c4nc(c(-c5c(F)cc(S(=O)(=O)[O-])cc5F)c5ccc2[nH]5)C=C4)C=C3)cc1
REMARK SMILES IDX 4 1 3 2 2 3 1 4 22 5 23 6 87 7 24 8 86 9 25 10 26 11 27 12
REMARK SMILES IDX 80 13 28 14 85 15 79 16 81 17 29 18 84 19 78 20 77 21 30 23
REMARK SMILES IDX 64 24 43 25 63 26 44 27 47 28 62 29 82 30 45 31 46 32 61 34
REMARK SMILES IDX 83 35 48 36 31 37 32 38 41 39 33 40 34 41 40 42 42 43 35 44
REMARK SMILES IDX 36 45 37 46 38 47 39 48 65 49 66 50 75 51 67 52 68 53 74 54
REMARK SMILES IDX 76 55 69 56 70 57 71 58 72 59 73 60 49 61 50 62 59 63 51 64
REMARK SMILES IDX 52 65 58 66 60 67 53 68 54 69 55 70 56 71 57 72 5 73 6 74
REMARK SMILES IDX 7 75 8 76 9 77 10 78 21 79 11 80 12 81 13 84 14 85 19 86
REMARK SMILES IDX 15 87 18 88 20 89 16 90 17 91
REMARK H PARENT 81 22 47 33 21 82 21 83
REMARK Flexibility Score: inf
ROOT
ATOM      1  C   UNL     1       4.165   1.277   0.801  1.00  0.00     0.275 C 
ENDROOT
BRANCH   1   2
ATOM      2  O   UNL     1       3.065   1.167  -0.124  1.00  0.00    -0.458 OA
BRANCH   2   3
ATOM      3  C   UNL     1       2.852   0.292  -1.138  1.00  0.00     0.338 C 
ATOM      4  O   UNL     1       1.887   0.489  -1.876  1.00  0.00    -0.246 OA
BRANCH   3   5
ATOM      5  C   UNL     1       3.640  -0.969  -1.355  1.00  0.00     0.060 A 
ATOM      6  C   UNL     1       4.953  -1.206  -0.937  1.00  0.00     0.016 A 
ATOM      7  C   UNL     1       2.977  -2.011  -2.035  1.00  0.00     0.016 A 
ATOM      8  C   UNL     1       5.556  -2.459  -1.101  1.00  0.00     0.010 A 
ATOM      9  C   UNL     1       3.582  -3.261  -2.219  1.00  0.00     0.010 A 
ATOM     10  C   UNL     1       4.873  -3.497  -1.731  1.00  0.00    -0.014 A 
BRANCH  10  11
ATOM     11  C   UNL     1       5.551  -4.790  -1.982  1.00  0.00     0.031 A 
ATOM     12  C   UNL     1       6.115  -5.036  -3.345  1.00  0.00     0.074 A 
ATOM     13  C   UNL     1       5.682  -5.713  -1.009  1.00  0.00     0.049 A 
ATOM     14  N   UNL     1       6.774  -6.074  -3.778  1.00  0.00    -0.248 NA
ATOM     15  C   UNL     1       5.968  -3.953  -4.332  1.00  0.00     0.031 C 
ATOM     16  C   UNL     1       5.303  -5.524   0.386  1.00  0.00     0.029 A 
ATOM     17  N   UNL     1       6.142  -7.005  -1.038  1.00  0.00    -0.354 N 
ATOM     18  C   UNL     1       7.172  -5.749  -5.065  1.00  0.00     0.074 A 
ATOM     19  C   UNL     1       6.620  -4.449  -5.373  1.00  0.00     0.031 C 
ATOM     20  C   UNL     1       5.406  -6.686   1.050  1.00  0.00     0.029 A 
ATOM     21  C   UNL     1       5.923  -7.693   0.137  1.00  0.00     0.049 A 
ATOM     22  H   UNL     1       6.585  -7.402  -1.822  1.00  0.00     0.167 HD
ATOM     23  C   UNL     1       7.965  -6.463  -5.892  1.00  0.00     0.037 A 
ATOM     24  C   UNL     1       6.127  -8.988   0.442  1.00  0.00     0.037 A 
ATOM     25  C   UNL     1       8.473  -7.769  -5.572  1.00  0.00     0.049 A 
ATOM     26  C   UNL     1       6.852  -9.831  -0.570  1.00  0.00     0.074 A 
ATOM     27  C   UNL     1       9.290  -8.584  -6.331  1.00  0.00     0.029 A 
ATOM     28  N   UNL     1       8.185  -8.461  -4.403  1.00  0.00    -0.354 N 
ATOM     29  N   UNL     1       7.296  -9.480  -1.755  1.00  0.00    -0.248 NA
ATOM     30  C   UNL     1       7.164 -11.213  -0.191  1.00  0.00     0.031 C 
ATOM     31  C   UNL     1       9.442  -9.796  -5.651  1.00  0.00     0.029 A 
ATOM     32  C   UNL     1       8.771  -9.714  -4.440  1.00  0.00     0.049 A 
ATOM     33  H   UNL     1       7.645  -8.112  -3.657  1.00  0.00     0.167 HD
ATOM     34  C   UNL     1       7.997 -10.577  -2.236  1.00  0.00     0.074 A 
ATOM     35  C   UNL     1       7.909 -11.604  -1.216  1.00  0.00     0.031 C 
ATOM     36  C   UNL     1       8.670 -10.714  -3.405  1.00  0.00     0.037 A 
BRANCH  23  37
ATOM     37  C   UNL     1       8.313  -5.848  -7.213  1.00  0.00     0.058 A 
ATOM     38  C   UNL     1       9.212  -4.773  -7.309  1.00  0.00     0.135 A 
ATOM     39  C   UNL     1       7.760  -6.351  -8.399  1.00  0.00     0.135 A 
ATOM     40  F   UNL     1       9.743  -4.232  -6.200  1.00  0.00    -0.206 F 
ATOM     41  C   UNL     1       9.548  -4.216  -8.537  1.00  0.00     0.059 A 
ATOM     42  C   UNL     1       8.099  -5.824  -9.641  1.00  0.00     0.059 A 
ATOM     43  F   UNL     1       6.880  -7.364  -8.357  1.00  0.00    -0.206 F 
ATOM     44  C   UNL     1       8.991  -4.754  -9.699  1.00  0.00     0.060 A 
BRANCH  44  45
ATOM     45  S   UNL     1       9.466  -4.043 -11.288  1.00  0.00     0.124 S 
ATOM     46  O   UNL     1       8.807  -2.741 -11.235  1.00  0.00    -0.237 OA
ATOM     47  O   UNL     1      10.922  -4.020 -11.193  1.00  0.00    -0.237 OA
ATOM     48  O   UNL     1       8.918  -4.984 -12.260  1.00  0.00    -0.744 OA
ENDBRANCH  44  45
ENDBRANCH  23  37
BRANCH  24  49
ATOM     49  C   UNL     1       5.680  -9.552   1.746  1.00  0.00     0.058 A 
ATOM     50  C   UNL     1       6.598  -9.969   2.721  1.00  0.00     0.135 A 
ATOM     51  C   UNL     1       4.314  -9.727   2.025  1.00  0.00     0.135 A 
ATOM     52  F   UNL     1       7.914  -9.820   2.510  1.00  0.00    -0.206 F 
ATOM     53  C   UNL     1       6.184 -10.583   3.901  1.00  0.00     0.059 A 
ATOM     54  C   UNL     1       3.874 -10.318   3.208  1.00  0.00     0.059 A 
ATOM     55  F   UNL     1       3.390  -9.329   1.137  1.00  0.00    -0.206 F 
ATOM     56  C   UNL     1       4.818 -10.762   4.131  1.00  0.00     0.060 A 
BRANCH  56  57
ATOM     57  S   UNL     1       4.299 -11.585   5.654  1.00  0.00     0.124 S 
ATOM     58  O   UNL     1       4.752 -12.952   5.419  1.00  0.00    -0.237 OA
ATOM     59  O   UNL     1       5.031 -10.837   6.671  1.00  0.00    -0.237 OA
ATOM     60  O   UNL     1       2.852 -11.395   5.665  1.00  0.00    -0.744 OA
ENDBRANCH  56  57
ENDBRANCH  24  49
BRANCH  36  61
ATOM     61  C   UNL     1       9.393 -12.010  -3.626  1.00  0.00     0.058 A 
ATOM     62  C   UNL     1       8.702 -13.202  -3.887  1.00  0.00     0.135 A 
ATOM     63  C   UNL     1      10.797 -12.043  -3.635  1.00  0.00     0.135 A 
ATOM     64  F   UNL     1       7.360 -13.222  -3.878  1.00  0.00    -0.206 F 
ATOM     65  C   UNL     1       9.379 -14.390  -4.128  1.00  0.00     0.059 A 
ATOM     66  C   UNL     1      11.494 -13.212  -3.908  1.00  0.00     0.059 A 
ATOM     67  F   UNL     1      11.503 -10.925  -3.399  1.00  0.00    -0.206 F 
ATOM     68  C   UNL     1      10.775 -14.383  -4.143  1.00  0.00     0.060 A 
BRANCH  68  69
ATOM     69  S   UNL     1      11.639 -15.924  -4.508  1.00  0.00     0.124 S 
ATOM     70  O   UNL     1      11.445 -16.670  -3.270  1.00  0.00    -0.237 OA
ATOM     71  O   UNL     1      10.910 -16.421  -5.671  1.00  0.00    -0.237 OA
ATOM     72  O   UNL     1      13.008 -15.490  -4.773  1.00  0.00    -0.744 OA
ENDBRANCH  68  69
ENDBRANCH  36  61
ENDBRANCH  10  11
ENDBRANCH   3   5
ENDBRANCH   2   3
ENDBRANCH   1   2
BRANCH   1  73
ATOM     73  C   UNL     1       4.069   0.333   2.000  1.00  0.00     0.274 C 
BRANCH  73  74
ATOM     74  O   UNL     1       3.478  -0.915   1.620  1.00  0.00    -0.458 OA
BRANCH  74  75
ATOM     75  C   UNL     1       2.262  -1.233   2.152  1.00  0.00     0.365 C 
ATOM     76  O   UNL     1       1.705  -0.603   3.046  1.00  0.00    -0.245 OA
BRANCH  75  77
ATOM     77  C   UNL     1       1.670  -2.449   1.421  1.00  0.00     0.304 C 
ATOM     78  C   UNL     1       2.700  -3.567   1.320  1.00  0.00     0.153 C 
ATOM     79  N   UNL     1       0.417  -2.933   2.079  1.00  0.00    -0.319 N 
ATOM     80  S   UNL     1       2.034  -4.930   2.276  1.00  0.00    -0.087 SA
ATOM     81  C   UNL     1       0.344  -4.391   1.938  1.00  0.00     0.277 C 
ATOM     82  H   UNL     1      -0.394  -2.504   1.632  1.00  0.00     0.348 HD
ATOM     83  H   UNL     1       0.423  -2.679   3.067  1.00  0.00     0.348 HD
BRANCH  81  84
ATOM     84  C   UNL     1      -0.196  -4.934   0.622  1.00  0.00     0.059 A 
ATOM     85  C   UNL     1      -0.275  -6.335   0.448  1.00  0.00     0.053 A 
ATOM     86  C   UNL     1      -0.683  -4.141  -0.428  1.00  0.00     0.133 A 
ATOM     87  C   UNL     1      -0.813  -6.888  -0.714  1.00  0.00     0.123 A 
ATOM     88  C   UNL     1      -1.212  -4.700  -1.596  1.00  0.00     0.043 A 
ATOM     89  F   UNL     1      -0.668  -2.804  -0.361  1.00  0.00    -0.206 F 
ATOM     90  F   UNL     1      -0.897  -8.219  -0.836  1.00  0.00    -0.207 F 
ATOM     91  C   UNL     1      -1.284  -6.081  -1.739  1.00  0.00     0.042 A 
ENDBRANCH  81  84
ENDBRANCH  75  77
ENDBRANCH  74  75
ENDBRANCH  73  74
ENDBRANCH   1  73
TORSDOF 15
