REMARK SMILES Cn1cccc1C(=O)N[C@](C)(C(=O)OCCOC(=O)c1ccc(-c2c3nc(c(-c4c(F)cc(S(=O)(=O)[O-])cc4F)c4ccc([nH]4)c(-c4c(F)cc(S(=O)(=O)[O-])cc4F)c4nc(c(-c5c(F)cc(S(=O)(=O)[O-])cc5F)c5ccc2[nH]5)C=C4)C=C3)cc1)C(F)(F)F
REMARK SMILES IDX 16 1 15 2 14 3 12 4 13 5 10 6 11 7 9 8 7 9 8 10 6 12 1 13
REMARK SMILES IDX 2 14 3 15 4 16 5 17 86 18 87 19 88 20 89 21 17 22 18 23
REMARK SMILES IDX 19 24 20 25 21 26 85 27 22 28 84 29 23 30 24 31 25 32 78 33
REMARK SMILES IDX 26 34 83 35 77 36 79 37 27 38 82 39 76 40 75 41 28 43 62 44
REMARK SMILES IDX 41 45 61 46 42 47 45 48 60 49 80 50 43 51 44 52 59 54 81 55
REMARK SMILES IDX 46 56 29 57 30 58 39 59 31 60 32 61 38 62 40 63 33 64 34 65
REMARK SMILES IDX 35 66 36 67 37 68 63 69 64 70 73 71 65 72 66 73 72 74 74 75
REMARK SMILES IDX 67 76 68 77 69 78 70 79 71 80 47 81 48 82 57 83 49 84 50 85
REMARK SMILES IDX 56 86 58 87 51 88 52 89 53 90 54 91 55 92
REMARK H PARENT 9 11 79 42 45 53
REMARK Flexibility Score: inf
ROOT
ATOM      1  C   UNL     1       4.716  -2.255  -3.508  1.00  0.00     0.275 C 
ENDROOT
BRANCH   1   2
ATOM      2  C   UNL     1       5.332  -2.219  -2.109  1.00  0.00     0.274 C 
BRANCH   2   3
ATOM      3  O   UNL     1       4.332  -2.384  -1.081  1.00  0.00    -0.460 OA
BRANCH   3   4
ATOM      4  C   UNL     1       3.964  -1.283  -0.365  1.00  0.00     0.341 C 
ATOM      5  O   UNL     1       4.391  -0.164  -0.612  1.00  0.00    -0.249 OA
BRANCH   4   6
ATOM      6  C   UNL     1       3.018  -1.640   0.802  1.00  0.00     0.231 C 
ATOM      7  C   UNL     1       1.625  -2.148   0.420  1.00  0.00     0.058 C 
BRANCH   6   8
ATOM      8  N   UNL     1       3.816  -2.561   1.657  1.00  0.00    -0.328 N 
ATOM      9  C   UNL     1       4.240  -3.846   1.743  1.00  0.00     0.269 C 
ATOM     10  O   UNL     1       5.223  -3.919   2.497  1.00  0.00    -0.268 OA
ATOM     11  H   UNL     1       4.155  -2.061   2.435  1.00  0.00     0.165 HD
BRANCH   9  12
ATOM     12  C   UNL     1       3.655  -5.074   1.219  1.00  0.00     0.106 A 
ATOM     13  C   UNL     1       2.682  -4.821  -1.167  1.00  0.00     0.150 C 
ATOM     14  N   UNL     1       3.006  -5.494   0.067  1.00  0.00    -0.347 N 
ATOM     15  C   UNL     1       2.764  -6.858   0.129  1.00  0.00     0.086 A 
ATOM     16  C   UNL     1       3.288  -7.354   1.288  1.00  0.00     0.020 A 
ATOM     17  C   UNL     1       3.835  -6.254   1.961  1.00  0.00     0.033 A 
ENDBRANCH   9  12
ENDBRANCH   6   8
BRANCH   6  18
ATOM     18  C   UNL     1       2.800  -0.292   1.544  1.00  0.00     0.422 C 
ATOM     19  F   UNL     1       2.168   0.627   0.783  1.00  0.00    -0.168 F 
ATOM     20  F   UNL     1       2.026  -0.483   2.645  1.00  0.00    -0.168 F 
ATOM     21  F   UNL     1       3.961   0.237   1.993  1.00  0.00    -0.168 F 
ENDBRANCH   6  18
ENDBRANCH   4   6
ENDBRANCH   3   4
ENDBRANCH   2   3
ENDBRANCH   1   2
BRANCH   1  22
ATOM     22  O   UNL     1       3.913  -1.084  -3.732  1.00  0.00    -0.458 OA
BRANCH  22  23
ATOM     23  C   UNL     1       2.576  -1.264  -3.698  1.00  0.00     0.338 C 
ATOM     24  O   UNL     1       1.972  -2.322  -3.559  1.00  0.00    -0.246 OA
BRANCH  23  25
ATOM     25  C   UNL     1       1.929   0.051  -3.660  1.00  0.00     0.060 A 
ATOM     26  C   UNL     1       1.787   0.655  -2.412  1.00  0.00     0.016 A 
ATOM     27  C   UNL     1       1.407   0.660  -4.799  1.00  0.00     0.016 A 
ATOM     28  C   UNL     1       1.117   1.860  -2.278  1.00  0.00     0.010 A 
ATOM     29  C   UNL     1       0.756   1.895  -4.670  1.00  0.00     0.010 A 
ATOM     30  C   UNL     1       0.599   2.498  -3.407  1.00  0.00    -0.014 A 
BRANCH  30  31
ATOM     31  C   UNL     1      -0.163   3.758  -3.232  1.00  0.00     0.031 A 
ATOM     32  C   UNL     1      -1.641   3.771  -3.493  1.00  0.00     0.074 A 
ATOM     33  C   UNL     1       0.456   4.865  -2.778  1.00  0.00     0.049 A 
ATOM     34  N   UNL     1      -2.462   4.785  -3.536  1.00  0.00    -0.248 NA
ATOM     35  C   UNL     1      -2.277   2.467  -3.744  1.00  0.00     0.031 C 
ATOM     36  C   UNL     1       1.872   4.955  -2.413  1.00  0.00     0.029 A 
ATOM     37  N   UNL     1      -0.029   6.125  -2.534  1.00  0.00    -0.354 N 
ATOM     38  C   UNL     1      -3.701   4.254  -3.874  1.00  0.00     0.074 A 
ATOM     39  C   UNL     1      -3.526   2.824  -4.012  1.00  0.00     0.031 C 
ATOM     40  C   UNL     1       2.135   6.196  -1.973  1.00  0.00     0.029 A 
ATOM     41  C   UNL     1       0.928   7.007  -2.091  1.00  0.00     0.049 A 
ATOM     42  H   UNL     1      -0.973   6.374  -2.664  1.00  0.00     0.167 HD
ATOM     43  C   UNL     1      -4.871   4.907  -4.062  1.00  0.00     0.037 A 
ATOM     44  C   UNL     1       0.851   8.330  -1.847  1.00  0.00     0.037 A 
ATOM     45  C   UNL     1      -5.041   6.323  -3.874  1.00  0.00     0.049 A 
ATOM     46  C   UNL     1      -0.457   9.035  -2.074  1.00  0.00     0.074 A 
ATOM     47  C   UNL     1      -6.181   7.087  -4.052  1.00  0.00     0.029 A 
ATOM     48  N   UNL     1      -4.043   7.187  -3.445  1.00  0.00    -0.354 N 
ATOM     49  N   UNL     1      -1.602   8.536  -2.475  1.00  0.00    -0.248 NA
ATOM     50  C   UNL     1      -0.481  10.485  -1.837  1.00  0.00     0.031 C 
ATOM     51  C   UNL     1      -5.866   8.418  -3.751  1.00  0.00     0.029 A 
ATOM     52  C   UNL     1      -4.539   8.476  -3.355  1.00  0.00     0.049 A 
ATOM     53  H   UNL     1      -3.119   6.921  -3.235  1.00  0.00     0.167 HD
ATOM     54  C   UNL     1      -2.482   9.608  -2.540  1.00  0.00     0.074 A 
ATOM     55  C   UNL     1      -1.744  10.780  -2.114  1.00  0.00     0.031 C 
ATOM     56  C   UNL     1      -3.782   9.625  -2.926  1.00  0.00     0.037 A 
BRANCH  43  57
ATOM     57  C   UNL     1      -6.043   4.101  -4.542  1.00  0.00     0.058 A 
ATOM     58  C   UNL     1      -6.758   3.244  -3.692  1.00  0.00     0.135 A 
ATOM     59  C   UNL     1      -6.463   4.200  -5.879  1.00  0.00     0.135 A 
ATOM     60  F   UNL     1      -6.383   3.094  -2.412  1.00  0.00    -0.206 F 
ATOM     61  C   UNL     1      -7.837   2.497  -4.156  1.00  0.00     0.059 A 
ATOM     62  C   UNL     1      -7.550   3.478  -6.360  1.00  0.00     0.059 A 
ATOM     63  F   UNL     1      -5.807   5.000  -6.735  1.00  0.00    -0.206 F 
ATOM     64  C   UNL     1      -8.222   2.617  -5.494  1.00  0.00     0.060 A 
BRANCH  64  65
ATOM     65  S   UNL     1      -9.618   1.639  -6.088  1.00  0.00     0.124 S 
ATOM     66  O   UNL     1      -9.007   0.321  -6.232  1.00  0.00    -0.237 OA
ATOM     67  O   UNL     1     -10.584   1.773  -5.003  1.00  0.00    -0.237 OA
ATOM     68  O   UNL     1      -9.987   2.299  -7.336  1.00  0.00    -0.744 OA
ENDBRANCH  64  65
ENDBRANCH  43  57
BRANCH  44  69
ATOM     69  C   UNL     1       2.062   9.074  -1.413  1.00  0.00     0.058 A 
ATOM     70  C   UNL     1       2.182   9.570  -0.107  1.00  0.00     0.135 A 
ATOM     71  C   UNL     1       3.137   9.280  -2.292  1.00  0.00     0.135 A 
ATOM     72  F   UNL     1       1.175   9.410   0.766  1.00  0.00    -0.206 F 
ATOM     73  C   UNL     1       3.324  10.246   0.313  1.00  0.00     0.059 A 
ATOM     74  C   UNL     1       4.298   9.931  -1.889  1.00  0.00     0.059 A 
ATOM     75  F   UNL     1       3.075   8.816  -3.550  1.00  0.00    -0.206 F 
ATOM     76  C   UNL     1       4.379  10.417  -0.585  1.00  0.00     0.060 A 
BRANCH  76  77
ATOM     77  S   UNL     1       5.889  11.232  -0.019  1.00  0.00     0.124 S 
ATOM     78  O   UNL     1       5.507  12.638  -0.090  1.00  0.00    -0.237 OA
ATOM     79  O   UNL     1       6.056  10.683   1.323  1.00  0.00    -0.237 OA
ATOM     80  O   UNL     1       6.886  10.797  -0.993  1.00  0.00    -0.744 OA
ENDBRANCH  76  77
ENDBRANCH  44  69
BRANCH  56  81
ATOM     81  C   UNL     1      -4.487  10.948  -2.890  1.00  0.00     0.058 A 
ATOM     82  C   UNL     1      -4.282  11.911  -3.889  1.00  0.00     0.135 A 
ATOM     83  C   UNL     1      -5.410  11.235  -1.873  1.00  0.00     0.135 A 
ATOM     84  F   UNL     1      -3.405  11.683  -4.879  1.00  0.00    -0.206 F 
ATOM     85  C   UNL     1      -4.958  13.126  -3.872  1.00  0.00     0.059 A 
ATOM     86  C   UNL     1      -6.111  12.437  -1.846  1.00  0.00     0.059 A 
ATOM     87  F   UNL     1      -5.645  10.340  -0.901  1.00  0.00    -0.206 F 
ATOM     88  C   UNL     1      -5.870  13.380  -2.845  1.00  0.00     0.060 A 
BRANCH  88  89
ATOM     89  S   UNL     1      -6.767  14.947  -2.846  1.00  0.00     0.124 S 
ATOM     90  O   UNL     1      -5.758  15.862  -2.323  1.00  0.00    -0.237 OA
ATOM     91  O   UNL     1      -7.106  15.116  -4.256  1.00  0.00    -0.237 OA
ATOM     92  O   UNL     1      -7.900  14.687  -1.964  1.00  0.00    -0.744 OA
ENDBRANCH  88  89
ENDBRANCH  56  81
ENDBRANCH  30  31
ENDBRANCH  23  25
ENDBRANCH  22  23
ENDBRANCH   1  22
TORSDOF 17
