REMARK SMILES O=C(CNC(=O)N1CC(OCCOC(=O)c2ccc(-c3c4nc(c(-c5c(F)cc(S(=O)(=O)[O-])cc5F)c5ccc([nH]5)c(-c5c(F)cc(S(=O)(=O)[O-])cc5F)c5nc(c(-c6c(F)cc(S(=O)(=O)[O-])cc6F)c6ccc3[nH]6)C=C5)C=C4)cc2)=Nc2ccccc21)N[C@H](C(=O)[O-])c1ccccc1
REMARK SMILES IDX 11 1 10 2 9 3 7 4 8 5 88 6 83 7 87 8 82 9 84 10 86 11 85 12
REMARK SMILES IDX 5 13 4 14 6 16 3 17 2 18 1 19 89 20 90 22 94 23 95 24 99 25
REMARK SMILES IDX 96 26 98 27 97 28 91 29 92 30 93 31 12 32 13 33 14 34 15 35
REMARK SMILES IDX 16 36 17 37 81 38 18 39 80 40 19 41 20 42 21 43 74 44 22 45
REMARK SMILES IDX 79 46 73 47 75 48 23 49 78 50 72 51 71 52 24 54 58 55 37 56
REMARK SMILES IDX 57 57 38 58 41 59 56 60 76 61 39 62 40 63 55 65 77 66 42 67
REMARK SMILES IDX 25 68 26 69 35 70 27 71 28 72 34 73 36 74 29 75 30 76 31 77
REMARK SMILES IDX 32 78 33 79 59 80 60 81 69 82 61 83 62 84 68 85 70 86 63 87
REMARK SMILES IDX 64 88 65 89 66 90 67 91 43 92 44 93 53 94 45 95 46 96 52 97
REMARK SMILES IDX 54 98 47 99 48 100 49 101 50 102 51 103
REMARK H PARENT 4 15 89 21 75 53 41 64
REMARK Flexibility Score: inf
ROOT
ATOM      1  C   UNL     1      -1.930  -1.200  -5.426  1.00  0.00     0.272 C 
ENDROOT
BRANCH   1   2
ATOM      2  O   UNL     1      -0.887  -2.150  -5.752  1.00  0.00    -0.476 OA
BRANCH   2   3
ATOM      3  C   UNL     1      -0.038  -1.831  -6.760  1.00  0.00     0.209 C 
ATOM      4  N   UNL     1       2.308  -2.116  -7.439  1.00  0.00    -0.283 N 
ATOM      5  C   UNL     1       1.130  -2.782  -6.896  1.00  0.00     0.224 C 
ATOM      6  C   UNL     1       2.051  -1.098  -8.419  1.00  0.00     0.072 A 
ATOM      7  C   UNL     1       0.763  -0.497  -8.450  1.00  0.00     0.091 A 
ATOM      8  C   UNL     1       3.073  -0.542  -9.199  1.00  0.00     0.029 A 
ATOM      9  N   UNL     1      -0.259  -0.828  -7.544  1.00  0.00    -0.214 NA
ATOM     10  C   UNL     1       0.536   0.635  -9.241  1.00  0.00     0.030 A 
ATOM     11  C   UNL     1       2.831   0.606  -9.967  1.00  0.00     0.002 A 
ATOM     12  C   UNL     1       1.567   1.194  -9.987  1.00  0.00     0.002 A 
BRANCH   4  13
ATOM     13  C   UNL     1       3.507  -2.782  -7.333  1.00  0.00     0.322 C 
ATOM     14  N   UNL     1       4.297  -2.512  -6.252  1.00  0.00    -0.329 N 
ATOM     15  H   UNL     1       5.086  -3.093  -6.158  1.00  0.00     0.165 HD
ATOM     16  O   UNL     1       3.852  -3.646  -8.139  1.00  0.00    -0.248 OA
BRANCH  14  17
ATOM     17  C   UNL     1       4.153  -1.496  -5.215  1.00  0.00     0.218 C 
BRANCH  17  18
ATOM     18  C   UNL     1       4.093  -2.034  -3.775  1.00  0.00     0.240 C 
ATOM     19  O   UNL     1       5.038  -2.632  -3.272  1.00  0.00    -0.273 OA
ATOM     20  N   UNL     1       2.858  -1.849  -3.204  1.00  0.00    -0.342 N 
ATOM     21  H   UNL     1       2.148  -1.536  -3.811  1.00  0.00     0.164 HD
BRANCH  20  22
ATOM     22  C   UNL     1       2.456  -2.058  -1.797  1.00  0.00     0.158 C 
BRANCH  22  23
ATOM     23  C   UNL     1       2.694  -3.486  -1.348  1.00  0.00    -0.020 A 
ATOM     24  C   UNL     1       2.189  -4.529  -2.151  1.00  0.00     0.006 A 
ATOM     25  C   UNL     1       3.365  -3.830  -0.171  1.00  0.00     0.006 A 
ATOM     26  C   UNL     1       2.344  -5.865  -1.789  1.00  0.00     0.000 A 
ATOM     27  C   UNL     1       3.507  -5.169   0.203  1.00  0.00     0.000 A 
ATOM     28  C   UNL     1       2.998  -6.185  -0.604  1.00  0.00     0.000 A 
ENDBRANCH  22  23
BRANCH  22  29
ATOM     29  C   UNL     1       2.687  -0.824  -0.862  1.00  0.00     0.068 C 
ATOM     30  O   UNL     1       2.534  -0.999   0.384  1.00  0.00    -0.548 OA
ATOM     31  O   UNL     1       2.856   0.283  -1.471  1.00  0.00    -0.548 OA
ENDBRANCH  22  29
ENDBRANCH  20  22
ENDBRANCH  17  18
ENDBRANCH  14  17
ENDBRANCH   4  13
ENDBRANCH   2   3
ENDBRANCH   1   2
BRANCH   1  32
ATOM     32  C   UNL     1      -1.540  -0.210  -4.309  1.00  0.00     0.274 C 
BRANCH  32  33
ATOM     33  O   UNL     1      -0.748   0.926  -4.749  1.00  0.00    -0.458 OA
BRANCH  33  34
ATOM     34  C   UNL     1       0.583   0.700  -4.687  1.00  0.00     0.338 C 
ATOM     35  O   UNL     1       1.071  -0.393  -4.397  1.00  0.00    -0.246 OA
BRANCH  34  36
ATOM     36  C   UNL     1       1.451   1.777  -5.221  1.00  0.00     0.060 A 
ATOM     37  C   UNL     1       2.369   1.338  -6.165  1.00  0.00     0.016 A 
ATOM     38  C   UNL     1       1.549   3.096  -4.787  1.00  0.00     0.016 A 
ATOM     39  C   UNL     1       3.378   2.130  -6.677  1.00  0.00     0.010 A 
ATOM     40  C   UNL     1       2.563   3.938  -5.324  1.00  0.00     0.010 A 
ATOM     41  C   UNL     1       3.483   3.453  -6.275  1.00  0.00    -0.014 A 
BRANCH  41  42
ATOM     42  C   UNL     1       4.588   4.209  -6.925  1.00  0.00     0.031 A 
ATOM     43  C   UNL     1       5.963   4.214  -6.317  1.00  0.00     0.074 A 
ATOM     44  C   UNL     1       4.433   4.596  -8.210  1.00  0.00     0.049 A 
ATOM     45  N   UNL     1       7.079   4.692  -6.809  1.00  0.00    -0.248 NA
ATOM     46  C   UNL     1       6.108   3.568  -5.005  1.00  0.00     0.031 C 
ATOM     47  C   UNL     1       3.196   4.451  -8.978  1.00  0.00     0.029 A 
ATOM     48  N   UNL     1       5.330   5.101  -9.121  1.00  0.00    -0.354 N 
ATOM     49  C   UNL     1       8.055   4.440  -5.852  1.00  0.00     0.074 A 
ATOM     50  C   UNL     1       7.404   3.731  -4.769  1.00  0.00     0.031 C 
ATOM     51  C   UNL     1       3.428   4.796 -10.254  1.00  0.00     0.029 A 
ATOM     52  C   UNL     1       4.808   5.256 -10.386  1.00  0.00     0.049 A 
ATOM     53  H   UNL     1       6.259   5.332  -8.890  1.00  0.00     0.167 HD
ATOM     54  C   UNL     1       9.361   4.803  -5.863  1.00  0.00     0.037 A 
ATOM     55  C   UNL     1       5.369   5.729 -11.518  1.00  0.00     0.037 A 
ATOM     56  C   UNL     1      10.000   5.514  -6.945  1.00  0.00     0.049 A 
ATOM     57  C   UNL     1       6.800   6.202 -11.477  1.00  0.00     0.074 A 
ATOM     58  C   UNL     1      11.281   6.036  -7.000  1.00  0.00     0.029 A 
ATOM     59  N   UNL     1       9.407   5.796  -8.168  1.00  0.00    -0.354 N 
ATOM     60  N   UNL     1       7.676   6.105 -10.505  1.00  0.00    -0.248 NA
ATOM     61  C   UNL     1       7.309   6.884 -12.676  1.00  0.00     0.031 C 
ATOM     62  C   UNL     1      11.446   6.675  -8.236  1.00  0.00     0.029 A 
ATOM     63  C   UNL     1      10.287   6.504  -8.975  1.00  0.00     0.049 A 
ATOM     64  H   UNL     1       8.494   5.533  -8.426  1.00  0.00     0.167 HD
ATOM     65  C   UNL     1       8.831   6.725 -10.968  1.00  0.00     0.074 A 
ATOM     66  C   UNL     1       8.560   7.149 -12.327  1.00  0.00     0.031 C 
ATOM     67  C   UNL     1      10.003   6.943 -10.320  1.00  0.00     0.037 A 
BRANCH  54  68
ATOM     68  C   UNL     1      10.152   4.552  -4.608  1.00  0.00     0.058 A 
ATOM     69  C   UNL     1      10.638   3.284  -4.254  1.00  0.00     0.135 A 
ATOM     70  C   UNL     1      10.436   5.625  -3.747  1.00  0.00     0.135 A 
ATOM     71  F   UNL     1      10.385   2.222  -5.034  1.00  0.00    -0.206 F 
ATOM     72  C   UNL     1      11.364   3.087  -3.079  1.00  0.00     0.059 A 
ATOM     73  C   UNL     1      11.178   5.456  -2.583  1.00  0.00     0.059 A 
ATOM     74  F   UNL     1       9.997   6.860  -4.039  1.00  0.00    -0.206 F 
ATOM     75  C   UNL     1      11.630   4.180  -2.251  1.00  0.00     0.060 A 
BRANCH  75  76
ATOM     76  S   UNL     1      12.607   3.932  -0.750  1.00  0.00     0.124 S 
ATOM     77  O   UNL     1      11.650   3.267   0.126  1.00  0.00    -0.237 OA
ATOM     78  O   UNL     1      13.713   3.107  -1.227  1.00  0.00    -0.237 OA
ATOM     79  O   UNL     1      12.977   5.289  -0.356  1.00  0.00    -0.744 OA
ENDBRANCH  75  76
ENDBRANCH  54  68
BRANCH  55  80
ATOM     80  C   UNL     1       4.565   5.859 -12.770  1.00  0.00     0.058 A 
ATOM     81  C   UNL     1       4.905   5.165 -13.942  1.00  0.00     0.135 A 
ATOM     82  C   UNL     1       3.456   6.720 -12.830  1.00  0.00     0.135 A 
ATOM     83  F   UNL     1       5.969   4.348 -13.954  1.00  0.00    -0.206 F 
ATOM     84  C   UNL     1       4.188   5.330 -15.127  1.00  0.00     0.059 A 
ATOM     85  C   UNL     1       2.703   6.873 -13.989  1.00  0.00     0.059 A 
ATOM     86  F   UNL     1       3.086   7.418 -11.745  1.00  0.00    -0.206 F 
ATOM     87  C   UNL     1       3.087   6.187 -15.139  1.00  0.00     0.060 A 
BRANCH  87  88
ATOM     88  S   UNL     1       2.135   6.379 -16.663  1.00  0.00     0.124 S 
ATOM     89  O   UNL     1       2.988   7.279 -17.432  1.00  0.00    -0.237 OA
ATOM     90  O   UNL     1       2.049   5.008 -17.155  1.00  0.00    -0.237 OA
ATOM     91  O   UNL     1       0.873   6.950 -16.200  1.00  0.00    -0.744 OA
ENDBRANCH  87  88
ENDBRANCH  55  80
BRANCH  67  92
ATOM     92  C   UNL     1      11.076   7.684 -11.075  1.00  0.00     0.058 A 
ATOM     93  C   UNL     1      10.957   9.054 -11.367  1.00  0.00     0.135 A 
ATOM     94  C   UNL     1      12.235   7.024 -11.513  1.00  0.00     0.135 A 
ATOM     95  F   UNL     1       9.869   9.737 -10.976  1.00  0.00    -0.206 F 
ATOM     96  C   UNL     1      11.925   9.730 -12.106  1.00  0.00     0.059 A 
ATOM     97  C   UNL     1      13.229   7.687 -12.229  1.00  0.00     0.059 A 
ATOM     98  F   UNL     1      12.411   5.720 -11.251  1.00  0.00    -0.206 F 
ATOM     99  C   UNL     1      13.054   9.035 -12.541  1.00  0.00     0.060 A 
BRANCH  99 100
ATOM    100  S   UNL     1      14.295   9.915 -13.515  1.00  0.00     0.124 S 
ATOM    101  O   UNL     1      13.643   9.999 -14.818  1.00  0.00    -0.237 OA
ATOM    102  O   UNL     1      14.429  11.178 -12.793  1.00  0.00    -0.237 OA
ATOM    103  O   UNL     1      15.462   9.040 -13.453  1.00  0.00    -0.744 OA
ENDBRANCH  99 100
ENDBRANCH  67  92
ENDBRANCH  41  42
ENDBRANCH  34  36
ENDBRANCH  33  34
ENDBRANCH  32  33
ENDBRANCH   1  32
TORSDOF 19
